data_PCOD9335038
_publ_section_title
;
Structure prediction by ZEFSAII (Michael W. Deem and Ramdas Pophale) SiO2 
 PCOD9335038
Probable space group: I 21 21 21
;
_chemical_formula_sum "Si O2"
_cell_formula_units_Z 48
_cell_length_a 29.836186
_cell_length_b 9.212635
_cell_length_c 8.849114
_cell_angle_alpha 90.000000
_cell_angle_beta 90.000000
_cell_angle_gamma 90.000000
_cell_volume 2432.355004
_symmetry_space_group_name_H-M "I 21 21 21"
_symmetry_group_IT_number 24
_symmetry_cell_setting 'orthorhombic'
loop_
_space_group_symop_operation_xyz
x,y,z
-x,1/2-y,z
x,-y,1/2-z
1/2-x,y,-z
1/2+x,1/2+y,1/2+z
1/2-x,-y,1/2+z
1/2+x,1/2-y,-z
-x,1/2+y,1/2-z
loop_
_atom_site_type_symbol
_atom_site_label
_atom_site_fract_x
_atom_site_fract_y
_atom_site_fract_z
Si Si1 0.543781 0.660748 0.062363
Si Si2 0.720705 0.869166 0.637949
Si Si3 0.374763 0.349444 0.934645
Si Si4 0.718367 0.635809 0.858535
Si Si5 0.627398 0.815183 0.916433
Si Si6 0.545139 0.328905 0.073607
O O1 0.500000 0.750000 0.010050
O O2 0.544015 0.493056 0.014287
O O3 0.543442 0.664594 0.244537
O O4 0.589024 0.732865 0.005142
O O5 0.750000 0.924281 0.500000
O O6 0.676689 0.796739 0.564477
O O7 0.742996 0.750766 0.746703
O O8 0.706975 0.000000 0.750000
O O9 0.370610 0.519515 0.977349
O O10 0.387187 0.332168 0.758391
O O11 0.410746 0.259836 0.027561
O O12 0.707061 0.500000 0.750000
O O13 0.673808 0.723156 0.914380
O O14 0.750000 0.597698 0.000000
O O15 0.500000 0.250000 0.020257
#
# Coordination Sequence:
#
# PCOD9335038 Si02
#       6
#     8   8   8   8   8   8
#     4  10  22  40  62  92 124 163 207 258 318 382
#     4  11  22  41  66  93 130 171 219 271 320 387
#     4  10  21  40  61  90 122 162 209 258 317 376
#     4  11  24  43  63  93 130 174 219 274 331 392
#     4  10  22  39  62  87 124 162 207 259 315 384
#     4  10  22  40  63  90 126 161 207 262 315 380
#
# _framework density 19.733961000000001
#
# number of rings (size 3 to 8) (size 9 to 14) (size 15 to 20)
#    0.000    1.667    3.333    2.000    4.667    4.000 
#    3.000    0.000    0.000    0.000    0.000    0.000 
#    0.000    0.000    0.000    0.000    0.000    0.000 
#
# Total GULP energy -133840.348935 kJ/mol
# GULP energy per Si atom -5576.681206 kJ/mol
# Density = 1.968905 g / cm^3
# Si number density = 19.733961 Si / 1000 Ang^3
#
#
#
# Elastic Constant Matrix: (Units=GPa)
#
#
# Indices 1 2 3 4 5 6 
#
# 1 105.5333 51.8444 43.9541 0.0000 0.0000 0.0000
# 2 51.8444 131.3938 34.2118 0.0000 0.0000 0.0000
# 3 43.9541 34.2118 32.7682 0.0000 0.0000 0.0000
# 4 0.0000 0.0000 0.0000 34.0594 0.0000 0.0000
# 5 0.0000 0.0000 0.0000 0.0000 41.3493 0.0000
# 6 0.0000 0.0000 0.0000 0.0000 0.0000 28.3442
#
#
#
# Elastic Compliance Matrix: (Units=1/GPa)
#
#
# Indices 1 2 3 4 5 6 
#
# 1 0.021643 -0.001347 -0.027625 0.000000 0.000000 0.000000
# 2 -0.001347 0.010536 -0.009193 0.000000 0.000000 0.000000
# 3 -0.027625 -0.009193 0.077171 0.000000 0.000000 0.000000
# 4 0.000000 0.000000 0.000000 0.029360 0.000000 0.000000
# 5 0.000000 0.000000 0.000000 0.000000 0.024184 0.000000
# 6 0.000000 0.000000 0.000000 0.000000 0.000000 0.035281
#
#
# Mechanical properties :
#
#
# Convention : Reuss Voigt Hill
#
# Bulk Modulus (GPa) = 30.28521 58.85732 44.57127
# Shear Modulus (GPa) = 17.51240 30.06291 23.78765
#
# Velocity S-wave (km/s) = 2.98220 3.90732 3.47568
# Velocity P-wave (km/s) = 5.21901 7.08847 6.22433
#
# Compressibility (1/GPa) = 0.03301941
#
# Stress axis : x y z
#
# Youngs Moduli (GPa) = 46.20440 94.91365 12.95824
#
# Poissons Ratio (x) = 0.12783 0.35797
# Poissons Ratio (y) = 0.06223 0.11913
# Poissons Ratio (z) = 1.27639 0.87258
#
# Static dielectric constant tensor:
#      x y z
#    x 1.676150 0.000000 0.000000 
#    y 0.000000 1.745020 0.000000 
#    z 0.000000 0.000000 1.692820 
# 
# From -- ./inp_files/16811.got.cif
#   From: 2010.05.17/outbox.cif.g08.bks.cpg/sg24_9_cif.got.tgz:16811.got - 2010.06.04 00:33:39.
