data_PCOD9335148
_publ_section_title
;
Structure prediction by ZEFSAII (Michael W. Deem and Ramdas Pophale) SiO2 
 PCOD9335148
Probable space group: I 21 21 21
;
_chemical_formula_sum "Si O2"
_cell_formula_units_Z 64
_cell_length_a 11.193841
_cell_length_b 17.535295
_cell_length_c 14.776007
_cell_angle_alpha 90.000000
_cell_angle_beta 90.000000
_cell_angle_gamma 90.000000
_cell_volume 2900.342580
_symmetry_space_group_name_H-M "I 21 21 21"
_symmetry_group_IT_number 24
_symmetry_cell_setting 'orthorhombic'
loop_
_space_group_symop_operation_xyz
x,y,z
-x,1/2-y,z
x,-y,1/2-z
1/2-x,y,-z
1/2+x,1/2+y,1/2+z
1/2-x,-y,1/2+z
1/2+x,1/2-y,-z
-x,1/2+y,1/2-z
loop_
_atom_site_type_symbol
_atom_site_label
_atom_site_fract_x
_atom_site_fract_y
_atom_site_fract_z
Si Si1 0.947434 0.618285 0.148915
Si Si2 0.299116 0.400773 0.103457
Si Si3 0.703172 0.277116 0.102483
Si Si4 0.062643 0.476681 0.148707
Si Si5 0.878975 0.712529 0.980426
Si Si6 0.821550 0.571939 0.848999
Si Si7 0.064393 0.081875 0.848932
Si Si8 0.552424 0.328487 0.842022
O O1 0.820175 0.577178 0.169487
O O2 0.995218 0.656882 0.240769
O O3 0.035985 0.556950 0.102435
O O4 0.918989 0.682654 0.077703
O O5 0.307135 0.311136 0.128966
O O6 0.196271 0.446657 0.154795
O O7 0.427845 0.434915 0.125603
O O8 0.250000 0.404212 0.000000
O O9 0.593537 0.334424 0.111785
O O10 0.807318 0.316266 0.161084
O O11 0.750000 0.278473 0.000000
O O12 0.021983 0.500000 0.250000
O O13 0.987577 0.405817 0.108874
O O14 0.849423 0.639225 0.918686
O O15 0.000000 0.750000 0.940890
O O16 0.750000 0.753444 0.000000
O O17 0.855010 0.487941 0.885418
O O18 0.900239 0.583715 0.757784
O O19 0.500000 0.250000 0.881196
#
# Coordination Sequence:
#
# PCOD9335148 Si02
#       8
#     8   8   8   8   8   8   8   8
#     4  10  21  41  67  96 126 169 221 273 332 395
#     4  11  26  43  60  94 137 171 213 272 331 407
#     4  11  24  39  65  92 124 173 218 266 334 388
#     4  10  23  39  63  91 125 167 214 267 333 393
#     4  10  23  45  67 101 135 172 227 281 336 405
#     4  10  23  42  69  96 128 169 224 273 321 398
#     4  11  24  43  65  93 132 172 221 266 329 396
#     4  11  20  37  63  91 127 164 214 274 330 386
#
# _framework density 22.066358000000001
#
# number of rings (size 3 to 8) (size 9 to 14) (size 15 to 20)
#    0.000    1.500    2.500    1.500    8.750    2.500 
#    2.250    0.000    0.000    0.000    0.000    0.000 
#    0.000    0.000    0.000    0.000    0.000    0.000 
#
# Total GULP energy -178522.507892 kJ/mol
# GULP energy per Si atom -5578.828372 kJ/mol
# Density = 2.201613 g / cm^3
# Si number density = 22.066358 Si / 1000 Ang^3
#
#
#
# Elastic Constant Matrix: (Units=GPa)
#
#
# Indices 1 2 3 4 5 6 
#
# 1 125.6228 43.8894 3.6127 0.0000 0.0000 0.0000
# 2 43.8894 88.7854 6.1787 0.0000 0.0000 0.0000
# 3 3.6127 6.1787 36.1028 0.0000 0.0000 0.0000
# 4 0.0000 0.0000 0.0000 17.2878 0.0000 0.0000
# 5 0.0000 0.0000 0.0000 0.0000 24.3590 0.0000
# 6 0.0000 0.0000 0.0000 0.0000 0.0000 37.8590
#
#
#
# Elastic Compliance Matrix: (Units=1/GPa)
#
#
# Indices 1 2 3 4 5 6 
#
# 1 0.009623 -0.004746 -0.000151 0.000000 0.000000 0.000000
# 2 -0.004746 0.013740 -0.001877 0.000000 0.000000 0.000000
# 3 -0.000151 -0.001877 0.028035 0.000000 0.000000 0.000000
# 4 0.000000 0.000000 0.000000 0.057844 0.000000 0.000000
# 5 0.000000 0.000000 0.000000 0.000000 0.041053 0.000000
# 6 0.000000 0.000000 0.000000 0.000000 0.000000 0.026414
#
#
# Mechanical properties :
#
#
# Convention : Reuss Voigt Hill
#
# Bulk Modulus (GPa) = 26.41959 39.76361 33.09160
# Shear Modulus (GPa) = 24.64598 29.02316 26.83457
#
# Velocity S-wave (km/s) = 3.34564 3.63060 3.49102
# Velocity P-wave (km/s) = 5.18875 5.96943 5.59273
#
# Compressibility (1/GPa) = 0.03785070
#
# Stress axis : x y z
#
# Youngs Moduli (GPa) = 103.91819 72.78011 35.66978
#
# Poissons Ratio (x) = 0.34545 0.00537
# Poissons Ratio (y) = 0.49324 0.06694
# Poissons Ratio (z) = 0.01565 0.13658
#
# Static dielectric constant tensor:
#      x y z
#    x 1.865160 0.000000 0.000000 
#    y 0.000000 1.883610 0.000000 
#    z 0.000000 0.000000 1.855390 
# 
# From -- ./inp_files/26000.got.cif
#   From: 2010.05.17/outbox.cif.g08.bks.cpg/sg24_13_cif.got.tgz:26000.got - 2010.06.04 00:33:39.
