data_PCOD9335292
_publ_section_title
;
Structure prediction by ZEFSAII (Michael W. Deem and Ramdas Pophale) SiO2 
 PCOD9335292
Probable space group: I 21 21 21
;
_chemical_formula_sum "Si O2"
_cell_formula_units_Z 52
_cell_length_a 5.425615
_cell_length_b 23.926009
_cell_length_c 18.782239
_cell_angle_alpha 90.000000
_cell_angle_beta 90.000000
_cell_angle_gamma 90.000000
_cell_volume 2438.184676
_symmetry_space_group_name_H-M "I 21 21 21"
_symmetry_group_IT_number 24
_symmetry_cell_setting 'orthorhombic'
loop_
_space_group_symop_operation_xyz
x,y,z
-x,1/2-y,z
x,-y,1/2-z
1/2-x,y,-z
1/2+x,1/2+y,1/2+z
1/2-x,-y,1/2+z
1/2+x,1/2-y,-z
-x,1/2+y,1/2-z
loop_
_atom_site_type_symbol
_atom_site_label
_atom_site_fract_x
_atom_site_fract_y
_atom_site_fract_z
Si Si1 0.000000 0.250000 0.681096
Si Si2 0.631726 0.693907 0.930121
Si Si3 0.250000 0.436594 0.000000
Si Si4 0.875858 0.493563 0.078983
Si Si5 0.434149 0.100818 0.675159
Si Si6 0.120396 0.879315 0.597901
Si Si7 0.084451 0.363514 0.750518
Si Si8 0.750000 0.285739 0.000000
O O1 0.815446 0.281213 0.628285
O O2 0.877518 0.201213 0.727510
O O3 0.500000 0.750000 0.957274
O O4 0.493140 0.646548 0.885940
O O5 0.750000 0.667075 0.000000
O O6 0.459099 0.397224 0.029963
O O7 0.155899 0.477167 0.061412
O O8 0.870659 0.544534 0.132647
O O9 0.768690 0.436400 0.111893
O O10 0.750000 0.503715 0.000000
O O11 0.677250 0.101343 0.724717
O O12 0.179962 0.117656 0.715909
O O13 0.263319 0.824981 0.570660
O O14 0.953443 0.866747 0.665423
O O15 0.500000 0.250000 0.004968
#
# Coordination Sequence:
#
# PCOD9335292 Si02
#       8
#     4   8   4   8   8   8   8   4
#     4  10  22  44  60  94 142 184 220 282 352 414
#     4  11  20  38  65  95 135 185 232 290 334 388
#     4  10  21  46  78  90 144 175 234 290 366 408
#     4  10  23  45  72 103 138 189 232 300 351 410
#     4  11  26  45  66 106 140 185 244 278 342 436
#     4  11  25  48  71 106 140 186 228 300 366 418
#     4  11  27  44  69 100 144 188 229 283 356 432
#     4  12  27  46  78 114 142 175 250 306 356 446
#
# _framework density 21.327341000000001
#
# number of rings (size 3 to 8) (size 9 to 14) (size 15 to 20)
#    0.000    1.231    4.615    0.923    7.538    0.615 
#    1.385    0.000    0.000    0.000    0.000    0.000 
#    0.000    0.000    0.000    0.000    0.000    0.000 
#
# Total GULP energy -145022.925954 kJ/mol
# GULP energy per Si atom -5577.804844 kJ/mol
# Density = 2.127880 g / cm^3
# Si number density = 21.327341 Si / 1000 Ang^3
#
#
#
# Elastic Constant Matrix: (Units=GPa)
#
#
# Indices 1 2 3 4 5 6 
#
# 1 81.4804 27.6460 18.2091 0.0000 0.0000 0.0000
# 2 27.6460 108.1567 43.0344 0.0000 0.0000 0.0000
# 3 18.2091 43.0344 87.8790 0.0000 0.0000 0.0000
# 4 0.0000 0.0000 0.0000 17.9852 0.0000 0.0000
# 5 0.0000 0.0000 0.0000 0.0000 30.6451 0.0000
# 6 0.0000 0.0000 0.0000 0.0000 0.0000 21.4646
#
#
#
# Elastic Compliance Matrix: (Units=1/GPa)
#
#
# Indices 1 2 3 4 5 6 
#
# 1 0.013572 -0.002919 -0.001383 0.000000 0.000000 0.000000
# 2 -0.002919 0.012111 -0.005326 0.000000 0.000000 0.000000
# 3 -0.001383 -0.005326 0.014274 0.000000 0.000000 0.000000
# 4 0.000000 0.000000 0.000000 0.055601 0.000000 0.000000
# 5 0.000000 0.000000 0.000000 0.000000 0.032632 0.000000
# 6 0.000000 0.000000 0.000000 0.000000 0.000000 0.046588
#
#
# Mechanical properties :
#
#
# Convention : Reuss Voigt Hill
#
# Bulk Modulus (GPa) = 48.30511 50.58834 49.44673
# Shear Modulus (GPa) = 24.88370 26.59410 25.73890
#
# Velocity S-wave (km/s) = 3.41948 3.53505 3.47774
# Velocity P-wave (km/s) = 6.18781 6.35874 6.27386
#
# Compressibility (1/GPa) = 0.02070174
#
# Stress axis : x y z
#
# Youngs Moduli (GPa) = 73.67929 82.56862 70.05767
#
# Poissons Ratio (x) = 0.24102 0.09688
# Poissons Ratio (y) = 0.21507 0.37313
# Poissons Ratio (z) = 0.10189 0.43976
#
# Static dielectric constant tensor:
#      x y z
#    x 1.847060 0.000000 0.000000 
#    y 0.000000 1.799850 0.000000 
#    z 0.000000 0.000000 1.764090 
# 
# From -- ./inp_files/32214.got.cif
#   From: 2010.05.17/outbox.cif.g08.bks.cpg/sg24_17_cif.got.tgz:32214.got - 2010.06.04 00:33:39.
