data_PCOD9335646
_publ_section_title
;
Structure prediction by ZEFSAII (Michael W. Deem and Ramdas Pophale) SiO2 
 PCOD9335646
Probable space group: I 21 21 21
;
_chemical_formula_sum "Si O2"
_cell_formula_units_Z 32
_cell_length_a 8.391598
_cell_length_b 5.197798
_cell_length_c 32.712393
_cell_angle_alpha 90.000000
_cell_angle_beta 90.000000
_cell_angle_gamma 90.000000
_cell_volume 1426.843639
_symmetry_space_group_name_H-M "I 21 21 21"
_symmetry_group_IT_number 24
_symmetry_cell_setting 'orthorhombic'
loop_
_space_group_symop_operation_xyz
x,y,z
-x,1/2-y,z
x,-y,1/2-z
1/2-x,y,-z
1/2+x,1/2+y,1/2+z
1/2-x,-y,1/2+z
1/2+x,1/2-y,-z
-x,1/2+y,1/2-z
loop_
_atom_site_type_symbol
_atom_site_label
_atom_site_fract_x
_atom_site_fract_y
_atom_site_fract_z
Si Si1 0.250000 0.109279 0.000000
Si Si2 0.173974 0.380834 0.082066
Si Si3 0.823229 0.753221 0.221349
Si Si4 0.000000 0.750000 0.032700
Si Si5 0.404236 0.489023 0.346020
O O1 0.257700 0.254009 0.043025
O O2 0.085518 0.955187 0.004636
O O3 0.135985 0.658842 0.063542
O O4 0.276400 0.397259 0.122342
O O5 0.000000 0.250000 0.088642
O O6 0.797178 0.500000 0.250000
O O7 0.000000 0.750000 0.200983
O O8 0.832941 0.000000 0.250000
O O9 0.685901 0.829419 0.189725
O O10 0.500000 0.750000 0.332440
O O11 0.500000 0.250000 0.366521
#
# Coordination Sequence:
#
# PCOD9335646 Si02
#       5
#     4   8   8   4   8
#     4  10  22  44  66 100 132 190 254 302 370 416
#     4  10  25  45  69 100 143 200 249 302 365 438
#     4  10  23  47  80 108 138 189 240 288 358 449
#     4  10  22  42  70  94 134 196 244 322 346 440
#     4  12  29  46  72 114 153 190 237 310 374 425
#
# _framework density 22.427123999999999
#
# number of rings (size 3 to 8) (size 9 to 14) (size 15 to 20)
#    0.000    1.500    0.000    2.250    8.750   10.000 
#    2.250    0.000    0.000    0.000    0.000    0.000 
#    0.000    0.000    0.000    0.000    0.000    0.000 
#
# Total GULP energy -89216.219573 kJ/mol
# GULP energy per Si atom -5576.013723 kJ/mol
# Density = 2.237608 g / cm^3
# Si number density = 22.427124 Si / 1000 Ang^3
#
#
#
# Elastic Constant Matrix: (Units=GPa)
#
#
# Indices 1 2 3 4 5 6 
#
# 1 94.7854 41.0477 61.2555 0.0000 0.0000 0.0000
# 2 41.0477 131.3577 39.0720 0.0000 0.0000 0.0000
# 3 61.2555 39.0720 81.4888 0.0000 0.0000 0.0000
# 4 0.0000 0.0000 0.0000 147.6803 0.0000 0.0000
# 5 0.0000 0.0000 0.0000 0.0000 211.4742 0.0000
# 6 0.0000 0.0000 0.0000 0.0000 0.0000 -31.5596
#
#
#
# Elastic Compliance Matrix: (Units=1/GPa)
#
#
# Indices 1 2 3 4 5 6 
#
# 1 0.021040 -0.002181 -0.014770 0.000000 0.000000 0.000000
# 2 -0.002181 0.009105 -0.002726 0.000000 0.000000 0.000000
# 3 -0.014770 -0.002726 0.024681 0.000000 0.000000 0.000000
# 4 0.000000 0.000000 0.000000 0.006771 0.000000 0.000000
# 5 0.000000 0.000000 0.000000 0.000000 0.004729 0.000000
# 6 0.000000 0.000000 0.000000 0.000000 0.000000 -0.031686
#
#
# Mechanical properties :
#
#
# Convention : Reuss Voigt Hill
#
# Bulk Modulus (GPa) = 64.63330 65.59804 65.11567
# Shear Modulus (GPa) = 63.16911 76.60275 69.88593
#
# Velocity S-wave (km/s) = 5.31296 5.85068 5.58829
# Velocity P-wave (km/s) = 8.15589 8.65757 8.41047
#
# Compressibility (1/GPa) = 0.01547190
#
# Stress axis : x y z
#
# Youngs Moduli (GPa) = 47.52857 109.82592 40.51651
#
# Poissons Ratio (x) = 0.23958 0.59843
# Poissons Ratio (y) = 0.10368 0.11045
# Poissons Ratio (z) = 0.70199 0.29938
#
# Static dielectric constant tensor:
#      x y z
#    x 1.904610 0.000000 0.000000 
#    y 0.000000 1.574670 0.000000 
#    z 0.000000 0.000000 1.786600 
# 
# From -- ./inp_files/37772.got.cif
#   From: 2010.05.17/outbox.cif.g08.bks.cpg/sg24_19_cif.got.tgz:37772.got - 2010.06.04 00:33:39.
