data_PCOD9335671
_publ_section_title
;
Structure prediction by ZEFSAII (Michael W. Deem and Ramdas Pophale) SiO2 
 PCOD9335671
Probable space group: I 21 21 21
;
_chemical_formula_sum "Si O2"
_cell_formula_units_Z 44
_cell_length_a 9.824613
_cell_length_b 14.686104
_cell_length_c 15.618305
_cell_angle_alpha 90.000000
_cell_angle_beta 90.000000
_cell_angle_gamma 90.000000
_cell_volume 2253.491639
_symmetry_space_group_name_H-M "I 21 21 21"
_symmetry_group_IT_number 24
_symmetry_cell_setting 'orthorhombic'
loop_
_space_group_symop_operation_xyz
x,y,z
-x,1/2-y,z
x,-y,1/2-z
1/2-x,y,-z
1/2+x,1/2+y,1/2+z
1/2-x,-y,1/2+z
1/2+x,1/2-y,-z
-x,1/2+y,1/2-z
loop_
_atom_site_type_symbol
_atom_site_label
_atom_site_fract_x
_atom_site_fract_y
_atom_site_fract_z
Si Si1 0.107469 0.478097 0.914757
Si Si2 0.211952 0.841156 0.259751
Si Si3 0.162741 0.269433 0.917391
Si Si4 0.580081 0.500000 0.250000
Si Si5 0.112024 0.432377 0.419438
Si Si6 0.020521 0.000000 0.250000
Si Si7 0.500000 0.250000 0.627965
O O1 0.174404 0.378655 0.912046
O O2 0.226289 0.553470 0.913381
O O3 0.008461 0.483117 0.834690
O O4 0.048942 0.500145 0.008984
O O5 0.273411 0.777395 0.333329
O O6 0.332174 0.909152 0.229348
O O7 0.124563 0.786036 0.188735
O O8 0.107446 0.918650 0.292131
O O9 0.000000 0.250000 0.924693
O O10 0.250000 0.238662 0.000000
O O11 0.064448 0.457632 0.325107
O O12 0.058593 0.330666 0.430222
#
# Coordination Sequence:
#
# PCOD9335671 Si02
#       7
#     8   8   8   4   8   4   4
#     4  11  24  42  65  93 139 171 222 269 350 399
#     4  10  24  40  65  95 127 172 226 273 334 394
#     4  12  26  41  65 102 136 177 227 277 339 411
#     4  11  23  46  62  98 133 179 216 284 339 396
#     4  10  22  43  63  97 124 180 220 274 339 402
#     4   9  21  40  66  88 133 169 220 278 333 384
#     4  10  24  44  68  94 124 172 236 276 330 414
#
# _framework density 19.525255999999999
#
# number of rings (size 3 to 8) (size 9 to 14) (size 15 to 20)
#    0.000    1.455    3.636    0.545   11.455    0.000 
#    6.545    6.364    0.000    0.000    0.000    0.000 
#    0.000    0.000    0.000    0.000    0.000    0.000 
#
# Total GULP energy -122570.920470 kJ/mol
# GULP energy per Si atom -5571.405476 kJ/mol
# Density = 1.948082 g / cm^3
# Si number density = 19.525256 Si / 1000 Ang^3
#
#
#
# Elastic Constant Matrix: (Units=GPa)
#
#
# Indices 1 2 3 4 5 6 
#
# 1 80.3352 17.4122 34.6026 0.0000 0.0000 0.0000
# 2 17.4122 109.8988 27.6792 0.0000 0.0000 0.0000
# 3 34.6026 27.6792 75.0614 0.0000 0.0000 0.0000
# 4 0.0000 0.0000 0.0000 35.9554 0.0000 0.0000
# 5 0.0000 0.0000 0.0000 0.0000 22.1981 0.0000
# 6 0.0000 0.0000 0.0000 0.0000 0.0000 5.9028
#
#
#
# Elastic Compliance Matrix: (Units=1/GPa)
#
#
# Indices 1 2 3 4 5 6 
#
# 1 0.015584 -0.000727 -0.006916 0.000000 0.000000 0.000000
# 2 -0.000727 0.010065 -0.003376 0.000000 0.000000 0.000000
# 3 -0.006916 -0.003376 0.017756 0.000000 0.000000 0.000000
# 4 0.000000 0.000000 0.000000 0.027812 0.000000 0.000000
# 5 0.000000 0.000000 0.000000 0.000000 0.045049 0.000000
# 6 0.000000 0.000000 0.000000 0.000000 0.000000 0.169410
#
#
# Mechanical properties :
#
#
# Convention : Reuss Voigt Hill
#
# Bulk Modulus (GPa) = 46.80371 47.18704 46.99537
# Shear Modulus (GPa) = 15.88121 25.18469 20.53295
#
# Velocity S-wave (km/s) = 2.85505 3.59535 3.24637
# Velocity P-wave (km/s) = 5.90689 6.43856 6.17844
#
# Compressibility (1/GPa) = 0.02136583
#
# Stress axis : x y z
#
# Youngs Moduli (GPa) = 64.16668 99.35576 56.32010
#
# Poissons Ratio (x) = 0.07226 0.38951
# Poissons Ratio (y) = 0.04667 0.19015
# Poissons Ratio (z) = 0.44378 0.33544
#
# Static dielectric constant tensor:
#      x y z
#    x 1.735730 0.000000 0.000000 
#    y 0.000000 1.693260 0.000000 
#    z 0.000000 0.000000 1.726520 
# 
# From -- ./inp_files/29442.got.cif
#   From: 2010.05.17/outbox.cif.g08.bks.cpg/sg24_15_cif.got.tgz:29442.got - 2010.06.04 00:33:39.
