data_PCOD9335571
_publ_section_title
;
Structure prediction by ZEFSAII (Michael W. Deem and Ramdas Pophale) SiO2 
 PCOD9335571
Probable space group: I 21 21 21
;
_chemical_formula_sum "Si O2"
_cell_formula_units_Z 56
_cell_length_a 13.976784
_cell_length_b 15.796782
_cell_length_c 10.117997
_cell_angle_alpha 90.000000
_cell_angle_beta 90.000000
_cell_angle_gamma 90.000000
_cell_volume 2233.934445
_symmetry_space_group_name_H-M "I 21 21 21"
_symmetry_group_IT_number 24
_symmetry_cell_setting 'orthorhombic'
loop_
_space_group_symop_operation_xyz
x,y,z
-x,1/2-y,z
x,-y,1/2-z
1/2-x,y,-z
1/2+x,1/2+y,1/2+z
1/2-x,-y,1/2+z
1/2+x,1/2-y,-z
-x,1/2+y,1/2-z
loop_
_atom_site_type_symbol
_atom_site_label
_atom_site_fract_x
_atom_site_fract_y
_atom_site_fract_z
Si Si1 0.439028 0.881965 0.468654
Si Si2 0.890687 0.278367 0.732597
Si Si3 0.375518 0.093486 0.732231
Si Si4 0.308821 0.722082 0.793768
Si Si5 0.861639 0.924477 0.028349
Si Si6 0.554762 0.429554 0.442423
Si Si7 0.358233 0.387120 0.948402
O O1 0.381975 0.814711 0.382099
O O2 0.421643 0.884179 0.625843
O O3 0.553463 0.869341 0.453468
O O4 0.411902 0.975193 0.416521
O O5 0.806175 0.211937 0.706054
O O6 0.886969 0.358470 0.632705
O O7 0.000000 0.250000 0.715969
O O8 0.317773 0.177560 0.698459
O O9 0.440965 0.083306 0.601866
O O10 0.329468 0.000000 0.750000
O O11 0.363387 0.667202 0.902859
O O12 0.355923 0.683927 0.662862
O O13 0.878996 0.016165 0.099575
O O14 0.750000 0.931974 0.000000
O O15 0.941270 0.925648 0.914241
O O16 0.250000 0.386496 0.000000
#
# Coordination Sequence:
#
# PCOD9335571 Si02
#       7
#     8   8   8   8   8   8   8
#     4  10  23  46  70  97 136 184 234 293 353 415
#     4  12  27  42  65 103 143 179 229 283 359 427
#     4  10  25  44  69 100 132 182 239 285 344 416
#     4  12  26  40  69  97 140 182 236 288 346 422
#     4  10  22  41  67  99 135 177 231 290 351 418
#     4  10  23  46  70  97 136 184 234 293 353 415
#     4  10  22  41  67  99 135 177 231 290 351 418
#
# _framework density 25.067879000000001
#
# number of rings (size 3 to 8) (size 9 to 14) (size 15 to 20)
#    0.000    1.429    0.000    3.429    8.000    4.571 
#    0.000    8.571    0.000    0.000    0.000    0.000 
#    0.000    0.000    0.000    0.000    0.000    0.000 
#
# Total GULP energy -156343.960740 kJ/mol
# GULP energy per Si atom -5583.712884 kJ/mol
# Density = 2.501082 g / cm^3
# Si number density = 25.067879 Si / 1000 Ang^3
#
#
#
# Elastic Constant Matrix: (Units=GPa)
#
#
# Indices 1 2 3 4 5 6 
#
# 1 50.0522 22.2737 -7.8546 0.0000 0.0000 0.0000
# 2 22.2737 152.7631 18.5846 0.0000 0.0000 0.0000
# 3 -7.8546 18.5846 61.3681 0.0000 0.0000 0.0000
# 4 0.0000 0.0000 0.0000 41.2529 0.0000 0.0000
# 5 0.0000 0.0000 0.0000 0.0000 23.1571 0.0000
# 6 0.0000 0.0000 0.0000 0.0000 0.0000 64.6212
#
#
#
# Elastic Compliance Matrix: (Units=1/GPa)
#
#
# Indices 1 2 3 4 5 6 
#
# 1 0.022264 -0.003730 0.003979 0.000000 0.000000 0.000000
# 2 -0.003730 0.007421 -0.002725 0.000000 0.000000 0.000000
# 3 0.003979 -0.002725 0.017630 0.000000 0.000000 0.000000
# 4 0.000000 0.000000 0.000000 0.024241 0.000000 0.000000
# 5 0.000000 0.000000 0.000000 0.000000 0.043183 0.000000
# 6 0.000000 0.000000 0.000000 0.000000 0.000000 0.015475
#
#
# Mechanical properties :
#
#
# Convention : Reuss Voigt Hill
#
# Bulk Modulus (GPa) = 23.60563 36.68785 30.14674
# Shear Modulus (GPa) = 33.49265 41.21821 37.35543
#
# Velocity S-wave (km/s) = 3.65921 4.05935 3.86446
# Velocity P-wave (km/s) = 5.22400 6.05296 5.65369
#
# Compressibility (1/GPa) = 0.04236278
#
# Stress axis : x y z
#
# Youngs Moduli (GPa) = 44.91636 134.74398 56.72267
#
# Poissons Ratio (x) = 0.50263 -0.22571
# Poissons Ratio (y) = 0.16755 0.15457
# Poissons Ratio (z) = -0.17873 0.36717
#
# Static dielectric constant tensor:
#      x y z
#    x 2.039650 0.000000 0.000000 
#    y 0.000000 1.982530 0.000000 
#    z 0.000000 0.000000 1.996540 
# 
# From -- ./inp_files/20851.got.cif
#   From: 2010.05.17/outbox.cif.g08.bks.cpg/sg24_11_cif.got.tgz:20851.got - 2010.06.04 00:33:39.
