data_PCOD9335582
_publ_section_title
;
Structure prediction by ZEFSAII (Michael W. Deem and Ramdas Pophale) SiO2 
 PCOD9335582
Probable space group: I 21 21 21
;
_chemical_formula_sum "Si O2"
_cell_formula_units_Z 44
_cell_length_a 24.929038
_cell_length_b 8.372767
_cell_length_c 9.703696
_cell_angle_alpha 90.000000
_cell_angle_beta 90.000000
_cell_angle_gamma 90.000000
_cell_volume 2025.404207
_symmetry_space_group_name_H-M "I 21 21 21"
_symmetry_group_IT_number 24
_symmetry_cell_setting 'orthorhombic'
loop_
_space_group_symop_operation_xyz
x,y,z
-x,1/2-y,z
x,-y,1/2-z
1/2-x,y,-z
1/2+x,1/2+y,1/2+z
1/2-x,-y,1/2+z
1/2+x,1/2-y,-z
-x,1/2+y,1/2-z
loop_
_atom_site_type_symbol
_atom_site_label
_atom_site_fract_x
_atom_site_fract_y
_atom_site_fract_z
Si Si1 0.053598 0.182029 0.280844
Si Si2 0.737240 0.000000 0.250000
Si Si3 0.194068 0.777742 0.560297
Si Si4 0.386577 0.416556 0.895642
Si Si5 0.873737 0.250407 0.530139
Si Si6 0.250000 0.701634 0.000000
Si Si7 0.624686 0.500000 0.250000
O O1 0.065183 0.295379 0.147724
O O2 0.103158 0.183355 0.386618
O O3 0.000000 0.250000 0.351059
O O4 0.042944 0.000000 0.250000
O O5 0.704691 0.133987 0.167299
O O6 0.766772 0.094298 0.369667
O O7 0.250000 0.838893 0.500000
O O8 0.160736 0.700925 0.437597
O O9 0.159959 0.908066 0.637736
O O10 0.376761 0.500000 0.750000
O O11 0.388678 0.559834 0.010146
O O12 0.808548 0.272230 0.538818
O O13 0.899342 0.353056 0.656806
#
# Coordination Sequence:
#
# PCOD9335582 Si02
#       7
#     8   4   8   8   8   4   4
#     4  11  24  46  76 111 139 179 239 316 381 439
#     4  12  22  38  64  89 138 181 258 282 356 440
#     4  12  24  36  58  89 132 184 230 285 350 429
#     4  10  22  41  70  99 130 179 233 300 360 429
#     4  11  24  41  66  95 143 187 241 294 363 440
#     4  12  24  40  64 102 136 204 244 300 366 454
#     4  12  26  40  52  91 140 185 230 292 354 436
#
# _framework density 21.724059
#
# number of rings (size 3 to 8) (size 9 to 14) (size 15 to 20)
#    0.000    0.727    4.545    2.727   11.455    0.000 
#    3.273    0.000    0.000    9.818    0.000    0.000 
#    0.000    0.000    0.000    0.000    0.000    0.000 
#
# Total GULP energy -122547.741133 kJ/mol
# GULP energy per Si atom -5570.351870 kJ/mol
# Density = 2.167461 g / cm^3
# Si number density = 21.724059 Si / 1000 Ang^3
#
#
#
# Elastic Constant Matrix: (Units=GPa)
#
#
# Indices 1 2 3 4 5 6 
#
# 1 50.6693 16.5976 6.2747 0.0000 0.0000 0.0000
# 2 16.5976 112.8472 36.3728 0.0000 0.0000 0.0000
# 3 6.2747 36.3728 77.1803 0.0000 0.0000 0.0000
# 4 0.0000 0.0000 0.0000 42.2287 0.0000 0.0000
# 5 0.0000 0.0000 0.0000 0.0000 19.1497 0.0000
# 6 0.0000 0.0000 0.0000 0.0000 0.0000 30.8347
#
#
#
# Elastic Compliance Matrix: (Units=1/GPa)
#
#
# Indices 1 2 3 4 5 6 
#
# 1 0.020740 -0.002956 -0.000293 0.000000 0.000000 0.000000
# 2 -0.002956 0.010870 -0.004882 0.000000 0.000000 0.000000
# 3 -0.000293 -0.004882 0.015281 0.000000 0.000000 0.000000
# 4 0.000000 0.000000 0.000000 0.023681 0.000000 0.000000
# 5 0.000000 0.000000 0.000000 0.000000 0.052220 0.000000
# 6 0.000000 0.000000 0.000000 0.000000 0.000000 0.032431
#
#
# Mechanical properties :
#
#
# Convention : Reuss Voigt Hill
#
# Bulk Modulus (GPa) = 32.64901 39.90967 36.27934
# Shear Modulus (GPa) = 27.51845 30.53939 29.02892
#
# Velocity S-wave (km/s) = 3.56297 3.75345 3.65945
# Velocity P-wave (km/s) = 5.65579 6.09882 5.88148
#
# Compressibility (1/GPa) = 0.03062880
#
# Stress axis : x y z
#
# Youngs Moduli (GPa) = 48.21502 91.99634 65.43899
#
# Poissons Ratio (x) = 0.27194 0.01918
# Poissons Ratio (y) = 0.14253 0.31950
# Poissons Ratio (z) = 0.01413 0.44916
#
# Static dielectric constant tensor:
#      x y z
#    x 1.809080 0.000000 0.000000 
#    y 0.000000 1.849250 0.000000 
#    z 0.000000 0.000000 1.789910 
# 
# From -- ./inp_files/16771.got.cif
#   From: 2010.05.17/outbox.cif.g08.bks.cpg/sg24_9_cif.got.tgz:16771.got - 2010.06.04 00:33:39.
