data_PCOD9335761
_publ_section_title
;
Structure prediction by ZEFSAII (Michael W. Deem and Ramdas Pophale) SiO2 
 PCOD9335761
Probable space group: I 21 21 21
;
_chemical_formula_sum "Si O2"
_cell_formula_units_Z 40
_cell_length_a 11.664578
_cell_length_b 14.336583
_cell_length_c 8.962875
_cell_angle_alpha 90.000000
_cell_angle_beta 90.000000
_cell_angle_gamma 90.000000
_cell_volume 1498.863295
_symmetry_space_group_name_H-M "I 21 21 21"
_symmetry_group_IT_number 24
_symmetry_cell_setting 'orthorhombic'
loop_
_space_group_symop_operation_xyz
x,y,z
-x,1/2-y,z
x,-y,1/2-z
1/2-x,y,-z
1/2+x,1/2+y,1/2+z
1/2-x,-y,1/2+z
1/2+x,1/2-y,-z
-x,1/2+y,1/2-z
loop_
_atom_site_type_symbol
_atom_site_label
_atom_site_fract_x
_atom_site_fract_y
_atom_site_fract_z
Si Si1 0.123283 0.354182 0.032191
Si Si2 0.070640 0.887901 0.265354
Si Si3 0.000000 0.250000 0.776733
Si Si4 0.750000 0.551377 0.500000
Si Si5 0.344143 0.450769 0.408728
Si Si6 0.598610 0.620245 0.070294
O O1 0.046906 0.326059 0.892082
O O2 0.135798 0.464745 0.023053
O O3 0.250000 0.315552 0.000000
O O4 0.046875 0.340261 0.178804
O O5 0.169248 0.887375 0.392651
O O6 0.052200 0.000000 0.250000
O O7 0.111399 0.853817 0.103679
O O8 0.106405 0.206361 0.683333
O O9 0.668920 0.476171 0.412454
O O10 0.316003 0.500000 0.250000
O O11 0.250000 0.392189 0.500000
O O12 0.465064 0.401211 0.400926
#
# Coordination Sequence:
#
# PCOD9335761 Si02
#       6
#     8   8   4   4   8   8
#     4  11  25  46  73 104 141 188 234 287 359 420
#     4  10  22  44  77 107 133 178 244 305 351 405
#     4  12  28  50  62 106 156 194 224 278 362 446
#     4  10  22  44  74 110 132 180 242 308 352 400
#     4  11  23  40  75 103 133 176 240 301 339 404
#     4  11  25  45  70 105 143 184 237 293 358 419
#
# _framework density 26.686889999999998
#
# number of rings (size 3 to 8) (size 9 to 14) (size 15 to 20)
#    0.000    1.200    6.000    0.000    5.600    8.000 
#   14.400    0.000    0.000    0.000    0.000    0.000 
#    0.000    0.000    0.000    0.000    0.000    0.000 
#
# Total GULP energy -111775.032188 kJ/mol
# GULP energy per Si atom -5588.751609 kJ/mol
# Density = 2.662615 g / cm^3
# Si number density = 26.686890 Si / 1000 Ang^3
#
#
#
# Elastic Constant Matrix: (Units=GPa)
#
#
# Indices 1 2 3 4 5 6 
#
# 1 120.0133 -2.7067 44.6518 0.0000 0.0000 0.0000
# 2 -2.7067 26.2109 -12.6845 0.0000 0.0000 0.0000
# 3 44.6518 -12.6845 137.4622 0.0000 0.0000 0.0000
# 4 0.0000 0.0000 0.0000 20.2995 0.0000 0.0000
# 5 0.0000 0.0000 0.0000 0.0000 36.3587 0.0000
# 6 0.0000 0.0000 0.0000 0.0000 0.0000 9.5562
#
#
#
# Elastic Compliance Matrix: (Units=1/GPa)
#
#
# Indices 1 2 3 4 5 6 
#
# 1 0.009485 -0.000535 -0.003130 0.000000 0.000000 0.000000
# 2 -0.000535 0.039966 0.003862 0.000000 0.000000 0.000000
# 3 -0.003130 0.003862 0.008648 0.000000 0.000000 0.000000
# 4 0.000000 0.000000 0.000000 0.049262 0.000000 0.000000
# 5 0.000000 0.000000 0.000000 0.000000 0.027504 0.000000
# 6 0.000000 0.000000 0.000000 0.000000 0.000000 0.104644
#
#
# Mechanical properties :
#
#
# Convention : Reuss Voigt Hill
#
# Bulk Modulus (GPa) = 17.09682 38.02309 27.55995
# Shear Modulus (GPa) = 19.33384 30.20458 24.76921
#
# Velocity S-wave (km/s) = 2.69452 3.36789 3.04985
# Velocity P-wave (km/s) = 4.01260 5.42240 4.76987
#
# Compressibility (1/GPa) = 0.05849042
#
# Stress axis : x y z
#
# Youngs Moduli (GPa) = 105.42925 25.02150 115.63455
#
# Poissons Ratio (x) = 0.01340 0.36199
# Poissons Ratio (y) = 0.05645 -0.44656
# Poissons Ratio (z) = 0.33004 -0.09663
#
# Static dielectric constant tensor:
#      x y z
#    x 2.480400 0.000000 0.000000 
#    y 0.000000 2.106820 0.000000 
#    z 0.000000 0.000000 2.130490 
# 
# From -- ./inp_files/10783.got.cif
#   From: 2010.05.17/outbox.cif.g08.bks.cpg/sg24_6_cif.got.tgz:10783.got - 2010.06.04 00:33:39.
