data_PCOD9335579
_publ_section_title
;
Structure prediction by ZEFSAII (Michael W. Deem and Ramdas Pophale) SiO2 
 PCOD9335579
Probable space group: I 21 21 21
;
_chemical_formula_sum "Si O2"
_cell_formula_units_Z 64
_cell_length_a 16.990536
_cell_length_b 11.638288
_cell_length_c 13.603477
_cell_angle_alpha 90.000000
_cell_angle_beta 90.000000
_cell_angle_gamma 90.000000
_cell_volume 2689.961761
_symmetry_space_group_name_H-M "I 21 21 21"
_symmetry_group_IT_number 24
_symmetry_cell_setting 'orthorhombic'
loop_
_space_group_symop_operation_xyz
x,y,z
-x,1/2-y,z
x,-y,1/2-z
1/2-x,y,-z
1/2+x,1/2+y,1/2+z
1/2-x,-y,1/2+z
1/2+x,1/2-y,-z
-x,1/2+y,1/2-z
loop_
_atom_site_type_symbol
_atom_site_label
_atom_site_fract_x
_atom_site_fract_y
_atom_site_fract_z
Si Si1 0.842399 0.888926 0.520103
Si Si2 0.828858 0.637413 0.565331
Si Si3 0.465116 0.862773 0.768692
Si Si4 0.570756 0.585356 0.064093
Si Si5 0.325647 0.808097 0.209617
Si Si6 0.409654 0.429494 0.340503
Si Si7 0.884834 0.949503 0.141974
Si Si8 0.830820 0.715652 0.103260
O O1 0.750000 0.882517 0.500000
O O2 0.867281 0.759860 0.540197
O O3 0.854291 0.977391 0.607943
O O4 0.887459 0.942557 0.428185
O O5 0.750000 0.616482 0.500000
O O6 0.894286 0.540917 0.544616
O O7 0.804543 0.653878 0.680135
O O8 0.500000 0.750000 0.710071
O O9 0.533557 0.879135 0.850687
O O10 0.380617 0.820703 0.801520
O O11 0.455612 0.000000 0.750000
O O12 0.603128 0.616498 0.171338
O O13 0.477456 0.599915 0.079526
O O14 0.616799 0.665726 0.985484
O O15 0.359597 0.678736 0.197825
O O16 0.255901 0.827366 0.129916
O O17 0.446336 0.500000 0.250000
O O18 0.825776 0.853892 0.100655
O O19 0.866302 0.000000 0.250000
#
# Coordination Sequence:
#
# PCOD9335579 Si02
#       8
#     8   8   8   8   8   8   8   8
#     4  11  24  42  69 105 149 189 247 314 374 452
#     4  11  26  46  69 105 152 196 249 306 385 455
#     4   9  20  41  63 100 141 189 247 300 373 457
#     4  12  27  47  70 105 148 196 253 308 371 464
#     4  12  25  45  74 106 143 196 253 312 382 450
#     4  12  25  47  77 111 148 196 254 311 380 447
#     4  10  22  41  70 101 142 191 244 307 377 448
#     4  11  24  42  72 104 146 192 247 304 380 453
#
# _framework density 23.792158000000001
#
# number of rings (size 3 to 8) (size 9 to 14) (size 15 to 20)
#    0.000    1.000    1.250    4.875    3.500    5.500 
#    4.500    0.000    0.000    0.000    0.000    0.000 
#    0.000    0.000    0.000    0.000    0.000    0.000 
#
# Total GULP energy -178540.689329 kJ/mol
# GULP energy per Si atom -5579.396542 kJ/mol
# Density = 2.373801 g / cm^3
# Si number density = 23.792158 Si / 1000 Ang^3
#
#
#
# Elastic Constant Matrix: (Units=GPa)
#
#
# Indices 1 2 3 4 5 6 
#
# 1 64.5727 13.8659 6.4538 0.0000 0.0000 0.0000
# 2 13.8659 133.2200 26.9816 0.0000 0.0000 0.0000
# 3 6.4538 26.9816 87.1939 0.0000 0.0000 0.0000
# 4 0.0000 0.0000 0.0000 32.1562 0.0000 0.0000
# 5 0.0000 0.0000 0.0000 0.0000 26.5137 0.0000
# 6 0.0000 0.0000 0.0000 0.0000 0.0000 -109.0281
#
#
#
# Elastic Compliance Matrix: (Units=1/GPa)
#
#
# Indices 1 2 3 4 5 6 
#
# 1 0.015881 -0.001510 -0.000708 0.000000 0.000000 0.000000
# 2 -0.001510 0.008152 -0.002411 0.000000 0.000000 0.000000
# 3 -0.000708 -0.002411 0.012267 0.000000 0.000000 0.000000
# 4 0.000000 0.000000 0.000000 0.031098 0.000000 0.000000
# 5 0.000000 0.000000 0.000000 0.000000 0.037716 0.000000
# 6 0.000000 0.000000 0.000000 0.000000 0.000000 -0.009172
#
#
# Mechanical properties :
#
#
# Convention : Reuss Voigt Hill
#
# Bulk Modulus (GPa) = 36.97825 42.17657 39.57741
# Shear Modulus (GPa) = 43.77731 5.77407 24.77569
#
# Velocity S-wave (km/s) = 4.29416 1.55953 3.23048
# Velocity P-wave (km/s) = 6.33738 4.58350 5.53041
#
# Compressibility (1/GPa) = 0.02704293
#
# Stress axis : x y z
#
# Youngs Moduli (GPa) = 62.96689 122.67295 81.51873
#
# Poissons Ratio (x) = 0.18518 0.05775
# Poissons Ratio (y) = 0.09505 0.19652
# Poissons Ratio (z) = 0.04460 0.29574
#
# Static dielectric constant tensor:
#      x y z
#    x 2.113660 0.000000 0.000000 
#    y 0.000000 1.988450 0.000000 
#    z 0.000000 0.000000 2.339920 
# 
# From -- ./inp_files/27238.got.cif
#   From: 2010.05.17/outbox.cif.g08.bks.cpg/sg24_14_cif.got.tgz:27238.got - 2010.06.04 00:33:39.
