data_PCOD9335163
_publ_section_title
;
Structure prediction by ZEFSAII (Michael W. Deem and Ramdas Pophale) SiO2 
 PCOD9335163
Probable space group: I 21 21 21
;
_chemical_formula_sum "Si O2"
_cell_formula_units_Z 56
_cell_length_a 12.403889
_cell_length_b 14.966010
_cell_length_c 13.103601
_cell_angle_alpha 90.000000
_cell_angle_beta 90.000000
_cell_angle_gamma 90.000000
_cell_volume 2432.509599
_symmetry_space_group_name_H-M "I 21 21 21"
_symmetry_group_IT_number 24
_symmetry_cell_setting 'orthorhombic'
loop_
_space_group_symop_operation_xyz
x,y,z
-x,1/2-y,z
x,-y,1/2-z
1/2-x,y,-z
1/2+x,1/2+y,1/2+z
1/2-x,-y,1/2+z
1/2+x,1/2-y,-z
-x,1/2+y,1/2-z
loop_
_atom_site_type_symbol
_atom_site_label
_atom_site_fract_x
_atom_site_fract_y
_atom_site_fract_z
Si Si1 0.688295 0.309738 0.607218
Si Si2 0.638692 0.606380 0.257025
Si Si3 0.310774 0.394269 0.605580
Si Si4 0.861155 0.173341 0.970480
Si Si5 0.098437 0.127541 0.997599
Si Si6 0.958750 0.473603 0.366799
Si Si7 0.600089 0.106699 0.254778
O O1 0.750000 0.320816 0.500000
O O2 0.770148 0.337763 0.698704
O O3 0.649645 0.207963 0.611023
O O4 0.590514 0.377416 0.611703
O O5 0.658556 0.500000 0.250000
O O6 0.628956 0.619167 0.379051
O O7 0.520921 0.634893 0.210784
O O8 0.250000 0.411652 0.500000
O O9 0.411755 0.460764 0.617614
O O10 0.211009 0.391539 0.684021
O O11 0.860719 0.272678 0.020168
O O12 0.877164 0.162154 0.848973
O O13 0.969695 0.130769 0.010625
O O14 0.750000 0.128447 0.000000
O O15 0.117238 0.041763 0.067104
O O16 0.943980 0.500000 0.250000
O O17 0.581355 0.000000 0.250000
#
# Coordination Sequence:
#
# PCOD9335163 Si02
#       7
#     8   8   8   8   8   8   8
#     4  11  25  46  71 104 142 186 240 305 365 442
#     4  10  21  41  72 103 134 182 246 299 361 437
#     4  11  27  43  69 101 143 194 236 291 370 445
#     4  10  23  41  69 102 141 183 243 306 363 430
#     4  10  24  44  66 103 138 189 241 303 367 439
#     4  12  28  47  69 104 145 191 243 300 379 451
#     4  10  23  40  70 107 140 188 242 305 366 447
#
# _framework density 23.021491999999999
#
# number of rings (size 3 to 8) (size 9 to 14) (size 15 to 20)
#    0.000    1.429    0.000    3.000   12.000    5.714 
#    2.571    0.000    0.000    0.000    0.000    0.000 
#    0.000    0.000    0.000    0.000    0.000    0.000 
#
# Total GULP energy -156211.442646 kJ/mol
# GULP energy per Si atom -5578.980095 kJ/mol
# Density = 2.296909 g / cm^3
# Si number density = 23.021492 Si / 1000 Ang^3
#
#
#
# Elastic Constant Matrix: (Units=GPa)
#
#
# Indices 1 2 3 4 5 6 
#
# 1 97.5536 5.0940 21.6728 0.0000 0.0000 0.0000
# 2 5.0940 94.8146 40.7190 0.0000 0.0000 0.0000
# 3 21.6728 40.7190 44.6937 0.0000 0.0000 0.0000
# 4 0.0000 0.0000 0.0000 1.7286 0.0000 0.0000
# 5 0.0000 0.0000 0.0000 0.0000 11.3480 0.0000
# 6 0.0000 0.0000 0.0000 0.0000 0.0000 51.7679
#
#
#
# Elastic Compliance Matrix: (Units=1/GPa)
#
#
# Indices 1 2 3 4 5 6 
#
# 1 0.012001 0.003046 -0.008595 0.000000 0.000000 0.000000
# 2 0.003046 0.018099 -0.017967 0.000000 0.000000 0.000000
# 3 -0.008595 -0.017967 0.042912 -0.000001 0.000000 0.000000
# 4 0.000000 0.000000 -0.000001 0.578519 0.000000 0.000000
# 5 0.000000 0.000000 0.000000 0.000000 0.088121 0.000000
# 6 0.000000 0.000000 0.000000 0.000000 0.000000 0.019317
#
#
# Mechanical properties :
#
#
# Convention : Reuss Voigt Hill
#
# Bulk Modulus (GPa) = 38.48992 41.33703 39.91348
# Shear Modulus (GPa) = 6.13752 24.27397 15.20575
#
# Velocity S-wave (km/s) = 1.63456 3.25068 2.57281
# Velocity P-wave (km/s) = 4.50753 5.66428 5.11869
#
# Compressibility (1/GPa) = 0.02598083
#
# Stress axis : x y z
#
# Youngs Moduli (GPa) = 83.32490 55.25076 23.30370
#
# Poissons Ratio (x) = -0.16832 0.20030
# Poissons Ratio (y) = -0.25385 0.41870
# Poissons Ratio (z) = 0.71619 0.99269
#
# Static dielectric constant tensor:
#      x y z
#    x 1.921380 0.000000 0.000000 
#    y 0.000000 1.902730 0.000000 
#    z 0.000000 0.000000 1.694060 
# 
# From -- ./inp_files/25818.got.cif
#   From: 2010.05.17/outbox.cif.g08.bks.cpg/sg24_13_cif.got.tgz:25818.got - 2010.06.04 00:33:39.
