data_PCOD9335305
_publ_section_title
;
Structure prediction by ZEFSAII (Michael W. Deem and Ramdas Pophale) SiO2 
 PCOD9335305
Probable space group: I 21 21 21
;
_chemical_formula_sum "Si O2"
_cell_formula_units_Z 60
_cell_length_a 12.355513
_cell_length_b 9.526815
_cell_length_c 28.669428
_cell_angle_alpha 90.000000
_cell_angle_beta 90.000000
_cell_angle_gamma 90.000000
_cell_volume 3374.640715
_symmetry_space_group_name_H-M "I 21 21 21"
_symmetry_group_IT_number 24
_symmetry_cell_setting 'orthorhombic'
loop_
_space_group_symop_operation_xyz
x,y,z
-x,1/2-y,z
x,-y,1/2-z
1/2-x,y,-z
1/2+x,1/2+y,1/2+z
1/2-x,-y,1/2+z
1/2+x,1/2-y,-z
-x,1/2+y,1/2-z
loop_
_atom_site_type_symbol
_atom_site_label
_atom_site_fract_x
_atom_site_fract_y
_atom_site_fract_z
Si Si1 0.366428 0.745012 0.356012
Si Si2 0.165561 0.993693 0.584728
Si Si3 0.465142 0.413840 0.025553
Si Si4 0.418671 0.366102 0.548037
Si Si5 0.128138 0.230279 0.654254
Si Si6 0.385822 0.168333 0.245516
Si Si7 0.750000 0.331668 0.500000
Si Si8 0.289493 0.483702 0.405608
O O1 0.500000 0.750000 0.361119
O O2 0.312277 0.838281 0.396804
O O3 0.336065 0.799082 0.304849
O O4 0.319531 0.591878 0.364763
O O5 0.047602 0.982541 0.561997
O O6 0.157841 0.083203 0.631366
O O7 0.235740 0.069528 0.545203
O O8 0.500000 0.250000 0.020182
O O9 0.348798 0.447644 0.049085
O O10 0.475497 0.506167 0.979095
O O11 0.500000 0.250000 0.569233
O O12 0.350243 0.272145 0.510563
O O13 0.332396 0.441431 0.581523
O O14 0.170310 0.228455 0.707562
O O15 0.163546 0.340073 0.615043
O O16 0.000000 0.250000 0.658520
O O17 0.500000 0.250000 0.243054
O O18 0.401144 0.000000 0.250000
#
# Coordination Sequence:
#
# PCOD9335305 Si02
#       8
#     8   8   8   8   8   8   4   8
#     4  11  21  37  56  83 127 161 197 239 298 362
#     4  12  20  35  55  83 114 157 200 241 293 358
#     4  12  22  36  56  82 115 161 204 249 291 355
#     4  12  25  41  56  83 118 155 211 261 296 351
#     4  11  20  32  57  83 119 160 198 234 299 365
#     4  10  22  33  51  85 124 159 191 241 292 367
#     4  12  24  34  62  82 110 156 206 246 294 354
#     4  12  22  37  57  82 117 161 200 248 301 358
#
# _framework density 17.779671
#
# number of rings (size 3 to 8) (size 9 to 14) (size 15 to 20)
#    0.000    0.533    9.333    0.000    5.600    1.067 
#    0.000    0.000    0.000    0.000    0.000    0.000 
#   12.000    0.000    0.000    0.000    0.000    0.000 
#
# Total GULP energy -167072.881418 kJ/mol
# GULP energy per Si atom -5569.096047 kJ/mol
# Density = 1.773920 g / cm^3
# Si number density = 17.779671 Si / 1000 Ang^3
#
#
#
# Elastic Constant Matrix: (Units=GPa)
#
#
# Indices 1 2 3 4 5 6 
#
# 1 43.6266 23.4505 16.5894 0.0000 0.0000 0.0000
# 2 23.4505 77.5752 9.7433 0.0000 0.0000 0.0000
# 3 16.5894 9.7433 77.5263 0.0000 0.0000 0.0000
# 4 0.0000 0.0000 0.0000 21.0942 0.0000 0.0000
# 5 0.0000 0.0000 0.0000 0.0000 13.0739 0.0000
# 6 0.0000 0.0000 0.0000 0.0000 0.0000 23.8850
#
#
#
# Elastic Compliance Matrix: (Units=1/GPa)
#
#
# Indices 1 2 3 4 5 6 
#
# 1 0.029327 -0.008207 -0.005244 0.000000 0.000000 0.000000
# 2 -0.008207 0.015394 -0.000179 0.000000 0.000000 0.000000
# 3 -0.005244 -0.000179 0.014043 0.000000 0.000000 0.000000
# 4 0.000000 0.000000 0.000000 0.047406 0.000000 0.000000
# 5 0.000000 0.000000 0.000000 0.000000 0.076488 0.000000
# 6 0.000000 0.000000 0.000000 0.000000 0.000000 0.041867
#
#
# Mechanical properties :
#
#
# Convention : Reuss Voigt Hill
#
# Bulk Modulus (GPa) = 31.74027 33.14385 32.44206
# Shear Modulus (GPa) = 19.06305 21.54029 20.30167
#
# Velocity S-wave (km/s) = 3.27797 3.48445 3.38279
# Velocity P-wave (km/s) = 5.67605 5.90512 5.79172
#
# Compressibility (1/GPa) = 0.03150571
#
# Stress axis : x y z
#
# Youngs Moduli (GPa) = 34.09790 64.96039 71.20749
#
# Poissons Ratio (x) = 0.53312 0.37343
# Poissons Ratio (y) = 0.27983 0.01271
# Poissons Ratio (z) = 0.17882 0.01160
#
# Static dielectric constant tensor:
#      x y z
#    x 1.626670 0.000000 0.000000 
#    y 0.000000 1.655430 0.000000 
#    z 0.000000 0.000000 1.649760 
# 
# From -- ./inp_files/38589.got.cif
#   From: 2010.05.17/outbox.cif.g08.bks.cpg/sg24_20_cif.got.tgz:38589.got - 2010.06.04 00:33:39.
