data_PCOD9335638
_publ_section_title
;
Structure prediction by ZEFSAII (Michael W. Deem and Ramdas Pophale) SiO2 
 PCOD9335638
Probable space group: I 21 21 21
;
_chemical_formula_sum "Si O2"
_cell_formula_units_Z 40
_cell_length_a 24.767866
_cell_length_b 11.661794
_cell_length_c 6.744623
_cell_angle_alpha 90.000000
_cell_angle_beta 90.000000
_cell_angle_gamma 90.000000
_cell_volume 1948.101739
_symmetry_space_group_name_H-M "I 21 21 21"
_symmetry_group_IT_number 24
_symmetry_cell_setting 'orthorhombic'
loop_
_space_group_symop_operation_xyz
x,y,z
-x,1/2-y,z
x,-y,1/2-z
1/2-x,y,-z
1/2+x,1/2+y,1/2+z
1/2-x,-y,1/2+z
1/2+x,1/2-y,-z
-x,1/2+y,1/2-z
loop_
_atom_site_type_symbol
_atom_site_label
_atom_site_fract_x
_atom_site_fract_y
_atom_site_fract_z
Si Si1 0.959612 0.654554 0.985294
Si Si2 0.885349 0.185499 0.254636
Si Si3 0.688945 0.306108 0.067196
Si Si4 0.465800 0.500000 0.750000
Si Si5 0.378097 0.000000 0.250000
Si Si6 0.308386 0.390667 0.394371
O O1 0.923687 0.717769 0.151234
O O2 0.000000 0.750000 0.895352
O O3 0.997166 0.559998 0.087521
O O4 0.917482 0.594333 0.843067
O O5 0.926448 0.095429 0.158403
O O6 0.852832 0.123956 0.433307
O O7 0.843574 0.237857 0.101161
O O8 0.659967 0.427264 0.104740
O O9 0.689644 0.224706 0.261559
O O10 0.750000 0.323598 0.000000
O O11 0.316828 0.500000 0.250000
O O12 0.250000 0.402680 0.500000
#
# Coordination Sequence:
#
# PCOD9335638 Si02
#       6
#     8   8   8   4   4   8
#     4  10  23  44  67  98 136 179 238 291 353 417
#     4  11  23  45  70  99 139 181 233 291 357 417
#     4  12  26  44  70 103 142 191 233 290 355 433
#     4  10  22  42  69  98 129 180 230 300 350 414
#     4  12  26  44  69 106 139 192 238 294 354 432
#     4  12  25  43  70 104 144 184 235 289 356 435
#
# _framework density 20.532806999999998
#
# number of rings (size 3 to 8) (size 9 to 14) (size 15 to 20)
#    0.000    0.800    4.000    3.000    1.400    4.000 
#    7.200    0.000    0.000    0.000    0.000    0.000 
#    0.000    0.000    0.000    0.000    0.000    0.000 
#
# Total GULP energy -111851.642090 kJ/mol
# GULP energy per Si atom -5592.582104 kJ/mol
# Density = 2.048607 g / cm^3
# Si number density = 20.532807 Si / 1000 Ang^3
#
#
#
# Elastic Constant Matrix: (Units=GPa)
#
#
# Indices 1 2 3 4 5 6 
#
# 1 160.3246 54.3942 42.0996 0.0000 0.0000 0.0000
# 2 54.3942 83.5258 27.3378 0.0000 0.0000 0.0000
# 3 42.0996 27.3378 56.1883 0.0000 0.0000 0.0000
# 4 0.0000 0.0000 0.0000 25.7455 0.0000 0.0000
# 5 0.0000 0.0000 0.0000 0.0000 11.0745 0.0000
# 6 0.0000 0.0000 0.0000 0.0000 0.0000 28.7709
#
#
#
# Elastic Compliance Matrix: (Units=1/GPa)
#
#
# Indices 1 2 3 4 5 6 
#
# 1 0.008896 -0.004296 -0.004575 0.000000 0.000000 0.000000
# 2 -0.004296 0.016314 -0.004719 0.000000 0.000000 0.000000
# 3 -0.004575 -0.004719 0.023521 0.000000 0.000000 0.000000
# 4 0.000000 0.000000 0.000000 0.038842 0.000000 0.000000
# 5 0.000000 0.000000 0.000000 0.000000 0.090298 0.000000
# 6 0.000000 0.000000 0.000000 0.000000 0.000000 0.034757
#
#
# Mechanical properties :
#
#
# Convention : Reuss Voigt Hill
#
# Bulk Modulus (GPa) = 46.40022 60.85577 53.62799
# Shear Modulus (GPa) = 20.24343 24.86531 22.55437
#
# Velocity S-wave (km/s) = 3.14332 3.48372 3.31789
# Velocity P-wave (km/s) = 5.98507 6.77380 6.39162
#
# Compressibility (1/GPa) = 0.02155162
#
# Stress axis : x y z
#
# Youngs Moduli (GPa) = 112.40574 61.29531 42.51446
#
# Poissons Ratio (x) = 0.26332 0.19452
# Poissons Ratio (y) = 0.48289 0.20062
# Poissons Ratio (z) = 0.51431 0.28924
#
# Static dielectric constant tensor:
#      x y z
#    x 1.701940 0.000000 0.000000 
#    y 0.000000 1.757230 0.000000 
#    z 0.000000 0.000000 1.712340 
# 
# From -- ./inp_files/6922.got.cif
#   From: 2010.05.17/outbox.cif.g08.bks.cpg/sg24_4_cif.got.tgz:6922.got - 2010.06.04 00:33:39.
