data_PCOD9335065
_publ_section_title
;
Structure prediction by ZEFSAII (Michael W. Deem and Ramdas Pophale) SiO2 
 PCOD9335065
Probable space group: I 21 21 21
;
_chemical_formula_sum "Si O2"
_cell_formula_units_Z 64
_cell_length_a 9.370742
_cell_length_b 14.142910
_cell_length_c 22.597490
_cell_angle_alpha 90.000000
_cell_angle_beta 90.000000
_cell_angle_gamma 90.000000
_cell_volume 2994.835424
_symmetry_space_group_name_H-M "I 21 21 21"
_symmetry_group_IT_number 24
_symmetry_cell_setting 'orthorhombic'
loop_
_space_group_symop_operation_xyz
x,y,z
-x,1/2-y,z
x,-y,1/2-z
1/2-x,y,-z
1/2+x,1/2+y,1/2+z
1/2-x,-y,1/2+z
1/2+x,1/2-y,-z
-x,1/2+y,1/2-z
loop_
_atom_site_type_symbol
_atom_site_label
_atom_site_fract_x
_atom_site_fract_y
_atom_site_fract_z
Si Si1 0.980046 0.966171 0.063081
Si Si2 0.758517 0.615660 0.128246
Si Si3 0.506490 0.033361 0.427791
Si Si4 0.250433 0.672280 0.898455
Si Si5 0.343045 0.112210 0.755819
Si Si6 0.828483 0.248083 0.828146
Si Si7 0.175712 0.388299 0.263063
Si Si8 0.748461 0.121116 0.069899
O O1 0.099379 0.939205 0.109712
O O2 0.868432 0.879628 0.061845
O O3 0.888868 0.057856 0.081887
O O4 0.037232 0.976372 0.996503
O O5 0.628688 0.547198 0.113394
O O6 0.751042 0.715455 0.094191
O O7 0.768051 0.646980 0.195870
O O8 0.600912 0.126517 0.416170
O O9 0.612883 0.946259 0.415573
O O10 0.290078 0.638781 0.831170
O O11 0.253154 0.156809 0.808759
O O12 0.510971 0.136849 0.752846
O O13 0.334225 0.000000 0.750000
O O14 0.777623 0.170402 0.780112
O O15 0.767855 0.212740 0.890686
O O16 0.000000 0.250000 0.829206
O O17 0.193362 0.500000 0.250000
O O18 0.750000 0.139983 0.000000
#
# Coordination Sequence:
#
# PCOD9335065 Si02
#       8
#     8   8   8   8   8   8   8   8
#     4  10  21  40  64  97 130 190 232 280 343 420
#     4  12  23  36  62  95 142 176 236 292 341 402
#     4  10  23  38  63  96 139 180 232 287 353 404
#     4  11  21  36  59  92 133 184 230 284 349 413
#     4  11  27  45  66  96 139 179 230 287 343 413
#     4  12  27  44  73 107 136 174 232 287 355 409
#     4  11  23  44  69  95 132 189 233 277 342 418
#     4   9  22  49  75  97 136 179 230 281 347 426
#
# _framework density 21.370123
#
# number of rings (size 3 to 8) (size 9 to 14) (size 15 to 20)
#    0.000    1.250    2.500    4.125    5.250    3.500 
#    0.000    1.250    0.000    0.000    0.000    0.000 
#    0.000    0.000    0.000    0.000    0.000    0.000 
#
# Total GULP energy -178948.619040 kJ/mol
# GULP energy per Si atom -5592.144345 kJ/mol
# Density = 2.132148 g / cm^3
# Si number density = 21.370123 Si / 1000 Ang^3
#
#
#
# Elastic Constant Matrix: (Units=GPa)
#
#
# Indices 1 2 3 4 5 6 
#
# 1 109.8080 37.8760 44.9733 0.0000 0.0000 0.0000
# 2 37.8760 100.3749 40.3935 0.0000 0.0000 0.0000
# 3 44.9733 40.3935 65.0181 0.0000 0.0000 0.0000
# 4 0.0000 0.0000 0.0000 22.8286 0.0000 0.0000
# 5 0.0000 0.0000 0.0000 0.0000 26.8294 0.0000
# 6 0.0000 0.0000 0.0000 0.0000 0.0000 11.5391
#
#
#
# Elastic Compliance Matrix: (Units=1/GPa)
#
#
# Indices 1 2 3 4 5 6 
#
# 1 0.012922 -0.001705 -0.007879 0.000000 0.000000 0.000000
# 2 -0.001705 0.013509 -0.007213 0.000000 0.000000 0.000000
# 3 -0.007879 -0.007213 0.025311 0.000000 0.000000 0.000000
# 4 0.000000 0.000000 0.000000 0.043805 0.000000 0.000000
# 5 0.000000 0.000000 0.000000 0.000000 0.037272 0.000000
# 6 0.000000 0.000000 0.000000 0.000000 0.000000 0.086662
#
#
# Mechanical properties :
#
#
# Convention : Reuss Voigt Hill
#
# Bulk Modulus (GPa) = 55.10264 57.96516 56.53390
# Shear Modulus (GPa) = 19.29578 22.36997 20.83288
#
# Velocity S-wave (km/s) = 3.00814 3.23892 3.12566
# Velocity P-wave (km/s) = 6.15679 6.41644 6.28796
#
# Compressibility (1/GPa) = 0.01814795
#
# Stress axis : x y z
#
# Youngs Moduli (GPa) = 77.38838 74.02551 39.50837
#
# Poissons Ratio (x) = 0.12625 0.31127
# Poissons Ratio (y) = 0.13198 0.28497
# Poissons Ratio (z) = 0.60971 0.53394
#
# Static dielectric constant tensor:
#      x y z
#    x 1.757020 0.000000 0.000000 
#    y 0.000000 1.780350 0.000000 
#    z 0.000000 0.000000 1.816830 
# 
# From -- ./inp_files/35303.got.cif
#   From: 2010.05.17/outbox.cif.g08.bks.cpg/sg24_18_cif.got.tgz:35303.got - 2010.06.04 00:33:39.
