data_PCOD9335963
_publ_section_title
;
Structure prediction by ZEFSAII (Michael W. Deem and Ramdas Pophale) SiO2 
 PCOD9335963
Probable space group: I 21 21 21
;
_chemical_formula_sum "Si O2"
_cell_formula_units_Z 48
_cell_length_a 8.899483
_cell_length_b 22.747707
_cell_length_c 11.409050
_cell_angle_alpha 90.000000
_cell_angle_beta 90.000000
_cell_angle_gamma 90.000000
_cell_volume 2309.680389
_symmetry_space_group_name_H-M "I 21 21 21"
_symmetry_group_IT_number 24
_symmetry_cell_setting 'orthorhombic'
loop_
_space_group_symop_operation_xyz
x,y,z
-x,1/2-y,z
x,-y,1/2-z
1/2-x,y,-z
1/2+x,1/2+y,1/2+z
1/2-x,-y,1/2+z
1/2+x,1/2-y,-z
-x,1/2+y,1/2-z
loop_
_atom_site_type_symbol
_atom_site_label
_atom_site_fract_x
_atom_site_fract_y
_atom_site_fract_z
Si Si1 0.179990 0.661896 0.652652
Si Si2 0.000000 0.250000 0.016769
Si Si3 0.239661 0.867236 0.138040
Si Si4 0.165923 0.733694 0.889291
Si Si5 0.250000 0.939336 0.500000
Si Si6 0.036861 0.057574 0.802213
Si Si7 0.465430 0.858116 0.654406
O O1 0.105876 0.710556 0.566547
O O2 0.164543 0.690546 0.780532
O O3 0.354801 0.644487 0.639266
O O4 0.079905 0.603557 0.644520
O O5 0.085493 0.205832 0.104864
O O6 0.266286 0.796994 0.144213
O O7 0.364359 0.903541 0.211089
O O8 0.085944 0.873400 0.213341
O O9 0.250000 0.882822 0.000000
O O10 0.000000 0.750000 0.929065
O O11 0.250000 0.707292 0.000000
O O12 0.152774 0.968739 0.601505
O O13 0.372749 0.901427 0.570993
O O14 0.959884 0.000000 0.750000
#
# Coordination Sequence:
#
# PCOD9335963 Si02
#       7
#     8   4   8   8   4   8   8
#     4  12  24  41  65  99 138 174 227 282 341 404
#     4  12  22  38  66 106 144 176 218 280 350 410
#     4  10  23  44  65  97 134 176 225 266 332 413
#     4  11  23  39  62  92 135 174 217 269 333 405
#     4  10  24  46  64  98 132 166 232 276 336 410
#     4  11  24  44  71  95 130 176 224 284 335 394
#     4  11  25  38  68  98 136 176 215 281 344 403
#
# _framework density 20.782095000000002
#
# number of rings (size 3 to 8) (size 9 to 14) (size 15 to 20)
#    0.000    1.000    4.167    1.500   10.500    0.000 
#    0.000    3.333    7.333    0.000    0.000    0.000 
#    0.000    0.000    0.000    0.000    0.000    0.000 
#
# Total GULP energy -133907.710824 kJ/mol
# GULP energy per Si atom -5579.487951 kJ/mol
# Density = 2.073479 g / cm^3
# Si number density = 20.782095 Si / 1000 Ang^3
#
#
#
# Elastic Constant Matrix: (Units=GPa)
#
#
# Indices 1 2 3 4 5 6 
#
# 1 136.5565 20.4662 49.5638 0.0000 0.0000 0.0000
# 2 20.4662 59.5346 14.3537 0.0001 0.0000 0.0000
# 3 49.5638 14.3537 136.0303 0.0004 -0.0003 -0.0002
# 4 0.0000 0.0001 0.0004 10.3439 -0.0001 0.0000
# 5 0.0000 0.0000 -0.0003 -0.0001 33.2541 0.0000
# 6 0.0000 0.0000 -0.0002 0.0000 0.0000 12.4453
#
#
#
# Elastic Compliance Matrix: (Units=1/GPa)
#
#
# Indices 1 2 3 4 5 6 
#
# 1 0.008734 -0.002294 -0.002940 0.000000 0.000000 0.000000
# 2 -0.002294 0.017838 -0.001047 0.000000 0.000000 0.000000
# 3 -0.002940 -0.001047 0.008533 0.000000 0.000000 0.000000
# 4 0.000000 0.000000 0.000000 0.096675 0.000000 0.000000
# 5 0.000000 0.000000 0.000000 0.000000 0.030071 0.000000
# 6 0.000000 0.000000 0.000000 0.000000 0.000000 0.080351
#
#
# Mechanical properties :
#
#
# Convention : Reuss Voigt Hill
#
# Bulk Modulus (GPa) = 44.35777 55.65433 50.00605
# Shear Modulus (GPa) = 19.06375 27.72452 23.39413
#
# Velocity S-wave (km/s) = 3.03201 3.65644 3.35877
# Velocity P-wave (km/s) = 5.80069 6.68312 6.25748
#
# Compressibility (1/GPa) = 0.02254396
#
# Stress axis : x y z
#
# Youngs Moduli (GPa) = 114.49632 56.06094 117.19152
#
# Poissons Ratio (x) = 0.12858 0.34457
# Poissons Ratio (y) = 0.26260 0.12264
# Poissons Ratio (z) = 0.33665 0.05867
#
# Static dielectric constant tensor:
#      x y z
#    x 1.781230 0.000000 0.000000 
#    y 0.000000 1.719180 0.000000 
#    z 0.000000 0.000000 1.785490 
# 
# From -- ./inp_files/15864.got.cif
#   From: 2010.05.17/outbox.cif.g08.bks.cpg/sg24_8_cif.got.tgz:15864.got - 2010.06.04 00:33:39.
