data_PCOD9335497
_publ_section_title
;
Structure prediction by ZEFSAII (Michael W. Deem and Ramdas Pophale) SiO2 
 PCOD9335497
Probable space group: I 21 21 21
;
_chemical_formula_sum "Si O2"
_cell_formula_units_Z 56
_cell_length_a 31.284463
_cell_length_b 5.729470
_cell_length_c 14.404030
_cell_angle_alpha 90.000000
_cell_angle_beta 90.000000
_cell_angle_gamma 90.000000
_cell_volume 2581.827199
_symmetry_space_group_name_H-M "I 21 21 21"
_symmetry_group_IT_number 24
_symmetry_cell_setting 'orthorhombic'
loop_
_space_group_symop_operation_xyz
x,y,z
-x,1/2-y,z
x,-y,1/2-z
1/2-x,y,-z
1/2+x,1/2+y,1/2+z
1/2-x,-y,1/2+z
1/2+x,1/2-y,-z
-x,1/2+y,1/2-z
loop_
_atom_site_type_symbol
_atom_site_label
_atom_site_fract_x
_atom_site_fract_y
_atom_site_fract_z
Si Si1 0.414336 0.771976 0.417166
Si Si2 0.542351 0.893170 0.847383
Si Si3 0.214363 0.497190 0.358089
Si Si4 0.250444 0.005392 0.138508
Si Si5 0.500000 0.250000 0.991520
Si Si6 0.126489 0.572156 0.058649
Si Si7 0.844410 0.358797 0.616528
Si Si8 0.379746 0.500000 0.250000
O O1 0.461939 0.843433 0.444305
O O2 0.392112 0.657099 0.507590
O O3 0.409565 0.585795 0.334232
O O4 0.386025 0.982516 0.382521
O O5 0.500000 0.750000 0.820765
O O6 0.585380 0.796355 0.896675
O O7 0.557543 0.000000 0.750000
O O8 0.522129 0.064935 0.923937
O O9 0.226661 0.500000 0.250000
O O10 0.230496 0.748861 0.396490
O O11 0.163230 0.489363 0.369097
O O12 0.232403 0.247713 0.395356
O O13 0.243566 0.000000 0.250000
O O14 0.300820 0.000819 0.118158
O O15 0.150216 0.712370 0.977424
O O16 0.848566 0.192180 0.705359
#
# Coordination Sequence:
#
# PCOD9335497 Si02
#       8
#     8   8   8   8   4   8   8   4
#     4  10  22  41  63  92 132 168 222 274 344 402
#     4  11  21  40  67  99 131 177 229 271 337 414
#     4  10  23  44  63  99 134 183 227 282 345 409
#     4  10  23  40  69  92 132 175 232 285 341 412
#     4  10  22  42  64  98 134 170 216 286 326 406
#     4  10  24  40  62  94 138 173 222 285 345 401
#     4  11  23  41  66  94 127 178 223 286 335 416
#     4  10  22  40  64  96 122 174 228 266 350 406
#
# _framework density 21.690065000000001
#
# number of rings (size 3 to 8) (size 9 to 14) (size 15 to 20)
#    0.000    1.714    0.714    2.571    9.000    0.571 
#    2.571    0.714    0.000    0.000    0.000    0.000 
#    0.000    0.000    0.000    0.000    0.000    0.000 
#
# Total GULP energy -156220.729407 kJ/mol
# GULP energy per Si atom -5579.311765 kJ/mol
# Density = 2.164070 g / cm^3
# Si number density = 21.690065 Si / 1000 Ang^3
#
#
#
# Elastic Constant Matrix: (Units=GPa)
#
#
# Indices 1 2 3 4 5 6 
#
# 1 130.0425 44.0343 19.9581 0.0000 0.0000 0.0000
# 2 44.0343 94.6523 11.8083 0.0000 0.0000 0.0000
# 3 19.9581 11.8083 55.9723 0.0000 0.0000 0.0000
# 4 0.0000 0.0000 0.0000 8.5605 0.0000 0.0000
# 5 0.0000 0.0000 0.0000 0.0000 41.8829 0.0000
# 6 0.0000 0.0000 0.0000 0.0000 0.0000 26.4324
#
#
#
# Elastic Compliance Matrix: (Units=1/GPa)
#
#
# Indices 1 2 3 4 5 6 
#
# 1 0.009459 -0.004087 -0.002511 0.000000 0.000000 0.000000
# 2 -0.004087 0.012617 -0.001204 0.000000 0.000000 0.000000
# 3 -0.002511 -0.001204 0.019015 0.000000 0.000000 0.000000
# 4 0.000000 0.000000 0.000000 0.116816 0.000000 0.000000
# 5 0.000000 0.000000 0.000000 0.000000 0.023876 0.000000
# 6 0.000000 0.000000 0.000000 0.000000 0.000000 0.037832
#
#
# Mechanical properties :
#
#
# Convention : Reuss Voigt Hill
#
# Bulk Modulus (GPa) = 39.23613 48.02983 43.63298
# Shear Modulus (GPa) = 20.51575 29.03293 24.77434
#
# Velocity S-wave (km/s) = 3.07882 3.66257 3.38331
# Velocity P-wave (km/s) = 5.54685 6.33069 5.95169
#
# Compressibility (1/GPa) = 0.02548671
#
# Stress axis : x y z
#
# Youngs Moduli (GPa) = 105.71776 79.25959 52.58940
#
# Poissons Ratio (x) = 0.32397 0.13203
# Poissons Ratio (y) = 0.43211 0.06333
# Poissons Ratio (z) = 0.26541 0.09545
#
# Static dielectric constant tensor:
#      x y z
#    x 1.776360 0.000000 0.000000 
#    y 0.000000 1.874610 0.000000 
#    z 0.000000 0.000000 1.805890 
# 
# From -- ./inp_files/24120.got.cif
#   From: 2010.05.17/outbox.cif.g08.bks.cpg/sg24_13_cif.got.tgz:24120.got - 2010.06.04 00:33:39.
