data_PCOD9335296
_publ_section_title
;
Structure prediction by ZEFSAII (Michael W. Deem and Ramdas Pophale) SiO2 
 PCOD9335296
Probable space group: I 21 21 21
;
_chemical_formula_sum "Si O2"
_cell_formula_units_Z 60
_cell_length_a 7.341397
_cell_length_b 25.714090
_cell_length_c 14.092609
_cell_angle_alpha 90.000000
_cell_angle_beta 90.000000
_cell_angle_gamma 90.000000
_cell_volume 2660.365286
_symmetry_space_group_name_H-M "I 21 21 21"
_symmetry_group_IT_number 24
_symmetry_cell_setting 'orthorhombic'
loop_
_space_group_symop_operation_xyz
x,y,z
-x,1/2-y,z
x,-y,1/2-z
1/2-x,y,-z
1/2+x,1/2+y,1/2+z
1/2-x,-y,1/2+z
1/2+x,1/2-y,-z
-x,1/2+y,1/2-z
loop_
_atom_site_type_symbol
_atom_site_label
_atom_site_fract_x
_atom_site_fract_y
_atom_site_fract_z
Si Si1 0.698333 0.392186 0.789430
Si Si2 0.155860 0.219640 0.278933
Si Si3 0.366010 0.932511 0.096533
Si Si4 0.975452 0.551427 0.579585
Si Si5 0.500000 0.250000 0.377857
Si Si6 0.551206 0.175652 0.536712
Si Si7 0.380210 0.455395 0.865877
Si Si8 0.286056 0.433379 0.600936
O O1 0.712758 0.330876 0.777695
O O2 0.761960 0.415827 0.689586
O O3 0.496546 0.415188 0.804435
O O4 0.829227 0.410611 0.874245
O O5 0.324149 0.255071 0.311058
O O6 0.000000 0.250000 0.223328
O O7 0.050787 0.199663 0.373934
O O8 0.577778 0.915065 0.119890
O O9 0.387980 0.994418 0.092127
O O10 0.250000 0.916792 0.000000
O O11 0.165259 0.556346 0.636617
O O12 0.033025 0.555300 0.470091
O O13 0.451101 0.199175 0.443285
O O14 0.750000 0.194675 0.500000
O O15 0.596232 0.117073 0.573325
O O16 0.381038 0.518248 0.846490
O O17 0.250000 0.461621 0.500000
#
# Coordination Sequence:
#
# PCOD9335296 Si02
#       8
#     8   8   8   8   4   8   8   8
#     4  12  28  40  70 104 138 188 239 295 351 427
#     4  12  28  45  63  97 134 179 233 300 358 410
#     4  11  24  40  58  99 152 190 239 280 338 421
#     4  10  22  44  69 101 134 181 234 291 356 430
#     4  12  24  46  72  90 134 186 246 302 338 400
#     4  11  22  40  67  92 131 189 242 276 331 402
#     4  10  21  48  73  97 144 187 229 296 363 421
#     4  10  22  39  68  99 139 195 230 283 343 422
#
# _framework density 22.553294000000001
#
# number of rings (size 3 to 8) (size 9 to 14) (size 15 to 20)
#    0.000    1.067    4.667    2.000    7.467    3.200 
#    0.000   10.667    0.000    0.000   13.867    0.000 
#    0.000    0.000    0.000    0.000    0.000    0.000 
#
# Total GULP energy -167300.734628 kJ/mol
# GULP energy per Si atom -5576.691154 kJ/mol
# Density = 2.250196 g / cm^3
# Si number density = 22.553294 Si / 1000 Ang^3
#
#
#
# Elastic Constant Matrix: (Units=GPa)
#
#
# Indices 1 2 3 4 5 6 
#
# 1 132.6974 37.9858 22.4612 0.0000 0.0000 0.0000
# 2 37.9858 93.4324 26.1679 -0.0001 0.0000 0.0000
# 3 22.4612 26.1679 50.0553 -0.0002 0.0000 0.0000
# 4 0.0000 -0.0001 -0.0002 33.3114 0.0000 0.0000
# 5 0.0000 0.0000 0.0000 0.0000 38.1647 0.0000
# 6 0.0000 0.0000 0.0000 0.0000 0.0000 30.1046
#
#
#
# Elastic Compliance Matrix: (Units=1/GPa)
#
#
# Indices 1 2 3 4 5 6 
#
# 1 0.008773 -0.002887 -0.002428 0.000000 0.000000 0.000000
# 2 -0.002887 0.013489 -0.005756 0.000000 0.000000 0.000000
# 3 -0.002428 -0.005756 0.024076 0.000000 0.000000 0.000000
# 4 0.000000 0.000000 0.000000 0.030020 0.000000 0.000000
# 5 0.000000 0.000000 0.000000 0.000000 0.026202 0.000000
# 6 0.000000 0.000000 0.000000 0.000000 0.000000 0.033218
#
#
# Mechanical properties :
#
#
# Convention : Reuss Voigt Hill
#
# Bulk Modulus (GPa) = 41.32735 49.93498 45.63117
# Shear Modulus (GPa) = 30.12315 32.95414 31.53865
#
# Velocity S-wave (km/s) = 3.65861 3.82667 3.74358
# Velocity P-wave (km/s) = 6.01758 6.45860 6.24199
#
# Compressibility (1/GPa) = 0.02419705
#
# Stress axis : x y z
#
# Youngs Moduli (GPa) = 113.98272 74.13548 41.53431
#
# Poissons Ratio (x) = 0.21403 0.10083
# Poissons Ratio (y) = 0.32906 0.23908
# Poissons Ratio (z) = 0.27670 0.42674
#
# Static dielectric constant tensor:
#      x y z
#    x 1.986390 0.000000 0.000000 
#    y 0.000000 1.895510 0.000000 
#    z 0.000000 0.000000 1.885630 
# 
# From -- ./inp_files/25196.got.cif
#   From: 2010.05.17/outbox.cif.g08.bks.cpg/sg24_13_cif.got.tgz:25196.got - 2010.06.04 00:33:39.
