data_PCOD9335668
_publ_section_title
;
Structure prediction by ZEFSAII (Michael W. Deem and Ramdas Pophale) SiO2 
 PCOD9335668
Probable space group: I 21 21 21
;
_chemical_formula_sum "Si O2"
_cell_formula_units_Z 56
_cell_length_a 20.949603
_cell_length_b 15.426524
_cell_length_c 8.224539
_cell_angle_alpha 90.000000
_cell_angle_beta 90.000000
_cell_angle_gamma 90.000000
_cell_volume 2658.002842
_symmetry_space_group_name_H-M "I 21 21 21"
_symmetry_group_IT_number 24
_symmetry_cell_setting 'orthorhombic'
loop_
_space_group_symop_operation_xyz
x,y,z
-x,1/2-y,z
x,-y,1/2-z
1/2-x,y,-z
1/2+x,1/2+y,1/2+z
1/2-x,-y,1/2+z
1/2+x,1/2-y,-z
-x,1/2+y,1/2-z
loop_
_atom_site_type_symbol
_atom_site_label
_atom_site_fract_x
_atom_site_fract_y
_atom_site_fract_z
Si Si1 0.250000 0.296786 0.500000
Si Si2 0.224202 0.625344 0.647593
Si Si3 0.563804 0.535468 0.930030
Si Si4 0.554765 0.870495 0.804552
Si Si5 0.530427 0.639302 0.473241
Si Si6 0.329021 0.500000 0.750000
Si Si7 0.089757 0.697974 0.663416
Si Si8 0.116743 0.781188 0.011470
O O1 0.232655 0.350024 0.662337
O O2 0.189473 0.240533 0.450888
O O3 0.250000 0.686084 0.500000
O O4 0.278161 0.549005 0.634880
O O5 0.147377 0.631591 0.626819
O O6 0.580438 0.500000 0.750000
O O7 0.491817 0.573724 0.919538
O O8 0.604641 0.617751 0.976530
O O9 0.566371 0.450863 0.040302
O O10 0.514283 0.865660 0.636195
O O11 0.621292 0.924099 0.799662
O O12 0.572074 0.775676 0.869798
O O13 0.477975 0.650152 0.332677
O O14 0.576571 0.722709 0.463529
O O15 0.103368 0.744807 0.832277
#
# Coordination Sequence:
#
# PCOD9335668 Si02
#       8
#     4   8   8   8   8   4   8   8
#     4  10  24  46  68  92 136 184 240 286 338 438
#     4  11  25  41  68  99 139 189 228 284 356 441
#     4  10  23  38  67 102 122 173 232 291 343 399
#     4  11  22  40  70  99 133 181 235 288 348 430
#     4  10  22  43  62  95 139 170 233 289 345 429
#     4  12  22  42  68 108 140 182 236 290 362 448
#     4  10  25  42  61 101 135 183 218 285 367 415
#     4  11  24  44  68  96 135 181 232 283 359 419
#
# _framework density 21.068449999999999
#
# number of rings (size 3 to 8) (size 9 to 14) (size 15 to 20)
#    0.000    1.429    3.571    1.286   13.000    0.571 
#    0.000    0.000    7.857    0.000    0.000    0.000 
#    0.000    0.000    0.000    0.000    0.000    0.000 
#
# Total GULP energy -155994.316619 kJ/mol
# GULP energy per Si atom -5571.225594 kJ/mol
# Density = 2.102050 g / cm^3
# Si number density = 21.068450 Si / 1000 Ang^3
#
#
#
# Elastic Constant Matrix: (Units=GPa)
#
#
# Indices 1 2 3 4 5 6 
#
# 1 88.6320 7.3837 6.9326 0.0000 0.0000 0.0000
# 2 7.3837 84.4943 8.1620 0.0000 0.0000 0.0000
# 3 6.9326 8.1620 45.1158 0.0000 0.0000 0.0000
# 4 0.0000 0.0000 0.0000 21.9857 0.0000 0.0000
# 5 0.0000 0.0000 0.0000 0.0000 22.8130 0.0000
# 6 0.0000 0.0000 0.0000 0.0000 0.0000 12.0329
#
#
#
# Elastic Compliance Matrix: (Units=1/GPa)
#
#
# Indices 1 2 3 4 5 6 
#
# 1 0.011479 -0.000848 -0.001611 0.000000 0.000000 0.000000
# 2 -0.000848 0.012108 -0.002060 0.000000 0.000000 0.000000
# 3 -0.001611 -0.002060 0.022785 0.000000 0.000000 0.000000
# 4 0.000000 0.000000 0.000000 0.045484 0.000000 0.000000
# 5 0.000000 0.000000 0.000000 0.000000 0.043835 0.000000
# 6 0.000000 0.000000 0.000000 0.000000 0.000000 0.083105
#
#
# Mechanical properties :
#
#
# Convention : Reuss Voigt Hill
#
# Bulk Modulus (GPa) = 26.78384 29.24430 28.01407
# Shear Modulus (GPa) = 20.80911 24.41722 22.61317
#
# Velocity S-wave (km/s) = 3.14616 3.40802 3.27971
# Velocity P-wave (km/s) = 5.09295 5.42189 5.25999
#
# Compressibility (1/GPa) = 0.03733594
#
# Stress axis : x y z
#
# Youngs Moduli (GPa) = 87.11413 82.58859 43.88769
#
# Poissons Ratio (x) = 0.07000 0.07069
# Poissons Ratio (y) = 0.07383 0.09042
# Poissons Ratio (z) = 0.14031 0.17016
#
# Static dielectric constant tensor:
#      x y z
#    x 1.757910 0.000000 0.000000 
#    y 0.000000 1.830720 0.000000 
#    z 0.000000 0.000000 1.992060 
# 
# From -- ./inp_files/15273.got.cif
#   From: 2010.05.17/outbox.cif.g08.bks.cpg/sg24_8_cif.got.tgz:15273.got - 2010.06.04 00:33:39.
