data_PCOD9335874
_publ_section_title
;
Structure prediction by ZEFSAII (Michael W. Deem and Ramdas Pophale) SiO2 
 PCOD9335874
Probable space group: I 21 21 21
;
_chemical_formula_sum "Si O2"
_cell_formula_units_Z 40
_cell_length_a 26.845515
_cell_length_b 5.212371
_cell_length_c 13.116307
_cell_angle_alpha 90.000000
_cell_angle_beta 90.000000
_cell_angle_gamma 90.000000
_cell_volume 1835.348887
_symmetry_space_group_name_H-M "I 21 21 21"
_symmetry_group_IT_number 24
_symmetry_cell_setting 'orthorhombic'
loop_
_space_group_symop_operation_xyz
x,y,z
-x,1/2-y,z
x,-y,1/2-z
1/2-x,y,-z
1/2+x,1/2+y,1/2+z
1/2-x,-y,1/2+z
1/2+x,1/2-y,-z
-x,1/2+y,1/2-z
loop_
_atom_site_type_symbol
_atom_site_label
_atom_site_fract_x
_atom_site_fract_y
_atom_site_fract_z
Si Si1 0.800113 0.245317 0.822037
Si Si2 0.059353 0.243368 0.809306
Si Si3 0.187121 0.754420 0.319755
Si Si4 0.965428 0.004879 0.369463
Si Si5 0.117089 0.684942 0.502477
O O1 0.807887 0.500000 0.750000
O O2 0.743447 0.254274 0.863567
O O3 0.839210 0.180227 0.911748
O O4 0.801758 0.000000 0.750000
O O5 0.076918 0.500000 0.750000
O O6 0.074819 0.198302 0.925292
O O7 0.000000 0.250000 0.804267
O O8 0.079041 0.000000 0.750000
O O9 0.180400 0.500000 0.250000
O O10 0.146127 0.793693 0.406341
O O11 0.184145 0.000000 0.250000
O O12 0.917720 0.025134 0.444457
O O13 0.000000 0.750000 0.384640
O O14 0.949341 0.000000 0.250000
O O15 0.000000 0.250000 0.385109
#
# Coordination Sequence:
#
# PCOD9335874 Si02
#       5
#     8   8   8   8   8
#     4  10  23  43  64  94 133 167 208 265 324 384
#     4  10  23  41  59  86 123 159 203 260 316 373
#     4  10  24  43  63  94 133 167 208 265 323 384
#     4  10  24  43  61  89 130 168 210 267 324 381
#     4  12  23  40  69  95 120 169 219 259 316 386
#
# _framework density 21.794221
#
# number of rings (size 3 to 8) (size 9 to 14) (size 15 to 20)
#    0.000    1.600    0.000    3.000    0.000   12.800 
#    0.000    6.000    0.000    0.000    0.000    0.000 
#    0.000    0.000    0.000    0.000    0.000    0.000 
#
# Total GULP energy -111347.951423 kJ/mol
# GULP energy per Si atom -5567.397571 kJ/mol
# Density = 2.174462 g / cm^3
# Si number density = 21.794221 Si / 1000 Ang^3
#
#
#
# Elastic Constant Matrix: (Units=GPa)
#
#
# Indices 1 2 3 4 5 6 
#
# 1 82.1629 37.6495 42.8605 0.0000 0.0000 0.0000
# 2 37.6495 146.7114 44.4242 0.0000 0.0000 0.0000
# 3 42.8605 44.4242 115.4754 0.0000 0.0000 0.0000
# 4 0.0000 0.0000 0.0000 13.1850 0.0000 0.0000
# 5 0.0000 0.0000 0.0000 0.0000 75.1325 0.0000
# 6 0.0000 0.0000 0.0000 0.0000 0.0000 33.1989
#
#
#
# Elastic Compliance Matrix: (Units=1/GPa)
#
#
# Indices 1 2 3 4 5 6 
#
# 1 0.015924 -0.002600 -0.004910 0.000000 0.000000 0.000000
# 2 -0.002600 0.008139 -0.002166 0.000000 0.000000 0.000000
# 3 -0.004910 -0.002166 0.011316 0.000000 0.000000 0.000000
# 4 0.000000 0.000000 0.000000 0.075844 0.000000 0.000000
# 5 0.000000 0.000000 0.000000 0.000000 0.013310 0.000000
# 6 0.000000 0.000000 0.000000 0.000000 0.000000 0.030121
#
#
# Mechanical properties :
#
#
# Convention : Reuss Voigt Hill
#
# Bulk Modulus (GPa) = 62.39741 66.02424 64.21083
# Shear Modulus (GPa) = 27.87876 38.93098 33.40487
#
# Velocity S-wave (km/s) = 3.58044 4.23105 3.91927
# Velocity P-wave (km/s) = 6.76648 7.36405 7.07158
#
# Compressibility (1/GPa) = 0.01602631
#
# Stress axis : x y z
#
# Youngs Moduli (GPa) = 62.80001 122.86256 88.37228
#
# Poissons Ratio (x) = 0.31939 0.43393
# Poissons Ratio (y) = 0.16325 0.19144
# Poissons Ratio (z) = 0.30836 0.26616
#
# Static dielectric constant tensor:
#      x y z
#    x 1.871370 0.000000 0.000000 
#    y 0.000000 1.764030 0.000000 
#    z 0.000000 0.000000 1.749450 
# 
# From -- ./inp_files/22801.got.cif
#   From: 2010.05.17/outbox.cif.g08.bks.cpg/sg24_12_cif.got.tgz:22801.got - 2010.06.04 00:33:39.
