data_PCOD9335414
_publ_section_title
;
Structure prediction by ZEFSAII (Michael W. Deem and Ramdas Pophale) SiO2 
 PCOD9335414
Probable space group: I 21 21 21
;
_chemical_formula_sum "Si O2"
_cell_formula_units_Z 20
_cell_length_a 5.634078
_cell_length_b 7.411651
_cell_length_c 22.436861
_cell_angle_alpha 90.000000
_cell_angle_beta 90.000000
_cell_angle_gamma 90.000000
_cell_volume 936.914399
_symmetry_space_group_name_H-M "I 21 21 21"
_symmetry_group_IT_number 24
_symmetry_cell_setting 'orthorhombic'
loop_
_space_group_symop_operation_xyz
x,y,z
-x,1/2-y,z
x,-y,1/2-z
1/2-x,y,-z
1/2+x,1/2+y,1/2+z
1/2-x,-y,1/2+z
1/2+x,1/2-y,-z
-x,1/2+y,1/2-z
loop_
_atom_site_type_symbol
_atom_site_label
_atom_site_fract_x
_atom_site_fract_y
_atom_site_fract_z
Si Si1 0.618395 0.447531 0.629967
Si Si2 0.363452 0.500000 0.750000
Si Si3 0.000000 0.250000 0.688635
Si Si4 0.000000 0.750000 0.465212
O O1 0.500000 0.250000 0.620268
O O2 0.514266 0.530220 0.690845
O O3 0.562700 0.578794 0.576254
O O4 0.890937 0.403642 0.646134
O O5 0.198902 0.333388 0.730905
O O6 0.750000 0.785701 0.500000
#
# Coordination Sequence:
#
# PCOD9335414 Si02
#       4
#     8   4   4   4
#     4  10  25  45  71 109 148 195 247 312 386 444
#     4  10  22  38  70 112 144 192 234 312 392 452
#     4  10  22  39  70 108 151 192 230 316 384 460
#     4  12  32  51  78 108 149 210 264 308 358 454
#
# _framework density 21.346665999999999
#
# number of rings (size 3 to 8) (size 9 to 14) (size 15 to 20)
#    0.000    1.600    0.000    1.200   25.200    1.600 
#    0.000    0.000    0.000    0.000    0.000    0.000 
#    0.000    0.000    0.000    0.000    0.000    0.000 
#
# Total GULP energy -55855.950330 kJ/mol
# GULP energy per Si atom -5585.595033 kJ/mol
# Density = 2.129808 g / cm^3
# Si number density = 21.346666 Si / 1000 Ang^3
#
#
#
# Elastic Constant Matrix: (Units=GPa)
#
#
# Indices 1 2 3 4 5 6 
#
# 1 130.7048 44.0734 80.5858 0.0000 0.0000 0.0000
# 2 44.0734 123.8156 74.3440 0.0000 0.0000 0.0000
# 3 80.5858 74.3440 145.6895 0.0000 0.0000 0.0000
# 4 0.0000 0.0000 0.0000 42.1994 0.0000 0.0000
# 5 0.0000 0.0000 0.0000 0.0000 19.9459 0.0000
# 6 0.0000 0.0000 0.0000 0.0000 0.0000 25.4779
#
#
#
# Elastic Compliance Matrix: (Units=1/GPa)
#
#
# Indices 1 2 3 4 5 6 
#
# 1 0.011624 -0.000399 -0.006226 0.000000 0.000000 0.000000
# 2 -0.000399 0.011658 -0.005728 0.000000 0.000000 0.000000
# 3 -0.006226 -0.005728 0.013231 0.000000 0.000000 0.000000
# 4 0.000000 0.000000 0.000000 0.023697 0.000000 0.000000
# 5 0.000000 0.000000 0.000000 0.000000 0.050136 0.000000
# 6 0.000000 0.000000 0.000000 0.000000 0.000000 0.039250
#
#
# Mechanical properties :
#
#
# Convention : Reuss Voigt Hill
#
# Bulk Modulus (GPa) = 84.70226 88.69071 86.69648
# Shear Modulus (GPa) = 28.05250 30.93839 29.49545
#
# Velocity S-wave (km/s) = 3.62904 3.81114 3.72120
# Velocity P-wave (km/s) = 7.57136 7.81053 7.69187
#
# Compressibility (1/GPa) = 0.01180606
#
# Stress axis : x y z
#
# Youngs Moduli (GPa) = 86.02870 85.77735 75.58248
#
# Poissons Ratio (x) = 0.03427 0.47056
# Poissons Ratio (y) = 0.03437 0.43294
# Poissons Ratio (z) = 0.53560 0.49134
#
# Static dielectric constant tensor:
#      x y z
#    x 1.870070 0.000000 0.000000 
#    y 0.000000 1.793870 0.000000 
#    z 0.000000 0.000000 1.735230 
# 
# From -- ./inp_files/613.got.cif
#   From: 2010.05.17/outbox.cif.g08.bks.cpg/sg24_1_cif.got.tgz:613.got - 2010.06.04 00:33:39.
