data_PCOD9335429
_publ_section_title
;
Structure prediction by ZEFSAII (Michael W. Deem and Ramdas Pophale) SiO2 
 PCOD9335429
Probable space group: I 21 21 21
;
_chemical_formula_sum "Si O2"
_cell_formula_units_Z 64
_cell_length_a 19.146439
_cell_length_b 14.025517
_cell_length_c 11.831150
_cell_angle_alpha 90.000000
_cell_angle_beta 90.000000
_cell_angle_gamma 90.000000
_cell_volume 3177.121708
_symmetry_space_group_name_H-M "I 21 21 21"
_symmetry_group_IT_number 24
_symmetry_cell_setting 'orthorhombic'
loop_
_space_group_symop_operation_xyz
x,y,z
-x,1/2-y,z
x,-y,1/2-z
1/2-x,y,-z
1/2+x,1/2+y,1/2+z
1/2-x,-y,1/2+z
1/2+x,1/2-y,-z
-x,1/2+y,1/2-z
loop_
_atom_site_type_symbol
_atom_site_label
_atom_site_fract_x
_atom_site_fract_y
_atom_site_fract_z
Si Si1 0.222213 0.454795 0.128428
Si Si2 0.884025 0.272884 0.274045
Si Si3 0.166161 0.281116 0.522523
Si Si4 0.530578 0.095965 0.179045
Si Si5 0.409311 0.469737 0.512494
Si Si6 0.480182 0.394214 0.707919
Si Si7 0.108012 0.790341 0.746785
Si Si8 0.747954 0.728780 0.630792
O O1 0.245100 0.500000 0.250000
O O2 0.240580 0.343713 0.141726
O O3 0.250000 0.477444 0.000000
O O4 0.142640 0.487695 0.107185
O O5 0.861348 0.256512 0.402795
O O6 0.947420 0.344774 0.266875
O O7 0.819815 0.305295 0.198165
O O8 0.918530 0.171182 0.241975
O O9 0.250000 0.283800 0.500000
O O10 0.137551 0.388359 0.548845
O O11 0.132952 0.217292 0.622557
O O12 0.578572 0.185934 0.211398
O O13 0.452506 0.135474 0.208266
O O14 0.542008 0.000000 0.250000
O O15 0.555056 0.055440 0.056713
O O16 0.467417 0.405301 0.573839
O O17 0.482046 0.500000 0.750000
O O18 0.180111 0.806667 0.682489
O O19 0.750000 0.704381 0.500000
#
# Coordination Sequence:
#
# PCOD9335429 Si02
#       8
#     8   8   8   8   8   8   8   8
#     4  11  23  36  62  97 138 176 223 282 355 427
#     4  10  22  39  66  92 126 166 212 273 335 387
#     4  11  21  38  67  98 128 167 221 288 334 399
#     4  11  24  42  63  94 137 178 224 283 337 418
#     4  11  22  38  63  96 133 175 222 277 351 411
#     4  10  22  39  63  94 124 165 217 265 326 402
#     4  11  25  40  66  97 131 180 227 268 349 408
#     4  11  23  41  60  90 132 170 215 271 336 414
#
# _framework density 20.144020000000001
#
# number of rings (size 3 to 8) (size 9 to 14) (size 15 to 20)
#    0.000    1.250    2.500    4.500    3.500    3.000 
#    0.000    3.125    0.000    0.000    0.000    0.000 
#    0.000    0.000    0.000    0.000    0.000    0.000 
#
# Total GULP energy -178301.905062 kJ/mol
# GULP energy per Si atom -5571.934533 kJ/mol
# Density = 2.009817 g / cm^3
# Si number density = 20.144020 Si / 1000 Ang^3
#
#
#
# Elastic Constant Matrix: (Units=GPa)
#
#
# Indices 1 2 3 4 5 6 
#
# 1 120.4746 9.1946 48.2447 0.0000 0.0000 0.0000
# 2 9.1946 38.0073 6.5290 0.0000 0.0000 0.0000
# 3 48.2447 6.5290 97.3800 0.0000 0.0000 0.0000
# 4 0.0000 0.0000 0.0000 2.2957 0.0000 0.0000
# 5 0.0000 0.0000 0.0000 0.0000 28.6677 0.0000
# 6 0.0000 0.0000 0.0000 0.0000 0.0000 20.1548
#
#
#
# Elastic Compliance Matrix: (Units=1/GPa)
#
#
# Indices 1 2 3 4 5 6 
#
# 1 0.010457 -0.001659 -0.005070 0.000000 0.000000 0.000000
# 2 -0.001659 0.026880 -0.000980 0.000000 0.000000 0.000000
# 3 -0.005070 -0.000980 0.012846 0.000000 0.000000 0.000000
# 4 0.000000 0.000000 0.000000 0.435588 0.000000 0.000000
# 5 0.000000 0.000000 0.000000 0.000000 0.034882 0.000000
# 6 0.000000 0.000000 0.000000 0.000000 0.000000 0.049616
#
#
# Mechanical properties :
#
#
# Convention : Reuss Voigt Hill
#
# Bulk Modulus (GPa) = 28.76340 42.64427 35.70384
# Shear Modulus (GPa) = 8.37132 23.01657 15.69395
#
# Velocity S-wave (km/s) = 2.04077 3.38390 2.79424
# Velocity P-wave (km/s) = 4.45678 6.04015 5.30784
#
# Compressibility (1/GPa) = 0.03476641
#
# Stress axis : x y z
#
# Youngs Moduli (GPa) = 95.62742 37.20170 77.84292
#
# Poissons Ratio (x) = 0.06171 0.39463
# Poissons Ratio (y) = 0.15864 0.07631
# Poissons Ratio (z) = 0.48479 0.03647
#
# Static dielectric constant tensor:
#      x y z
#    x 1.862130 0.000000 0.000000 
#    y 0.000000 1.712490 0.000000 
#    z 0.000000 0.000000 1.781660 
# 
# From -- ./inp_files/21705.got.cif
#   From: 2010.05.17/outbox.cif.g08.bks.cpg/sg24_11_cif.got.tgz:21705.got - 2010.06.04 00:33:39.
