data_PCOD9335942
_publ_section_title
;
Structure prediction by ZEFSAII (Michael W. Deem and Ramdas Pophale) SiO2 
 PCOD9335942
Probable space group: I 21 21 21
;
_chemical_formula_sum "Si O2"
_cell_formula_units_Z 48
_cell_length_a 12.194725
_cell_length_b 11.097162
_cell_length_c 17.115332
_cell_angle_alpha 90.000000
_cell_angle_beta 90.000000
_cell_angle_gamma 90.000000
_cell_volume 2316.163776
_symmetry_space_group_name_H-M "I 21 21 21"
_symmetry_group_IT_number 24
_symmetry_cell_setting 'orthorhombic'
loop_
_space_group_symop_operation_xyz
x,y,z
-x,1/2-y,z
x,-y,1/2-z
1/2-x,y,-z
1/2+x,1/2+y,1/2+z
1/2-x,-y,1/2+z
1/2+x,1/2-y,-z
-x,1/2+y,1/2-z
loop_
_atom_site_type_symbol
_atom_site_label
_atom_site_fract_x
_atom_site_fract_y
_atom_site_fract_z
Si Si1 0.381420 0.692472 0.129205
Si Si2 0.720810 0.382851 0.708566
Si Si3 0.147744 0.998877 0.052495
Si Si4 0.220697 0.503765 0.339901
Si Si5 0.436661 0.634850 0.957290
Si Si6 0.630603 0.263005 0.862694
O O1 0.500000 0.750000 0.147437
O O2 0.299800 0.786494 0.169148
O O3 0.340444 0.559822 0.156858
O O4 0.377715 0.682310 0.035274
O O5 0.775941 0.500000 0.750000
O O6 0.650805 0.436651 0.637613
O O7 0.655045 0.317790 0.777193
O O8 0.161341 0.139228 0.071925
O O9 0.250000 0.958359 0.000000
O O10 0.030527 0.961254 0.017735
O O11 0.183252 0.500000 0.250000
O O12 0.144546 0.422598 0.395427
O O13 0.200108 0.640015 0.368514
O O14 0.500000 0.750000 0.923744
O O15 0.500000 0.250000 0.869182
#
# Coordination Sequence:
#
# PCOD9335942 Si02
#       6
#     8   8   8   8   8   8
#     4  11  24  44  67  98 141 186 235 292 355 441
#     4  10  23  43  69  97 137 176 232 298 361 427
#     4  11  23  41  67  99 139 187 225 289 365 430
#     4  12  25  42  70 102 138 183 240 303 362 432
#     4  11  24  40  69 103 136 182 238 300 358 432
#     4  11  24  44  69 104 138 179 234 301 368 426
#
# _framework density 20.723922999999999
#
# number of rings (size 3 to 8) (size 9 to 14) (size 15 to 20)
#    0.000    1.000    3.333    3.500    2.333    3.333 
#    0.000    0.000    0.000    0.000    0.000    0.000 
#    0.000    0.000    0.000    0.000    0.000    0.000 
#
# Total GULP energy -133975.131743 kJ/mol
# GULP energy per Si atom -5582.297156 kJ/mol
# Density = 2.067675 g / cm^3
# Si number density = 20.723923 Si / 1000 Ang^3
#
#
#
# Elastic Constant Matrix: (Units=GPa)
#
#
# Indices 1 2 3 4 5 6 
#
# 1 75.6640 30.4566 29.5737 0.0000 0.0000 0.0000
# 2 30.4566 138.5200 25.6476 0.0000 0.0000 0.0000
# 3 29.5737 25.6476 85.8336 0.0000 0.0000 0.0000
# 4 0.0000 0.0000 0.0000 18.1659 0.0000 0.0000
# 5 0.0000 0.0000 0.0000 0.0000 16.2826 0.0000
# 6 0.0000 0.0000 0.0000 0.0000 0.0000 32.1233
#
#
#
# Elastic Compliance Matrix: (Units=1/GPa)
#
#
# Indices 1 2 3 4 5 6 
#
# 1 0.016154 -0.002669 -0.004768 0.000000 0.000000 0.000000
# 2 -0.002669 0.008083 -0.001496 0.000000 0.000000 0.000000
# 3 -0.004768 -0.001496 0.013740 0.000000 0.000000 0.000000
# 4 0.000000 0.000000 0.000000 0.055048 0.000000 0.000000
# 5 0.000000 0.000000 0.000000 0.000000 0.061415 0.000000
# 6 0.000000 0.000000 0.000000 0.000000 0.000000 0.031130
#
#
# Mechanical properties :
#
#
# Convention : Reuss Voigt Hill
#
# Bulk Modulus (GPa) = 49.72274 52.37481 51.04877
# Shear Modulus (GPa) = 23.79353 27.60368 25.69860
#
# Velocity S-wave (km/s) = 3.39207 3.65358 3.52525
# Velocity P-wave (km/s) = 6.27587 6.56701 6.42309
#
# Compressibility (1/GPa) = 0.02011152
#
# Stress axis : x y z
#
# Youngs Moduli (GPa) = 61.90253 123.71745 72.77861
#
# Poissons Ratio (x) = 0.33020 0.34704
# Poissons Ratio (y) = 0.16522 0.10885
# Poissons Ratio (z) = 0.29518 0.18504
#
# Static dielectric constant tensor:
#      x y z
#    x 1.795490 0.000000 0.000000 
#    y 0.000000 1.807510 0.000000 
#    z 0.000000 0.000000 1.722580 
# 
# From -- ./inp_files/19705.got.cif
#   From: 2010.05.17/outbox.cif.g08.bks.cpg/sg24_10_cif.got.tgz:19705.got - 2010.06.04 00:33:39.
