data_PCOD9335361
_publ_section_title
;
Structure prediction by ZEFSAII (Michael W. Deem and Ramdas Pophale) SiO2 
 PCOD9335361
Probable space group: I 21 21 21
;
_chemical_formula_sum "Si O2"
_cell_formula_units_Z 40
_cell_length_a 11.033261
_cell_length_b 6.497767
_cell_length_c 27.661063
_cell_angle_alpha 90.000000
_cell_angle_beta 90.000000
_cell_angle_gamma 90.000000
_cell_volume 1983.064736
_symmetry_space_group_name_H-M "I 21 21 21"
_symmetry_group_IT_number 24
_symmetry_cell_setting 'orthorhombic'
loop_
_space_group_symop_operation_xyz
x,y,z
-x,1/2-y,z
x,-y,1/2-z
1/2-x,y,-z
1/2+x,1/2+y,1/2+z
1/2-x,-y,1/2+z
1/2+x,1/2-y,-z
-x,1/2+y,1/2-z
loop_
_atom_site_type_symbol
_atom_site_label
_atom_site_fract_x
_atom_site_fract_y
_atom_site_fract_z
Si Si1 0.289044 0.965954 0.802557
Si Si2 0.366383 0.231548 0.123614
Si Si3 0.500000 0.250000 0.824341
Si Si4 0.500000 0.750000 0.953620
Si Si5 0.676119 0.075395 0.628527
Si Si6 0.886296 0.390943 0.985531
O O1 0.309399 0.742419 0.827730
O O2 0.229214 0.000000 0.750000
O O3 0.213476 0.090736 0.842088
O O4 0.414276 0.092254 0.796759
O O5 0.500000 0.250000 0.144982
O O6 0.301029 0.453904 0.117275
O O7 0.382242 0.117870 0.072328
O O8 0.413911 0.394728 0.855350
O O9 0.605915 0.830401 0.917361
O O10 0.575401 0.600408 0.988754
O O11 0.000000 0.250000 0.000944
O O12 0.750000 0.325765 0.000000
#
# Coordination Sequence:
#
# PCOD9335361 Si02
#       6
#     8   8   4   4   8   8
#     4  11  24  42  70 102 134 178 233 293 357 422
#     4  10  25  46  64  93 143 185 231 292 336 420
#     4  10  22  37  66 100 142 162 213 278 360 418
#     4  12  24  39  74 106 136 184 235 296 360 426
#     4  11  23  43  70 101 137 183 225 288 358 420
#     4  11  25  42  66  99 139 185 238 288 351 423
#
# _framework density 20.1708
#
# number of rings (size 3 to 8) (size 9 to 14) (size 15 to 20)
#    0.000    1.200    2.000    2.400    7.000   10.400 
#    3.600    0.000    0.000    0.000    0.000    0.000 
#    0.000    0.000    0.000    0.000    0.000    0.000 
#
# Total GULP energy -111460.116254 kJ/mol
# GULP energy per Si atom -5573.005813 kJ/mol
# Density = 2.012489 g / cm^3
# Si number density = 20.170800 Si / 1000 Ang^3
#
#
#
# Elastic Constant Matrix: (Units=GPa)
#
#
# Indices 1 2 3 4 5 6 
#
# 1 133.0111 54.8976 24.2336 0.0000 0.0000 0.0000
# 2 54.8976 121.7093 75.4601 0.0000 0.0000 0.0000
# 3 24.2336 75.4601 100.4658 0.0000 0.0000 0.0000
# 4 0.0000 0.0000 0.0000 -1.7615 0.0000 0.0000
# 5 0.0000 0.0000 0.0000 0.0000 24.2457 0.0000
# 6 0.0000 0.0000 0.0000 0.0000 0.0000 6.8274
#
#
#
# Elastic Compliance Matrix: (Units=1/GPa)
#
#
# Indices 1 2 3 4 5 6 
#
# 1 0.009393 -0.005300 0.001715 0.000000 0.000000 0.000000
# 2 -0.005300 0.018368 -0.012518 0.000000 0.000000 0.000000
# 3 0.001715 -0.012518 0.018942 0.000000 0.000000 0.000000
# 4 0.000000 0.000000 0.000000 -0.567705 0.000000 0.000000
# 5 0.000000 0.000000 0.000000 0.000000 0.041244 0.000000
# 6 0.000000 0.000000 0.000000 0.000000 0.000000 0.146468
#
#
# Mechanical properties :
#
#
# Convention : Reuss Voigt Hill
#
# Bulk Modulus (GPa) = 68.97632 73.81874 71.39753
# Shear Modulus (GPa) = -16.87758 19.23532 1.17887
#
# Velocity S-wave (km/s) = -2.89577 3.09143 0.76532
# Velocity P-wave (km/s) = 4.80517 7.02985 6.02115
#
# Compressibility (1/GPa) = 0.01449773
#
# Stress axis : x y z
#
# Youngs Moduli (GPa) = 106.45902 54.44185 52.79250
#
# Poissons Ratio (x) = 0.28857 -0.09056
# Poissons Ratio (y) = 0.56428 0.66085
# Poissons Ratio (z) = -0.18262 0.68150
#
# Static dielectric constant tensor:
#      x y z
#    x 1.817840 0.000000 0.000000 
#    y 0.000000 1.794640 0.000000 
#    z 0.000000 0.000000 1.732000 
# 
# From -- ./inp_files/2522.got.cif
#   From: 2010.05.17/outbox.cif.g08.bks.cpg/sg24_2_cif.got.tgz:2522.got - 2010.06.04 00:33:39.
