data_PCOD9335018
_publ_section_title
;
Structure prediction by ZEFSAII (Michael W. Deem and Ramdas Pophale) SiO2 
 PCOD9335018
Probable space group: I 21 21 21
;
_chemical_formula_sum "Si O2"
_cell_formula_units_Z 36
_cell_length_a 21.291334
_cell_length_b 8.547202
_cell_length_c 7.875576
_cell_angle_alpha 90.000000
_cell_angle_beta 90.000000
_cell_angle_gamma 90.000000
_cell_volume 1433.207815
_symmetry_space_group_name_H-M "I 21 21 21"
_symmetry_group_IT_number 24
_symmetry_cell_setting 'orthorhombic'
loop_
_space_group_symop_operation_xyz
x,y,z
-x,1/2-y,z
x,-y,1/2-z
1/2-x,y,-z
1/2+x,1/2+y,1/2+z
1/2-x,-y,1/2+z
1/2+x,1/2-y,-z
-x,1/2+y,1/2-z
loop_
_atom_site_type_symbol
_atom_site_label
_atom_site_fract_x
_atom_site_fract_y
_atom_site_fract_z
Si Si1 0.379464 0.139887 0.114589
Si Si2 0.000000 0.250000 0.707977
Si Si3 0.649140 0.836781 0.858359
Si Si4 0.781736 0.178385 0.723514
Si Si5 0.547846 0.421325 0.596887
O O1 0.438425 0.242773 0.178056
O O2 0.319507 0.247579 0.122654
O O3 0.367684 0.000000 0.250000
O O4 0.399457 0.050007 0.947952
O O5 0.008962 0.106461 0.575631
O O6 0.712510 0.748407 0.792550
O O7 0.585037 0.737022 0.859309
O O8 0.640526 0.000000 0.750000
O O9 0.671658 0.834802 0.058776
O O10 0.766040 0.000000 0.750000
O O11 0.511108 0.500000 0.750000
#
# Coordination Sequence:
#
# PCOD9335018 Si02
#       5
#     8   4   8   8   8
#     4  10  21  43  66  94 125 169 228 271 325 400
#     4  10  22  44  62  90 124 166 218 278 334 396
#     4  10  22  42  62  98 137 172 216 271 337 398
#     4  10  21  39  67  95 132 178 221 263 325 410
#     4  11  25  44  66 100 132 170 225 284 338 393
#
# _framework density 25.118478
#
# number of rings (size 3 to 8) (size 9 to 14) (size 15 to 20)
#    0.000    1.778    4.444    0.000    3.111    5.333 
#    0.000    0.000    0.000    0.000    0.000    0.000 
#    0.000    0.000    0.000    0.000    0.000    0.000 
#
# Total GULP energy -100368.169191 kJ/mol
# GULP energy per Si atom -5576.009399 kJ/mol
# Density = 2.506131 g / cm^3
# Si number density = 25.118478 Si / 1000 Ang^3
#
#
#
# Elastic Constant Matrix: (Units=GPa)
#
#
# Indices 1 2 3 4 5 6 
#
# 1 93.6241 52.8552 1.6114 0.0000 0.0000 0.0000
# 2 52.8552 74.6005 29.6255 0.0000 0.0000 0.0000
# 3 1.6114 29.6255 77.7719 0.0000 0.0000 0.0000
# 4 0.0000 0.0000 0.0000 54.7736 0.0000 0.0000
# 5 0.0000 0.0000 0.0000 0.0000 -87.3921 0.0000
# 6 0.0000 0.0000 0.0000 0.0000 0.0000 68.9152
#
#
#
# Elastic Compliance Matrix: (Units=1/GPa)
#
#
# Indices 1 2 3 4 5 6 
#
# 1 0.019807 -0.016343 0.005815 0.000000 0.000000 0.000000
# 2 -0.016343 0.029279 -0.010814 0.000000 0.000000 0.000000
# 3 0.005815 -0.010814 0.016857 0.000000 0.000000 0.000000
# 4 0.000000 0.000000 0.000000 0.018257 0.000000 0.000000
# 5 0.000000 0.000000 0.000000 0.000000 -0.011443 0.000000
# 6 0.000000 0.000000 0.000000 0.000000 0.000000 0.014511
#
#
# Mechanical properties :
#
#
# Convention : Reuss Voigt Hill
#
# Bulk Modulus (GPa) = 42.99517 46.02007 44.50762
# Shear Modulus (GPa) = 36.30943 18.05295 27.18119
#
# Velocity S-wave (km/s) = 3.80613 2.68379 3.29313
# Velocity P-wave (km/s) = 6.03901 5.28816 5.67601
#
# Compressibility (1/GPa) = 0.02325843
#
# Stress axis : x y z
#
# Youngs Moduli (GPa) = 50.48639 34.15468 59.32210
#
# Poissons Ratio (x) = 0.55819 -0.34496
# Poissons Ratio (y) = 0.82510 0.64153
# Poissons Ratio (z) = -0.29358 0.36936
#
# Static dielectric constant tensor:
#      x y z
#    x 1.978440 0.000000 0.000000 
#    y 0.000000 2.015730 0.000000 
#    z 0.000000 0.000000 2.089930 
# 
# From -- ./inp_files/14829.got.cif
#   From: 2010.05.17/outbox.cif.g08.bks.cpg/sg24_8_cif.got.tgz:14829.got - 2010.06.04 00:33:39.
