data_PCOD9335255
_publ_section_title
;
Structure prediction by ZEFSAII (Michael W. Deem and Ramdas Pophale) SiO2 
 PCOD9335255
Probable space group: I 21 21 21
;
_chemical_formula_sum "Si O2"
_cell_formula_units_Z 32
_cell_length_a 13.593103
_cell_length_b 7.191742
_cell_length_c 12.538272
_cell_angle_alpha 90.000000
_cell_angle_beta 90.000000
_cell_angle_gamma 90.000000
_cell_volume 1225.717520
_symmetry_space_group_name_H-M "I 21 21 21"
_symmetry_group_IT_number 24
_symmetry_cell_setting 'orthorhombic'
loop_
_space_group_symop_operation_xyz
x,y,z
-x,1/2-y,z
x,-y,1/2-z
1/2-x,y,-z
1/2+x,1/2+y,1/2+z
1/2-x,-y,1/2+z
1/2+x,1/2-y,-z
-x,1/2+y,1/2-z
loop_
_atom_site_type_symbol
_atom_site_label
_atom_site_fract_x
_atom_site_fract_y
_atom_site_fract_z
Si Si1 0.499003 0.029696 0.130983
Si Si2 0.222778 0.000000 0.250000
Si Si3 0.455493 0.959175 0.596444
Si Si4 0.215211 0.646026 0.881946
Si Si5 0.878981 0.000000 0.250000
O O1 0.500000 0.250000 0.121369
O O2 0.460427 0.000000 0.250000
O O3 0.606826 0.939251 0.124019
O O4 0.443969 0.966325 0.023532
O O5 0.147244 0.941780 0.343520
O O6 0.274519 0.820461 0.199035
O O7 0.500000 0.750000 0.596759
O O8 0.536147 0.070734 0.666106
O O9 0.294340 0.492088 0.842646
O O10 0.250000 0.699384 0.000000
#
# Coordination Sequence:
#
# PCOD9335255 Si02
#       5
#     8   4   8   8   4
#     4  11  26  49  76 111 164 218 273 350 435 510
#     4  11  26  46  78 117 166 218 284 349 414 509
#     4  10  21  43  76 114 154 209 273 342 423 494
#     4  12  25  48  78 123 163 219 290 352 422 507
#     4  11  20  42  78 111 154 202 272 351 408 499
#
# _framework density 26.107157999999998
#
# number of rings (size 3 to 8) (size 9 to 14) (size 15 to 20)
#    0.000    1.000    6.250    0.000    0.000    2.000 
#   11.250    1.250    0.000    0.000    0.000    0.000 
#    0.000    0.000    0.000    0.000    0.000    0.000 
#
# Total GULP energy -89172.577131 kJ/mol
# GULP energy per Si atom -5573.286071 kJ/mol
# Density = 2.604774 g / cm^3
# Si number density = 26.107158 Si / 1000 Ang^3
#
#
#
# Elastic Constant Matrix: (Units=GPa)
#
#
# Indices 1 2 3 4 5 6 
#
# 1 136.9900 79.2297 75.0969 0.0000 0.0000 0.0000
# 2 79.2297 131.8349 48.5659 0.0000 0.0000 0.0000
# 3 75.0969 48.5659 263.6116 0.0000 0.0000 0.0000
# 4 0.0000 0.0000 0.0000 -3.8168 0.0000 0.0000
# 5 0.0000 0.0000 0.0000 0.0000 53.8213 0.0000
# 6 0.0000 0.0000 0.0000 0.0000 0.0000 37.8965
#
#
#
# Elastic Compliance Matrix: (Units=1/GPa)
#
#
# Indices 1 2 3 4 5 6 
#
# 1 0.012377 -0.006586 -0.002312 0.000000 0.000000 0.000000
# 2 -0.006586 0.011642 -0.000269 0.000000 0.000000 0.000000
# 3 -0.002312 -0.000269 0.004502 0.000000 0.000000 0.000000
# 4 0.000000 0.000000 0.000000 -0.261999 0.000000 0.000000
# 5 0.000000 0.000000 0.000000 0.000000 0.018580 0.000000
# 6 0.000000 0.000000 0.000000 0.000000 0.000000 0.026388
#
#
# Mechanical properties :
#
#
# Convention : Reuss Voigt Hill
#
# Bulk Modulus (GPa) = 98.17244 104.24684 101.20964
# Shear Modulus (GPa) = -29.97945 39.54980 4.78518
#
# Velocity S-wave (km/s) = -3.39237 3.89640 1.35531
# Velocity P-wave (km/s) = 4.72663 7.76271 6.42653
#
# Compressibility (1/GPa) = 0.01018616
#
# Stress axis : x y z
#
# Youngs Moduli (GPa) = 80.79702 85.89304 222.13769
#
# Poissons Ratio (x) = 0.56571 0.51368
# Poissons Ratio (y) = 0.53215 0.05968
# Poissons Ratio (z) = 0.18684 0.02307
#
# Static dielectric constant tensor:
#      x y z
#    x 2.024530 0.000000 0.000000 
#    y 0.000000 2.221270 0.000000 
#    z 0.000000 0.000000 2.142170 
# 
# From -- ./inp_files/20412.got.cif
#   From: 2010.05.17/outbox.cif.g08.bks.cpg/sg24_11_cif.got.tgz:20412.got - 2010.06.04 00:33:39.
