data_PCOD9335061
_publ_section_title
;
Structure prediction by ZEFSAII (Michael W. Deem and Ramdas Pophale) SiO2 
 PCOD9335061
Probable space group: I 21 21 21
;
_chemical_formula_sum "Si O2"
_cell_formula_units_Z 44
_cell_length_a 10.047154
_cell_length_b 9.400658
_cell_length_c 20.786787
_cell_angle_alpha 90.000000
_cell_angle_beta 90.000000
_cell_angle_gamma 90.000000
_cell_volume 1963.309093
_symmetry_space_group_name_H-M "I 21 21 21"
_symmetry_group_IT_number 24
_symmetry_cell_setting 'orthorhombic'
loop_
_space_group_symop_operation_xyz
x,y,z
-x,1/2-y,z
x,-y,1/2-z
1/2-x,y,-z
1/2+x,1/2+y,1/2+z
1/2-x,-y,1/2+z
1/2+x,1/2-y,-z
-x,1/2+y,1/2-z
loop_
_atom_site_type_symbol
_atom_site_label
_atom_site_fract_x
_atom_site_fract_y
_atom_site_fract_z
Si Si1 0.631653 0.944544 0.453929
Si Si2 0.803222 0.489908 0.856325
Si Si3 0.552230 0.406875 0.929440
Si Si4 0.029482 0.914877 0.189105
Si Si5 0.359466 0.233571 0.449795
Si Si6 0.500000 0.250000 0.148331
O O1 0.750000 0.892456 0.500000
O O2 0.499504 0.941050 0.499307
O O3 0.598987 0.843274 0.395467
O O4 0.671698 0.103145 0.431614
O O5 0.708268 0.417661 0.911590
O O6 0.688790 0.558704 0.812530
O O7 0.873583 0.623096 0.891615
O O8 0.902298 0.374742 0.824459
O O9 0.500000 0.250000 0.914008
O O10 0.485848 0.516437 0.878644
O O11 0.000000 0.750000 0.192857
O O12 0.973449 0.000000 0.250000
O O13 0.500000 0.250000 0.484777
O O14 0.250000 0.184227 0.500000
#
# Coordination Sequence:
#
# PCOD9335061 Si02
#       6
#     8   8   8   8   8   4
#     4  11  23  32  58  91 136 184 227 259 326 395
#     4  10  25  38  66  91 137 172 226 274 334 397
#     4  10  21  40  64  94 133 169 220 276 333 393
#     4  10  24  45  74  99 125 166 227 298 351 387
#     4  11  22  37  57  90 136 185 229 268 321 399
#     4  12  22  40  56  94 140 188 216 264 326 412
#
# _framework density 22.411142000000002
#
# number of rings (size 3 to 8) (size 9 to 14) (size 15 to 20)
#    1.091    0.364    2.727    2.727    5.091    0.000 
#    0.000    0.000    2.000    0.000    0.000    0.000 
#    0.000    0.000    0.000    0.000    0.000    0.000 
#
# Total GULP energy -122641.080832 kJ/mol
# GULP energy per Si atom -5574.594583 kJ/mol
# Density = 2.236013 g / cm^3
# Si number density = 22.411142 Si / 1000 Ang^3
#
#
#
# Elastic Constant Matrix: (Units=GPa)
#
#
# Indices 1 2 3 4 5 6 
#
# 1 99.3403 11.5752 -7.7390 0.0000 0.0000 0.0000
# 2 11.5752 172.4522 28.5787 0.0000 0.0000 0.0000
# 3 -7.7390 28.5787 35.9170 0.0000 0.0000 0.0000
# 4 0.0000 0.0000 0.0000 5.3154 0.0000 0.0000
# 5 0.0000 0.0000 0.0000 0.0000 2.3515 0.0000
# 6 0.0000 0.0000 0.0000 0.0000 0.0000 45.5132
#
#
#
# Elastic Compliance Matrix: (Units=1/GPa)
#
#
# Indices 1 2 3 4 5 6 
#
# 1 0.010463 -0.001239 0.003241 0.000000 0.000000 0.000000
# 2 -0.001239 0.006826 -0.005699 0.000000 0.000000 0.000000
# 3 0.003241 -0.005699 0.033075 0.000000 0.000000 0.000000
# 4 0.000000 0.000000 0.000000 0.188132 0.000000 0.000000
# 5 0.000000 0.000000 0.000000 0.000000 0.425269 0.000000
# 6 0.000000 0.000000 0.000000 0.000000 0.000000 0.021972
#
#
# Mechanical properties :
#
#
# Convention : Reuss Voigt Hill
#
# Bulk Modulus (GPa) = 23.27233 41.39326 32.33280
# Shear Modulus (GPa) = 7.06760 28.98900 18.02830
#
# Velocity S-wave (km/s) = 1.77777 3.60044 2.83933
# Velocity P-wave (km/s) = 3.82371 5.98283 5.02071
#
# Compressibility (1/GPa) = 0.04296948
#
# Stress axis : x y z
#
# Youngs Moduli (GPa) = 95.57238 146.49292 30.23470
#
# Poissons Ratio (x) = 0.18156 -0.09798
# Poissons Ratio (y) = 0.11845 0.17230
# Poissons Ratio (z) = -0.30972 0.83481
#
# Static dielectric constant tensor:
#      x y z
#    x 1.903450 0.000000 0.000000 
#    y 0.000000 1.873050 0.000000 
#    z 0.000000 0.000000 1.813960 
# 
# From -- ./inp_files/35544.got.cif
#   From: 2010.05.17/outbox.cif.g08.bks.cpg/sg24_18_cif.got.tgz:35544.got - 2010.06.04 00:33:39.
