data_PCOD9335238
_publ_section_title
;
Structure prediction by ZEFSAII (Michael W. Deem and Ramdas Pophale) SiO2 
 PCOD9335238
Probable space group: I 21 21 21
;
_chemical_formula_sum "Si O2"
_cell_formula_units_Z 48
_cell_length_a 8.633094
_cell_length_b 9.168428
_cell_length_c 27.422117
_cell_angle_alpha 90.000000
_cell_angle_beta 90.000000
_cell_angle_gamma 90.000000
_cell_volume 2170.512683
_symmetry_space_group_name_H-M "I 21 21 21"
_symmetry_group_IT_number 24
_symmetry_cell_setting 'orthorhombic'
loop_
_space_group_symop_operation_xyz
x,y,z
-x,1/2-y,z
x,-y,1/2-z
1/2-x,y,-z
1/2+x,1/2+y,1/2+z
1/2-x,-y,1/2+z
1/2+x,1/2-y,-z
-x,1/2+y,1/2-z
loop_
_atom_site_type_symbol
_atom_site_label
_atom_site_fract_x
_atom_site_fract_y
_atom_site_fract_z
Si Si1 0.114913 0.110165 0.844008
Si Si2 0.508243 0.578488 0.451772
Si Si3 0.250000 0.114140 0.500000
Si Si4 0.725962 0.160197 0.681913
Si Si5 0.663856 0.170482 0.425732
Si Si6 0.588903 0.517321 0.807823
Si Si7 0.439739 0.500000 0.250000
O O1 0.090660 0.051336 0.898778
O O2 0.000000 0.250000 0.844633
O O3 0.044800 0.028173 0.797019
O O4 0.299684 0.102715 0.833050
O O5 0.500000 0.750000 0.459992
O O6 0.607942 0.494133 0.491435
O O7 0.347000 0.492435 0.446866
O O8 0.221145 0.223039 0.454403
O O9 0.817734 0.155344 0.631666
O O10 0.659989 0.322730 0.682983
O O11 0.590857 0.038005 0.677991
O O12 0.826887 0.127819 0.730203
O O13 0.500000 0.250000 0.435668
O O14 0.590532 0.500000 0.750000
#
# Coordination Sequence:
#
# PCOD9335238 Si02
#       7
#     8   8   4   8   8   8   4
#     4  11  23  40  66  97 134 187 236 284 348 433
#     4  10  22  43  71 100 136 174 237 299 361 434
#     4  10  22  42  70 100 134 176 228 314 360 406
#     4  11  24  39  64  97 138 186 231 298 355 424
#     4  10  21  43  69 101 136 178 246 297 354 447
#     4  11  22  40  57  91 140 182 232 289 340 409
#     4  12  22  36  66 100 134 188 246 264 362 418
#
# _framework density 22.11459
#
# number of rings (size 3 to 8) (size 9 to 14) (size 15 to 20)
#    0.000    1.333    3.333    3.000    0.000    0.667 
#   18.000    0.000    0.000    0.000    0.000    0.000 
#    0.000    0.000    0.000    0.000    0.000    0.000 
#
# Total GULP energy -133833.572407 kJ/mol
# GULP energy per Si atom -5576.398850 kJ/mol
# Density = 2.206426 g / cm^3
# Si number density = 22.114590 Si / 1000 Ang^3
#
#
#
# Elastic Constant Matrix: (Units=GPa)
#
#
# Indices 1 2 3 4 5 6 
#
# 1 60.1398 22.1933 19.6365 0.0000 0.0000 0.0000
# 2 22.1933 108.8197 32.1056 0.0000 0.0000 0.0000
# 3 19.6365 32.1056 76.4668 0.0000 0.0000 0.0000
# 4 0.0000 0.0000 0.0000 -12.1272 0.0000 0.0000
# 5 0.0000 0.0000 0.0000 0.0000 4.8653 0.0000
# 6 0.0000 0.0000 0.0000 0.0000 0.0000 21.6488
#
#
#
# Elastic Compliance Matrix: (Units=1/GPa)
#
#
# Indices 1 2 3 4 5 6 
#
# 1 0.018848 -0.002758 -0.003682 0.000000 0.000000 0.000000
# 2 -0.002758 0.010892 -0.003865 0.000000 0.000000 0.000000
# 3 -0.003682 -0.003865 0.015646 0.000000 0.000000 0.000000
# 4 0.000000 0.000000 0.000000 -0.082460 0.000000 0.000000
# 5 0.000000 0.000000 0.000000 0.000000 0.205538 0.000000
# 6 0.000000 0.000000 0.000000 0.000000 0.000000 0.046192
#
#
# Mechanical properties :
#
#
# Convention : Reuss Voigt Hill
#
# Bulk Modulus (GPa) = 40.36134 43.69967 42.03050
# Shear Modulus (GPa) = 20.53180 14.31011 17.42096
#
# Velocity S-wave (km/s) = 3.05032 2.54655 2.80975
# Velocity P-wave (km/s) = 5.54045 5.33386 5.43813
#
# Compressibility (1/GPa) = 0.02477618
#
# Stress axis : x y z
#
# Youngs Moduli (GPa) = 53.05643 91.80841 63.91407
#
# Poissons Ratio (x) = 0.25316 0.23535
# Poissons Ratio (y) = 0.14630 0.24704
# Poissons Ratio (z) = 0.19537 0.35485
#
# Static dielectric constant tensor:
#      x y z
#    x 1.919560 0.000000 0.000000 
#    y 0.000000 1.937240 0.000000 
#    z 0.000000 0.000000 1.802180 
# 
# From -- ./inp_files/38317.got.cif
#   From: 2010.05.17/outbox.cif.g08.bks.cpg/sg24_20_cif.got.tgz:38317.got - 2010.06.04 00:33:39.
