data_PCOD9335859
_publ_section_title
;
Structure prediction by ZEFSAII (Michael W. Deem and Ramdas Pophale) SiO2 
 PCOD9335859
Probable space group: I 21 21 21
;
_chemical_formula_sum "Si O2"
_cell_formula_units_Z 40
_cell_length_a 11.816359
_cell_length_b 5.662669
_cell_length_c 26.404171
_cell_angle_alpha 90.000000
_cell_angle_beta 90.000000
_cell_angle_gamma 90.000000
_cell_volume 1766.759317
_symmetry_space_group_name_H-M "I 21 21 21"
_symmetry_group_IT_number 24
_symmetry_cell_setting 'orthorhombic'
loop_
_space_group_symop_operation_xyz
x,y,z
-x,1/2-y,z
x,-y,1/2-z
1/2-x,y,-z
1/2+x,1/2+y,1/2+z
1/2-x,-y,1/2+z
1/2+x,1/2-y,-z
-x,1/2+y,1/2-z
loop_
_atom_site_type_symbol
_atom_site_label
_atom_site_fract_x
_atom_site_fract_y
_atom_site_fract_z
Si Si1 0.291691 0.543986 0.056808
Si Si2 0.566485 0.000000 0.750000
Si Si3 0.871586 0.811522 0.359233
Si Si4 0.308945 0.930168 0.129230
Si Si5 0.866018 0.753728 0.771243
Si Si6 0.500000 0.250000 0.095828
O O1 0.198503 0.442138 0.096382
O O2 0.302836 0.816277 0.073966
O O3 0.412593 0.414222 0.064736
O O4 0.250000 0.516757 0.000000
O O5 0.500000 0.250000 0.742204
O O6 0.621306 0.052575 0.805568
O O7 0.802429 0.567306 0.354263
O O8 0.000000 0.750000 0.374222
O O9 0.339911 0.733699 0.169572
O O10 0.415819 0.101980 0.130591
O O11 0.821696 0.500000 0.750000
O O12 0.000000 0.750000 0.762250
O O13 0.822753 0.000000 0.750000
#
# Coordination Sequence:
#
# PCOD9335859 Si02
#       6
#     8   4   8   8   8   4
#     4  11  26  46  77 109 145 197 254 324 392 469
#     4  10  24  48  80 114 158 212 260 328 394 470
#     4  10  26  48  75 109 154 200 259 318 391 468
#     4  11  25  46  72 102 146 196 249 314 380 457
#     4  10  23  39  67 105 147 192 243 303 373 453
#     4  10  24  48  72 104 146 188 246 314 392 452
#
# _framework density 22.640322999999999
#
# number of rings (size 3 to 8) (size 9 to 14) (size 15 to 20)
#    0.000    1.600    0.000    1.800   16.800    4.800 
#    5.400    0.000    0.000    0.000    0.000    0.000 
#    0.000    0.000    0.000    0.000    0.000    0.000 
#
# Total GULP energy -111748.050417 kJ/mol
# GULP energy per Si atom -5587.402521 kJ/mol
# Density = 2.258879 g / cm^3
# Si number density = 22.640323 Si / 1000 Ang^3
#
#
#
# Elastic Constant Matrix: (Units=GPa)
#
#
# Indices 1 2 3 4 5 6 
#
# 1 156.9715 52.0904 42.0127 0.0000 0.0000 0.0000
# 2 52.0904 118.0207 43.9129 0.0000 0.0000 0.0000
# 3 42.0127 43.9129 130.7795 0.0000 0.0000 0.0000
# 4 0.0000 0.0000 0.0000 23.6068 0.0000 0.0000
# 5 0.0000 0.0000 0.0000 0.0000 26.1051 0.0000
# 6 0.0000 0.0000 0.0000 0.0000 0.0000 23.6963
#
#
#
# Elastic Compliance Matrix: (Units=1/GPa)
#
#
# Indices 1 2 3 4 5 6 
#
# 1 0.007722 -0.002840 -0.001527 0.000000 0.000000 0.000000
# 2 -0.002840 0.010727 -0.002690 0.000000 0.000000 0.000000
# 3 -0.001527 -0.002690 0.009040 0.000000 0.000000 0.000000
# 4 0.000000 0.000000 0.000000 0.042361 0.000000 0.000000
# 5 0.000000 0.000000 0.000000 0.000000 0.038307 0.000000
# 6 0.000000 0.000000 0.000000 0.000000 0.000000 0.042201
#
#
# Mechanical properties :
#
#
# Convention : Reuss Voigt Hill
#
# Bulk Modulus (GPa) = 74.76111 75.75596 75.25854
# Shear Modulus (GPa) = 29.59823 32.53203 31.06513
#
# Velocity S-wave (km/s) = 3.61962 3.79477 3.70823
# Velocity P-wave (km/s) = 7.11068 7.26179 7.18663
#
# Compressibility (1/GPa) = 0.01337594
#
# Stress axis : x y z
#
# Youngs Moduli (GPa) = 129.50520 93.22005 110.61783
#
# Poissons Ratio (x) = 0.26474 0.16891
# Poissons Ratio (y) = 0.36779 0.29752
# Poissons Ratio (z) = 0.19775 0.25073
#
# Static dielectric constant tensor:
#      x y z
#    x 1.851520 0.000000 0.000000 
#    y 0.000000 1.912630 0.000000 
#    z 0.000000 0.000000 1.819120 
# 
# From -- ./inp_files/37060.got.cif
#   From: 2010.05.17/outbox.cif.g08.bks.cpg/sg24_19_cif.got.tgz:37060.got - 2010.06.04 00:33:39.
