data_PCOD9335487
_publ_section_title
;
Structure prediction by ZEFSAII (Michael W. Deem and Ramdas Pophale) SiO2 
 PCOD9335487
Probable space group: I 21 21 21
;
_chemical_formula_sum "Si O2"
_cell_formula_units_Z 60
_cell_length_a 14.148799
_cell_length_b 22.844560
_cell_length_c 9.017813
_cell_angle_alpha 90.000000
_cell_angle_beta 90.000000
_cell_angle_gamma 90.000000
_cell_volume 2914.765362
_symmetry_space_group_name_H-M "I 21 21 21"
_symmetry_group_IT_number 24
_symmetry_cell_setting 'orthorhombic'
loop_
_space_group_symop_operation_xyz
x,y,z
-x,1/2-y,z
x,-y,1/2-z
1/2-x,y,-z
1/2+x,1/2+y,1/2+z
1/2-x,-y,1/2+z
1/2+x,1/2-y,-z
-x,1/2+y,1/2-z
loop_
_atom_site_type_symbol
_atom_site_label
_atom_site_fract_x
_atom_site_fract_y
_atom_site_fract_z
Si Si1 0.759502 0.292770 0.257388
Si Si2 0.555247 0.110105 0.396184
Si Si3 0.538100 0.667828 0.655698
Si Si4 0.434620 0.944990 0.858483
Si Si5 0.250000 0.106196 0.500000
Si Si6 0.243672 0.437973 0.678456
Si Si7 0.356365 0.677503 0.838492
Si Si8 0.052852 0.190044 0.822342
O O1 0.857432 0.305587 0.174793
O O2 0.740265 0.347352 0.366578
O O3 0.782471 0.230653 0.334618
O O4 0.662834 0.292624 0.167158
O O5 0.513625 0.063152 0.513598
O O6 0.634985 0.080659 0.294624
O O7 0.605616 0.159660 0.498787
O O8 0.474668 0.141937 0.300935
O O9 0.548292 0.607304 0.743197
O O10 0.447552 0.694405 0.740467
O O11 0.518461 0.667167 0.481699
O O12 0.434568 0.000000 0.750000
O O13 0.337339 0.933847 0.948235
O O14 0.268599 0.500000 0.750000
O O15 0.250000 0.443489 0.500000
O O16 0.308674 0.382549 0.721409
O O17 0.000000 0.250000 0.783468
#
# Coordination Sequence:
#
# PCOD9335487 Si02
#       8
#     8   8   8   8   4   8   8   8
#     4  11  22  40  67  91 136 168 222 277 341 407
#     4  10  23  40  62  98 126 168 228 270 328 397
#     4  10  24  42  63  94 132 176 220 269 347 415
#     4  10  22  46  67  89 127 177 227 281 338 409
#     4  10  22  40  64 100 120 168 228 276 340 396
#     4  10  23  41  63  93 129 165 220 269 329 388
#     4  10  22  41  66  92 127 178 221 268 342 406
#     4  12  24  38  62  98 138 170 217 279 336 403
#
# _framework density 20.584848999999998
#
# number of rings (size 3 to 8) (size 9 to 14) (size 15 to 20)
#    0.000    1.600    1.333    2.400    4.667    6.933 
#    4.800    3.333    0.000    0.000    0.000    0.000 
#    0.000    0.000    0.000    0.000    0.000    0.000 
#
# Total GULP energy -167289.166548 kJ/mol
# GULP energy per Si atom -5576.305552 kJ/mol
# Density = 2.053800 g / cm^3
# Si number density = 20.584849 Si / 1000 Ang^3
#
#
#
# Elastic Constant Matrix: (Units=GPa)
#
#
# Indices 1 2 3 4 5 6 
#
# 1 110.6221 60.5413 17.9938 0.0000 -0.0002 0.0000
# 2 60.5413 71.6015 28.2235 0.0000 0.0002 0.0000
# 3 17.9938 28.2235 63.9190 0.0006 -0.0016 0.0000
# 4 0.0000 0.0000 0.0006 -40.4030 -0.0007 0.0000
# 5 -0.0002 0.0002 -0.0016 -0.0007 40.1656 -0.0001
# 6 0.0000 0.0000 0.0000 0.0000 -0.0001 19.0746
#
#
#
# Elastic Compliance Matrix: (Units=1/GPa)
#
#
# Indices 1 2 3 4 5 6 
#
# 1 0.017013 -0.015130 0.001892 0.000000 0.000000 0.000000
# 2 -0.015130 0.030365 -0.009149 0.000000 -0.000001 0.000000
# 3 0.001892 -0.009149 0.019152 0.000000 0.000001 0.000000
# 4 0.000000 0.000000 0.000000 -0.024751 0.000000 0.000000
# 5 0.000000 -0.000001 0.000001 0.000000 0.024897 0.000000
# 6 0.000000 0.000000 0.000000 0.000000 0.000000 0.052426
#
#
# Mechanical properties :
#
#
# Convention : Reuss Voigt Hill
#
# Bulk Modulus (GPa) = 45.96570 51.07330 48.51950
# Shear Modulus (GPa) = 29.21785 13.05971 21.13878
#
# Velocity S-wave (km/s) = 3.77156 2.52153 3.20802
# Velocity P-wave (km/s) = 6.42997 5.77429 6.11093
#
# Compressibility (1/GPa) = 0.02175535
#
# Stress axis : x y z
#
# Youngs Moduli (GPa) = 58.77990 32.93213 52.21428
#
# Poissons Ratio (x) = 0.49827 -0.09877
# Poissons Ratio (y) = 0.88936 0.47769
# Poissons Ratio (z) = -0.11119 0.30128
#
# Static dielectric constant tensor:
#      x y z
#    x 1.784520 0.000000 0.000000 
#    y 0.000000 1.677710 0.000000 
#    z 0.000000 0.000000 1.748490 
# 
# From -- ./inp_files/13329.got.cif
#   From: 2010.05.17/outbox.cif.g08.bks.cpg/sg24_7_cif.got.tgz:13329.got - 2010.06.04 00:33:39.
