data_PCOD9335921
_publ_section_title
;
Structure prediction by ZEFSAII (Michael W. Deem and Ramdas Pophale) SiO2 
 PCOD9335921
Probable space group: I 21 21 21
;
_chemical_formula_sum "Si O2"
_cell_formula_units_Z 24
_cell_length_a 7.921014
_cell_length_b 15.669397
_cell_length_c 8.984088
_cell_angle_alpha 90.000000
_cell_angle_beta 90.000000
_cell_angle_gamma 90.000000
_cell_volume 1115.082659
_symmetry_space_group_name_H-M "I 21 21 21"
_symmetry_group_IT_number 24
_symmetry_cell_setting 'orthorhombic'
loop_
_space_group_symop_operation_xyz
x,y,z
-x,1/2-y,z
x,-y,1/2-z
1/2-x,y,-z
1/2+x,1/2+y,1/2+z
1/2-x,-y,1/2+z
1/2+x,1/2-y,-z
-x,1/2+y,1/2-z
loop_
_atom_site_type_symbol
_atom_site_label
_atom_site_fract_x
_atom_site_fract_y
_atom_site_fract_z
Si Si1 0.042353 0.156481 0.127191
Si Si2 0.759533 0.093813 0.676226
Si Si3 0.096901 0.094767 0.813001
O O1 0.230672 0.148115 0.191468
O O2 0.000000 0.250000 0.065637
O O3 0.901759 0.137679 0.249556
O O4 0.040562 0.092304 0.986628
O O5 0.750000 0.089578 0.500000
O O6 0.939059 0.133019 0.724493
O O7 0.763150 0.000000 0.750000
O O8 0.132708 0.000000 0.750000
#
# Coordination Sequence:
#
# PCOD9335921 Si02
#       3
#     8   8   8
#     4  11  25  43  70 105 139 185 231 297 355 407
#     4  11  23  42  69 100 138 184 235 286 344 423
#     4  10  23  42  71 102 136 187 234 279 344 430
#
# _framework density 21.523070000000001
#
# number of rings (size 3 to 8) (size 9 to 14) (size 15 to 20)
#    0.000    1.333    0.000    6.000    9.333    6.667 
#    6.000    0.000    0.000    0.000    0.000    0.000 
#    0.000    0.000    0.000    0.000    0.000    0.000 
#
# Total GULP energy -67075.869618 kJ/mol
# GULP energy per Si atom -5589.655802 kJ/mol
# Density = 2.147408 g / cm^3
# Si number density = 21.523070 Si / 1000 Ang^3
#
#
#
# Elastic Constant Matrix: (Units=GPa)
#
#
# Indices 1 2 3 4 5 6 
#
# 1 197.7277 24.8498 84.3475 0.0000 0.0000 -0.0001
# 2 24.8498 53.8907 42.0169 0.0009 0.0002 -0.0009
# 3 84.3475 42.0169 161.3687 0.0004 0.0001 -0.0007
# 4 0.0000 0.0009 0.0004 16.6595 0.0001 -0.0007
# 5 0.0000 0.0002 0.0001 0.0001 15.1183 0.0000
# 6 -0.0001 -0.0009 -0.0007 -0.0007 0.0000 -8.3237
#
#
#
# Elastic Compliance Matrix: (Units=1/GPa)
#
#
# Indices 1 2 3 4 5 6 
#
# 1 0.006517 -0.000438 -0.003292 0.000000 0.000000 0.000000
# 2 -0.000438 0.023312 -0.005841 -0.000001 0.000000 -0.000002
# 3 -0.003292 -0.005841 0.009439 0.000000 0.000000 0.000000
# 4 0.000000 -0.000001 0.000000 0.060026 0.000000 -0.000005
# 5 0.000000 0.000000 0.000000 0.000000 0.066145 0.000000
# 6 0.000000 -0.000002 0.000000 -0.000005 0.000000 -0.120139
#
#
# Mechanical properties :
#
#
# Convention : Reuss Voigt Hill
#
# Bulk Modulus (GPa) = 49.68947 79.49061 64.59004
# Shear Modulus (GPa) = 70.27351 22.14236 46.20794
#
# Velocity S-wave (km/s) = 5.72024 3.21093 4.63849
# Velocity P-wave (km/s) = 8.17099 7.12458 7.66566
#
# Compressibility (1/GPa) = 0.02012499
#
# Stress axis : x y z
#
# Youngs Moduli (GPa) = 153.44509 42.89614 105.94618
#
# Poissons Ratio (x) = 0.01879 0.34881
# Poissons Ratio (y) = 0.06723 0.61883
# Poissons Ratio (z) = 0.50520 0.25055
#
# Static dielectric constant tensor:
#      x y z
#    x 1.819050 0.000000 0.000000 
#    y 0.000000 1.799750 0.000000 
#    z 0.000000 0.000000 1.752880 
# 
# From -- ./inp_files/8557.got.cif
#   From: 2010.05.17/outbox.cif.g08.bks.cpg/sg24_5_cif.got.tgz:8557.got - 2010.06.04 00:33:39.
