data_PCOD9335568
_publ_section_title
;
Structure prediction by ZEFSAII (Michael W. Deem and Ramdas Pophale) SiO2 
 PCOD9335568
Probable space group: I 21 21 21
;
_chemical_formula_sum "Si O2"
_cell_formula_units_Z 56
_cell_length_a 11.849531
_cell_length_b 22.662273
_cell_length_c 10.936151
_cell_angle_alpha 90.000000
_cell_angle_beta 90.000000
_cell_angle_gamma 90.000000
_cell_volume 2936.764532
_symmetry_space_group_name_H-M "I 21 21 21"
_symmetry_group_IT_number 24
_symmetry_cell_setting 'orthorhombic'
loop_
_space_group_symop_operation_xyz
x,y,z
-x,1/2-y,z
x,-y,1/2-z
1/2-x,y,-z
1/2+x,1/2+y,1/2+z
1/2-x,-y,1/2+z
1/2+x,1/2-y,-z
-x,1/2+y,1/2-z
loop_
_atom_site_type_symbol
_atom_site_label
_atom_site_fract_x
_atom_site_fract_y
_atom_site_fract_z
Si Si1 0.397274 0.708452 0.338540
Si Si2 0.841007 0.506686 0.607530
Si Si3 0.261228 0.357628 0.367534
Si Si4 0.750000 0.949700 0.500000
Si Si5 0.390730 0.430211 0.787004
Si Si6 0.075921 0.468534 0.618083
Si Si7 0.953193 0.379163 0.007187
Si Si8 0.750000 0.704965 0.500000
O O1 0.500000 0.750000 0.294776
O O2 0.322523 0.682405 0.230965
O O3 0.454280 0.659082 0.429808
O O4 0.313486 0.751789 0.408977
O O5 0.802489 0.500000 0.750000
O O6 0.750000 0.499385 0.500000
O O7 0.900410 0.570379 0.581143
O O8 0.944900 0.461404 0.589290
O O9 0.250000 0.328613 0.500000
O O10 0.142906 0.387813 0.324937
O O11 0.348191 0.411613 0.382134
O O12 0.782321 0.918447 0.375823
O O13 0.860444 0.988161 0.525515
O O14 0.394948 0.500000 0.750000
O O15 0.493751 0.408540 0.871068
O O16 0.080769 0.500000 0.750000
O O17 0.850248 0.337177 0.047114
#
# Coordination Sequence:
#
# PCOD9335568 Si02
#       8
#     8   8   8   4   8   8   8   4
#     4  10  22  41  67  86 111 156 216 274 316 356
#     4  11  24  41  61  89 134 183 213 246 311 403
#     4  12  22  38  58  93 126 159 203 261 326 377
#     4  12  16  33  54  88 128 158 197 242 296 356
#     4  12  22  33  59  96 132 165 196 253 312 390
#     4  11  19  34  57  87 130 166 198 245 309 384
#     4  11  22  41  66  91 124 165 208 265 322 375
#     4  10  22  45  66  90 112 152 223 280 314 368
#
# _framework density 19.068605000000002
#
# number of rings (size 3 to 8) (size 9 to 14) (size 15 to 20)
#    0.000    0.857    5.714    3.429    0.000    0.571 
#    0.000    1.429    0.000    6.000    0.000    0.000 
#    0.000    0.000    0.000    0.000    0.000    0.000 
#
# Total GULP energy -156145.605975 kJ/mol
# GULP energy per Si atom -5576.628785 kJ/mol
# Density = 1.902520 g / cm^3
# Si number density = 19.068605 Si / 1000 Ang^3
#
#
#
# Elastic Constant Matrix: (Units=GPa)
#
#
# Indices 1 2 3 4 5 6 
#
# 1 108.0187 32.2556 67.0258 0.0000 0.0000 0.0000
# 2 32.2556 63.3191 47.2646 0.0000 0.0000 0.0000
# 3 67.0258 47.2646 119.9898 -0.0001 0.0000 0.0000
# 4 0.0000 0.0000 -0.0001 23.4544 0.0000 0.0000
# 5 0.0000 0.0000 0.0000 0.0000 31.2234 0.0000
# 6 0.0000 0.0000 0.0000 0.0000 0.0000 4.4987
#
#
#
# Elastic Compliance Matrix: (Units=1/GPa)
#
#
# Indices 1 2 3 4 5 6 
#
# 1 0.014324 -0.001876 -0.007263 0.000000 0.000000 0.000000
# 2 -0.001876 0.022616 -0.007861 0.000000 0.000000 0.000000
# 3 -0.007263 -0.007861 0.015487 0.000000 0.000000 0.000000
# 4 0.000000 0.000000 0.000000 0.042636 0.000000 0.000000
# 5 0.000000 0.000000 0.000000 0.000000 0.032027 0.000000
# 6 0.000000 0.000000 0.000000 0.000000 0.000000 0.222288
#
#
# Mechanical properties :
#
#
# Convention : Reuss Voigt Hill
#
# Bulk Modulus (GPa) = 54.26111 64.93550 59.59831
# Shear Modulus (GPa) = 12.83627 21.48738 17.16183
#
# Velocity S-wave (km/s) = 2.59735 3.36049 3.00326
# Velocity P-wave (km/s) = 6.12474 7.01319 6.58397
#
# Compressibility (1/GPa) = 0.01842940
#
# Stress axis : x y z
#
# Youngs Moduli (GPa) = 69.81177 44.21578 64.56890
#
# Poissons Ratio (x) = 0.08294 0.46894
# Poissons Ratio (y) = 0.13095 0.50757
# Poissons Ratio (z) = 0.50701 0.34758
#
# Static dielectric constant tensor:
#      x y z
#    x 1.721610 0.000000 0.000000 
#    y 0.000000 1.755490 0.000000 
#    z 0.000000 0.000000 1.770090 
# 
# From -- ./inp_files/19954.got.cif
#   From: 2010.05.17/outbox.cif.g08.bks.cpg/sg24_10_cif.got.tgz:19954.got - 2010.06.04 00:33:39.
