data_PCOD9335555
_publ_section_title
;
Structure prediction by ZEFSAII (Michael W. Deem and Ramdas Pophale) SiO2 
 PCOD9335555
Probable space group: I 21 21 21
;
_chemical_formula_sum "Si O2"
_cell_formula_units_Z 64
_cell_length_a 14.227491
_cell_length_b 19.222407
_cell_length_c 12.151904
_cell_angle_alpha 90.000000
_cell_angle_beta 90.000000
_cell_angle_gamma 90.000000
_cell_volume 3323.383183
_symmetry_space_group_name_H-M "I 21 21 21"
_symmetry_group_IT_number 24
_symmetry_cell_setting 'orthorhombic'
loop_
_space_group_symop_operation_xyz
x,y,z
-x,1/2-y,z
x,-y,1/2-z
1/2-x,y,-z
1/2+x,1/2+y,1/2+z
1/2-x,-y,1/2+z
1/2+x,1/2-y,-z
-x,1/2+y,1/2-z
loop_
_atom_site_type_symbol
_atom_site_label
_atom_site_fract_x
_atom_site_fract_y
_atom_site_fract_z
Si Si1 0.956772 0.082142 0.231384
Si Si2 0.634052 0.800841 0.881565
Si Si3 0.640759 0.332147 0.765621
Si Si4 0.855422 0.339379 0.771552
Si Si5 0.360055 0.699377 0.137023
Si Si6 0.040884 0.420635 0.778229
Si Si7 0.388939 0.765703 0.497436
Si Si8 0.644979 0.890511 0.500058
O O1 0.909788 0.132098 0.322482
O O2 0.065083 0.106579 0.230057
O O3 0.947523 0.000000 0.250000
O O4 0.905404 0.099989 0.116711
O O5 0.610158 0.728161 0.820377
O O6 0.746889 0.806223 0.867335
O O7 0.608255 0.799046 0.010096
O O8 0.747463 0.355699 0.742360
O O9 0.638946 0.295566 0.884851
O O10 0.883419 0.271374 0.699705
O O11 0.862256 0.316144 0.898630
O O12 0.932610 0.399055 0.759248
O O13 0.401102 0.634620 0.204768
O O14 0.057847 0.500000 0.750000
O O15 0.076311 0.414606 0.903473
O O16 0.500000 0.750000 0.496992
O O17 0.344010 0.691193 0.476896
O O18 0.750000 0.922426 0.500000
#
# Coordination Sequence:
#
# PCOD9335555 Si02
#       8
#     8   8   8   8   8   8   8   8
#     4  12  26  41  60  91 127 165 201 244 306 367
#     4  10  22  41  65  92 119 158 207 253 304 359
#     4  11  22  40  66  91 120 160 208 258 300 351
#     4  11  22  40  66  91 120 160 208 258 300 351
#     4  10  22  41  65  92 119 158 207 253 304 359
#     4  12  26  41  60  91 127 165 201 244 306 367
#     4  12  18  37  69  96 121 149 200 262 311 350
#     4  12  24  41  64  93 123 154 199 252 308 369
#
# _framework density 19.257484999999999
#
# number of rings (size 3 to 8) (size 9 to 14) (size 15 to 20)
#    0.000    0.750    5.000    2.625    1.750    4.500 
#    0.000    0.000    0.000    0.000    0.000    0.000 
#    0.000    0.000    0.000    0.000    0.000    0.000 
#
# Total GULP energy -178845.378427 kJ/mol
# GULP energy per Si atom -5588.918076 kJ/mol
# Density = 1.921365 g / cm^3
# Si number density = 19.257485 Si / 1000 Ang^3
#
#
#
# Elastic Constant Matrix: (Units=GPa)
#
#
# Indices 1 2 3 4 5 6 
#
# 1 99.4354 0.6371 2.3924 0.0000 0.0000 0.0000
# 2 0.6371 39.6583 4.4448 0.0000 0.0000 0.0000
# 3 2.3924 4.4448 101.3817 0.0000 0.0000 0.0000
# 4 0.0000 0.0000 0.0000 18.8654 0.0000 0.0000
# 5 0.0000 0.0000 0.0000 0.0000 -10.2511 0.0000
# 6 0.0000 0.0000 0.0000 0.0000 0.0000 27.8827
#
#
#
# Elastic Compliance Matrix: (Units=1/GPa)
#
#
# Indices 1 2 3 4 5 6 
#
# 1 0.010063 -0.000136 -0.000232 0.000000 0.000000 0.000000
# 2 -0.000136 0.025342 -0.001108 0.000000 0.000000 0.000000
# 3 -0.000232 -0.001108 0.009918 0.000000 0.000000 0.000000
# 4 0.000000 0.000000 0.000000 0.053007 0.000000 0.000000
# 5 0.000000 0.000000 0.000000 0.000000 -0.097551 0.000000
# 6 0.000000 0.000000 0.000000 0.000000 0.000000 0.035865
#
#
# Mechanical properties :
#
#
# Convention : Reuss Voigt Hill
#
# Bulk Modulus (GPa) = 23.60017 28.38044 25.99030
# Shear Modulus (GPa) = 93.07910 22.83281 57.95595
#
# Velocity S-wave (km/s) = 6.95981 3.44708 5.49187
# Velocity P-wave (km/s) = 8.76738 5.53285 7.33073
#
# Compressibility (1/GPa) = 0.04237258
#
# Stress axis : x y z
#
# Youngs Moduli (GPa) = 99.37177 39.46061 100.82933
#
# Poissons Ratio (x) = 0.00535 0.02334
# Poissons Ratio (y) = 0.01348 0.11170
# Poissons Ratio (z) = 0.02301 0.04372
#
# Static dielectric constant tensor:
#      x y z
#    x 1.721050 0.000000 0.000000 
#    y 0.000000 1.622480 0.000000 
#    z 0.000000 0.000000 1.405600 
# 
# From -- ./inp_files/21052.got.cif
#   From: 2010.05.17/outbox.cif.g08.bks.cpg/sg24_11_cif.got.tgz:21052.got - 2010.06.04 00:33:39.
