data_PCOD9335191
_publ_section_title
;
Structure prediction by ZEFSAII (Michael W. Deem and Ramdas Pophale) SiO2 
 PCOD9335191
Probable space group: I 21 21 21
;
_chemical_formula_sum "Si O2"
_cell_formula_units_Z 32
_cell_length_a 5.501559
_cell_length_b 24.054107
_cell_length_c 11.059461
_cell_angle_alpha 90.000000
_cell_angle_beta 90.000000
_cell_angle_gamma 90.000000
_cell_volume 1463.554754
_symmetry_space_group_name_H-M "I 21 21 21"
_symmetry_group_IT_number 24
_symmetry_cell_setting 'orthorhombic'
loop_
_space_group_symop_operation_xyz
x,y,z
-x,1/2-y,z
x,-y,1/2-z
1/2-x,y,-z
1/2+x,1/2+y,1/2+z
1/2-x,-y,1/2+z
1/2+x,1/2-y,-z
-x,1/2+y,1/2-z
loop_
_atom_site_type_symbol
_atom_site_label
_atom_site_fract_x
_atom_site_fract_y
_atom_site_fract_z
Si Si1 0.218345 0.933938 0.239756
Si Si2 0.783294 0.903749 0.636714
Si Si3 0.500000 0.250000 0.588655
Si Si4 0.252395 0.274346 0.826267
Si Si5 0.750000 0.643875 0.000000
O O1 0.438783 0.912157 0.323149
O O2 0.253362 0.897701 0.115858
O O3 0.938597 0.927070 0.282490
O O4 0.260738 0.000000 0.250000
O O5 0.750000 0.924436 0.500000
O O6 0.741609 0.838492 0.646544
O O7 0.281425 0.259440 0.683850
O O8 0.539951 0.309165 0.522627
O O9 0.500000 0.250000 0.878959
O O10 0.000000 0.250000 0.866625
#
# Coordination Sequence:
#
# PCOD9335191 Si02
#       5
#     8   8   4   8   4
#     4  12  29  52  75 114 149 207 270 315 389 455
#     4  12  26  49  75 107 152 202 257 313 379 463
#     4  10  24  40  70 114 150 190 248 318 384 462
#     4  10  21  42  66 106 152 188 244 304 381 458
#     4  12  26  46  84 112 162 202 250 340 392 458
#
# _framework density 21.864571000000002
#
# number of rings (size 3 to 8) (size 9 to 14) (size 15 to 20)
#    0.750    0.000    2.500    4.500    8.750    2.000 
#    0.000    0.000    0.000    0.000    0.000    0.000 
#    0.000    0.000    0.000    0.000    0.000    0.000 
#
# Total GULP energy -89106.705400 kJ/mol
# GULP energy per Si atom -5569.169087 kJ/mol
# Density = 2.181481 g / cm^3
# Si number density = 21.864571 Si / 1000 Ang^3
#
#
#
# Elastic Constant Matrix: (Units=GPa)
#
#
# Indices 1 2 3 4 5 6 
#
# 1 90.6946 -6.5075 6.1815 0.0000 0.0001 0.0000
# 2 -6.5075 136.3283 19.1535 0.0000 0.0000 0.0000
# 3 6.1815 19.1535 116.4945 0.0000 0.0002 0.0001
# 4 0.0000 0.0000 0.0000 1.1996 -0.0001 0.0000
# 5 0.0001 0.0000 0.0002 -0.0001 -198.4413 -0.0002
# 6 0.0000 0.0000 0.0001 0.0000 -0.0002 50.4247
#
#
#
# Elastic Compliance Matrix: (Units=1/GPa)
#
#
# Indices 1 2 3 4 5 6 
#
# 1 0.011118 0.000628 -0.000693 0.000000 0.000000 0.000000
# 2 0.000628 0.007544 -0.001274 0.000000 0.000000 0.000000
# 3 -0.000693 -0.001274 0.008830 0.000000 0.000000 0.000000
# 4 0.000000 0.000000 0.000000 0.833616 0.000000 -0.000001
# 5 0.000000 0.000000 0.000000 0.000000 -0.005039 0.000000
# 6 0.000000 0.000000 0.000000 -0.000001 0.000000 0.019832
#
#
# Mechanical properties :
#
#
# Convention : Reuss Voigt Hill
#
# Bulk Modulus (GPa) = 40.29798 42.35249 41.32524
# Shear Modulus (GPa) = 5.63793 -7.71741 -1.03974
#
# Velocity S-wave (km/s) = 1.60753 -1.88077 -0.69034
# Velocity P-wave (km/s) = 4.68148 3.83354 4.27857
#
# Compressibility (1/GPa) = 0.02481514
#
# Stress axis : x y z
#
# Youngs Moduli (GPa) = 89.94159 132.55275 113.24649
#
# Poissons Ratio (x) = -0.08326 0.07851
# Poissons Ratio (y) = -0.05649 0.14424
# Poissons Ratio (z) = 0.06235 0.16883
#
# Static dielectric constant tensor:
#      x y z
#    x 1.628400 0.000000 0.000000 
#    y 0.000000 2.192480 0.000000 
#    z 0.000000 0.000000 1.851220 
# 
# From -- ./inp_files/17400.got.cif
#   From: 2010.05.17/outbox.cif.g08.bks.cpg/sg24_9_cif.got.tgz:17400.got - 2010.06.04 00:33:39.
