data_PCOD9335979
_publ_section_title
;
Structure prediction by ZEFSAII (Michael W. Deem and Ramdas Pophale) SiO2 
 PCOD9335979
Probable space group: I 21 21 21
;
_chemical_formula_sum "Si O2"
_cell_formula_units_Z 56
_cell_length_a 11.993295
_cell_length_b 12.828645
_cell_length_c 16.577477
_cell_angle_alpha 90.000000
_cell_angle_beta 90.000000
_cell_angle_gamma 90.000000
_cell_volume 2550.572880
_symmetry_space_group_name_H-M "I 21 21 21"
_symmetry_group_IT_number 24
_symmetry_cell_setting 'orthorhombic'
loop_
_space_group_symop_operation_xyz
x,y,z
-x,1/2-y,z
x,-y,1/2-z
1/2-x,y,-z
1/2+x,1/2+y,1/2+z
1/2-x,-y,1/2+z
1/2+x,1/2-y,-z
-x,1/2+y,1/2-z
loop_
_atom_site_type_symbol
_atom_site_label
_atom_site_fract_x
_atom_site_fract_y
_atom_site_fract_z
Si Si1 0.336282 0.273577 0.879024
Si Si2 0.834720 0.067305 0.929947
Si Si3 0.332063 0.897313 0.926551
Si Si4 0.475116 0.903732 0.553552
Si Si5 0.596319 0.500000 0.250000
Si Si6 0.500000 0.250000 0.489629
Si Si7 0.224729 0.188572 0.735134
Si Si8 0.093134 0.620453 0.843397
O O1 0.217159 0.323736 0.900763
O O2 0.381859 0.186644 0.941007
O O3 0.427520 0.364294 0.886838
O O4 0.325038 0.229359 0.789800
O O5 0.831438 0.980222 0.861026
O O6 0.750000 0.031802 0.000000
O O7 0.957491 0.080992 0.969348
O O8 0.264905 0.865562 0.847236
O O9 0.417143 0.991986 0.917006
O O10 0.250000 0.925230 0.000000
O O11 0.405038 0.800433 0.956551
O O12 0.669603 0.593784 0.286415
O O13 0.516767 0.568848 0.193840
O O14 0.558410 0.168367 0.429299
O O15 0.146582 0.286839 0.709675
#
# Coordination Sequence:
#
# PCOD9335979 Si02
#       8
#     8   8   8   8   4   4   8   8
#     4  10  24  47  66 102 145 185 233 283 354 432
#     4  10  23  44  69 103 138 185 234 293 345 418
#     4  12  25  44  75 106 136 183 237 302 349 417
#     4  10  23  45  70  97 141 184 238 286 347 424
#     4  12  24  44  66 104 136 184 236 288 352 418
#     4  12  24  44  70 106 136 178 234 292 354 412
#     4  12  26  45  70 102 145 186 227 299 354 423
#     4  12  23  44  69 101 141 179 239 289 356 413
#
# _framework density 21.955850999999999
#
# number of rings (size 3 to 8) (size 9 to 14) (size 15 to 20)
#    0.000    0.857    4.286    1.714    2.000    4.000 
#   12.857    4.286    0.000    0.000    0.000    0.000 
#    0.000    0.000    0.000    0.000    0.000    0.000 
#
# Total GULP energy -156399.364825 kJ/mol
# GULP energy per Si atom -5585.691601 kJ/mol
# Density = 2.190588 g / cm^3
# Si number density = 21.955851 Si / 1000 Ang^3
#
#
#
# Elastic Constant Matrix: (Units=GPa)
#
#
# Indices 1 2 3 4 5 6 
#
# 1 71.4867 57.1873 30.1251 0.0000 0.0000 0.0000
# 2 57.1873 136.2996 51.6149 0.0000 0.0000 0.0000
# 3 30.1251 51.6149 52.3298 0.0000 0.0000 0.0000
# 4 0.0000 0.0000 0.0000 14.7869 0.0000 0.0000
# 5 0.0000 0.0000 0.0000 0.0000 19.3021 0.0000
# 6 0.0000 0.0000 0.0000 0.0000 0.0000 49.3815
#
#
#
# Elastic Compliance Matrix: (Units=1/GPa)
#
#
# Indices 1 2 3 4 5 6 
#
# 1 0.022073 -0.007102 -0.005702 0.000000 0.000000 0.000000
# 2 -0.007102 0.013996 -0.009716 0.000000 0.000000 0.000000
# 3 -0.005702 -0.009716 0.031976 0.000000 0.000000 0.000000
# 4 0.000000 0.000000 0.000000 0.067628 0.000000 0.000000
# 5 0.000000 0.000000 0.000000 0.000000 0.051808 0.000000
# 6 0.000000 0.000000 0.000000 0.000000 0.000000 0.020251
#
#
# Mechanical properties :
#
#
# Convention : Reuss Voigt Hill
#
# Bulk Modulus (GPa) = 43.47066 59.77453 51.62259
# Shear Modulus (GPa) = 19.19838 24.77335 21.98586
#
# Velocity S-wave (km/s) = 2.96025 3.36270 3.16787
# Velocity P-wave (km/s) = 5.61482 6.50853 6.07812
#
# Compressibility (1/GPa) = 0.02300402
#
# Stress axis : x y z
#
# Youngs Moduli (GPa) = 45.30486 71.44915 31.27370
#
# Poissons Ratio (x) = 0.50742 0.17832
# Poissons Ratio (y) = 0.32175 0.30387
# Poissons Ratio (z) = 0.25833 0.69423
#
# Static dielectric constant tensor:
#      x y z
#    x 1.850260 0.000000 0.000000 
#    y 0.000000 1.867830 0.000000 
#    z 0.000000 0.000000 1.820550 
# 
# From -- ./inp_files/33417.got.cif
#   From: 2010.05.17/outbox.cif.g08.bks.cpg/sg24_17_cif.got.tgz:33417.got - 2010.06.04 00:33:39.
