data_PCOD9335307
_publ_section_title
;
Structure prediction by ZEFSAII (Michael W. Deem and Ramdas Pophale) SiO2 
 PCOD9335307
Probable space group: I 21 21 21
;
_chemical_formula_sum "Si O2"
_cell_formula_units_Z 40
_cell_length_a 9.025346
_cell_length_b 23.723407
_cell_length_c 8.707923
_cell_angle_alpha 90.000000
_cell_angle_beta 90.000000
_cell_angle_gamma 90.000000
_cell_volume 1864.470430
_symmetry_space_group_name_H-M "I 21 21 21"
_symmetry_group_IT_number 24
_symmetry_cell_setting 'orthorhombic'
loop_
_space_group_symop_operation_xyz
x,y,z
-x,1/2-y,z
x,-y,1/2-z
1/2-x,y,-z
1/2+x,1/2+y,1/2+z
1/2-x,-y,1/2+z
1/2+x,1/2-y,-z
-x,1/2+y,1/2-z
loop_
_atom_site_type_symbol
_atom_site_label
_atom_site_fract_x
_atom_site_fract_y
_atom_site_fract_z
Si Si1 0.250000 0.121584 0.500000
Si Si2 0.463395 0.684243 0.081433
Si Si3 0.224607 0.059379 0.790507
Si Si4 0.250000 0.478717 0.500000
Si Si5 0.991448 0.073337 0.013126
Si Si6 0.187236 0.373149 0.286801
O O1 0.377074 0.156630 0.421722
O O2 0.300891 0.083671 0.639080
O O3 0.500000 0.750000 0.094375
O O4 0.346070 0.659138 0.204946
O O5 0.401190 0.664295 0.913167
O O6 0.368541 0.049834 0.893314
O O7 0.153195 0.000000 0.750000
O O8 0.091006 0.094817 0.869024
O O9 0.384568 0.521709 0.470924
O O10 0.213556 0.435348 0.361203
O O11 0.897545 0.115685 0.124997
#
# Coordination Sequence:
#
# PCOD9335307 Si02
#       6
#     4   8   8   4   8   8
#     4  12  22  41  64 100 132 165 226 280 332 412
#     4  10  22  40  68  98 123 168 234 296 342 395
#     4  11  25  36  63  95 143 182 217 266 336 412
#     4  10  22  33  62  90 136 179 218 268 332 412
#     4  11  23  42  58  96 140 180 223 267 335 412
#     4  10  22  40  63  94 137 176 220 287 344 399
#
# _framework density 21.453814000000001
#
# number of rings (size 3 to 8) (size 9 to 14) (size 15 to 20)
#    0.000    1.600    2.000    4.200   11.200    0.000 
#    0.000    0.000    0.000    1.200    0.000    0.000 
#    0.000    0.000    0.000    0.000    0.000    0.000 
#
# Total GULP energy -111366.140871 kJ/mol
# GULP energy per Si atom -5568.307044 kJ/mol
# Density = 2.140498 g / cm^3
# Si number density = 21.453814 Si / 1000 Ang^3
#
#
#
# Elastic Constant Matrix: (Units=GPa)
#
#
# Indices 1 2 3 4 5 6 
#
# 1 135.9162 45.7020 41.6093 0.0000 0.0000 0.0001
# 2 45.7020 67.2421 24.1432 0.0004 0.0003 0.0001
# 3 41.6093 24.1432 76.9438 0.0012 -0.0001 -0.0006
# 4 0.0000 0.0004 0.0012 15.9050 0.0000 -0.0002
# 5 0.0000 0.0003 -0.0001 0.0000 45.6403 0.0003
# 6 0.0001 0.0001 -0.0006 -0.0002 0.0003 23.8743
#
#
#
# Elastic Compliance Matrix: (Units=1/GPa)
#
#
# Indices 1 2 3 4 5 6 
#
# 1 0.010465 -0.005726 -0.003863 0.000000 0.000000 0.000000
# 2 -0.005726 0.019893 -0.003145 0.000000 0.000000 0.000000
# 3 -0.003863 -0.003145 0.016072 -0.000001 0.000000 0.000000
# 4 0.000000 0.000000 -0.000001 0.062873 0.000000 0.000000
# 5 0.000000 0.000000 0.000000 0.000000 0.021910 0.000000
# 6 0.000000 0.000000 0.000000 0.000000 0.000000 0.041886
#
#
# Mechanical properties :
#
#
# Convention : Reuss Voigt Hill
#
# Bulk Modulus (GPa) = 47.70501 55.89014 51.79757
# Shear Modulus (GPa) = 24.32426 28.32708 26.32567
#
# Velocity S-wave (km/s) = 3.37084 3.63764 3.50678
# Velocity P-wave (km/s) = 6.11838 6.61447 6.37125
#
# Compressibility (1/GPa) = 0.02096216
#
# Stress axis : x y z
#
# Youngs Moduli (GPa) = 95.55295 50.26956 62.21874
#
# Poissons Ratio (x) = 0.28785 0.24033
# Poissons Ratio (y) = 0.54714 0.19570
# Poissons Ratio (z) = 0.36910 0.15812
#
# Static dielectric constant tensor:
#      x y z
#    x 1.754250 0.000000 0.000000 
#    y 0.000000 1.795860 0.000000 
#    z 0.000000 0.000000 1.874080 
# 
# From -- ./inp_files/9507.got.cif
#   From: 2010.05.17/outbox.cif.g08.bks.cpg/sg24_5_cif.got.tgz:9507.got - 2010.06.04 00:33:39.
