data_PCOD9335277
_publ_section_title
;
Structure prediction by ZEFSAII (Michael W. Deem and Ramdas Pophale) SiO2 
 PCOD9335277
Probable space group: I 21 21 21
;
_chemical_formula_sum "Si O2"
_cell_formula_units_Z 32
_cell_length_a 9.150632
_cell_length_b 12.827729
_cell_length_c 12.527586
_cell_angle_alpha 90.000000
_cell_angle_beta 90.000000
_cell_angle_gamma 90.000000
_cell_volume 1470.510939
_symmetry_space_group_name_H-M "I 21 21 21"
_symmetry_group_IT_number 24
_symmetry_cell_setting 'orthorhombic'
loop_
_space_group_symop_operation_xyz
x,y,z
-x,1/2-y,z
x,-y,1/2-z
1/2-x,y,-z
1/2+x,1/2+y,1/2+z
1/2-x,-y,1/2+z
1/2+x,1/2-y,-z
-x,1/2+y,1/2-z
loop_
_atom_site_type_symbol
_atom_site_label
_atom_site_fract_x
_atom_site_fract_y
_atom_site_fract_z
Si Si1 0.877911 0.161853 0.079601
Si Si2 0.902983 0.498729 0.026693
Si Si3 0.723385 0.500000 0.750000
Si Si4 0.028948 0.130234 0.667415
Si Si5 0.263815 0.500000 0.250000
O O1 0.819978 0.087508 0.177259
O O2 0.000000 0.250000 0.110993
O O3 0.966745 0.079213 0.007852
O O4 0.750000 0.200852 0.000000
O O5 0.881425 0.520712 0.150836
O O6 0.750000 0.444776 0.000000
O O7 0.914774 0.597175 0.949724
O O8 0.842595 0.406207 0.748935
O O9 0.000000 0.250000 0.679451
O O10 0.877577 0.069003 0.681646
#
# Coordination Sequence:
#
# PCOD9335277 Si02
#       5
#     8   8   4   8   4
#     4  12  26  46  75 106 147 197 244 308 374 438
#     4  10  21  45  66 103 140 187 240 298 356 451
#     4   9  21  40  70 104 142 184 248 290 362 452
#     4  10  22  43  74 106 147 195 235 308 377 435
#     4  11  25  48  70 112 146 186 258 310 352 458
#
# _framework density 21.761144999999999
#
# number of rings (size 3 to 8) (size 9 to 14) (size 15 to 20)
#    0.000    1.500    2.500    1.500    3.500    1.000 
#   13.500    1.250    0.000    0.000    0.000    0.000 
#    0.000    0.000    0.000    0.000    0.000    0.000 
#
# Total GULP energy -89101.786654 kJ/mol
# GULP energy per Si atom -5568.861666 kJ/mol
# Density = 2.171162 g / cm^3
# Si number density = 21.761145 Si / 1000 Ang^3
#
#
#
# Elastic Constant Matrix: (Units=GPa)
#
#
# Indices 1 2 3 4 5 6 
#
# 1 116.6519 50.4253 39.8377 0.0000 0.0000 0.0000
# 2 50.4253 149.2630 37.4774 0.0000 0.0000 0.0000
# 3 39.8377 37.4774 95.3444 0.0000 0.0000 0.0000
# 4 0.0000 0.0000 0.0000 23.6700 0.0000 0.0000
# 5 0.0000 0.0000 0.0000 0.0000 31.9503 0.0000
# 6 0.0000 0.0000 0.0000 0.0000 0.0000 19.2387
#
#
#
# Elastic Compliance Matrix: (Units=1/GPa)
#
#
# Indices 1 2 3 4 5 6 
#
# 1 0.010986 -0.002839 -0.003474 0.000000 0.000000 0.000000
# 2 -0.002839 0.008167 -0.002024 0.000000 0.000000 0.000000
# 3 -0.003474 -0.002024 0.012736 0.000000 0.000000 0.000000
# 4 0.000000 0.000000 0.000000 0.042248 0.000000 0.000000
# 5 0.000000 0.000000 0.000000 0.000000 0.031299 0.000000
# 6 0.000000 0.000000 0.000000 0.000000 0.000000 0.051978
#
#
# Mechanical properties :
#
#
# Convention : Reuss Voigt Hill
#
# Bulk Modulus (GPa) = 65.72961 68.52666 67.12814
# Shear Modulus (GPa) = 27.90807 30.53974 29.22391
#
# Velocity S-wave (km/s) = 3.58505 3.75027 3.66859
# Velocity P-wave (km/s) = 6.88530 7.09306 6.98995
#
# Compressibility (1/GPa) = 0.01521384
#
# Stress axis : x y z
#
# Youngs Moduli (GPa) = 91.02220 122.44560 78.52028
#
# Poissons Ratio (x) = 0.34764 0.27281
# Poissons Ratio (y) = 0.25842 0.15892
# Poissons Ratio (z) = 0.31625 0.24782
#
# Static dielectric constant tensor:
#      x y z
#    x 1.866050 0.000000 0.000000 
#    y 0.000000 1.775180 0.000000 
#    z 0.000000 0.000000 2.075230 
# 
# From -- ./inp_files/10294.got.cif
#   From: 2010.05.17/outbox.cif.g08.bks.cpg/sg24_6_cif.got.tgz:10294.got - 2010.06.04 00:33:39.
