data_PCOD9335422
_publ_section_title
;
Structure prediction by ZEFSAII (Michael W. Deem and Ramdas Pophale) SiO2 
 PCOD9335422
Probable space group: I 21 21 21
;
_chemical_formula_sum "Si O2"
_cell_formula_units_Z 60
_cell_length_a 6.093336
_cell_length_b 18.999973
_cell_length_c 24.196634
_cell_angle_alpha 90.000000
_cell_angle_beta 90.000000
_cell_angle_gamma 90.000000
_cell_volume 2801.322219
_symmetry_space_group_name_H-M "I 21 21 21"
_symmetry_group_IT_number 24
_symmetry_cell_setting 'orthorhombic'
loop_
_space_group_symop_operation_xyz
x,y,z
-x,1/2-y,z
x,-y,1/2-z
1/2-x,y,-z
1/2+x,1/2+y,1/2+z
1/2-x,-y,1/2+z
1/2+x,1/2-y,-z
-x,1/2+y,1/2-z
loop_
_atom_site_type_symbol
_atom_site_label
_atom_site_fract_x
_atom_site_fract_y
_atom_site_fract_z
Si Si1 0.307840 0.433748 0.324537
Si Si2 0.743930 0.419115 0.896993
Si Si3 0.750000 0.880716 0.000000
Si Si4 0.590894 0.082828 0.202266
Si Si5 0.866009 0.570034 0.927425
Si Si6 0.364809 0.316824 0.860804
Si Si7 0.569608 0.822349 0.462885
Si Si8 0.019221 0.668823 0.107031
O O1 0.437720 0.416778 0.267894
O O2 0.254295 0.516030 0.314236
O O3 0.471345 0.432456 0.375547
O O4 0.113556 0.381709 0.343912
O O5 0.730645 0.497232 0.922086
O O6 0.522240 0.377571 0.884790
O O7 0.883136 0.421263 0.839115
O O8 0.881522 0.372779 0.941002
O O9 0.531310 0.923087 0.020243
O O10 0.818832 0.836492 0.053899
O O11 0.722071 0.152274 0.187836
O O12 0.706187 0.635578 0.916346
O O13 0.500000 0.250000 0.843347
O O14 0.199144 0.296067 0.909097
O O15 0.500000 0.750000 0.492873
O O16 0.750000 0.861208 0.500000
O O17 0.000000 0.750000 0.124157
#
# Coordination Sequence:
#
# PCOD9335422 Si02
#       8
#     8   8   4   8   8   8   8   8
#     4   9  20  41  62  92 122 156 206 253 307 373
#     4  10  22  39  61  86 121 164 205 257 305 362
#     4  10  24  40  62  90 126 160 208 256 314 380
#     4   9  20  38  64  87 123 164 200 254 307 365
#     4  10  22  42  63  90 121 158 212 254 312 373
#     4  11  21  37  57  86 123 160 206 245 301 365
#     4  11  23  38  56  83 120 163 206 250 298 355
#     4  11  24  40  65  91 127 161 205 258 319 384
#
# _framework density 21.418457
#
# number of rings (size 3 to 8) (size 9 to 14) (size 15 to 20)
#    0.000    1.867    1.333    1.600    2.800    4.267 
#    2.400    4.000    0.000    0.000    0.000    0.000 
#    0.000    0.000    0.000    0.000    0.000    0.000 
#
# Total GULP energy -167380.164296 kJ/mol
# GULP energy per Si atom -5579.338810 kJ/mol
# Density = 2.136971 g / cm^3
# Si number density = 21.418457 Si / 1000 Ang^3
#
#
#
# Elastic Constant Matrix: (Units=GPa)
#
#
# Indices 1 2 3 4 5 6 
#
# 1 42.2419 16.7485 -1.2845 0.0000 0.0000 0.0000
# 2 16.7485 93.0795 8.3615 0.0000 0.0000 0.0000
# 3 -1.2845 8.3615 91.5482 0.0000 0.0000 0.0000
# 4 0.0000 0.0000 0.0000 23.6804 0.0000 0.0000
# 5 0.0000 0.0000 0.0000 0.0000 13.2335 0.0000
# 6 0.0000 0.0000 0.0000 0.0000 0.0000 34.3091
#
#
#
# Elastic Compliance Matrix: (Units=1/GPa)
#
#
# Indices 1 2 3 4 5 6 
#
# 1 0.025548 -0.004667 0.000785 0.000000 0.000000 0.000000
# 2 -0.004667 0.011685 -0.001133 0.000000 0.000000 0.000000
# 3 0.000785 -0.001133 0.011038 0.000000 0.000000 0.000000
# 4 0.000000 0.000000 0.000000 0.042229 0.000000 0.000000
# 5 0.000000 0.000000 0.000000 0.000000 0.075566 0.000000
# 6 0.000000 0.000000 0.000000 0.000000 0.000000 0.029147
#
#
# Mechanical properties :
#
#
# Convention : Reuss Voigt Hill
#
# Bulk Modulus (GPa) = 26.15096 30.50229 28.32662
# Shear Modulus (GPa) = 22.93688 27.78088 25.35888
#
# Velocity S-wave (km/s) = 3.27600 3.60537 3.44462
# Velocity P-wave (km/s) = 5.15224 5.62171 5.39209
#
# Compressibility (1/GPa) = 0.03823952
#
# Stress axis : x y z
#
# Youngs Moduli (GPa) = 39.14251 85.57900 90.59883
#
# Poissons Ratio (x) = 0.39944 -0.07110
# Poissons Ratio (y) = 0.18270 0.10262
# Poissons Ratio (z) = -0.03072 0.09694
#
# Static dielectric constant tensor:
#      x y z
#    x 1.801440 0.000000 0.000000 
#    y 0.000000 1.796060 0.000000 
#    z 0.000000 0.000000 1.803910 
# 
# From -- ./inp_files/34807.got.cif
#   From: 2010.05.17/outbox.cif.g08.bks.cpg/sg24_18_cif.got.tgz:34807.got - 2010.06.04 00:33:39.
