data_PCOD9335923
_publ_section_title
;
Structure prediction by ZEFSAII (Michael W. Deem and Ramdas Pophale) SiO2 
 PCOD9335923
Probable space group: I 21 21 21
;
_chemical_formula_sum "Si O2"
_cell_formula_units_Z 32
_cell_length_a 6.117129
_cell_length_b 8.049530
_cell_length_c 30.931152
_cell_angle_alpha 90.000000
_cell_angle_beta 90.000000
_cell_angle_gamma 90.000000
_cell_volume 1523.050339
_symmetry_space_group_name_H-M "I 21 21 21"
_symmetry_group_IT_number 24
_symmetry_cell_setting 'orthorhombic'
loop_
_space_group_symop_operation_xyz
x,y,z
-x,1/2-y,z
x,-y,1/2-z
1/2-x,y,-z
1/2+x,1/2+y,1/2+z
1/2-x,-y,1/2+z
1/2+x,1/2-y,-z
-x,1/2+y,1/2-z
loop_
_atom_site_type_symbol
_atom_site_label
_atom_site_fract_x
_atom_site_fract_y
_atom_site_fract_z
Si Si1 0.500000 0.250000 0.332410
Si Si2 0.349467 0.903056 0.452544
Si Si3 0.380392 0.426329 0.703421
Si Si4 0.608076 0.424288 0.618659
Si Si5 0.000000 0.250000 0.521069
O O1 0.371409 0.382280 0.303400
O O2 0.666601 0.355693 0.361085
O O3 0.500000 0.750000 0.438950
O O4 0.250000 0.868372 0.500000
O O5 0.156861 0.948887 0.419370
O O6 0.490686 0.073029 0.455067
O O7 0.500000 0.250000 0.703141
O O8 0.424872 0.500000 0.750000
O O9 0.470390 0.502436 0.658511
O O10 0.500000 0.250000 0.602708
O O11 0.250000 0.250190 0.500000
#
# Coordination Sequence:
#
# PCOD9335923 Si02
#       5
#     4   8   8   8   4
#     4   8  17  36  62  90 124 168 222 264 322 423
#     4  11  24  43  66 101 141 180 238 296 353 427
#     4   9  19  38  63  94 127 167 213 271 338 416
#     4   9  20  40  65  92 131 178 226 278 345 421
#     4  10  23  42  72 100 134 194 238 294 372 429
#
# _framework density 21.010466999999998
#
# number of rings (size 3 to 8) (size 9 to 14) (size 15 to 20)
#    0.000    3.000    0.000    1.500    7.000    4.000 
#   13.500    0.000    0.000    0.000    0.000    0.000 
#    0.000    0.000    0.000    0.000    0.000    0.000 
#
# Total GULP energy -89099.358560 kJ/mol
# GULP energy per Si atom -5568.709910 kJ/mol
# Density = 2.096265 g / cm^3
# Si number density = 21.010467 Si / 1000 Ang^3
#
#
#
# Elastic Constant Matrix: (Units=GPa)
#
#
# Indices 1 2 3 4 5 6 
#
# 1 88.1736 27.9543 44.0444 0.0000 0.0000 0.0000
# 2 27.9543 86.4019 39.1659 0.0000 0.0000 0.0000
# 3 44.0444 39.1659 153.8335 0.0000 0.0000 0.0000
# 4 0.0000 0.0000 0.0000 10.8141 0.0000 0.0000
# 5 0.0000 0.0000 0.0000 0.0000 6.5208 0.0000
# 6 0.0000 0.0000 0.0000 0.0000 0.0000 27.4480
#
#
#
# Elastic Compliance Matrix: (Units=1/GPa)
#
#
# Indices 1 2 3 4 5 6 
#
# 1 0.013909 -0.003046 -0.003207 0.000000 0.000000 0.000000
# 2 -0.003046 0.013751 -0.002629 0.000000 0.000000 0.000000
# 3 -0.003207 -0.002629 0.008088 0.000000 0.000000 0.000000
# 4 0.000000 0.000000 0.000000 0.092472 0.000000 0.000000
# 5 0.000000 0.000000 0.000000 0.000000 0.153356 0.000000
# 6 0.000000 0.000000 0.000000 0.000000 0.000000 0.036432
#
#
# Mechanical properties :
#
#
# Convention : Reuss Voigt Hill
#
# Bulk Modulus (GPa) = 55.60467 61.19310 58.39889
# Shear Modulus (GPa) = 14.62983 23.43953 19.03468
#
# Velocity S-wave (km/s) = 2.64163 3.34370 3.01319
# Velocity P-wave (km/s) = 5.98556 6.64044 6.32149
#
# Compressibility (1/GPa) = 0.01798410
#
# Stress axis : x y z
#
# Youngs Moduli (GPa) = 71.89641 72.72149 123.64113
#
# Poissons Ratio (x) = 0.22154 0.39647
# Poissons Ratio (y) = 0.21903 0.32502
# Poissons Ratio (z) = 0.23055 0.19117
#
# Static dielectric constant tensor:
#      x y z
#    x 1.868740 0.000000 0.000000 
#    y 0.000000 1.750700 0.000000 
#    z 0.000000 0.000000 1.881020 
# 
# From -- ./inp_files/8302.got.cif
#   From: 2010.05.17/outbox.cif.g08.bks.cpg/sg24_5_cif.got.tgz:8302.got - 2010.06.04 00:33:39.
