data_PCOD9335996
_publ_section_title
;
Structure prediction by ZEFSAII (Michael W. Deem and Ramdas Pophale) SiO2 
 PCOD9335996
Probable space group: I 21 21 21
;
_chemical_formula_sum "Si O2"
_cell_formula_units_Z 60
_cell_length_a 8.851047
_cell_length_b 11.091616
_cell_length_c 26.378926
_cell_angle_alpha 90.000000
_cell_angle_beta 90.000000
_cell_angle_gamma 90.000000
_cell_volume 2589.682858
_symmetry_space_group_name_H-M "I 21 21 21"
_symmetry_group_IT_number 24
_symmetry_cell_setting 'orthorhombic'
loop_
_space_group_symop_operation_xyz
x,y,z
-x,1/2-y,z
x,-y,1/2-z
1/2-x,y,-z
1/2+x,1/2+y,1/2+z
1/2-x,-y,1/2+z
1/2+x,1/2-y,-z
-x,1/2+y,1/2-z
loop_
_atom_site_type_symbol
_atom_site_label
_atom_site_fract_x
_atom_site_fract_y
_atom_site_fract_z
Si Si1 0.398884 0.631203 0.242738
Si Si2 0.679580 0.110483 0.372938
Si Si3 0.261449 0.176547 0.443051
Si Si4 0.750000 0.122757 0.000000
Si Si5 0.524081 0.543949 0.432759
Si Si6 0.105179 0.648912 0.310462
Si Si7 0.513914 0.523448 0.885919
Si Si8 0.701646 0.293395 0.911383
O O1 0.500000 0.750000 0.253996
O O2 0.479061 0.500000 0.250000
O O3 0.335423 0.644275 0.185555
O O4 0.251857 0.621366 0.278258
O O5 0.658451 0.226639 0.407609
O O6 0.840505 0.059913 0.392728
O O7 0.555953 0.008402 0.383042
O O8 0.250000 0.229098 0.500000
O O9 0.116912 0.131023 0.409228
O O10 0.362675 0.058484 0.451660
O O11 0.611278 0.057306 0.027335
O O12 0.823458 0.208127 0.041671
O O13 0.628201 0.656786 0.418250
O O14 0.005674 0.532727 0.328229
O O15 0.168536 0.716930 0.360987
O O16 0.000000 0.750000 0.284837
O O17 0.592376 0.408288 0.911684
#
# Coordination Sequence:
#
# PCOD9335996 Si02
#       8
#     8   8   8   4   8   8   8   8
#     4  12  28  51  82 115 158 204 264 333 409 491
#     4  12  26  49  72 105 146 200 259 316 391 472
#     4  11  27  46  70 104 149 203 257 309 389 464
#     4  12  26  40  70 102 144 192 248 308 386 466
#     4  11  27  43  69 101 147 192 246 310 378 469
#     4  10  23  47  77 111 148 196 253 319 400 469
#     4  10  23  44  73 102 148 188 246 323 378 463
#     4  10  25  44  68 108 145 187 245 308 386 461
#
# _framework density 23.168861
#
# number of rings (size 3 to 8) (size 9 to 14) (size 15 to 20)
#    0.000    1.067    1.333    2.800   10.267    5.333 
#    2.400    0.000    0.000    0.000    0.000    0.000 
#    0.000    0.000    0.000    0.000    0.000    0.000 
#
# Total GULP energy -167523.572907 kJ/mol
# GULP energy per Si atom -5584.119097 kJ/mol
# Density = 2.311613 g / cm^3
# Si number density = 23.168861 Si / 1000 Ang^3
#
#
#
# Elastic Constant Matrix: (Units=GPa)
#
#
# Indices 1 2 3 4 5 6 
#
# 1 125.7616 42.3931 20.8256 0.0000 0.0000 0.0000
# 2 42.3931 100.6244 29.4157 0.0000 0.0000 0.0000
# 3 20.8256 29.4157 88.6689 0.0000 0.0000 0.0000
# 4 0.0000 0.0000 0.0000 21.2823 0.0000 0.0000
# 5 0.0000 0.0000 0.0000 0.0000 26.6768 0.0000
# 6 0.0000 0.0000 0.0000 0.0000 0.0000 21.3094
#
#
#
# Elastic Compliance Matrix: (Units=1/GPa)
#
#
# Indices 1 2 3 4 5 6 
#
# 1 0.009345 -0.003649 -0.000984 0.000000 0.000000 0.000000
# 2 -0.003649 0.012430 -0.003267 0.000000 0.000000 0.000000
# 3 -0.000984 -0.003267 0.012593 0.000000 0.000000 0.000000
# 4 0.000000 0.000000 0.000000 0.046987 0.000000 0.000000
# 5 0.000000 0.000000 0.000000 0.000000 0.037486 0.000000
# 6 0.000000 0.000000 0.000000 0.000000 0.000000 0.046928
#
#
# Mechanical properties :
#
#
# Convention : Reuss Voigt Hill
#
# Bulk Modulus (GPa) = 53.85695 55.59153 54.72424
# Shear Modulus (GPa) = 26.63005 28.68172 27.65588
#
# Velocity S-wave (km/s) = 3.39394 3.52226 3.45870
# Velocity P-wave (km/s) = 6.21726 6.37086 6.29453
#
# Compressibility (1/GPa) = 0.01856771
#
# Stress axis : x y z
#
# Youngs Moduli (GPa) = 107.01329 80.44859 79.41067
#
# Poissons Ratio (x) = 0.29357 0.07815
# Poissons Ratio (y) = 0.39051 0.25941
# Poissons Ratio (z) = 0.10532 0.26280
#
# Static dielectric constant tensor:
#      x y z
#    x 1.921680 0.000000 0.000000 
#    y 0.000000 1.948110 0.000000 
#    z 0.000000 0.000000 1.856000 
# 
# From -- ./inp_files/36934.got.cif
#   From: 2010.05.17/outbox.cif.g08.bks.cpg/sg24_19_cif.got.tgz:36934.got - 2010.06.04 00:33:39.
