data_PCOD9335703
_publ_section_title
;
Structure prediction by ZEFSAII (Michael W. Deem and Ramdas Pophale) SiO2 
 PCOD9335703
Probable space group: I 21 21 21
;
_chemical_formula_sum "Si O2"
_cell_formula_units_Z 48
_cell_length_a 27.771229
_cell_length_b 7.514396
_cell_length_c 10.464000
_cell_angle_alpha 90.000000
_cell_angle_beta 90.000000
_cell_angle_gamma 90.000000
_cell_volume 2183.669503
_symmetry_space_group_name_H-M "I 21 21 21"
_symmetry_group_IT_number 24
_symmetry_cell_setting 'orthorhombic'
loop_
_space_group_symop_operation_xyz
x,y,z
-x,1/2-y,z
x,-y,1/2-z
1/2-x,y,-z
1/2+x,1/2+y,1/2+z
1/2-x,-y,1/2+z
1/2+x,1/2-y,-z
-x,1/2+y,1/2-z
loop_
_atom_site_type_symbol
_atom_site_label
_atom_site_fract_x
_atom_site_fract_y
_atom_site_fract_z
Si Si1 0.387949 0.728373 0.901048
Si Si2 0.500000 0.250000 0.955433
Si Si3 0.602437 0.621663 0.498143
Si Si4 0.158734 0.000000 0.750000
Si Si5 0.036512 0.500000 0.250000
Si Si6 0.832101 0.871041 0.864716
Si Si7 0.750000 0.902841 0.500000
Si Si8 0.184532 0.799595 0.304529
O O1 0.429223 0.642793 0.817217
O O2 0.338196 0.708330 0.820655
O O3 0.401537 0.931878 0.929842
O O4 0.376742 0.647147 0.038713
O O5 0.551514 0.281101 0.021076
O O6 0.494256 0.416018 0.861448
O O7 0.627079 0.585551 0.362656
O O8 0.640841 0.715090 0.591911
O O9 0.183232 0.827535 0.816656
O O10 0.789659 0.029252 0.562198
O O11 0.845754 0.000000 0.750000
O O12 0.771559 0.782709 0.384229
O O13 0.193764 0.000000 0.250000
#
# Coordination Sequence:
#
# PCOD9335703 Si02
#       8
#     8   4   8   4   4   8   4   8
#     4  10  22  43  70  96 142 184 225 295 365 430
#     4  12  24  36  70 106 136 176 236 296 350 438
#     4  10  22  46  68 100 138 187 233 289 369 428
#     4  10  24  50  70  96 147 199 232 298 372 438
#     4  12  22  36  66 106 135 169 234 288 358 420
#     4  11  26  45  73 103 142 190 246 292 364 441
#     4  12  26  44  72 110 136 194 256 302 362 456
#     4  10  22  46  71 103 148 183 235 307 373 431
#
# _framework density 21.981349000000002
#
# number of rings (size 3 to 8) (size 9 to 14) (size 15 to 20)
#    0.000    1.333    1.667    3.000    5.833    0.000 
#   12.000    4.167    0.000    0.000    0.000    0.000 
#    0.000    0.000    0.000    0.000    0.000    0.000 
#
# Total GULP energy -134112.006246 kJ/mol
# GULP energy per Si atom -5588.000260 kJ/mol
# Density = 2.193132 g / cm^3
# Si number density = 21.981349 Si / 1000 Ang^3
#
#
#
# Elastic Constant Matrix: (Units=GPa)
#
#
# Indices 1 2 3 4 5 6 
#
# 1 79.5714 29.5033 24.9411 0.0000 0.0000 0.0000
# 2 29.5033 71.8217 27.4604 0.0000 0.0000 0.0000
# 3 24.9411 27.4604 109.0977 0.0000 0.0000 0.0000
# 4 0.0000 0.0000 0.000011511.4475 0.0000 0.0000
# 5 0.0000 0.0000 0.0000 0.0000 28.9385 0.0000
# 6 0.0000 0.0000 0.0000 0.0000 0.0000 19.9317
#
#
#
# Elastic Compliance Matrix: (Units=1/GPa)
#
#
# Indices 1 2 3 4 5 6 
#
# 1 0.015253 -0.005458 -0.002113 0.000000 0.000000 0.000000
# 2 -0.005458 0.017359 -0.003122 0.000000 0.000000 0.000000
# 3 -0.002113 -0.003122 0.010435 0.000000 0.000000 0.000000
# 4 0.000000 0.000000 0.000000 0.000087 0.000000 0.000000
# 5 0.000000 0.000000 0.000000 0.000000 0.034556 0.000000
# 6 0.000000 0.000000 0.000000 0.000000 0.000000 0.050171
#
#
# Mechanical properties :
#
#
# Convention : Reuss Voigt Hill
#
# Bulk Modulus (GPa) = 46.16450 47.14449 46.65450
# Shear Modulus (GPa) = 31.95549 2323.96927 1177.96238
#
# Velocity S-wave (km/s) = 3.81695 32.55059 23.17445
# Velocity P-wave (km/s) = 6.36182 37.87104 27.15408
#
# Compressibility (1/GPa) = 0.02166167
#
# Stress axis : x y z
#
# Youngs Moduli (GPa) = 65.55915 57.60735 95.83181
#
# Poissons Ratio (x) = 0.31441 0.20253
# Poissons Ratio (y) = 0.35781 0.29915
# Poissons Ratio (z) = 0.13855 0.17983
#
# Static dielectric constant tensor:
#      x y z
#    x 0.063930 0.000000 0.000000 
#    y 0.000000 1.780370 0.000000 
#    z 0.000000 0.000000 1.818440 
# 
# From -- ./inp_files/16898.got.cif
#   From: 2010.05.17/outbox.cif.g08.bks.cpg/sg24_9_cif.got.tgz:16898.got - 2010.06.04 00:33:39.
