data_PCOD9335704
_publ_section_title
;
Structure prediction by ZEFSAII (Michael W. Deem and Ramdas Pophale) SiO2 
 PCOD9335704
Probable space group: I 21 21 21
;
_chemical_formula_sum "Si O2"
_cell_formula_units_Z 40
_cell_length_a 7.176764
_cell_length_b 17.473297
_cell_length_c 12.743982
_cell_angle_alpha 90.000000
_cell_angle_beta 90.000000
_cell_angle_gamma 90.000000
_cell_volume 1598.117375
_symmetry_space_group_name_H-M "I 21 21 21"
_symmetry_group_IT_number 24
_symmetry_cell_setting 'orthorhombic'
loop_
_space_group_symop_operation_xyz
x,y,z
-x,1/2-y,z
x,-y,1/2-z
1/2-x,y,-z
1/2+x,1/2+y,1/2+z
1/2-x,-y,1/2+z
1/2+x,1/2-y,-z
-x,1/2+y,1/2-z
loop_
_atom_site_type_symbol
_atom_site_label
_atom_site_fract_x
_atom_site_fract_y
_atom_site_fract_z
Si Si1 0.400709 0.168070 0.181407
Si Si2 0.489202 0.363709 0.411944
Si Si3 0.972871 0.533882 0.531564
Si Si4 0.081503 0.673721 0.136283
Si Si5 0.450098 0.072987 0.810832
O O1 0.500000 0.250000 0.161747
O O2 0.400299 0.154154 0.306796
O O3 0.502857 0.103445 0.111415
O O4 0.188280 0.142418 0.155084
O O5 0.463937 0.454649 0.419063
O O6 0.295522 0.319834 0.394190
O O7 0.539948 0.342391 0.531661
O O8 0.750000 0.524773 0.500000
O O9 0.054339 0.547576 0.415883
O O10 0.000000 0.750000 0.184581
O O11 0.076288 0.606890 0.220220
O O12 0.354708 0.000000 0.750000
#
# Coordination Sequence:
#
# PCOD9335704 Si02
#       5
#     8   8   8   8   8
#     4  11  23  40  66  99 133 177 231 282 338 402
#     4  11  23  43  65  99 136 175 228 281 337 412
#     4  10  22  43  70  98 132 182 234 283 342 413
#     4  11  25  42  65 100 138 175 223 285 349 399
#     4  11  22  43  70  96 134 182 227 278 343 415
#
# _framework density 25.029450000000001
#
# number of rings (size 3 to 8) (size 9 to 14) (size 15 to 20)
#    0.000    1.200    2.000    4.800    0.000    4.000 
#    0.000    2.000    0.000    0.000    0.000    0.000 
#    0.000    0.000    0.000    0.000    0.000    0.000 
#
# Total GULP energy -111713.432251 kJ/mol
# GULP energy per Si atom -5585.671613 kJ/mol
# Density = 2.497248 g / cm^3
# Si number density = 25.029450 Si / 1000 Ang^3
#
#
#
# Elastic Constant Matrix: (Units=GPa)
#
#
# Indices 1 2 3 4 5 6 
#
# 1 26.6804 4.9127 0.8006 0.0000 0.0000 0.0000
# 2 4.9127 177.0712 55.3414 0.0000 0.0000 0.0000
# 3 0.8006 55.3414 112.1811 0.0000 0.0000 0.0000
# 4 0.0000 0.0000 0.0000 45.9997 0.0000 0.0000
# 5 0.0000 0.0000 0.0000 0.0000 24.0529 0.0000
# 6 0.0000 0.0000 0.0000 0.0000 0.0000 26.4018
#
#
#
# Elastic Compliance Matrix: (Units=1/GPa)
#
#
# Indices 1 2 3 4 5 6 
#
# 1 0.037681 -0.001137 0.000292 0.000000 0.000000 0.000000
# 2 -0.001137 0.006711 -0.003303 0.000000 0.000000 0.000000
# 3 0.000292 -0.003303 0.010541 0.000000 0.000000 0.000000
# 4 0.000000 0.000000 0.000000 0.021739 0.000000 0.000000
# 5 0.000000 0.000000 0.000000 0.000000 0.041575 0.000000
# 6 0.000000 0.000000 0.000000 0.000000 0.000000 0.037876
#
#
# Mechanical properties :
#
#
# Convention : Reuss Voigt Hill
#
# Bulk Modulus (GPa) = 21.44138 48.67136 35.05637
# Shear Modulus (GPa) = 27.78308 36.28273 32.03290
#
# Velocity S-wave (km/s) = 3.33530 3.81149 3.58132
# Velocity P-wave (km/s) = 4.83915 6.23360 5.58011
#
# Compressibility (1/GPa) = 0.04663878
#
# Stress axis : x y z
#
# Youngs Moduli (GPa) = 26.53840 149.00484 94.86445
#
# Poissons Ratio (x) = 0.16936 -0.02768
# Poissons Ratio (y) = 0.03016 0.31331
# Poissons Ratio (z) = -0.00774 0.49211
#
# Static dielectric constant tensor:
#      x y z
#    x 2.110250 0.000000 0.000000 
#    y 0.000000 2.003140 0.000000 
#    z 0.000000 0.000000 2.038270 
# 
# From -- ./inp_files/18228.got.cif
#   From: 2010.05.17/outbox.cif.g08.bks.cpg/sg24_10_cif.got.tgz:18228.got - 2010.06.04 00:33:39.
