data_PCOD9335548
_publ_section_title
;
Structure prediction by ZEFSAII (Michael W. Deem and Ramdas Pophale) SiO2 
 PCOD9335548
Probable space group: I 21 21 21
;
_chemical_formula_sum "Si O2"
_cell_formula_units_Z 64
_cell_length_a 14.732497
_cell_length_b 12.079120
_cell_length_c 18.712522
_cell_angle_alpha 90.000000
_cell_angle_beta 90.000000
_cell_angle_gamma 90.000000
_cell_volume 3329.998064
_symmetry_space_group_name_H-M "I 21 21 21"
_symmetry_group_IT_number 24
_symmetry_cell_setting 'orthorhombic'
loop_
_space_group_symop_operation_xyz
x,y,z
-x,1/2-y,z
x,-y,1/2-z
1/2-x,y,-z
1/2+x,1/2+y,1/2+z
1/2-x,-y,1/2+z
1/2+x,1/2-y,-z
-x,1/2+y,1/2-z
loop_
_atom_site_type_symbol
_atom_site_label
_atom_site_fract_x
_atom_site_fract_y
_atom_site_fract_z
Si Si1 0.184196 0.584508 0.816732
Si Si2 0.279063 0.174891 0.142876
Si Si3 0.732017 0.091561 0.915818
Si Si4 0.538788 0.632472 0.428887
Si Si5 0.134920 0.997567 0.335250
Si Si6 0.019898 0.938147 0.824876
Si Si7 0.791090 0.332291 0.688986
Si Si8 0.017891 0.377477 0.093680
O O1 0.198070 0.500000 0.750000
O O2 0.219454 0.516796 0.884934
O O3 0.232450 0.702931 0.815037
O O4 0.077641 0.618971 0.816418
O O5 0.271610 0.303919 0.127305
O O6 0.354944 0.131161 0.089118
O O7 0.301445 0.148013 0.225366
O O8 0.185327 0.111091 0.133525
O O9 0.624382 0.096258 0.903324
O O10 0.750000 0.105888 0.000000
O O11 0.500000 0.750000 0.401542
O O12 0.500616 0.530856 0.384328
O O13 0.514204 0.624282 0.511317
O O14 0.209056 0.095716 0.344839
O O15 0.122978 0.000000 0.250000
O O16 0.036438 0.977787 0.368663
O O17 0.111072 0.869861 0.842126
O O18 0.036517 0.000000 0.750000
O O19 0.000000 0.250000 0.121175
#
# Coordination Sequence:
#
# PCOD9335548 Si02
#       8
#     8   8   8   8   8   8   8   8
#     4  11  24  38  61  92 125 176 225 263 322 393
#     4  11  20  37  64  92 131 156 200 267 333 388
#     4  12  24  43  64  91 131 169 216 278 325 381
#     4  11  22  35  59  98 130 165 210 261 331 392
#     4  10  22  41  62  95 126 163 212 265 327 388
#     4  11  20  35  58  95 136 169 208 261 324 394
#     4  11  21  41  62  94 133 171 210 268 324 392
#     4  11  23  41  64  93 127 168 220 271 331 385
#
# _framework density 19.219231000000001
#
# number of rings (size 3 to 8) (size 9 to 14) (size 15 to 20)
#    0.000    1.000    5.000    3.750    1.750    0.500 
#    0.000    1.875    0.000    0.000    0.000    0.000 
#    0.000    0.000    0.000    0.000    0.000    0.000 
#
# Total GULP energy -178420.633332 kJ/mol
# GULP energy per Si atom -5575.644792 kJ/mol
# Density = 1.917549 g / cm^3
# Si number density = 19.219231 Si / 1000 Ang^3
#
#
#
# Elastic Constant Matrix: (Units=GPa)
#
#
# Indices 1 2 3 4 5 6 
#
# 1 95.3481 22.8249 11.6171 0.0000 0.0000 0.0000
# 2 22.8249 94.7845 16.8103 0.0000 0.0000 0.0000
# 3 11.6171 16.8103 38.8371 0.0000 0.0000 0.0000
# 4 0.0000 0.0000 0.0000 22.8964 0.0000 0.0000
# 5 0.0000 0.0000 0.0000 0.0000 17.3826 0.0000
# 6 0.0000 0.0000 0.0000 0.0000 0.0000 -3.2129
#
#
#
# Elastic Compliance Matrix: (Units=1/GPa)
#
#
# Indices 1 2 3 4 5 6 
#
# 1 0.011331 -0.002304 -0.002392 0.000000 0.000000 0.000000
# 2 -0.002304 0.011896 -0.004460 0.000000 0.000000 0.000000
# 3 -0.002392 -0.004460 0.028394 0.000000 0.000000 0.000000
# 4 0.000000 0.000000 0.000000 0.043675 0.000000 0.000000
# 5 0.000000 0.000000 0.000000 0.000000 0.057529 0.000000
# 6 0.000000 0.000000 0.000000 0.000000 0.000000 -0.311249
#
#
# Mechanical properties :
#
#
# Convention : Reuss Voigt Hill
#
# Bulk Modulus (GPa) = 30.02169 36.83048 33.42608
# Shear Modulus (GPa) = -38.75706 19.26108 -9.74799
#
# Velocity S-wave (km/s) = -4.49550 3.16915 -2.25455
# Velocity P-wave (km/s) = 3.36028 5.70932 3.26380
#
# Compressibility (1/GPa) = 0.03330925
#
# Stress axis : x y z
#
# Youngs Moduli (GPa) = 88.25390 84.06100 35.21815
#
# Poissons Ratio (x) = 0.19371 0.08424
# Poissons Ratio (y) = 0.20337 0.15707
# Poissons Ratio (z) = 0.21110 0.37490
#
# Static dielectric constant tensor:
#      x y z
#    x 1.737960 0.000000 0.000000 
#    y 0.000000 1.694790 0.000000 
#    z 0.000000 0.000000 1.656640 
# 
# From -- ./inp_files/21728.got.cif
#   From: 2010.05.17/outbox.cif.g08.bks.cpg/sg24_11_cif.got.tgz:21728.got - 2010.06.04 00:33:39.
