data_PCOD9335044
_publ_section_title
;
Structure prediction by ZEFSAII (Michael W. Deem and Ramdas Pophale) SiO2 
 PCOD9335044
Probable space group: I 21 21 21
;
_chemical_formula_sum "Si O2"
_cell_formula_units_Z 48
_cell_length_a 14.797197
_cell_length_b 8.335248
_cell_length_c 19.804234
_cell_angle_alpha 90.000000
_cell_angle_beta 90.000000
_cell_angle_gamma 90.000000
_cell_volume 2442.620687
_symmetry_space_group_name_H-M "I 21 21 21"
_symmetry_group_IT_number 24
_symmetry_cell_setting 'orthorhombic'
loop_
_space_group_symop_operation_xyz
x,y,z
-x,1/2-y,z
x,-y,1/2-z
1/2-x,y,-z
1/2+x,1/2+y,1/2+z
1/2-x,-y,1/2+z
1/2+x,1/2-y,-z
-x,1/2+y,1/2-z
loop_
_atom_site_type_symbol
_atom_site_label
_atom_site_fract_x
_atom_site_fract_y
_atom_site_fract_z
Si Si1 0.058195 0.390524 0.862122
Si Si2 0.252705 0.942514 0.921227
Si Si3 0.124302 0.914949 0.685287
Si Si4 0.908397 0.448884 0.172682
Si Si5 0.881986 0.066961 0.174982
Si Si6 0.226867 0.434035 0.577412
O O1 0.131398 0.488464 0.902054
O O2 0.000000 0.250000 0.901365
O O3 0.976097 0.486350 0.828445
O O4 0.109140 0.275797 0.807988
O O5 0.184909 0.053303 0.879260
O O6 0.222951 0.757823 0.914995
O O7 0.348039 0.964189 0.883438
O O8 0.250000 0.985501 0.000000
O O9 0.164891 0.000000 0.750000
O O10 0.890213 0.500000 0.250000
O O11 0.885248 0.259877 0.171353
O O12 0.014314 0.481917 0.159168
O O13 0.862443 0.000000 0.250000
O O14 0.806769 0.000660 0.124564
O O15 0.250000 0.471561 0.500000
#
# Coordination Sequence:
#
# PCOD9335044 Si02
#       6
#     8   8   8   8   8   8
#     4   8  22  40  59  89 115 155 200 252 303 358
#     4  11  24  38  59  89 125 166 200 250 304 364
#     4   9  20  39  60  87 116 154 202 249 303 360
#     4  10  21  40  63  91 123 156 204 251 305 361
#     4  10  22  39  64  92 118 161 202 252 304 360
#     4  11  24  41  59  87 124 161 205 248 307 362
#
# _framework density 19.651025000000001
#
# number of rings (size 3 to 8) (size 9 to 14) (size 15 to 20)
#    1.000    1.000    0.000    2.500    0.000   11.333 
#    3.000    3.333    0.000    0.000    0.000    0.000 
#    0.000    0.000    0.000    0.000    0.000    0.000 
#
# Total GULP energy -133785.921102 kJ/mol
# GULP energy per Si atom -5574.413379 kJ/mol
# Density = 1.960630 g / cm^3
# Si number density = 19.651025 Si / 1000 Ang^3
#
#
#
# Elastic Constant Matrix: (Units=GPa)
#
#
# Indices 1 2 3 4 5 6 
#
# 1 99.7690 17.5972 50.3512 0.0000 0.0000 0.0000
# 2 17.5972 21.9110 14.7156 0.0000 0.0000 0.0000
# 3 50.3512 14.7156 86.8728 0.0000 0.0000 0.0000
# 4 0.0000 0.0000 0.0000 24.8519 0.0000 0.0000
# 5 0.0000 0.0000 0.0000 0.0000 -9.9589 0.0000
# 6 0.0000 0.0000 0.0000 0.0000 0.0000 -3.0493
#
#
#
# Elastic Compliance Matrix: (Units=1/GPa)
#
#
# Indices 1 2 3 4 5 6 
#
# 1 0.015071 -0.007038 -0.007543 0.000000 0.000000 0.000000
# 2 -0.007038 0.054785 -0.005201 0.000000 0.000000 0.000000
# 3 -0.007543 -0.005201 0.016764 0.000000 0.000000 0.000000
# 4 0.000000 0.000000 0.000000 0.040238 0.000000 0.000000
# 5 0.000000 0.000000 0.000000 0.000000 -0.100412 0.000000
# 6 0.000000 0.000000 0.000000 0.000000 0.000000 -0.327944
#
#
# Mechanical properties :
#
#
# Convention : Reuss Voigt Hill
#
# Bulk Modulus (GPa) = 21.25132 41.54231 31.39682
# Shear Modulus (GPa) = -20.30471 10.76132 -4.77169
#
# Velocity S-wave (km/s) = -3.21793 2.34267 -1.55996
# Velocity P-wave (km/s) = 1.72306 5.33886 3.57313
#
# Compressibility (1/GPa) = 0.04705589
#
# Stress axis : x y z
#
# Youngs Moduli (GPa) = 66.35082 18.25330 59.65151
#
# Poissons Ratio (x) = 0.12847 0.44996
# Poissons Ratio (y) = 0.46699 0.31023
# Poissons Ratio (z) = 0.50049 0.09493
#
# Static dielectric constant tensor:
#      x y z
#    x 1.718500 0.000000 0.000000 
#    y 0.000000 1.698870 0.000000 
#    z 0.000000 0.000000 1.686040 
# 
# From -- ./inp_files/33657.got.cif
#   From: 2010.05.17/outbox.cif.g08.bks.cpg/sg24_17_cif.got.tgz:33657.got - 2010.06.04 00:33:39.
