data_PCOD9335047
_publ_section_title
;
Structure prediction by ZEFSAII (Michael W. Deem and Ramdas Pophale) SiO2 
 PCOD9335047
Probable space group: I 21 21 21
;
_chemical_formula_sum "Si O2"
_cell_formula_units_Z 40
_cell_length_a 9.431743
_cell_length_b 15.171651
_cell_length_c 14.373865
_cell_angle_alpha 90.000000
_cell_angle_beta 90.000000
_cell_angle_gamma 90.000000
_cell_volume 2056.829838
_symmetry_space_group_name_H-M "I 21 21 21"
_symmetry_group_IT_number 24
_symmetry_cell_setting 'orthorhombic'
loop_
_space_group_symop_operation_xyz
x,y,z
-x,1/2-y,z
x,-y,1/2-z
1/2-x,y,-z
1/2+x,1/2+y,1/2+z
1/2-x,-y,1/2+z
1/2+x,1/2-y,-z
-x,1/2+y,1/2-z
loop_
_atom_site_type_symbol
_atom_site_label
_atom_site_fract_x
_atom_site_fract_y
_atom_site_fract_z
Si Si1 0.012267 0.850753 0.398873
Si Si2 0.039615 0.847526 0.176332
Si Si3 0.177629 0.489414 0.409759
Si Si4 0.905614 0.000000 0.750000
Si Si5 0.750000 0.456397 0.000000
Si Si6 0.826112 0.564961 0.827807
O O1 0.009212 0.852114 0.286783
O O2 0.154513 0.894558 0.436511
O O3 0.000000 0.750000 0.429813
O O4 0.892527 0.917143 0.434405
O O5 0.207700 0.861249 0.160879
O O6 0.000000 0.750000 0.142770
O O7 0.944553 0.924563 0.130082
O O8 0.250000 0.448302 0.500000
O O9 0.300178 0.510659 0.335564
O O10 0.018399 0.076270 0.718299
O O11 0.662054 0.516501 0.072711
O O12 0.757127 0.500000 0.750000
#
# Coordination Sequence:
#
# PCOD9335047 Si02
#       6
#     8   8   8   4   4   8
#     4  11  23  39  67  96 131 169 214 273 333 394
#     4  11  22  44  69  90 132 180 219 263 326 390
#     4  12  23  43  66  97 129 175 218 269 327 391
#     4  10  22  38  64  92 128 162 216 266 326 378
#     4  12  20  40  66  94 124 172 220 264 320 390
#     4  10  21  40  63  94 123 171 215 258 325 377
#
# _framework density 19.447403999999999
#
# number of rings (size 3 to 8) (size 9 to 14) (size 15 to 20)
#    0.600    0.400    6.000    1.200    1.400    0.000 
#    1.800    1.000    4.400    0.000    0.000    0.000 
#    0.000    0.000    0.000    0.000    0.000    0.000 
#
# Total GULP energy -111424.018865 kJ/mol
# GULP energy per Si atom -5571.200943 kJ/mol
# Density = 1.940314 g / cm^3
# Si number density = 19.447404 Si / 1000 Ang^3
#
#
#
# Elastic Constant Matrix: (Units=GPa)
#
#
# Indices 1 2 3 4 5 6 
#
# 1 106.6442 31.0148 3.3116 0.0000 0.0000 0.0000
# 2 31.0148 85.4469 2.6090 0.0000 0.0000 0.0000
# 3 3.3116 2.6090 74.0145 0.0000 0.0000 0.0000
# 4 0.0000 0.0000 0.0000 9.6931 0.0000 0.0000
# 5 0.0000 0.0000 0.0000 0.0000 32.2406 0.0000
# 6 0.0000 0.0000 0.0000 0.0000 0.0000 5.9128
#
#
#
# Elastic Compliance Matrix: (Units=1/GPa)
#
#
# Indices 1 2 3 4 5 6 
#
# 1 0.010492 -0.003798 -0.000336 0.000000 0.000000 0.000000
# 2 -0.003798 0.013091 -0.000292 0.000000 0.000000 0.000000
# 3 -0.000336 -0.000292 0.013536 0.000000 0.000000 0.000000
# 4 0.000000 0.000000 0.000000 0.103166 0.000000 0.000000
# 5 0.000000 0.000000 0.000000 0.000000 0.031017 0.000000
# 6 0.000000 0.000000 0.000000 0.000000 0.000000 0.169125
#
#
# Mechanical properties :
#
#
# Convention : Reuss Voigt Hill
#
# Bulk Modulus (GPa) = 35.37500 37.77517 36.57508
# Shear Modulus (GPa) = 13.93924 24.84732 19.39328
#
# Velocity S-wave (km/s) = 2.68015 3.57833 3.16130
# Velocity P-wave (km/s) = 5.27325 6.04475 5.67213
#
# Compressibility (1/GPa) = 0.02826855
#
# Stress axis : x y z
#
# Youngs Moduli (GPa) = 95.31109 76.39038 73.87623
#
# Poissons Ratio (x) = 0.29013 0.02479
# Poissons Ratio (y) = 0.36200 0.02154
# Poissons Ratio (z) = 0.03198 0.02227
#
# Static dielectric constant tensor:
#      x y z
#    x 1.713270 0.000000 0.000000 
#    y 0.000000 1.701200 0.000000 
#    z 0.000000 0.000000 1.696150 
# 
# From -- ./inp_files/24556.got.cif
#   From: 2010.05.17/outbox.cif.g08.bks.cpg/sg24_13_cif.got.tgz:24556.got - 2010.06.04 00:33:39.
