data_PCOD9335529
_publ_section_title
;
Structure prediction by ZEFSAII (Michael W. Deem and Ramdas Pophale) SiO2 
 PCOD9335529
Probable space group: I 21 21 21
;
_chemical_formula_sum "Si O2"
_cell_formula_units_Z 40
_cell_length_a 5.468439
_cell_length_b 17.610673
_cell_length_c 16.997274
_cell_angle_alpha 90.000000
_cell_angle_beta 90.000000
_cell_angle_gamma 90.000000
_cell_volume 1636.886626
_symmetry_space_group_name_H-M "I 21 21 21"
_symmetry_group_IT_number 24
_symmetry_cell_setting 'orthorhombic'
loop_
_space_group_symop_operation_xyz
x,y,z
-x,1/2-y,z
x,-y,1/2-z
1/2-x,y,-z
1/2+x,1/2+y,1/2+z
1/2-x,-y,1/2+z
1/2+x,1/2-y,-z
-x,1/2+y,1/2-z
loop_
_atom_site_type_symbol
_atom_site_label
_atom_site_fract_x
_atom_site_fract_y
_atom_site_fract_z
Si Si1 0.426274 0.472800 0.072207
Si Si2 0.183544 0.180433 0.329507
Si Si3 0.660555 0.933663 0.792587
Si Si4 0.007583 0.141236 0.538691
Si Si5 0.525817 0.339190 0.179075
O O1 0.328988 0.513171 0.152972
O O2 0.532118 0.550502 0.036952
O O3 0.557337 0.397935 0.106935
O O4 0.250000 0.446907 0.000000
O O5 0.442006 0.172552 0.373678
O O6 0.246360 0.165170 0.238647
O O7 0.000000 0.250000 0.339956
O O8 0.014099 0.109840 0.352472
O O9 0.802843 0.875507 0.733458
O O10 0.506787 0.000000 0.750000
O O11 0.250000 0.175334 0.500000
O O12 0.750000 0.160765 0.500000
O O13 0.500000 0.250000 0.156197
#
# Coordination Sequence:
#
# PCOD9335529 Si02
#       5
#     8   8   8   8   8
#     4  10  22  45  72 103 143 199 257 324 386 467
#     4  12  24  41  70 107 150 199 256 322 397 476
#     4  10  22  40  70 100 142 193 256 322 380 461
#     4  11  25  46  72 107 150 200 258 317 386 471
#     4  11  23  43  68 104 147 194 259 316 392 467
#
# _framework density 24.436633
#
# number of rings (size 3 to 8) (size 9 to 14) (size 15 to 20)
#    0.000    1.200    4.000    2.400    2.800    0.000 
#    0.000    6.000    0.000    0.000    0.000    0.000 
#    0.000    0.000    0.000    0.000    0.000    0.000 
#
# Total GULP energy -111338.819368 kJ/mol
# GULP energy per Si atom -5566.940968 kJ/mol
# Density = 2.438101 g / cm^3
# Si number density = 24.436633 Si / 1000 Ang^3
#
#
#
# Elastic Constant Matrix: (Units=GPa)
#
#
# Indices 1 2 3 4 5 6 
#
# 1 119.9912 65.0572 35.6640 0.0000 0.0000 0.0000
# 2 65.0572 204.9036 63.4509 0.0000 0.0000 0.0000
# 3 35.6640 63.4509 79.3172 0.0000 0.0000 0.0000
# 4 0.0000 0.0000 0.0000 21.2643 0.0000 0.0000
# 5 0.0000 0.0000 0.0000 0.0000 39.1431 0.0000
# 6 0.0000 0.0000 0.0000 0.0000 0.0000 32.8599
#
#
#
# Elastic Compliance Matrix: (Units=1/GPa)
#
#
# Indices 1 2 3 4 5 6 
#
# 1 0.010493 -0.002487 -0.002729 0.000000 0.000000 0.000000
# 2 -0.002487 0.007077 -0.004543 0.000000 0.000000 0.000000
# 3 -0.002729 -0.004543 0.017469 0.000000 0.000000 0.000000
# 4 0.000000 0.000000 0.000000 0.047027 0.000000 0.000000
# 5 0.000000 0.000000 0.000000 0.000000 0.025547 0.000000
# 6 0.000000 0.000000 0.000000 0.000000 0.000000 0.030432
#
#
# Mechanical properties :
#
#
# Convention : Reuss Voigt Hill
#
# Bulk Modulus (GPa) = 64.42612 81.39514 72.91063
# Shear Modulus (GPa) = 30.72452 34.65612 32.69032
#
# Velocity S-wave (km/s) = 3.54971 3.76999 3.66151
# Velocity P-wave (km/s) = 6.57437 7.23404 6.91208
#
# Compressibility (1/GPa) = 0.01552165
#
# Stress axis : x y z
#
# Youngs Moduli (GPa) = 95.29955 141.31038 57.24457
#
# Poissons Ratio (x) = 0.35137 0.15622
# Poissons Ratio (y) = 0.23697 0.26006
# Poissons Ratio (z) = 0.26007 0.64197
#
# Static dielectric constant tensor:
#      x y z
#    x 2.057650 0.000000 0.000000 
#    y 0.000000 1.969390 0.000000 
#    z 0.000000 0.000000 2.281880 
# 
# From -- ./inp_files/28605.got.cif
#   From: 2010.05.17/outbox.cif.g08.bks.cpg/sg24_15_cif.got.tgz:28605.got - 2010.06.04 00:33:39.
