data_PCOD9335655
_publ_section_title
;
Structure prediction by ZEFSAII (Michael W. Deem and Ramdas Pophale) SiO2 
 PCOD9335655
Probable space group: I 21 21 21
;
_chemical_formula_sum "Si O2"
_cell_formula_units_Z 44
_cell_length_a 13.470727
_cell_length_b 11.916951
_cell_length_c 13.192452
_cell_angle_alpha 90.000000
_cell_angle_beta 90.000000
_cell_angle_gamma 90.000000
_cell_volume 2117.784235
_symmetry_space_group_name_H-M "I 21 21 21"
_symmetry_group_IT_number 24
_symmetry_cell_setting 'orthorhombic'
loop_
_space_group_symop_operation_xyz
x,y,z
-x,1/2-y,z
x,-y,1/2-z
1/2-x,y,-z
1/2+x,1/2+y,1/2+z
1/2-x,-y,1/2+z
1/2+x,1/2-y,-z
-x,1/2+y,1/2-z
loop_
_atom_site_type_symbol
_atom_site_label
_atom_site_fract_x
_atom_site_fract_y
_atom_site_fract_z
Si Si1 0.235807 0.116547 0.380785
Si Si2 0.785299 0.202986 0.785617
Si Si3 0.588110 0.538130 0.431216
Si Si4 0.750000 0.318619 0.000000
Si Si5 0.000000 0.250000 0.812760
Si Si6 0.641227 0.000000 0.750000
Si Si7 0.989914 0.614034 0.092011
O O1 0.250000 0.150735 0.500000
O O2 0.248075 0.214474 0.300957
O O3 0.120478 0.087161 0.366889
O O4 0.325131 0.026135 0.368232
O O5 0.902402 0.200704 0.759684
O O6 0.716628 0.094864 0.787560
O O7 0.773361 0.251351 0.898972
O O8 0.654428 0.602775 0.515648
O O9 0.534978 0.639340 0.374125
O O10 0.514852 0.448399 0.482502
O O11 0.571751 0.943278 0.836138
O O12 0.000000 0.750000 0.085220
#
# Coordination Sequence:
#
# PCOD9335655 Si02
#       7
#     8   8   8   4   4   4   8
#     4  10  22  48  71 100 140 190 243 284 349 438
#     4  11  26  48  65 107 143 187 238 293 361 423
#     4  10  22  45  71 107 133 191 241 289 351 424
#     4  10  22  42  72  96 140 180 228 300 336 422
#     4  10  26  46  72 102 138 190 242 286 366 424
#     4  12  28  40  68 110 148 180 236 318 358 420
#     4  11  23  43  67 109 138 190 233 287 375 420
#
# _framework density 20.776430999999999
#
# number of rings (size 3 to 8) (size 9 to 14) (size 15 to 20)
#    0.000    1.455    4.545    0.000    7.636    4.364 
#   14.727    0.000    0.000    0.000    0.000    0.000 
#    0.000    0.000    0.000    0.000    0.000    0.000 
#
# Total GULP energy -122529.987568 kJ/mol
# GULP energy per Si atom -5569.544889 kJ/mol
# Density = 2.072914 g / cm^3
# Si number density = 20.776431 Si / 1000 Ang^3
#
#
#
# Elastic Constant Matrix: (Units=GPa)
#
#
# Indices 1 2 3 4 5 6 
#
# 1 128.0760 68.2112 36.8504 0.0000 0.0000 0.0000
# 2 68.2112 166.0877 51.7121 0.0000 0.0000 0.0000
# 3 36.8504 51.7121 73.7303 0.0000 0.0000 0.0000
# 4 0.0000 0.0000 0.0000 26.3846 0.0000 0.0000
# 5 0.0000 0.0000 0.0000 0.0000 -10.5780 0.0000
# 6 0.0000 0.0000 0.0000 0.0000 0.0000 74.3205
#
#
#
# Elastic Compliance Matrix: (Units=1/GPa)
#
#
# Indices 1 2 3 4 5 6 
#
# 1 0.010435 -0.003405 -0.002827 0.000000 0.000000 0.000000
# 2 -0.003405 0.008814 -0.004480 0.000000 0.000000 0.000000
# 3 -0.002827 -0.004480 0.018118 0.000000 0.000000 0.000000
# 4 0.000000 0.000000 0.000000 0.037901 0.000000 0.000000
# 5 0.000000 0.000000 0.000000 0.000000 -0.094536 0.000000
# 6 0.000000 0.000000 0.000000 0.000000 0.000000 0.013455
#
#
# Mechanical properties :
#
#
# Convention : Reuss Voigt Hill
#
# Bulk Modulus (GPa) = 62.72554 75.71569 69.22061
# Shear Modulus (GPa) = 238.93523 32.10013 135.51768
#
# Velocity S-wave (km/s) = 10.73558 3.93495 8.08506
# Velocity P-wave (km/s) = 13.56195 7.56090 10.97938
#
# Compressibility (1/GPa) = 0.01594247
#
# Stress axis : x y z
#
# Youngs Moduli (GPa) = 95.83250 113.45098 55.19358
#
# Poissons Ratio (x) = 0.38634 0.15603
# Poissons Ratio (y) = 0.32634 0.24727
# Poissons Ratio (z) = 0.27091 0.50827
#
# Static dielectric constant tensor:
#      x y z
#    x 1.832560 0.000000 0.000000 
#    y 0.000000 1.840380 0.000000 
#    z 0.000000 0.000000 1.760050 
# 
# From -- ./inp_files/26417.got.cif
#   From: 2010.05.17/outbox.cif.g08.bks.cpg/sg24_14_cif.got.tgz:26417.got - 2010.06.04 00:33:39.
