data_PCOD9335857
_publ_section_title
;
Structure prediction by ZEFSAII (Michael W. Deem and Ramdas Pophale) SiO2 
 PCOD9335857
Probable space group: I 21 21 21
;
_chemical_formula_sum "Si O2"
_cell_formula_units_Z 28
_cell_length_a 15.924240
_cell_length_b 9.662415
_cell_length_c 9.060783
_cell_angle_alpha 90.000000
_cell_angle_beta 90.000000
_cell_angle_gamma 90.000000
_cell_volume 1394.152013
_symmetry_space_group_name_H-M "I 21 21 21"
_symmetry_group_IT_number 24
_symmetry_cell_setting 'orthorhombic'
loop_
_space_group_symop_operation_xyz
x,y,z
-x,1/2-y,z
x,-y,1/2-z
1/2-x,y,-z
1/2+x,1/2+y,1/2+z
1/2-x,-y,1/2+z
1/2+x,1/2-y,-z
-x,1/2+y,1/2-z
loop_
_atom_site_type_symbol
_atom_site_label
_atom_site_fract_x
_atom_site_fract_y
_atom_site_fract_z
Si Si1 0.319950 0.000000 0.750000
Si Si2 0.407414 0.257973 0.852696
Si Si3 0.247536 0.280442 0.334599
Si Si4 0.075787 0.349741 0.812506
O O1 0.375086 0.902330 0.641710
O O2 0.265452 0.886057 0.834043
O O3 0.500000 0.250000 0.783182
O O4 0.335298 0.328278 0.754148
O O5 0.416072 0.330800 0.010581
O O6 0.250000 0.335308 0.500000
O O7 0.333406 0.312398 0.252709
O O8 0.055198 0.500000 0.750000
O O9 0.000000 0.250000 0.765491
#
# Coordination Sequence:
#
# PCOD9335857 Si02
#       4
#     4   8   8   8
#     4   8  22  38  70  96 130 182 224 286 350 398
#     4   9  21  42  67  98 135 180 226 286 346 414
#     4  10  23  39  65 101 133 181 227 284 349 415
#     4  11  26  45  67 100 136 189 232 295 348 415
#
# _framework density 20.083893
#
# number of rings (size 3 to 8) (size 9 to 14) (size 15 to 20)
#    1.714    0.571    0.000    0.857    6.000    5.714 
#   12.857    0.000    0.000    0.000    0.000    0.000 
#    0.000    0.000    0.000    0.000    0.000    0.000 
#
# Total GULP energy -77943.914919 kJ/mol
# GULP energy per Si atom -5567.422494 kJ/mol
# Density = 2.003818 g / cm^3
# Si number density = 20.083893 Si / 1000 Ang^3
#
#
#
# Elastic Constant Matrix: (Units=GPa)
#
#
# Indices 1 2 3 4 5 6 
#
# 1 192.7218 40.1953 63.2913 0.0000 0.0000 0.0000
# 2 40.1953 119.6008 33.9892 0.0000 0.0000 0.0000
# 3 63.2913 33.9892 98.4206 0.0000 0.0000 0.0000
# 4 0.0000 0.0000 0.0000 25.4354 0.0000 0.0000
# 5 0.0000 0.0000 0.0000 0.0000 66.8956 0.0000
# 6 0.0000 0.0000 0.0000 0.0000 0.0000 -10.0102
#
#
#
# Elastic Compliance Matrix: (Units=1/GPa)
#
#
# Indices 1 2 3 4 5 6 
#
# 1 0.006716 -0.001142 -0.003924 0.000000 0.000000 0.000000
# 2 -0.001142 0.009465 -0.002535 0.000000 0.000000 0.000000
# 3 -0.003924 -0.002535 0.013559 0.000000 0.000000 0.000000
# 4 0.000000 0.000000 0.000000 0.039315 0.000000 0.000000
# 5 0.000000 0.000000 0.000000 0.000000 0.014949 0.000000
# 6 0.000000 0.000000 0.000000 0.000000 0.000000 -0.099898
#
#
# Mechanical properties :
#
#
# Convention : Reuss Voigt Hill
#
# Bulk Modulus (GPa) = 68.78065 76.18831 72.48448
# Shear Modulus (GPa) = 1203.69506 34.68198 619.18852
#
# Velocity S-wave (km/s) = 24.50785 4.16005 17.57755
# Velocity P-wave (km/s) = 28.89926 7.81614 21.16907
#
# Compressibility (1/GPa) = 0.01453897
#
# Stress axis : x y z
#
# Youngs Moduli (GPa) = 148.90339 105.65068 73.74934
#
# Poissons Ratio (x) = 0.12063 0.28942
# Poissons Ratio (y) = 0.17001 0.18692
# Poissons Ratio (z) = 0.58436 0.26778
#
# Static dielectric constant tensor:
#      x y z
#    x 1.724420 0.000000 0.000000 
#    y 0.000000 1.740300 0.000000 
#    z 0.000000 0.000000 1.726550 
# 
# From -- ./inp_files/13655.got.cif
#   From: 2010.05.17/outbox.cif.g08.bks.cpg/sg24_7_cif.got.tgz:13655.got - 2010.06.04 00:33:39.
