data_PCOD9335988
_publ_section_title
;
Structure prediction by ZEFSAII (Michael W. Deem and Ramdas Pophale) SiO2 
 PCOD9335988
Probable space group: I 21 21 21
;
_chemical_formula_sum "Si O2"
_cell_formula_units_Z 32
_cell_length_a 5.394708
_cell_length_b 12.775526
_cell_length_c 19.637380
_cell_angle_alpha 90.000000
_cell_angle_beta 90.000000
_cell_angle_gamma 90.000000
_cell_volume 1353.412792
_symmetry_space_group_name_H-M "I 21 21 21"
_symmetry_group_IT_number 24
_symmetry_cell_setting 'orthorhombic'
loop_
_space_group_symop_operation_xyz
x,y,z
-x,1/2-y,z
x,-y,1/2-z
1/2-x,y,-z
1/2+x,1/2+y,1/2+z
1/2-x,-y,1/2+z
1/2+x,1/2-y,-z
-x,1/2+y,1/2-z
loop_
_atom_site_type_symbol
_atom_site_label
_atom_site_fract_x
_atom_site_fract_y
_atom_site_fract_z
Si Si1 0.750000 0.058458 0.000000
Si Si2 0.497026 0.137574 0.361310
Si Si3 0.996701 0.632843 0.052654
Si Si4 0.651535 0.000000 0.250000
Si Si5 0.251141 0.320104 0.854676
O O1 0.771615 0.124267 0.930002
O O2 0.528781 0.973965 0.989272
O O3 0.500000 0.250000 0.326503
O O4 0.762621 0.129637 0.398564
O O5 0.480074 0.049860 0.306410
O O6 0.256877 0.131608 0.407330
O O7 0.000000 0.750000 0.019510
O O8 0.782733 0.092839 0.206136
O O9 0.500000 0.250000 0.855620
O O10 0.000000 0.250000 0.845214
#
# Coordination Sequence:
#
# PCOD9335988 Si02
#       5
#     4   8   8   4   8
#     4  12  26  54  80 116 166 216 262 336 416 474
#     4  10  23  44  70 109 152 198 253 328 388 466
#     4  10  24  44  73 112 154 197 261 318 393 467
#     4  12  26  52  80 112 156 210 266 330 404 472
#     4  12  31  53  80 119 159 213 272 329 406 497
#
# _framework density 23.643930000000001
#
# number of rings (size 3 to 8) (size 9 to 14) (size 15 to 20)
#    0.000    1.000    2.500    1.500    3.500   13.000 
#    0.000    0.000    0.000    0.000    0.000    0.000 
#    0.000    0.000    0.000    0.000    0.000    0.000 
#
# Total GULP energy -89322.620971 kJ/mol
# GULP energy per Si atom -5582.663811 kJ/mol
# Density = 2.359012 g / cm^3
# Si number density = 23.643930 Si / 1000 Ang^3
#
#
#
# Elastic Constant Matrix: (Units=GPa)
#
#
# Indices 1 2 3 4 5 6 
#
# 1 189.1285 79.6117 70.7082 0.0000 0.0000 0.0000
# 2 79.6117 168.1519 81.5735 0.0000 0.0000 0.0000
# 3 70.7082 81.5735 132.1236 0.0000 0.0000 0.0000
# 4 0.0000 0.0000 0.0000 50.5861 0.0000 0.0000
# 5 0.0000 0.0000 0.0000 0.0000 -2.3036 0.0000
# 6 0.0000 0.0000 0.0000 0.0000 0.0000 36.2900
#
#
#
# Elastic Compliance Matrix: (Units=1/GPa)
#
#
# Indices 1 2 3 4 5 6 
#
# 1 0.007127 -0.002176 -0.002471 0.000000 0.000000 0.000000
# 2 -0.002176 0.009154 -0.004487 0.000000 0.000000 0.000000
# 3 -0.002471 -0.004487 0.011662 0.000000 0.000000 0.000000
# 4 0.000000 0.000000 0.000000 0.019768 0.000000 0.000000
# 5 0.000000 0.000000 0.000000 0.000000 -0.434103 0.000000
# 6 0.000000 0.000000 0.000000 0.000000 0.000000 0.027556
#
#
# Mechanical properties :
#
#
# Convention : Reuss Voigt Hill
#
# Bulk Modulus (GPa) = 103.36215 105.91009 104.63612
# Shear Modulus (GPa) = -14.82166 34.08186 9.63010
#
# Velocity S-wave (km/s) = -2.50645 3.80078 2.02035
# Velocity P-wave (km/s) = 5.95270 8.00951 7.05645
#
# Compressibility (1/GPa) = 0.00967472
#
# Stress axis : x y z
#
# Youngs Moduli (GPa) = 140.31173 109.24255 85.75204
#
# Poissons Ratio (x) = 0.23767 0.21189
# Poissons Ratio (y) = 0.30526 0.38480
# Poissons Ratio (z) = 0.34670 0.49021
#
# Static dielectric constant tensor:
#      x y z
#    x 1.863970 0.000000 0.000000 
#    y 0.000000 1.919700 0.000000 
#    z 0.000000 0.000000 1.956510 
# 
# From -- ./inp_files/31899.got.cif
#   From: 2010.05.17/outbox.cif.g08.bks.cpg/sg24_16_cif.got.tgz:31899.got - 2010.06.04 00:33:39.
