data_PCOD9335608
_publ_section_title
;
Structure prediction by ZEFSAII (Michael W. Deem and Ramdas Pophale) SiO2 
 PCOD9335608
Probable space group: I 21 21 21
;
_chemical_formula_sum "Si O2"
_cell_formula_units_Z 36
_cell_length_a 20.854020
_cell_length_b 5.304294
_cell_length_c 12.810284
_cell_angle_alpha 90.000000
_cell_angle_beta 90.000000
_cell_angle_gamma 90.000000
_cell_volume 1417.020494
_symmetry_space_group_name_H-M "I 21 21 21"
_symmetry_group_IT_number 24
_symmetry_cell_setting 'orthorhombic'
loop_
_space_group_symop_operation_xyz
x,y,z
-x,1/2-y,z
x,-y,1/2-z
1/2-x,y,-z
1/2+x,1/2+y,1/2+z
1/2-x,-y,1/2+z
1/2+x,1/2-y,-z
-x,1/2+y,1/2-z
loop_
_atom_site_type_symbol
_atom_site_label
_atom_site_fract_x
_atom_site_fract_y
_atom_site_fract_z
Si Si1 0.674496 0.960551 0.597308
Si Si2 0.000000 0.250000 0.820374
Si Si3 0.354858 0.338621 0.141643
Si Si4 0.754514 0.456504 0.377936
Si Si5 0.526602 0.997157 0.870298
O O1 0.672211 0.955399 0.468613
O O2 0.694860 0.684111 0.637330
O O3 0.718530 0.180010 0.647168
O O4 0.602262 0.012861 0.629508
O O5 0.991565 0.500000 0.750000
O O6 0.930503 0.212416 0.874421
O O7 0.349180 0.500000 0.250000
O O8 0.312850 0.084183 0.153099
O O9 0.750000 0.437432 0.500000
O O10 0.500000 0.750000 0.925065
O O11 0.500000 0.250000 0.919232
O O12 0.502188 0.000000 0.750000
#
# Coordination Sequence:
#
# PCOD9335608 Si02
#       5
#     8   4   8   8   8
#     4  11  23  42  69  99 134 180 236 288 355 430
#     4  10  24  44  66 102 146 194 248 292 352 446
#     4  10  24  46  71 104 151 192 242 298 368 438
#     4  10  22  42  65  93 135 178 227 292 343 414
#     4  10  22  42  65  93 131 173 227 292 353 413
#
# _framework density 25.405422000000002
#
# number of rings (size 3 to 8) (size 9 to 14) (size 15 to 20)
#    0.000    1.778    0.000    3.333    1.556   11.556 
#    8.000    6.667    0.000    0.000    0.000    0.000 
#    0.000    0.000    0.000    0.000    0.000    0.000 
#
# Total GULP energy -100563.586309 kJ/mol
# GULP energy per Si atom -5586.865906 kJ/mol
# Density = 2.534760 g / cm^3
# Si number density = 25.405422 Si / 1000 Ang^3
#
#
#
# Elastic Constant Matrix: (Units=GPa)
#
#
# Indices 1 2 3 4 5 6 
#
# 1 179.5603 68.8387 1.5245 0.0000 0.0000 0.0000
# 2 68.8387 210.1512 21.7527 0.0000 0.0000 0.0000
# 3 1.5245 21.7527 147.7799 0.0000 0.0000 0.0000
# 4 0.0000 0.0000 0.0000 2.0418 0.0000 0.0000
# 5 0.0000 0.0000 0.0000 0.0000 62.9756 0.0000
# 6 0.0000 0.0000 0.0000 0.0000 0.0000 31.1055
#
#
#
# Elastic Compliance Matrix: (Units=1/GPa)
#
#
# Indices 1 2 3 4 5 6 
#
# 1 0.006378 -0.002115 0.000245 0.000000 0.000000 0.000000
# 2 -0.002115 0.005533 -0.000793 0.000000 0.000000 0.000000
# 3 0.000245 -0.000793 0.006881 0.000000 0.000000 0.000000
# 4 0.000000 0.000000 0.000000 0.489766 0.000000 0.000000
# 5 0.000000 0.000000 0.000000 0.000000 0.015879 0.000000
# 6 0.000000 0.000000 0.000000 0.000000 0.000000 0.032149
#
#
# Mechanical properties :
#
#
# Convention : Reuss Voigt Hill
#
# Bulk Modulus (GPa) = 74.24782 80.19146 77.21964
# Shear Modulus (GPa) = 8.82770 48.91627 28.87199
#
# Velocity S-wave (km/s) = 1.86608 4.39273 3.37478
# Velocity P-wave (km/s) = 5.82509 7.57373 6.75622
#
# Compressibility (1/GPa) = 0.01346841
#
# Stress axis : x y z
#
# Youngs Moduli (GPa) = 156.79543 180.72776 145.32848
#
# Poissons Ratio (x) = 0.38216 -0.03567
# Poissons Ratio (y) = 0.33155 0.11519
# Poissons Ratio (z) = -0.03849 0.14325
#
# Static dielectric constant tensor:
#      x y z
#    x 1.928780 0.000000 0.000000 
#    y 0.000000 2.025650 0.000000 
#    z 0.000000 0.000000 2.100630 
# 
# From -- ./inp_files/27693.got.cif
#   From: 2010.05.17/outbox.cif.g08.bks.cpg/sg24_14_cif.got.tgz:27693.got - 2010.06.04 00:33:39.
