data_PCOD9335709
_publ_section_title
;
Structure prediction by ZEFSAII (Michael W. Deem and Ramdas Pophale) SiO2 
 PCOD9335709
Probable space group: I 21 21 21
;
_chemical_formula_sum "Si O2"
_cell_formula_units_Z 48
_cell_length_a 19.133600
_cell_length_b 5.483855
_cell_length_c 20.363732
_cell_angle_alpha 90.000000
_cell_angle_beta 90.000000
_cell_angle_gamma 90.000000
_cell_volume 2136.682664
_symmetry_space_group_name_H-M "I 21 21 21"
_symmetry_group_IT_number 24
_symmetry_cell_setting 'orthorhombic'
loop_
_space_group_symop_operation_xyz
x,y,z
-x,1/2-y,z
x,-y,1/2-z
1/2-x,y,-z
1/2+x,1/2+y,1/2+z
1/2-x,-y,1/2+z
1/2+x,1/2-y,-z
-x,1/2+y,1/2-z
loop_
_atom_site_type_symbol
_atom_site_label
_atom_site_fract_x
_atom_site_fract_y
_atom_site_fract_z
Si Si1 0.500000 0.250000 0.331065
Si Si2 0.214864 0.212815 0.437083
Si Si3 0.500000 0.250000 0.091109
Si Si4 0.000000 0.250000 0.208770
Si Si5 0.365670 0.416315 0.874668
Si Si6 0.119642 0.000000 0.750000
Si Si7 0.782514 0.672040 0.638924
Si Si8 0.137055 0.780619 0.514891
O O1 0.482021 0.503866 0.368699
O O2 0.567798 0.322880 0.289232
O O3 0.250000 0.351269 0.500000
O O4 0.161742 0.308050 0.380505
O O5 0.275278 0.098017 0.391927
O O6 0.175267 0.000808 0.477307
O O7 0.563568 0.340779 0.046717
O O8 0.984089 0.500000 0.250000
O O9 0.067300 0.330429 0.165213
O O10 0.295426 0.274865 0.851670
O O11 0.377059 0.390685 0.953176
O O12 0.168863 0.846260 0.701400
O O13 0.818184 0.808280 0.577438
#
# Coordination Sequence:
#
# PCOD9335709 Si02
#       8
#     4   8   4   4   8   4   8   8
#     4  12  29  50  66 106 158 207 258 302 368 457
#     4   9  20  41  73 113 149 183 251 320 380 447
#     4  12  26  48  74 108 155 207 246 310 384 446
#     4  12  33  54  76 108 155 198 254 318 380 463
#     4  11  24  46  78 106 147 196 250 315 391 446
#     4  12  26  48  72 102 158 210 256 304 376 444
#     4  10  23  43  71 113 145 196 256 310 372 454
#     4  10  22  43  71 114 150 187 253 312 380 451
#
# _framework density 22.464728999999998
#
# number of rings (size 3 to 8) (size 9 to 14) (size 15 to 20)
#    0.000    1.333    1.667    3.500    8.167    1.333 
#    3.000    0.000    0.000    0.000    0.000    0.000 
#    0.000    0.000    0.000    0.000    0.000    0.000 
#
# Total GULP energy -133640.541657 kJ/mol
# GULP energy per Si atom -5568.355902 kJ/mol
# Density = 2.241360 g / cm^3
# Si number density = 22.464729 Si / 1000 Ang^3
#
#
#
# Elastic Constant Matrix: (Units=GPa)
#
#
# Indices 1 2 3 4 5 6 
#
# 1 123.6721 -1.4590 47.6873 0.0000 0.0000 0.0000
# 2 -1.4590 50.5621 16.6166 0.0000 0.0000 0.0000
# 3 47.6873 16.6166 76.9324 0.0000 0.0000 0.0000
# 4 0.0000 0.0000 0.0000 -236.1720 0.0000 0.0000
# 5 0.0000 0.0000 0.0000 0.0000 52.3913 0.0000
# 6 0.0000 0.0000 0.0000 0.0000 0.0000 -1.7094
#
#
#
# Elastic Compliance Matrix: (Units=1/GPa)
#
#
# Indices 1 2 3 4 5 6 
#
# 1 0.010969 0.002746 -0.007392 0.000000 0.000000 0.000000
# 2 0.002746 0.021976 -0.006449 0.000000 0.000000 0.000000
# 3 -0.007392 -0.006449 0.018973 0.000000 0.000000 0.000000
# 4 0.000000 0.000000 0.000000 -0.004234 0.000000 0.000000
# 5 0.000000 0.000000 0.000000 0.000000 0.019087 0.000000
# 6 0.000000 0.000000 0.000000 0.000000 0.000000 -0.584998
#
#
# Mechanical properties :
#
#
# Convention : Reuss Voigt Hill
#
# Bulk Modulus (GPa) = 33.63796 41.87291 37.75543
# Shear Modulus (GPa) = -10.28537 -24.54323 -17.41430
#
# Velocity S-wave (km/s) = -2.14205 -3.30892 -2.78723
# Velocity P-wave (km/s) = 2.98133 2.02022 2.54653
#
# Compressibility (1/GPa) = 0.02972832
#
# Stress axis : x y z
#
# Youngs Moduli (GPa) = 91.16901 45.50385 52.70557
#
# Poissons Ratio (x) = -0.12495 0.38960
# Poissons Ratio (y) = -0.25033 0.33988
# Poissons Ratio (z) = 0.67393 0.29344
#
# Static dielectric constant tensor:
#      x y z
#    x 1.879230 0.000000 0.000000 
#    y 0.000000 2.254820 0.000000 
#    z 0.000000 0.000000 1.920120 
# 
# From -- ./inp_files/34113.got.cif
#   From: 2010.05.17/outbox.cif.g08.bks.cpg/sg24_18_cif.got.tgz:34113.got - 2010.06.04 00:33:39.
