data_PCOD9335896
_publ_section_title
;
Structure prediction by ZEFSAII (Michael W. Deem and Ramdas Pophale) SiO2 
 PCOD9335896
Probable space group: I 21 21 21
;
_chemical_formula_sum "Si O2"
_cell_formula_units_Z 28
_cell_length_a 7.535726
_cell_length_b 17.541663
_cell_length_c 9.616515
_cell_angle_alpha 90.000000
_cell_angle_beta 90.000000
_cell_angle_gamma 90.000000
_cell_volume 1271.199097
_symmetry_space_group_name_H-M "I 21 21 21"
_symmetry_group_IT_number 24
_symmetry_cell_setting 'orthorhombic'
loop_
_space_group_symop_operation_xyz
x,y,z
-x,1/2-y,z
x,-y,1/2-z
1/2-x,y,-z
1/2+x,1/2+y,1/2+z
1/2-x,-y,1/2+z
1/2+x,1/2-y,-z
-x,1/2+y,1/2-z
loop_
_atom_site_type_symbol
_atom_site_label
_atom_site_fract_x
_atom_site_fract_y
_atom_site_fract_z
Si Si1 0.208499 0.749337 0.847381
Si Si2 0.750000 0.099564 0.500000
Si Si3 0.066298 0.989855 0.414103
Si Si4 0.586977 0.675016 0.595864
O O1 0.330154 0.795040 0.740680
O O2 0.000000 0.750000 0.815858
O O3 0.250000 0.783283 0.000000
O O4 0.250583 0.659551 0.870541
O O5 0.577433 0.047673 0.521839
O O6 0.250000 0.998292 0.500000
O O7 0.983148 0.903909 0.410953
O O8 0.106467 0.000000 0.250000
O O9 0.500000 0.750000 0.533583
O O10 0.750000 0.655945 0.500000
#
# Coordination Sequence:
#
# PCOD9335896 Si02
#       4
#     8   4   8   8
#     4  10  23  41  74  99 133 184 245 298 350 438
#     4  10  26  46  72 108 142 192 240 308 366 440
#     4  11  27  45  73 105 152 190 242 307 378 442
#     4  11  24  43  67  99 138 184 230 297 360 435
#
# _framework density 22.026449
#
# number of rings (size 3 to 8) (size 9 to 14) (size 15 to 20)
#    0.857    0.571    0.000    3.429   10.000    1.143 
#    5.143    0.000    0.000    0.000    0.000    0.000 
#    0.000    0.000    0.000    0.000    0.000    0.000 
#
# Total GULP energy -78009.274838 kJ/mol
# GULP energy per Si atom -5572.091060 kJ/mol
# Density = 2.197632 g / cm^3
# Si number density = 22.026449 Si / 1000 Ang^3
#
#
#
# Elastic Constant Matrix: (Units=GPa)
#
#
# Indices 1 2 3 4 5 6 
#
# 1 98.0461 44.1074 16.9768 0.0000 0.0000 0.0000
# 2 44.1074 168.2597 19.6407 0.0000 0.0000 0.0000
# 3 16.9768 19.6407 91.8328 0.0001 0.0000 0.0000
# 4 0.0000 0.0000 0.0001 47.7624 0.0000 0.0000
# 5 0.0000 0.0000 0.0000 0.0000 16.4986 0.0000
# 6 0.0000 0.0000 0.0000 0.0000 0.0000 19.7491
#
#
#
# Elastic Compliance Matrix: (Units=1/GPa)
#
#
# Indices 1 2 3 4 5 6 
#
# 1 0.011776 -0.002905 -0.001556 0.000000 0.000000 0.000000
# 2 -0.002905 0.006812 -0.000920 0.000000 0.000000 0.000000
# 3 -0.001556 -0.000920 0.011374 0.000000 0.000000 0.000000
# 4 0.000000 0.000000 0.000000 0.020937 0.000000 0.000000
# 5 0.000000 0.000000 0.000000 0.000000 0.060611 0.000000
# 6 0.000000 0.000000 0.000000 0.000000 0.000000 0.050635
#
#
# Mechanical properties :
#
#
# Convention : Reuss Voigt Hill
#
# Bulk Modulus (GPa) = 52.08316 57.73204 54.90760
# Shear Modulus (GPa) = 27.88528 35.29627 31.59078
#
# Velocity S-wave (km/s) = 3.56194 4.00740 3.79122
# Velocity P-wave (km/s) = 6.37288 6.90504 6.64429
#
# Compressibility (1/GPa) = 0.01920006
#
# Stress axis : x y z
#
# Youngs Moduli (GPa) = 84.92137 146.79646 87.92242
#
# Poissons Ratio (x) = 0.42648 0.13677
# Poissons Ratio (y) = 0.24672 0.08088
# Poissons Ratio (z) = 0.13210 0.13503
#
# Static dielectric constant tensor:
#      x y z
#    x 1.768930 0.000000 0.000000 
#    y 0.000000 1.979410 0.000000 
#    z 0.000000 0.000000 1.866760 
# 
# From -- ./inp_files/8748.got.cif
#   From: 2010.05.17/outbox.cif.g08.bks.cpg/sg24_5_cif.got.tgz:8748.got - 2010.06.04 00:33:39.
