data_PCOD9335887
_publ_section_title
;
Structure prediction by ZEFSAII (Michael W. Deem and Ramdas Pophale) SiO2 
 PCOD9335887
Probable space group: I 21 21 21
;
_chemical_formula_sum "Si O2"
_cell_formula_units_Z 60
_cell_length_a 16.673919
_cell_length_b 14.678861
_cell_length_c 10.993733
_cell_angle_alpha 90.000000
_cell_angle_beta 90.000000
_cell_angle_gamma 90.000000
_cell_volume 2690.761658
_symmetry_space_group_name_H-M "I 21 21 21"
_symmetry_group_IT_number 24
_symmetry_cell_setting 'orthorhombic'
loop_
_space_group_symop_operation_xyz
x,y,z
-x,1/2-y,z
x,-y,1/2-z
1/2-x,y,-z
1/2+x,1/2+y,1/2+z
1/2-x,-y,1/2+z
1/2+x,1/2-y,-z
-x,1/2+y,1/2-z
loop_
_atom_site_type_symbol
_atom_site_label
_atom_site_fract_x
_atom_site_fract_y
_atom_site_fract_z
Si Si1 0.445518 0.082890 0.824042
Si Si2 0.338487 0.635793 0.438887
Si Si3 0.655769 0.333288 0.470952
Si Si4 0.331438 0.786991 0.767611
Si Si5 0.565645 0.488950 0.090377
Si Si6 0.378663 0.403173 0.795317
Si Si7 0.082348 0.500000 0.750000
Si Si8 0.149981 0.815362 0.713446
O O1 0.392133 0.172405 0.829645
O O2 0.528728 0.102186 0.754835
O O3 0.403801 0.000000 0.750000
O O4 0.456046 0.048199 0.959097
O O5 0.250000 0.632043 0.500000
O O6 0.385583 0.608260 0.560007
O O7 0.362135 0.569053 0.327252
O O8 0.356064 0.735885 0.385800
O O9 0.750000 0.318920 0.500000
O O10 0.625173 0.309323 0.604469
O O11 0.633734 0.435837 0.434108
O O12 0.625588 0.281588 0.349944
O O13 0.325650 0.678918 0.755429
O O14 0.245234 0.831431 0.738212
O O15 0.484718 0.531201 0.149671
O O16 0.602554 0.404863 0.168739
O O17 0.346998 0.500000 0.750000
#
# Coordination Sequence:
#
# PCOD9335887 Si02
#       8
#     8   8   8   8   8   8   4   8
#     4  11  23  40  69 105 144 189 244 303 371 443
#     4  12  27  49  72 103 137 189 256 309 381 454
#     4  10  23  41  68 106 151 192 238 298 372 453
#     4  11  23  43  69 107 147 196 247 306 374 442
#     4  12  23  45  70 109 151 194 242 302 384 463
#     4  11  25  45  68  99 139 190 248 312 365 440
#     4  12  28  50  76 104 146 194 252 314 384 452
#     4  11  25  42  70 105 148 191 247 303 373 455
#
# _framework density 22.29852
#
# number of rings (size 3 to 8) (size 9 to 14) (size 15 to 20)
#    0.000    0.800    5.333    1.200    2.800    1.600 
#    0.000    1.333    0.000    0.000    0.000    0.000 
#    0.000    0.000    0.000    0.000    0.000    0.000 
#
# Total GULP energy -167140.991181 kJ/mol
# GULP energy per Si atom -5571.366373 kJ/mol
# Density = 2.224777 g / cm^3
# Si number density = 22.298520 Si / 1000 Ang^3
#
#
#
# Elastic Constant Matrix: (Units=GPa)
#
#
# Indices 1 2 3 4 5 6 
#
# 1 37.9323 31.6212 9.7989 0.0000 0.0000 0.0000
# 2 31.6212 100.9298 52.1101 0.0000 0.0000 0.0000
# 3 9.7989 52.1101 157.4269 0.0000 0.0000 0.0000
# 4 0.0000 0.0000 0.0000 39.5163 0.0000 0.0000
# 5 0.0000 0.0000 0.0000 0.0000 29.7802 0.0000
# 6 0.0000 0.0000 0.0000 0.0000 0.0000 60.2423
#
#
#
# Elastic Compliance Matrix: (Units=1/GPa)
#
#
# Indices 1 2 3 4 5 6 
#
# 1 0.036102 -0.012243 0.001805 0.000000 0.000000 0.000000
# 2 -0.012243 0.016102 -0.004568 0.000000 0.000000 0.000000
# 3 0.001805 -0.004568 0.007752 0.000000 0.000000 0.000000
# 4 0.000000 0.000000 0.000000 0.025306 0.000000 0.000000
# 5 0.000000 0.000000 0.000000 0.000000 0.033579 0.000000
# 6 0.000000 0.000000 0.000000 0.000000 0.000000 0.016600
#
#
# Mechanical properties :
#
#
# Convention : Reuss Voigt Hill
#
# Bulk Modulus (GPa) = 33.39425 53.70549 43.54987
# Shear Modulus (GPa) = 28.50075 39.42501 33.96288
#
# Velocity S-wave (km/s) = 3.57899 4.20939 3.90693
# Velocity P-wave (km/s) = 5.66458 6.91103 6.31861
#
# Compressibility (1/GPa) = 0.02994528
#
# Stress axis : x y z
#
# Youngs Moduli (GPa) = 27.69898 62.10410 129.00220
#
# Poissons Ratio (x) = 0.76034 -0.23290
# Poissons Ratio (y) = 0.33912 0.58927
# Poissons Ratio (z) = -0.05001 0.28369
#
# Static dielectric constant tensor:
#      x y z
#    x 1.914150 0.000000 0.000000 
#    y 0.000000 1.883160 0.000000 
#    z 0.000000 0.000000 1.832250 
# 
# From -- ./inp_files/21698.got.cif
#   From: 2010.05.17/outbox.cif.g08.bks.cpg/sg24_11_cif.got.tgz:21698.got - 2010.06.04 00:33:39.
