data_PCOD9335515
_publ_section_title
;
Structure prediction by ZEFSAII (Michael W. Deem and Ramdas Pophale) SiO2 
 PCOD9335515
Probable space group: I 21 21 21
;
_chemical_formula_sum "Si O2"
_cell_formula_units_Z 64
_cell_length_a 5.623178
_cell_length_b 20.139364
_cell_length_c 25.258924
_cell_angle_alpha 90.000000
_cell_angle_beta 90.000000
_cell_angle_gamma 90.000000
_cell_volume 2860.503140
_symmetry_space_group_name_H-M "I 21 21 21"
_symmetry_group_IT_number 24
_symmetry_cell_setting 'orthorhombic'
loop_
_space_group_symop_operation_xyz
x,y,z
-x,1/2-y,z
x,-y,1/2-z
1/2-x,y,-z
1/2+x,1/2+y,1/2+z
1/2-x,-y,1/2+z
1/2+x,1/2-y,-z
-x,1/2+y,1/2-z
loop_
_atom_site_type_symbol
_atom_site_label
_atom_site_fract_x
_atom_site_fract_y
_atom_site_fract_z
Si Si1 0.541755 0.380235 0.801929
Si Si2 0.248798 0.727427 0.559882
Si Si3 0.207188 0.427254 0.714550
Si Si4 0.711782 0.915690 0.592322
Si Si5 0.595871 0.517963 0.347404
Si Si6 0.424052 0.110515 0.632426
Si Si7 0.330812 0.186585 0.279102
Si Si8 0.002123 0.963893 0.031826
O O1 0.425038 0.422623 0.754651
O O2 0.360910 0.381652 0.851283
O O3 0.643761 0.317087 0.769783
O O4 0.755823 0.420745 0.827211
O O5 0.500000 0.750000 0.584810
O O6 0.250000 0.756673 0.500000
O O7 0.247352 0.648259 0.557048
O O8 0.000000 0.750000 0.585742
O O9 0.093407 0.496116 0.696894
O O10 0.322004 0.400313 0.659801
O O11 0.006192 0.375483 0.730895
O O12 0.946797 0.958839 0.602310
O O13 0.529384 0.968650 0.567453
O O14 0.758352 0.453508 0.354694
O O15 0.302092 0.171030 0.664874
O O16 0.466394 0.100549 0.570154
O O17 0.500000 0.250000 0.280485
O O18 0.250000 0.969360 0.000000
O O19 0.750000 0.959047 0.000000
#
# Coordination Sequence:
#
# PCOD9335515 Si02
#       8
#     8   8   8   8   8   8   8   8
#     4  11  24  38  61  97 136 178 229 276 341 424
#     4  10  25  48  69  89 122 181 245 287 333 395
#     4  10  22  41  64  94 135 175 217 284 330 434
#     4  12  25  42  64 100 137 179 224 291 358 411
#     4  11  21  39  62  95 143 172 223 269 357 420
#     4  10  22  40  67 100 135 176 227 283 360 431
#     4  10  24  44  66  94 134 187 237 283 343 421
#     4  12  26  43  71 109 146 175 227 300 375 440
#
# _framework density 22.373687
#
# number of rings (size 3 to 8) (size 9 to 14) (size 15 to 20)
#    0.000    1.250    2.500    1.875    3.500   15.500 
#    4.500    0.000    0.000    0.000    3.250    0.000 
#    0.000    0.000    0.000    0.000    0.000    0.000 
#
# Total GULP energy -178591.907689 kJ/mol
# GULP energy per Si atom -5580.997115 kJ/mol
# Density = 2.232276 g / cm^3
# Si number density = 22.373687 Si / 1000 Ang^3
#
#
#
# Elastic Constant Matrix: (Units=GPa)
#
#
# Indices 1 2 3 4 5 6 
#
# 1 111.3179 9.9658 32.2173 0.0000 0.0000 0.0000
# 2 9.9658 59.6372 13.6534 0.0000 0.0000 0.0000
# 3 32.2173 13.6534 95.8816 0.0000 0.0000 0.0000
# 4 0.0000 0.0000 0.0000 16.6327 0.0000 0.0000
# 5 0.0000 0.0000 0.0000 0.0000 7.3430 0.0000
# 6 0.0000 0.0000 0.0000 0.0000 0.0000 37.0896
#
#
#
# Elastic Compliance Matrix: (Units=1/GPa)
#
#
# Indices 1 2 3 4 5 6 
#
# 1 0.010001 -0.000932 -0.003228 0.000000 0.000000 0.000000
# 2 -0.000932 0.017420 -0.002167 0.000000 0.000000 0.000000
# 3 -0.003228 -0.002167 0.011823 0.000000 0.000000 0.000000
# 4 0.000000 0.000000 0.000000 0.060123 0.000000 0.000000
# 5 0.000000 0.000000 0.000000 0.000000 0.136185 0.000000
# 6 0.000000 0.000000 0.000000 0.000000 0.000000 0.026962
#
#
# Mechanical properties :
#
#
# Convention : Reuss Voigt Hill
#
# Bulk Modulus (GPa) = 37.60942 42.05662 39.83302
# Shear Modulus (GPa) = 17.60376 26.27972 21.94174
#
# Velocity S-wave (km/s) = 2.80805 3.43093 3.13500
# Velocity P-wave (km/s) = 5.23065 5.87650 5.56296
#
# Compressibility (1/GPa) = 0.02658908
#
# Stress axis : x y z
#
# Youngs Moduli (GPa) = 99.99122 57.40515 84.58314
#
# Poissons Ratio (x) = 0.05352 0.27300
# Poissons Ratio (y) = 0.09322 0.18332
# Poissons Ratio (z) = 0.32274 0.12442
#
# Static dielectric constant tensor:
#      x y z
#    x 1.908500 0.000000 0.000000 
#    y 0.000000 1.804830 0.000000 
#    z 0.000000 0.000000 1.927560 
# 
# From -- ./inp_files/36619.got.cif
#   From: 2010.05.17/outbox.cif.g08.bks.cpg/sg24_19_cif.got.tgz:36619.got - 2010.06.04 00:33:39.
