data_PCOD9335586
_publ_section_title
;
Structure prediction by ZEFSAII (Michael W. Deem and Ramdas Pophale) SiO2 
 PCOD9335586
Probable space group: I 21 21 21
;
_chemical_formula_sum "Si O2"
_cell_formula_units_Z 56
_cell_length_a 5.366091
_cell_length_b 29.968823
_cell_length_c 14.179093
_cell_angle_alpha 90.000000
_cell_angle_beta 90.000000
_cell_angle_gamma 90.000000
_cell_volume 2280.216957
_symmetry_space_group_name_H-M "I 21 21 21"
_symmetry_group_IT_number 24
_symmetry_cell_setting 'orthorhombic'
loop_
_space_group_symop_operation_xyz
x,y,z
-x,1/2-y,z
x,-y,1/2-z
1/2-x,y,-z
1/2+x,1/2+y,1/2+z
1/2-x,-y,1/2+z
1/2+x,1/2-y,-z
-x,1/2+y,1/2-z
loop_
_atom_site_type_symbol
_atom_site_label
_atom_site_fract_x
_atom_site_fract_y
_atom_site_fract_z
Si Si1 0.060575 0.300749 0.639196
Si Si2 0.250000 0.778310 0.500000
Si Si3 0.548614 0.126454 0.678554
Si Si4 0.493966 0.090595 0.057976
Si Si5 0.745137 0.499425 0.863183
Si Si6 0.750000 0.361648 0.500000
Si Si7 0.268151 0.467036 0.340164
Si Si8 0.679788 0.662476 0.323207
O O1 0.325646 0.325149 0.658413
O O2 0.000000 0.250000 0.611815
O O3 0.941497 0.331069 0.558227
O O4 0.924999 0.307639 0.739162
O O5 0.500000 0.750000 0.484879
O O6 0.211695 0.807344 0.405847
O O7 0.398097 0.114586 0.583411
O O8 0.719578 0.083379 0.691662
O O9 0.377547 0.131199 0.770121
O O10 0.372923 0.046549 0.104424
O O11 0.530968 0.130451 0.132386
O O12 0.250000 0.106715 0.000000
O O13 0.750000 0.083358 0.000000
O O14 0.711300 0.500000 0.750000
O O15 0.963616 0.533554 0.888982
O O16 0.467308 0.511910 0.896154
O O17 0.295964 0.500000 0.250000
#
# Coordination Sequence:
#
# PCOD9335586 Si02
#       8
#     8   4   8   8   8   4   8   8
#     4  11  27  46  80 110 150 197 261 325 413 492
#     4  12  30  50  74 111 162 202 253 322 392 462
#     4  11  26  47  79 112 153 204 263 325 402 485
#     4  12  27  47  74 112 154 203 267 323 390 468
#     4  10  22  43  70 102 141 197 247 314 379 448
#     4  10  26  48  72 115 146 194 245 336 392 496
#     4  10  22  41  74 105 149 197 250 313 382 453
#     4  11  27  46  77 108 151 203 256 318 388 477
#
# _framework density 24.559065
#
# number of rings (size 3 to 8) (size 9 to 14) (size 15 to 20)
#    0.000    1.143    0.714    3.429   17.000    1.143 
#    3.857    0.000    0.000    0.000    0.000    0.000 
#    0.000    0.000    0.000    0.000    0.000    0.000 
#
# Total GULP energy -156475.560039 kJ/mol
# GULP energy per Si atom -5588.412859 kJ/mol
# Density = 2.450317 g / cm^3
# Si number density = 24.559065 Si / 1000 Ang^3
#
#
#
# Elastic Constant Matrix: (Units=GPa)
#
#
# Indices 1 2 3 4 5 6 
#
# 1 122.5087 6.0195 13.1712 0.0000 0.0000 0.0000
# 2 6.0195 85.5971 11.3932 0.0000 0.0000 0.0000
# 3 13.1712 11.3932 124.2227 0.0000 0.0000 0.0000
# 4 0.0000 0.0000 0.0000 -15.0531 0.0000 0.0000
# 5 0.0000 0.0000 0.0000 0.0000 10.7534 0.0000
# 6 0.0000 0.0000 0.0000 0.0000 0.0000 33.6192
#
#
#
# Elastic Compliance Matrix: (Units=1/GPa)
#
#
# Indices 1 2 3 4 5 6 
#
# 1 0.008276 -0.000471 -0.000834 0.000000 0.000000 0.000000
# 2 -0.000471 0.011854 -0.001037 0.000000 0.000000 0.000000
# 3 -0.000834 -0.001037 0.008234 0.000000 0.000000 0.000000
# 4 0.000000 0.000000 0.000000 -0.066431 0.000000 0.000000
# 5 0.000000 0.000000 0.000000 0.000000 0.092994 0.000000
# 6 0.000000 0.000000 0.000000 0.000000 0.000000 0.029745
#
#
# Mechanical properties :
#
#
# Convention : Reuss Voigt Hill
#
# Bulk Modulus (GPa) = 42.23310 43.72183 42.97746
# Shear Modulus (GPa) = 51.41509 25.98021 38.69765
#
# Velocity S-wave (km/s) = 4.58047 3.25601 3.97381
# Velocity P-wave (km/s) = 6.72370 5.65481 6.21229
#
# Compressibility (1/GPa) = 0.02367811
#
# Stress axis : x y z
#
# Youngs Moduli (GPa) = 120.83841 84.36103 121.45284
#
# Poissons Ratio (x) = 0.03973 0.10132
# Poissons Ratio (y) = 0.05691 0.12598
# Poissons Ratio (z) = 0.10081 0.08750
#
# Static dielectric constant tensor:
#      x y z
#    x 2.067850 0.000000 0.000000 
#    y 0.000000 1.957070 0.000000 
#    z 0.000000 0.000000 1.844160 
# 
# From -- ./inp_files/24106.got.cif
#   From: 2010.05.17/outbox.cif.g08.bks.cpg/sg24_13_cif.got.tgz:24106.got - 2010.06.04 00:33:39.
