data_PCOD9335375
_publ_section_title
;
Structure prediction by ZEFSAII (Michael W. Deem and Ramdas Pophale) SiO2 
 PCOD9335375
Probable space group: I 21 21 21
;
_chemical_formula_sum "Si O2"
_cell_formula_units_Z 28
_cell_length_a 8.342289
_cell_length_b 4.857712
_cell_length_c 28.771008
_cell_angle_alpha 90.000000
_cell_angle_beta 90.000000
_cell_angle_gamma 90.000000
_cell_volume 1165.928912
_symmetry_space_group_name_H-M "I 21 21 21"
_symmetry_group_IT_number 24
_symmetry_cell_setting 'orthorhombic'
loop_
_space_group_symop_operation_xyz
x,y,z
-x,1/2-y,z
x,-y,1/2-z
1/2-x,y,-z
1/2+x,1/2+y,1/2+z
1/2-x,-y,1/2+z
1/2+x,1/2-y,-z
-x,1/2+y,1/2-z
loop_
_atom_site_type_symbol
_atom_site_label
_atom_site_fract_x
_atom_site_fract_y
_atom_site_fract_z
Si Si1 0.500000 0.250000 0.716689
Si Si2 0.674247 0.890996 0.096300
Si Si3 0.172066 0.617230 0.802575
Si Si4 0.677420 0.609104 0.548443
O O1 0.469222 0.500000 0.750000
O O2 0.329797 0.191378 0.693666
O O3 0.500000 0.750000 0.091726
O O4 0.689661 0.032893 0.147782
O O5 0.800193 0.645085 0.084400
O O6 0.705903 0.139732 0.061846
O O7 0.165157 0.500000 0.750000
O O8 0.000000 0.750000 0.806928
O O9 0.500000 0.750000 0.546935
O O10 0.750000 0.499038 0.500000
#
# Coordination Sequence:
#
# PCOD9335375 Si02
#       4
#     4   8   8   8
#     4  10  22  38  60  90 126 172 222 276 330 392
#     4  11  25  45  71 105 141 186 238 291 354 426
#     4  10  23  42  68  99 141 187 234 286 344 411
#     4  12  26  46  73 103 142 183 234 295 361 428
#
# _framework density 24.015184999999999
#
# number of rings (size 3 to 8) (size 9 to 14) (size 15 to 20)
#    0.000    1.143    0.000    5.143    4.000    9.143 
#    2.571    0.000    0.000    0.000    0.000    0.000 
#    0.000    0.000    0.000    0.000    0.000    0.000 
#
# Total GULP energy -77935.494655 kJ/mol
# GULP energy per Si atom -5566.821047 kJ/mol
# Density = 2.396053 g / cm^3
# Si number density = 24.015185 Si / 1000 Ang^3
#
#
#
# Elastic Constant Matrix: (Units=GPa)
#
#
# Indices 1 2 3 4 5 6 
#
# 1 157.4109 -2.0407 17.4378 0.0000 0.0000 0.0000
# 2 -2.0407 79.4845 20.4897 0.0000 0.0000 0.0000
# 3 17.4378 20.4897 143.5648 0.0000 0.0000 0.0000
# 4 0.0000 0.0000 0.0000 39.7159 0.0000 0.0000
# 5 0.0000 0.0000 0.0000 0.0000 48.5665 0.0000
# 6 0.0000 0.0000 0.0000 0.0000 0.0000 21.8904
#
#
#
# Elastic Compliance Matrix: (Units=1/GPa)
#
#
# Indices 1 2 3 4 5 6 
#
# 1 0.006451 0.000382 -0.000838 0.000000 0.000000 0.000000
# 2 0.000382 0.013084 -0.001914 0.000000 0.000000 0.000000
# 3 -0.000838 -0.001914 0.007340 0.000000 0.000000 0.000000
# 4 0.000000 0.000000 0.000000 0.025179 0.000000 0.000000
# 5 0.000000 0.000000 0.000000 0.000000 0.020590 0.000000
# 6 0.000000 0.000000 0.000000 0.000000 0.000000 0.045682
#
#
# Mechanical properties :
#
#
# Convention : Reuss Voigt Hill
#
# Bulk Modulus (GPa) = 45.17728 50.24818 47.71273
# Shear Modulus (GPa) = 38.33034 45.00613 41.66824
#
# Velocity S-wave (km/s) = 3.99944 4.33375 4.16995
# Velocity P-wave (km/s) = 6.33878 6.78312 6.56471
#
# Compressibility (1/GPa) = 0.02213502
#
# Stress axis : x y z
#
# Youngs Moduli (GPa) = 155.02487 76.42804 136.23221
#
# Poissons Ratio (x) = -0.02917 0.11416
# Poissons Ratio (y) = -0.05916 0.26071
# Poissons Ratio (z) = 0.12991 0.14626
#
# Static dielectric constant tensor:
#      x y z
#    x 1.686110 0.000000 0.000000 
#    y 0.000000 1.879940 0.000000 
#    z 0.000000 0.000000 2.054520 
# 
# From -- ./inp_files/6774.got.cif
#   From: 2010.05.17/outbox.cif.g08.bks.cpg/sg24_4_cif.got.tgz:6774.got - 2010.06.04 00:33:39.
