data_PCOD9335219
_publ_section_title
;
Structure prediction by ZEFSAII (Michael W. Deem and Ramdas Pophale) SiO2 
 PCOD9335219
Probable space group: I 21 21 21
;
_chemical_formula_sum "Si O2"
_cell_formula_units_Z 48
_cell_length_a 27.872688
_cell_length_b 5.466157
_cell_length_c 14.730323
_cell_angle_alpha 90.000000
_cell_angle_beta 90.000000
_cell_angle_gamma 90.000000
_cell_volume 2244.260289
_symmetry_space_group_name_H-M "I 21 21 21"
_symmetry_group_IT_number 24
_symmetry_cell_setting 'orthorhombic'
loop_
_space_group_symop_operation_xyz
x,y,z
-x,1/2-y,z
x,-y,1/2-z
1/2-x,y,-z
1/2+x,1/2+y,1/2+z
1/2-x,-y,1/2+z
1/2+x,1/2-y,-z
-x,1/2+y,1/2-z
loop_
_atom_site_type_symbol
_atom_site_label
_atom_site_fract_x
_atom_site_fract_y
_atom_site_fract_z
Si Si1 0.160443 0.000000 0.750000
Si Si2 0.895455 0.233388 0.592534
Si Si3 0.500000 0.750000 0.584634
Si Si4 0.683494 0.861781 0.385556
Si Si5 0.500000 0.750000 0.032387
Si Si6 0.664379 0.506910 0.546988
Si Si7 0.750000 0.789211 0.000000
Si Si8 0.400101 0.251458 0.807372
O O1 0.126708 0.093490 0.669354
O O2 0.190895 0.224806 0.790508
O O3 0.877168 0.331870 0.494288
O O4 0.952020 0.224795 0.590837
O O5 0.869686 0.977391 0.612338
O O6 0.504225 0.499498 0.526571
O O7 0.451502 0.721422 0.643216
O O8 0.684070 0.658800 0.462511
O O9 0.718955 0.062117 0.426165
O O10 0.711355 0.347351 0.564831
O O11 0.641736 0.688386 0.620147
O O12 0.390991 0.500000 0.750000
O O13 0.402810 0.000000 0.750000
#
# Coordination Sequence:
#
# PCOD9335219 Si02
#       8
#     4   8   4   8   4   8   4   8
#     4  10  22  42  66 106 136 184 240 298 374 430
#     4  10  22  41  68  99 141 185 236 297 360 430
#     4  12  24  45  69 110 138 194 256 280 359 433
#     4  10  21  42  74  97 137 186 238 299 362 442
#     4  12  24  41  73 106 138 194 244 294 345 449
#     4  10  22  43  70 102 132 188 241 292 365 429
#     4  10  22  40  80  98 134 192 246 296 366 446
#     4  12  26  43  72 105 151 189 235 305 360 426
#
# _framework density 21.387892000000001
#
# number of rings (size 3 to 8) (size 9 to 14) (size 15 to 20)
#    0.000    1.333    1.667    3.500    7.000    0.000 
#    3.000    0.000   44.000    0.000    0.000    0.000 
#    0.000    0.000    0.000    0.000    0.000    0.000 
#
# Total GULP energy -133983.613689 kJ/mol
# GULP energy per Si atom -5582.650570 kJ/mol
# Density = 2.133921 g / cm^3
# Si number density = 21.387892 Si / 1000 Ang^3
#
#
#
# Elastic Constant Matrix: (Units=GPa)
#
#
# Indices 1 2 3 4 5 6 
#
# 1 139.2040 33.3292 41.7571 0.0000 0.0000 0.0000
# 2 33.3292 117.2006 43.6427 0.0000 0.0000 0.0000
# 3 41.7571 43.6427 88.1993 0.0000 0.0000 0.0000
# 4 0.0000 0.0000 0.0000 46.0942 0.0000 0.0000
# 5 0.0000 0.0000 0.0000 0.0000 20.5053 0.0000
# 6 0.0000 0.0000 0.0000 0.0000 0.0000 -4.6324
#
#
#
# Elastic Compliance Matrix: (Units=1/GPa)
#
#
# Indices 1 2 3 4 5 6 
#
# 1 0.008492 -0.001125 -0.003464 0.000000 0.000000 0.000000
# 2 -0.001125 0.010609 -0.004717 0.000000 0.000000 0.000000
# 3 -0.003464 -0.004717 0.015312 0.000000 0.000000 0.000000
# 4 0.000000 0.000000 0.000000 0.021695 0.000000 0.000000
# 5 0.000000 0.000000 0.000000 0.000000 0.048768 0.000000
# 6 0.000000 0.000000 0.000000 0.000000 0.000000 -0.215873
#
#
# Mechanical properties :
#
#
# Convention : Reuss Voigt Hill
#
# Bulk Modulus (GPa) = 63.28567 64.67354 63.97960
# Shear Modulus (GPa) = -57.39271 27.45175 -14.97048
#
# Velocity S-wave (km/s) = -5.18579 3.58651 -2.64853
# Velocity P-wave (km/s) = 2.49056 6.88874 4.54158
#
# Compressibility (1/GPa) = 0.01580137
#
# Stress axis : x y z
#
# Youngs Moduli (GPa) = 117.75618 94.26195 65.30923
#
# Poissons Ratio (x) = 0.10606 0.22622
# Poissons Ratio (y) = 0.13249 0.30805
# Poissons Ratio (z) = 0.40788 0.44461
#
# Static dielectric constant tensor:
#      x y z
#    x 1.746530 0.000000 0.000000 
#    y 0.000000 1.548170 0.000000 
#    z 0.000000 0.000000 1.808830 
# 
# From -- ./inp_files/28071.got.cif
#   From: 2010.05.17/outbox.cif.g08.bks.cpg/sg24_15_cif.got.tgz:28071.got - 2010.06.04 00:33:39.
