data_PCOD9335977
_publ_section_title
;
Structure prediction by ZEFSAII (Michael W. Deem and Ramdas Pophale) SiO2 
 PCOD9335977
Probable space group: I 21 21 21
;
_chemical_formula_sum "Si O2"
_cell_formula_units_Z 24
_cell_length_a 18.981149
_cell_length_b 10.526294
_cell_length_c 5.285851
_cell_angle_alpha 90.000000
_cell_angle_beta 90.000000
_cell_angle_gamma 90.000000
_cell_volume 1056.119134
_symmetry_space_group_name_H-M "I 21 21 21"
_symmetry_group_IT_number 24
_symmetry_cell_setting 'orthorhombic'
loop_
_space_group_symop_operation_xyz
x,y,z
-x,1/2-y,z
x,-y,1/2-z
1/2-x,y,-z
1/2+x,1/2+y,1/2+z
1/2-x,-y,1/2+z
1/2+x,1/2-y,-z
-x,1/2+y,1/2-z
loop_
_atom_site_type_symbol
_atom_site_label
_atom_site_fract_x
_atom_site_fract_y
_atom_site_fract_z
Si Si1 0.675160 0.106085 0.080696
Si Si2 0.851077 0.633983 0.792351
Si Si3 0.580411 0.282601 0.801782
O O1 0.750000 0.947169 0.500000
O O2 0.691215 0.236784 0.235466
O O3 0.638192 0.000000 0.250000
O O4 0.625769 0.155075 0.855961
O O5 0.812880 0.500000 0.750000
O O6 0.909744 0.642634 0.567700
O O7 0.884720 0.646135 0.067086
O O8 0.500000 0.250000 0.751877
#
# Coordination Sequence:
#
# PCOD9335977 Si02
#       3
#     8   8   8
#     4  10  26  44  69 104 143 188 239 293 359 431
#     4  10  23  45  66 101 134 181 237 295 358 422
#     4  10  23  44  69 102 138 186 236 297 356 421
#
# _framework density 22.724709000000001
#
# number of rings (size 3 to 8) (size 9 to 14) (size 15 to 20)
#    2.000    0.000    0.000    2.000    4.667    1.333 
#   12.000    0.000    0.000    0.000    0.000    0.000 
#    0.000    0.000    0.000    0.000    0.000    0.000 
#
# Total GULP energy -66903.666806 kJ/mol
# GULP energy per Si atom -5575.305567 kJ/mol
# Density = 2.267299 g / cm^3
# Si number density = 22.724709 Si / 1000 Ang^3
#
#
#
# Elastic Constant Matrix: (Units=GPa)
#
#
# Indices 1 2 3 4 5 6 
#
# 1 55.6487 -12.4585 22.5156 0.0000 0.0000 0.0000
# 2 -12.4585 116.2402 40.8240 0.0000 0.0000 0.0000
# 3 22.5156 40.8240 150.5002 0.0000 0.0000 0.0000
# 4 0.0000 0.0000 0.0000 4.1657 0.0000 0.0000
# 5 0.0000 0.0000 0.0000 0.0000 18.8381 0.0000
# 6 0.0000 0.0000 0.0000 0.0000 0.0000 2.7064
#
#
#
# Elastic Compliance Matrix: (Units=1/GPa)
#
#
# Indices 1 2 3 4 5 6 
#
# 1 0.020407 0.003603 -0.004030 0.000000 0.000000 0.000000
# 2 0.003603 0.010145 -0.003291 0.000000 0.000000 0.000000
# 3 -0.004030 -0.003291 0.008140 0.000000 0.000000 0.000000
# 4 0.000000 0.000000 0.000000 0.240053 0.000000 0.000000
# 5 0.000000 0.000000 0.000000 0.000000 0.053084 0.000000
# 6 0.000000 0.000000 0.000000 0.000000 0.000000 0.369492
#
#
# Mechanical properties :
#
#
# Convention : Reuss Voigt Hill
#
# Bulk Modulus (GPa) = 31.99473 47.12792 39.56133
# Shear Modulus (GPa) = 6.95240 23.24258 15.09749
#
# Velocity S-wave (km/s) = 1.75101 3.20158 2.58032
# Velocity P-wave (km/s) = 4.26590 5.86945 5.13071
#
# Compressibility (1/GPa) = 0.03125514
#
# Stress axis : x y z
#
# Youngs Moduli (GPa) = 49.00262 98.57325 122.84872
#
# Poissons Ratio (x) = -0.35512 0.49511
# Poissons Ratio (y) = -0.17654 0.40427
# Poissons Ratio (z) = 0.19749 0.32438
#
# Static dielectric constant tensor:
#      x y z
#    x 1.750670 0.000000 0.000000 
#    y 0.000000 1.913790 0.000000 
#    z 0.000000 0.000000 2.032420 
# 
# From -- ./inp_files/4171.got.cif
#   From: 2010.05.17/outbox.cif.g08.bks.cpg/sg24_3_cif.got.tgz:4171.got - 2010.06.04 00:33:39.
