data_PCOD9335705
_publ_section_title
;
Structure prediction by ZEFSAII (Michael W. Deem and Ramdas Pophale) SiO2 
 PCOD9335705
Probable space group: I 21 21 21
;
_chemical_formula_sum "Si O2"
_cell_formula_units_Z 28
_cell_length_a 8.439740
_cell_length_b 29.160922
_cell_length_c 4.748871
_cell_angle_alpha 90.000000
_cell_angle_beta 90.000000
_cell_angle_gamma 90.000000
_cell_volume 1168.747490
_symmetry_space_group_name_H-M "I 21 21 21"
_symmetry_group_IT_number 24
_symmetry_cell_setting 'orthorhombic'
loop_
_space_group_symop_operation_xyz
x,y,z
-x,1/2-y,z
x,-y,1/2-z
1/2-x,y,-z
1/2+x,1/2+y,1/2+z
1/2-x,-y,1/2+z
1/2+x,1/2-y,-z
-x,1/2+y,1/2-z
loop_
_atom_site_type_symbol
_atom_site_label
_atom_site_fract_x
_atom_site_fract_y
_atom_site_fract_z
Si Si1 0.926762 0.575921 0.431122
Si Si2 0.928020 0.640034 0.937729
Si Si3 0.154146 0.500000 0.250000
Si Si4 0.139066 0.715791 0.236848
O O1 0.750000 0.559369 0.500000
O O2 0.952265 0.621811 0.621065
O O3 0.052430 0.535731 0.434105
O O4 0.932966 0.593310 0.113264
O O5 0.750000 0.657879 0.000000
O O6 0.055784 0.674497 0.065468
O O7 0.250000 0.474951 0.500000
O O8 0.250000 0.702844 0.500000
O O9 0.000000 0.750000 0.334565
O O10 0.250000 0.738803 0.000000
#
# Coordination Sequence:
#
# PCOD9335705 Si02
#       4
#     8   8   4   8
#     4  10  23  43  69  97 132 182 228 274 340 415
#     4  10  22  43  70  99 133 176 229 283 337 403
#     4  12  26  42  66 102 142 178 226 292 344 398
#     4  12  26  44  70 103 140 182 227 283 341 406
#
# _framework density 23.957267999999999
#
# number of rings (size 3 to 8) (size 9 to 14) (size 15 to 20)
#    0.000    1.143    0.000    5.143    0.000   12.571 
#    0.000    0.000    0.000    0.000    0.000    0.000 
#    0.000    0.000    0.000    0.000    0.000    0.000 
#
# Total GULP energy -78233.385228 kJ/mol
# GULP energy per Si atom -5588.098945 kJ/mol
# Density = 2.390274 g / cm^3
# Si number density = 23.957268 Si / 1000 Ang^3
#
#
#
# Elastic Constant Matrix: (Units=GPa)
#
#
# Indices 1 2 3 4 5 6 
#
# 1 136.3863 54.0220 50.0945 0.0311 0.0067 -0.0059
# 2 54.0220 62.6924 14.2384 0.0120 0.0090 -0.0151
# 3 50.0945 14.2384 105.1360 0.1531 0.1080 -0.1417
# 4 0.0311 0.0120 0.1531 7.1529 0.0065 -0.0039
# 5 0.0067 0.0090 0.1080 0.0065 49.1934 -0.0391
# 6 -0.0059 -0.0151 -0.1417 -0.0039 -0.0391 31.4425
#
#
#
# Elastic Compliance Matrix: (Units=1/GPa)
#
#
# Indices 1 2 3 4 5 6 
#
# 1 0.013194 -0.010257 -0.004897 0.000065 0.000011 -0.000024
# 2 -0.010257 0.024431 0.001578 -0.000030 -0.000006 0.000017
# 3 -0.004897 0.001578 0.011632 -0.000230 -0.000025 0.000052
# 4 0.000065 -0.000030 -0.000230 0.139809 -0.000018 0.000016
# 5 0.000011 -0.000006 -0.000025 -0.000018 0.020328 0.000025
# 6 -0.000024 0.000017 0.000052 0.000016 0.000025 0.031804
#
#
# Mechanical properties :
#
#
# Convention : Reuss Voigt Hill
#
# Bulk Modulus (GPa) = 45.23952 60.10272 52.67112
# Shear Modulus (GPa) = 18.13458 29.94839 24.04149
#
# Velocity S-wave (km/s) = 2.75427 3.53948 3.17127
# Velocity P-wave (km/s) = 5.38879 6.46883 5.95335
#
# Compressibility (1/GPa) = 0.02210456
#
# Stress axis : x y z
#
# Youngs Moduli (GPa) = 75.79473 40.93236 85.97222
#
# Poissons Ratio (x) = 0.41983 0.42105
# Poissons Ratio (y) = 0.77740 -0.13571
# Poissons Ratio (z) = 0.37120 -0.06461
#
# Static dielectric constant tensor:
#      x y z
#    x 2.006700 0.000080 -0.000180 
#    y 0.000080 1.850140 0.000030 
#    z -0.000180 0.000030 1.856870 
# 
# From -- ./inp_files/1012.got.cif
#   From: 2010.05.17/outbox.cif.g08.bks.cpg/sg24_1_cif.got.tgz:1012.got - 2010.06.04 00:33:39.
