data_PCOD9335196
_publ_section_title
;
Structure prediction by ZEFSAII (Michael W. Deem and Ramdas Pophale) SiO2 
 PCOD9335196
Probable space group: I 21 21 21
;
_chemical_formula_sum "Si O2"
_cell_formula_units_Z 48
_cell_length_a 8.201079
_cell_length_b 28.775975
_cell_length_c 8.934473
_cell_angle_alpha 90.000000
_cell_angle_beta 90.000000
_cell_angle_gamma 90.000000
_cell_volume 2108.482417
_symmetry_space_group_name_H-M "I 21 21 21"
_symmetry_group_IT_number 24
_symmetry_cell_setting 'orthorhombic'
loop_
_space_group_symop_operation_xyz
x,y,z
-x,1/2-y,z
x,-y,1/2-z
1/2-x,y,-z
1/2+x,1/2+y,1/2+z
1/2-x,-y,1/2+z
1/2+x,1/2-y,-z
-x,1/2+y,1/2-z
loop_
_atom_site_type_symbol
_atom_site_label
_atom_site_fract_x
_atom_site_fract_y
_atom_site_fract_z
Si Si1 0.142589 0.643958 0.203800
Si Si2 0.651797 0.218616 0.135737
Si Si3 0.604726 0.356415 0.107691
Si Si4 0.074914 0.986768 0.927931
Si Si5 0.502494 0.879276 0.091163
Si Si6 0.931228 0.071137 0.052420
O O1 0.211461 0.693753 0.261764
O O2 0.315181 0.619586 0.161918
O O3 0.050323 0.605814 0.307091
O O4 0.029856 0.649600 0.059154
O O5 0.500000 0.250000 0.195565
O O6 0.551474 0.174963 0.068811
O O7 0.750000 0.242024 0.000000
O O8 0.616204 0.355707 0.286903
O O9 0.750000 0.343195 0.000000
O O10 0.558927 0.409070 0.067909
O O11 0.046182 0.931804 0.940735
O O12 0.060278 0.000000 0.750000
O O13 0.250000 0.996809 0.000000
O O14 0.956080 0.016191 0.038145
O O15 0.750000 0.080986 0.000000
#
# Coordination Sequence:
#
# PCOD9335196 Si02
#       6
#     8   8   8   8   8   8
#     4  10  21  42  67 102 127 186 233 284 365 427
#     4  11  21  41  70 107 134 167 234 300 355 448
#     4  11  21  40  67 100 137 184 227 292 359 422
#     4  12  27  41  58  98 137 183 244 297 345 400
#     4  10  23  41  64  94 141 186 235 290 348 435
#     4  12  21  41  68  89 134 180 239 294 344 418
#
# _framework density 22.76519
#
# number of rings (size 3 to 8) (size 9 to 14) (size 15 to 20)
#    0.000    1.000    6.667    1.000    4.667    0.000 
#    0.000    0.000    0.000   16.000    0.000    0.000 
#    0.000    0.000    0.000    0.000    0.000    0.000 
#
# Total GULP energy -133695.049196 kJ/mol
# GULP energy per Si atom -5570.627050 kJ/mol
# Density = 2.271337 g / cm^3
# Si number density = 22.765190 Si / 1000 Ang^3
#
#
#
# Elastic Constant Matrix: (Units=GPa)
#
#
# Indices 1 2 3 4 5 6 
#
# 1 59.7297 26.2468 51.7064 -0.0001 0.0000 0.0000
# 2 26.2468 101.2335 39.8031 -0.0001 0.0000 0.0000
# 3 51.7064 39.8031 143.7701 -0.0002 0.0002 -0.0002
# 4 -0.0001 -0.0001 -0.0002 8.5140 0.0000 -0.0001
# 5 0.0000 0.0000 0.0002 0.0000 43.3343 0.0000
# 6 0.0000 0.0000 -0.0002 -0.0001 0.0000 26.7899
#
#
#
# Elastic Compliance Matrix: (Units=1/GPa)
#
#
# Indices 1 2 3 4 5 6 
#
# 1 0.025281 -0.003344 -0.008166 0.000000 0.000000 0.000000
# 2 -0.003344 0.011527 -0.001989 0.000000 0.000000 0.000000
# 3 -0.008166 -0.001989 0.010443 0.000000 0.000000 0.000000
# 4 0.000000 0.000000 0.000000 0.117454 0.000000 0.000000
# 5 0.000000 0.000000 0.000000 0.000000 0.023076 0.000000
# 6 0.000000 0.000000 0.000000 0.000000 0.000000 0.037327
#
#
# Mechanical properties :
#
#
# Convention : Reuss Voigt Hill
#
# Bulk Modulus (GPa) = 49.37470 60.02732 54.70101
# Shear Modulus (GPa) = 19.31566 28.19279 23.75423
#
# Velocity S-wave (km/s) = 2.91602 3.52293 3.23374
# Velocity P-wave (km/s) = 5.75094 6.55541 6.16631
#
# Compressibility (1/GPa) = 0.02025329
#
# Stress axis : x y z
#
# Youngs Moduli (GPa) = 39.55563 86.75287 95.75639
#
# Poissons Ratio (x) = 0.29007 0.78199
# Poissons Ratio (y) = 0.13226 0.19043
# Poissons Ratio (z) = 0.32303 0.17253
#
# Static dielectric constant tensor:
#      x y z
#    x 1.866670 0.000000 0.000000 
#    y 0.000000 1.858220 0.000000 
#    z 0.000000 0.000000 1.955440 
# 
# From -- ./inp_files/9745.got.cif
#   From: 2010.05.17/outbox.cif.g08.bks.cpg/sg24_5_cif.got.tgz:9745.got - 2010.06.04 00:33:39.
