data_PCOD9335792
_publ_section_title
;
Structure prediction by ZEFSAII (Michael W. Deem and Ramdas Pophale) SiO2 
 PCOD9335792
Probable space group: I 21 21 21
;
_chemical_formula_sum "Si O2"
_cell_formula_units_Z 24
_cell_length_a 4.919468
_cell_length_b 13.962755
_cell_length_c 13.182283
_cell_angle_alpha 90.000000
_cell_angle_beta 90.000000
_cell_angle_gamma 90.000000
_cell_volume 905.482140
_symmetry_space_group_name_H-M "I 21 21 21"
_symmetry_group_IT_number 24
_symmetry_cell_setting 'orthorhombic'
loop_
_space_group_symop_operation_xyz
x,y,z
-x,1/2-y,z
x,-y,1/2-z
1/2-x,y,-z
1/2+x,1/2+y,1/2+z
1/2-x,-y,1/2+z
1/2+x,1/2-y,-z
-x,1/2+y,1/2-z
loop_
_atom_site_type_symbol
_atom_site_label
_atom_site_fract_x
_atom_site_fract_y
_atom_site_fract_z
Si Si1 0.233657 0.316227 0.684299
Si Si2 0.000000 0.750000 0.440549
Si Si3 0.555113 0.562252 0.663765
Si Si4 0.250000 0.562529 0.000000
O O1 0.500000 0.250000 0.663159
O O2 0.312560 0.395792 0.766191
O O3 0.122020 0.367827 0.583868
O O4 0.000000 0.250000 0.724764
O O5 0.250000 0.703066 0.500000
O O6 0.849271 0.663192 0.382095
O O7 0.712181 0.500000 0.750000
O O8 0.458112 0.498624 0.568712
#
# Coordination Sequence:
#
# PCOD9335792 Si02
#       4
#     8   4   8   4
#     4  11  24  45  70  98 136 182 227 279 338 400
#     4  12  26  48  72  98 136 184 226 280 340 402
#     4  10  23  45  70 103 138 179 227 280 338 402
#     4  10  22  46  66 104 136 178 228 284 334 404
#
# _framework density 26.505220000000001
#
# number of rings (size 3 to 8) (size 9 to 14) (size 15 to 20)
#    0.000    1.333    3.333    1.000    2.333    0.000 
#   12.000   10.000    0.000    0.000    0.000    0.000 
#    0.000    0.000    0.000    0.000    0.000    0.000 
#
# Total GULP energy -67041.643081 kJ/mol
# GULP energy per Si atom -5586.803590 kJ/mol
# Density = 2.644489 g / cm^3
# Si number density = 26.505220 Si / 1000 Ang^3
#
#
#
# Elastic Constant Matrix: (Units=GPa)
#
#
# Indices 1 2 3 4 5 6 
#
# 1 83.0238 34.0729 40.4099 0.0000 0.0000 0.0000
# 2 34.0729 145.8013 47.4247 0.0000 0.0000 0.0000
# 3 40.4099 47.4247 159.1538 0.0000 0.0000 0.0000
# 4 0.0000 0.0000 0.0000 64.0453 0.0000 0.0000
# 5 0.0000 0.0000 0.0000 0.0000 9.8490 0.0000
# 6 0.0000 0.0000 0.0000 0.0000 0.0000 28.8018
#
#
#
# Elastic Compliance Matrix: (Units=1/GPa)
#
#
# Indices 1 2 3 4 5 6 
#
# 1 0.014477 -0.002422 -0.002954 0.000000 0.000000 0.000000
# 2 -0.002422 0.008000 -0.001769 0.000000 0.000000 0.000000
# 3 -0.002954 -0.001769 0.007560 0.000000 0.000000 0.000000
# 4 0.000000 0.000000 0.000000 0.015614 0.000000 0.000000
# 5 0.000000 0.000000 0.000000 0.000000 0.101533 0.000000
# 6 0.000000 0.000000 0.000000 0.000000 0.000000 0.034720
#
#
# Mechanical properties :
#
#
# Convention : Reuss Voigt Hill
#
# Bulk Modulus (GPa) = 63.50431 70.19933 66.85182
# Shear Modulus (GPa) = 24.82089 38.27731 31.54910
#
# Velocity S-wave (km/s) = 3.06347 3.80431 3.45381
# Velocity P-wave (km/s) = 6.04354 6.77050 6.41732
#
# Compressibility (1/GPa) = 0.01574696
#
# Stress axis : x y z
#
# Youngs Moduli (GPa) = 69.07714 124.99893 132.26971
#
# Poissons Ratio (x) = 0.30278 0.39071
# Poissons Ratio (y) = 0.16732 0.23396
# Poissons Ratio (z) = 0.20405 0.22110
#
# Static dielectric constant tensor:
#      x y z
#    x 1.997240 0.000000 0.000000 
#    y 0.000000 2.125790 0.000000 
#    z 0.000000 0.000000 2.214900 
# 
# From -- ./inp_files/2870.got.cif
#   From: 2010.05.17/outbox.cif.g08.bks.cpg/sg24_2_cif.got.tgz:2870.got - 2010.06.04 00:33:39.
