data_PCOD9335877
_publ_section_title
;
Structure prediction by ZEFSAII (Michael W. Deem and Ramdas Pophale) SiO2 
 PCOD9335877
Probable space group: I 21 21 21
;
_chemical_formula_sum "Si O2"
_cell_formula_units_Z 32
_cell_length_a 5.067867
_cell_length_b 22.686248
_cell_length_c 9.734666
_cell_angle_alpha 90.000000
_cell_angle_beta 90.000000
_cell_angle_gamma 90.000000
_cell_volume 1119.203190
_symmetry_space_group_name_H-M "I 21 21 21"
_symmetry_group_IT_number 24
_symmetry_cell_setting 'orthorhombic'
loop_
_space_group_symop_operation_xyz
x,y,z
-x,1/2-y,z
x,-y,1/2-z
1/2-x,y,-z
1/2+x,1/2+y,1/2+z
1/2-x,-y,1/2+z
1/2+x,1/2-y,-z
-x,1/2+y,1/2-z
loop_
_atom_site_type_symbol
_atom_site_label
_atom_site_fract_x
_atom_site_fract_y
_atom_site_fract_z
Si Si1 0.000000 0.750000 0.100210
Si Si2 0.852687 0.000000 0.250000
Si Si3 0.497873 0.310228 0.101337
Si Si4 0.494280 0.428150 0.087385
Si Si5 0.497920 0.117596 0.601698
O O1 0.996467 0.815894 0.170265
O O2 0.250000 0.751041 0.000000
O O3 0.637005 0.013089 0.135129
O O4 0.999542 0.060319 0.293654
O O5 0.500000 0.250000 0.187526
O O6 0.250000 0.297528 0.000000
O O7 0.515387 0.371413 0.185864
O O8 0.750000 0.318651 0.000000
O O9 0.750000 0.440773 0.000000
O O10 0.250000 0.403452 0.000000
O O11 0.250000 0.112848 0.500000
O O12 0.750000 0.114155 0.500000
#
# Coordination Sequence:
#
# PCOD9335877 Si02
#       5
#     4   4   8   8   8
#     4   8  16  38  70  96 134 180 236 296 358 406
#     4  12  26  42  72 108 142 186 240 292 368 428
#     4   8  14  29  56  81 112 161 209 257 322 390
#     4  10  23  41  62  94 135 178 223 281 342 414
#     4  10  23  43  71 105 140 188 236 299 359 424
#
# _framework density 28.59177
#
# number of rings (size 3 to 8) (size 9 to 14) (size 15 to 20)
#    0.000    2.500    0.000    0.750    0.000    8.000 
#    0.000    0.000   44.000    0.000    6.500    0.000 
#    0.000    0.000    0.000    0.000    0.000    0.000 
#
# Total GULP energy -89237.259515 kJ/mol
# GULP energy per Si atom -5577.328720 kJ/mol
# Density = 2.852669 g / cm^3
# Si number density = 28.591770 Si / 1000 Ang^3
#
#
#
# Elastic Constant Matrix: (Units=GPa)
#
#
# Indices 1 2 3 4 5 6 
#
# 1 191.4725 34.4597 33.0349 0.0000 0.0000 0.0000
# 2 34.4597 257.2584 47.4926 0.0000 0.0000 0.0000
# 3 33.0349 47.4926 79.0860 0.0000 0.0000 0.0001
# 4 0.0000 0.0000 0.0000 31.9385 0.0000 0.0000
# 5 0.0000 0.0000 0.0000 0.0000 33.0909 0.0000
# 6 0.0000 0.0000 0.0001 0.0000 0.0000 569.1238
#
#
#
# Elastic Compliance Matrix: (Units=1/GPa)
#
#
# Indices 1 2 3 4 5 6 
#
# 1 0.005658 -0.000362 -0.002146 0.000000 0.000000 0.000000
# 2 -0.000362 0.004395 -0.002488 0.000000 0.000000 0.000000
# 3 -0.002146 -0.002488 0.015035 0.000000 0.000000 0.000000
# 4 0.000000 0.000000 0.000000 0.031310 0.000000 0.000000
# 5 0.000000 0.000000 0.000000 0.000000 0.030220 0.000000
# 6 0.000000 0.000000 0.000000 0.000000 0.000000 0.001757
#
#
# Mechanical properties :
#
#
# Convention : Reuss Voigt Hill
#
# Bulk Modulus (GPa) = 66.24269 84.19906 75.22087
# Shear Modulus (GPa) = 48.35623 154.35263 101.35443
#
# Velocity S-wave (km/s) = 4.11696 7.35542 5.96035
# Velocity P-wave (km/s) = 6.76889 10.08211 8.58681
#
# Compressibility (1/GPa) = 0.01509600
#
# Stress axis : x y z
#
# Youngs Moduli (GPa) = 176.73889 227.53484 66.51079
#
# Poissons Ratio (x) = 0.08229 0.14275
# Poissons Ratio (y) = 0.06392 0.16549
# Poissons Ratio (z) = 0.37932 0.56614
#
# Static dielectric constant tensor:
#      x y z
#    x 2.373130 0.000000 0.000000 
#    y 0.000000 2.706940 0.000000 
#    z 0.000000 0.000000 -8.359860 
# 
# From -- ./inp_files/17407.got.cif
#   From: 2010.05.17/outbox.cif.g08.bks.cpg/sg24_9_cif.got.tgz:17407.got - 2010.06.04 00:33:39.
