data_PCOD9335538
_publ_section_title
;
Structure prediction by ZEFSAII (Michael W. Deem and Ramdas Pophale) SiO2 
 PCOD9335538
Probable space group: I 21 21 21
;
_chemical_formula_sum "Si O2"
_cell_formula_units_Z 48
_cell_length_a 24.282071
_cell_length_b 8.326398
_cell_length_c 10.692673
_cell_angle_alpha 90.000000
_cell_angle_beta 90.000000
_cell_angle_gamma 90.000000
_cell_volume 2161.868016
_symmetry_space_group_name_H-M "I 21 21 21"
_symmetry_group_IT_number 24
_symmetry_cell_setting 'orthorhombic'
loop_
_space_group_symop_operation_xyz
x,y,z
-x,1/2-y,z
x,-y,1/2-z
1/2-x,y,-z
1/2+x,1/2+y,1/2+z
1/2-x,-y,1/2+z
1/2+x,1/2-y,-z
-x,1/2+y,1/2-z
loop_
_atom_site_type_symbol
_atom_site_label
_atom_site_fract_x
_atom_site_fract_y
_atom_site_fract_z
Si Si1 0.284806 0.000000 0.250000
Si Si2 0.501981 0.558406 0.887491
Si Si3 0.209726 0.224150 0.401051
Si Si4 0.458649 0.600904 0.372520
Si Si5 0.128949 0.024135 0.100133
Si Si6 0.250653 0.500000 0.250000
Si Si7 0.835990 0.781286 0.601012
O O1 0.245074 0.072045 0.354368
O O2 0.321086 0.139179 0.194955
O O3 0.500000 0.750000 0.885999
O O4 0.484678 0.500000 0.750000
O O5 0.563138 0.485499 0.913650
O O6 0.464874 0.497353 0.999771
O O7 0.250000 0.302556 0.500000
O O8 0.154920 0.142643 0.452626
O O9 0.210057 0.357379 0.294666
O O10 0.500000 0.750000 0.379087
O O11 0.473370 0.500000 0.250000
O O12 0.395488 0.652150 0.366448
O O13 0.138520 0.000000 0.250000
O O14 0.155839 0.181120 0.032012
O O15 0.290355 0.416362 0.142970
#
# Coordination Sequence:
#
# PCOD9335538 Si02
#       7
#     4   8   8   8   8   4   8
#     4  10  22  40  71  98 139 176 220 286 350 430
#     4  11  26  47  69  99 143 186 233 292 352 419
#     4  11  22  43  66 100 133 182 226 281 348 414
#     4  12  25  43  72 105 140 183 237 295 355 418
#     4  11  24  42  71  98 138 192 234 270 357 439
#     4  10  26  44  69 106 145 170 234 310 350 398
#     4  11  23  44  71 103 140 181 231 290 358 421
#
# _framework density 22.203019999999999
#
# number of rings (size 3 to 8) (size 9 to 14) (size 15 to 20)
#    0.000    1.000    5.000    1.000    3.500    4.000 
#    1.500    0.000    0.000    0.000    0.000    0.000 
#    0.000    0.000    0.000    0.000    0.000    0.000 
#
# Total GULP energy -133873.754775 kJ/mol
# GULP energy per Si atom -5578.073116 kJ/mol
# Density = 2.215249 g / cm^3
# Si number density = 22.203020 Si / 1000 Ang^3
#
#
#
# Elastic Constant Matrix: (Units=GPa)
#
#
# Indices 1 2 3 4 5 6 
#
# 1 28.2678 11.1957 14.2554 0.0000 0.0000 0.0000
# 2 11.1957 125.8555 39.0201 0.0000 0.0000 0.0000
# 3 14.2554 39.0201 82.6618 0.0000 0.0000 0.0000
# 4 0.0000 0.0000 0.0000 32.9011 0.0000 0.0000
# 5 0.0000 0.0000 0.0000 0.0000 25.3726 0.0000
# 6 0.0000 0.0000 0.0000 0.0000 0.0000 -37.1909
#
#
#
# Elastic Compliance Matrix: (Units=1/GPa)
#
#
# Indices 1 2 3 4 5 6 
#
# 1 0.039026 -0.001622 -0.005964 0.000000 0.000000 0.000000
# 2 -0.001622 0.009375 -0.004146 0.000000 0.000000 0.000000
# 3 -0.005964 -0.004146 0.015083 0.000000 0.000000 0.000000
# 4 0.000000 0.000000 0.000000 0.030394 0.000000 0.000000
# 5 0.000000 0.000000 0.000000 0.000000 0.039413 0.000000
# 6 0.000000 0.000000 0.000000 0.000000 0.000000 -0.026888
#
#
# Mechanical properties :
#
#
# Convention : Reuss Voigt Hill
#
# Bulk Modulus (GPa) = 24.98782 40.63639 32.81210
# Shear Modulus (GPa) = 34.91420 15.70416 25.30918
#
# Velocity S-wave (km/s) = 3.96978 2.66239 3.37990
# Velocity P-wave (km/s) = 5.68250 5.27191 5.48105
#
# Compressibility (1/GPa) = 0.04001950
#
# Stress axis : x y z
#
# Youngs Moduli (GPa) = 25.62368 106.66332 66.29960
#
# Poissons Ratio (x) = 0.17306 0.39544
# Poissons Ratio (y) = 0.04157 0.27486
# Poissons Ratio (z) = 0.15283 0.44220
#
# Static dielectric constant tensor:
#      x y z
#    x 1.837620 0.000000 0.000000 
#    y 0.000000 1.802630 0.000000 
#    z 0.000000 0.000000 1.907280 
# 
# From -- ./inp_files/22605.got.cif
#   From: 2010.05.17/outbox.cif.g08.bks.cpg/sg24_12_cif.got.tgz:22605.got - 2010.06.04 00:33:39.
