data_PCOD9335306
_publ_section_title
;
Structure prediction by ZEFSAII (Michael W. Deem and Ramdas Pophale) SiO2 
 PCOD9335306
Probable space group: I 21 21 21
;
_chemical_formula_sum "Si O2"
_cell_formula_units_Z 56
_cell_length_a 17.857629
_cell_length_b 8.168451
_cell_length_c 17.961105
_cell_angle_alpha 90.000000
_cell_angle_beta 90.000000
_cell_angle_gamma 90.000000
_cell_volume 2619.971433
_symmetry_space_group_name_H-M "I 21 21 21"
_symmetry_group_IT_number 24
_symmetry_cell_setting 'orthorhombic'
loop_
_space_group_symop_operation_xyz
x,y,z
-x,1/2-y,z
x,-y,1/2-z
1/2-x,y,-z
1/2+x,1/2+y,1/2+z
1/2-x,-y,1/2+z
1/2+x,1/2-y,-z
-x,1/2+y,1/2-z
loop_
_atom_site_type_symbol
_atom_site_label
_atom_site_fract_x
_atom_site_fract_y
_atom_site_fract_z
Si Si1 0.500000 0.250000 0.178212
Si Si2 0.330330 0.198800 0.959726
Si Si3 0.839940 0.669629 0.709687
Si Si4 0.500000 0.750000 0.040080
Si Si5 0.275770 0.363520 0.415941
Si Si6 0.923129 0.051349 0.949187
Si Si7 0.199093 0.610218 0.314730
Si Si8 0.644003 0.449159 0.425929
O O1 0.425730 0.220391 0.227408
O O2 0.524931 0.110538 0.118896
O O3 0.329052 0.246456 0.872131
O O4 0.250000 0.241810 0.000000
O O5 0.395739 0.306175 0.997146
O O6 0.345334 0.013902 0.989491
O O7 0.821240 0.500000 0.750000
O O8 0.776024 0.806421 0.717809
O O9 0.849383 0.611245 0.623838
O O10 0.460553 0.594427 0.003092
O O11 0.568586 0.657407 0.081087
O O12 0.250000 0.361818 0.500000
O O13 0.350915 0.470764 0.411090
O O14 0.216506 0.463355 0.370722
O O15 0.293365 0.176594 0.397596
O O16 0.160095 0.500000 0.250000
#
# Coordination Sequence:
#
# PCOD9335306 Si02
#       8
#     4   8   8   4   8   8   8   8
#     4  12  20  39  56  82 123 176 218 260 292 378
#     4  12  19  40  65  90 117 172 217 275 327 381
#     4  12  25  40  56  84 130 182 215 253 309 380
#     4  10  22  33  56  98 121 156 210 272 302 378
#     4  11  20  36  61  90 116 159 206 269 316 379
#     4  11  18  35  60  84 124 153 215 264 305 363
#     4  12  24  41  60  90 131 169 214 271 337 388
#     4  11  22  36  62  87 128 161 216 266 316 379
#
# _framework density 21.374279999999999
#
# number of rings (size 3 to 8) (size 9 to 14) (size 15 to 20)
#    0.000    0.571    8.571    1.286    0.000    1.143 
#    0.000    0.000    0.000    0.000    0.000    3.000 
#    0.000    0.000    0.000    0.000    0.000    0.000 
#
# Total GULP energy -155881.378853 kJ/mol
# GULP energy per Si atom -5567.192102 kJ/mol
# Density = 2.132563 g / cm^3
# Si number density = 21.374280 Si / 1000 Ang^3
#
#
#
# Elastic Constant Matrix: (Units=GPa)
#
#
# Indices 1 2 3 4 5 6 
#
# 1 25.2758 10.7785 1.1526 0.0000 0.0000 0.0000
# 2 10.7785 83.4217 10.7732 0.0000 0.0000 0.0000
# 3 1.1526 10.7732 67.7677 0.0000 0.0000 0.0000
# 4 0.0000 0.0000 0.0000 44.7740 0.0000 0.0000
# 5 0.0000 0.0000 0.0000 0.0000 7.8411 0.0000
# 6 0.0000 0.0000 0.0000 0.0000 0.0000 51.8618
#
#
#
# Elastic Compliance Matrix: (Units=1/GPa)
#
#
# Indices 1 2 3 4 5 6 
#
# 1 0.041872 -0.005430 0.000151 0.000000 0.000000 0.000000
# 2 -0.005430 0.012943 -0.001965 0.000000 0.000000 0.000000
# 3 0.000151 -0.001965 0.015066 0.000000 0.000000 0.000000
# 4 0.000000 0.000000 0.000000 0.022334 0.000000 0.000000
# 5 0.000000 0.000000 0.000000 0.000000 0.127533 0.000000
# 6 0.000000 0.000000 0.000000 0.000000 0.000000 0.019282
#
#
# Mechanical properties :
#
#
# Convention : Reuss Voigt Hill
#
# Bulk Modulus (GPa) = 18.05274 24.65264 21.35269
# Shear Modulus (GPa) = 18.38360 31.14612 24.76486
#
# Velocity S-wave (km/s) = 2.93589 3.82144 3.40756
# Velocity P-wave (km/s) = 4.46732 5.57046 5.04911
#
# Compressibility (1/GPa) = 0.05539324
#
# Stress axis : x y z
#
# Youngs Moduli (GPa) = 23.88233 77.26424 66.37400
#
# Poissons Ratio (x) = 0.41951 -0.01002
# Poissons Ratio (y) = 0.12967 0.13044
# Poissons Ratio (z) = -0.00361 0.15184
#
# Static dielectric constant tensor:
#      x y z
#    x 1.795650 0.000000 0.000000 
#    y 0.000000 1.840560 0.000000 
#    z 0.000000 0.000000 1.829170 
# 
# From -- ./inp_files/31185.got.cif
#   From: 2010.05.17/outbox.cif.g08.bks.cpg/sg24_16_cif.got.tgz:31185.got - 2010.06.04 00:33:39.
