data_PCOD9335434
_publ_section_title
;
Structure prediction by ZEFSAII (Michael W. Deem and Ramdas Pophale) SiO2 
 PCOD9335434
Probable space group: I 21 21 21
;
_chemical_formula_sum "Si O2"
_cell_formula_units_Z 40
_cell_length_a 9.850298
_cell_length_b 8.710121
_cell_length_c 21.935507
_cell_angle_alpha 90.000000
_cell_angle_beta 90.000000
_cell_angle_gamma 90.000000
_cell_volume 1882.007000
_symmetry_space_group_name_H-M "I 21 21 21"
_symmetry_group_IT_number 24
_symmetry_cell_setting 'orthorhombic'
loop_
_space_group_symop_operation_xyz
x,y,z
-x,1/2-y,z
x,-y,1/2-z
1/2-x,y,-z
1/2+x,1/2+y,1/2+z
1/2-x,-y,1/2+z
1/2+x,1/2-y,-z
-x,1/2+y,1/2-z
loop_
_atom_site_type_symbol
_atom_site_label
_atom_site_fract_x
_atom_site_fract_y
_atom_site_fract_z
Si Si1 0.691275 0.426495 0.064249
Si Si2 0.852195 0.195219 0.827553
Si Si3 0.579982 0.906030 0.098783
Si Si4 0.136839 0.676297 0.231634
Si Si5 0.155544 0.758463 0.089042
O O1 0.695309 0.291613 0.113573
O O2 0.535947 0.493812 0.063654
O O3 0.787650 0.569555 0.082219
O O4 0.750000 0.371600 0.000000
O O5 0.760909 0.236200 0.770604
O O6 0.000000 0.250000 0.811814
O O7 0.868621 0.017323 0.846993
O O8 0.500000 0.750000 0.117784
O O9 0.718642 0.848384 0.066263
O O10 0.129221 0.500000 0.250000
O O11 0.146011 0.713917 0.160416
O O12 0.000000 0.750000 0.255732
O O13 0.000000 0.750000 0.063892
#
# Coordination Sequence:
#
# PCOD9335434 Si02
#       5
#     8   8   8   8   8
#     4  10  23  42  64  93 131 174 224 276 338 394
#     4  10  22  41  65  95 133 171 223 275 338 400
#     4   9  19  41  65  90 130 168 215 276 324 401
#     4  11  24  41  65  95 137 170 220 276 350 410
#     4  10  22  39  64  96 130 172 227 271 340 406
#
# _framework density 21.253907999999999
#
# number of rings (size 3 to 8) (size 9 to 14) (size 15 to 20)
#    0.000    2.000    2.000    0.000    5.600    4.800 
#    0.000   13.000    0.000    0.000    0.000    0.000 
#    0.000    0.000    0.000    0.000    0.000    0.000 
#
# Total GULP energy -111557.977294 kJ/mol
# GULP energy per Si atom -5577.898865 kJ/mol
# Density = 2.120553 g / cm^3
# Si number density = 21.253908 Si / 1000 Ang^3
#
#
#
# Elastic Constant Matrix: (Units=GPa)
#
#
# Indices 1 2 3 4 5 6 
#
# 1 117.3797 8.3458 11.8005 0.0000 0.0000 0.0000
# 2 8.3458 38.1507 -2.2543 0.0000 0.0000 0.0000
# 3 11.8005 -2.2543 51.0166 0.0000 0.0000 0.0000
# 4 0.0000 0.0000 0.0000 115.8879 0.0000 0.0000
# 5 0.0000 0.0000 0.0000 0.0000 21.2453 0.0000
# 6 0.0000 0.0000 0.0000 0.0000 0.0000 18.5755
#
#
#
# Elastic Compliance Matrix: (Units=1/GPa)
#
#
# Indices 1 2 3 4 5 6 
#
# 1 0.008882 -0.002070 -0.002146 0.000000 0.000000 0.000000
# 2 -0.002070 0.026763 0.001661 0.000000 0.000000 0.000000
# 3 -0.002146 0.001661 0.020171 0.000000 0.000000 0.000000
# 4 0.000000 0.000000 0.000000 0.008629 0.000000 0.000000
# 5 0.000000 0.000000 0.000000 0.000000 0.047069 0.000000
# 6 0.000000 0.000000 0.000000 0.000000 0.000000 0.053834
#
#
# Mechanical properties :
#
#
# Convention : Reuss Voigt Hill
#
# Bulk Modulus (GPa) = 19.72101 26.92566 23.32333
# Shear Modulus (GPa) = 26.68653 43.71874 35.20264
#
# Velocity S-wave (km/s) = 3.54730 4.54031 4.07417
# Velocity P-wave (km/s) = 5.10653 6.33892 5.75581
#
# Compressibility (1/GPa) = 0.05070735
#
# Stress axis : x y z
#
# Youngs Moduli (GPa) = 112.58383 37.36527 49.57549
#
# Poissons Ratio (x) = 0.07734 0.10639
# Poissons Ratio (y) = 0.23304 -0.08236
# Poissons Ratio (z) = 0.24160 -0.06208
#
# Static dielectric constant tensor:
#      x y z
#    x 1.782720 0.000000 0.000000 
#    y 0.000000 1.776160 0.000000 
#    z 0.000000 0.000000 1.762180 
# 
# From -- ./inp_files/9260.got.cif
#   From: 2010.05.17/outbox.cif.g08.bks.cpg/sg24_5_cif.got.tgz:9260.got - 2010.06.04 00:33:39.
