data_PCOD9335079
_publ_section_title
;
Structure prediction by ZEFSAII (Michael W. Deem and Ramdas Pophale) SiO2 
 PCOD9335079
Probable space group: I 21 21 21
;
_chemical_formula_sum "Si O2"
_cell_formula_units_Z 48
_cell_length_a 20.869471
_cell_length_b 15.067151
_cell_length_c 8.333049
_cell_angle_alpha 90.000000
_cell_angle_beta 90.000000
_cell_angle_gamma 90.000000
_cell_volume 2620.272850
_symmetry_space_group_name_H-M "I 21 21 21"
_symmetry_group_IT_number 24
_symmetry_cell_setting 'orthorhombic'
loop_
_space_group_symop_operation_xyz
x,y,z
-x,1/2-y,z
x,-y,1/2-z
1/2-x,y,-z
1/2+x,1/2+y,1/2+z
1/2-x,-y,1/2+z
1/2+x,1/2-y,-z
-x,1/2+y,1/2-z
loop_
_atom_site_type_symbol
_atom_site_label
_atom_site_fract_x
_atom_site_fract_y
_atom_site_fract_z
Si Si1 0.363037 0.399164 0.208706
Si Si2 0.627972 0.215308 0.899526
Si Si3 0.753585 0.235631 0.688908
Si Si4 0.588799 0.500000 0.250000
Si Si5 0.000000 0.250000 0.302319
Si Si6 0.493839 0.349681 0.379184
Si Si7 0.187446 0.120804 0.905862
O O1 0.346069 0.500000 0.250000
O O2 0.304490 0.337694 0.258779
O O3 0.424551 0.380184 0.320267
O O4 0.377380 0.367748 0.024205
O O5 0.686391 0.209472 0.772435
O O6 0.562275 0.235746 0.806901
O O7 0.649948 0.300444 0.003169
O O8 0.750000 0.238130 0.500000
O O9 0.781961 0.329205 0.752229
O O10 0.544940 0.420959 0.318308
O O11 0.636900 0.544316 0.375869
O O12 0.002514 0.168165 0.430302
O O13 0.500000 0.250000 0.307153
O O14 0.250000 0.089086 0.000000
#
# Coordination Sequence:
#
# PCOD9335079 Si02
#       7
#     8   8   8   4   4   8   8
#     4  11  22  39  64  94 129 170 221 270 324 389
#     4  10  22  41  65  92 128 175 214 266 332 391
#     4  10  21  40  66  90 127 174 218 265 327 390
#     4  12  22  40  68  94 130 164 220 270 324 396
#     4  10  24  40  66  94 124 168 222 264 326 402
#     4  10  23  41  64  93 127 171 216 260 333 391
#     4   9  22  41  61  92 125 168 215 263 328 388
#
# _framework density 18.318702999999999
#
# number of rings (size 3 to 8) (size 9 to 14) (size 15 to 20)
#    0.500    1.333    0.833    4.500    5.833    2.000 
#    3.000    4.167    0.000    0.000    0.000    0.000 
#    0.000    0.000    0.000    0.000    0.000    0.000 
#
# Total GULP energy -133730.684073 kJ/mol
# GULP energy per Si atom -5572.111836 kJ/mol
# Density = 1.827701 g / cm^3
# Si number density = 18.318703 Si / 1000 Ang^3
#
#
#
# Elastic Constant Matrix: (Units=GPa)
#
#
# Indices 1 2 3 4 5 6 
#
# 1 155.9927 63.4746 64.6382 0.0000 0.0000 0.0000
# 2 63.4746 84.6305 43.4840 0.0000 0.0000 0.0000
# 3 64.6382 43.4840 126.3594 0.0000 0.0000 0.0000
# 4 0.0000 0.0000 0.0000 25.5751 0.0000 0.0000
# 5 0.0000 0.0000 0.0000 0.0000 20.9786 0.0000
# 6 0.0000 0.0000 0.0000 0.0000 0.0000 21.9167
#
#
#
# Elastic Compliance Matrix: (Units=1/GPa)
#
#
# Indices 1 2 3 4 5 6 
#
# 1 0.010150 -0.006007 -0.003125 0.000000 0.000000 0.000000
# 2 -0.006007 0.017909 -0.003090 0.000000 0.000000 0.000000
# 3 -0.003125 -0.003090 0.010576 0.000000 0.000000 0.000000
# 4 0.000000 0.000000 0.000000 0.039101 0.000000 0.000000
# 5 0.000000 0.000000 0.000000 0.000000 0.047668 0.000000
# 6 0.000000 0.000000 0.000000 0.000000 0.000000 0.045627
#
#
# Mechanical properties :
#
#
# Convention : Reuss Voigt Hill
#
# Bulk Modulus (GPa) = 70.46877 78.90847 74.68862
# Shear Modulus (GPa) = 24.97449 26.71980 25.84714
#
# Velocity S-wave (km/s) = 3.69634 3.82332 3.76036
# Velocity P-wave (km/s) = 7.53452 7.91576 7.72749
#
# Compressibility (1/GPa) = 0.01419068
#
# Stress axis : x y z
#
# Youngs Moduli (GPa) = 98.52590 55.83730 94.55475
#
# Poissons Ratio (x) = 0.33541 0.29547
# Poissons Ratio (y) = 0.59183 0.29220
# Poissons Ratio (z) = 0.30788 0.17255
#
# Static dielectric constant tensor:
#      x y z
#    x 1.590850 0.000000 0.000000 
#    y 0.000000 1.658070 0.000000 
#    z 0.000000 0.000000 1.660510 
# 
# From -- ./inp_files/15147.got.cif
#   From: 2010.05.17/outbox.cif.g08.bks.cpg/sg24_8_cif.got.tgz:15147.got - 2010.06.04 00:33:39.
