data_PCOD9335240
_publ_section_title
;
Structure prediction by ZEFSAII (Michael W. Deem and Ramdas Pophale) SiO2 
 PCOD9335240
Probable space group: I 21 21 21
;
_chemical_formula_sum "Si O2"
_cell_formula_units_Z 28
_cell_length_a 24.186831
_cell_length_b 5.021544
_cell_length_c 11.548344
_cell_angle_alpha 90.000000
_cell_angle_beta 90.000000
_cell_angle_gamma 90.000000
_cell_volume 1402.606847
_symmetry_space_group_name_H-M "I 21 21 21"
_symmetry_group_IT_number 24
_symmetry_cell_setting 'orthorhombic'
loop_
_space_group_symop_operation_xyz
x,y,z
-x,1/2-y,z
x,-y,1/2-z
1/2-x,y,-z
1/2+x,1/2+y,1/2+z
1/2-x,-y,1/2+z
1/2+x,1/2-y,-z
-x,1/2+y,1/2-z
loop_
_atom_site_type_symbol
_atom_site_label
_atom_site_fract_x
_atom_site_fract_y
_atom_site_fract_z
Si Si1 0.039327 0.995656 0.386777
Si Si2 0.727842 0.500000 0.750000
Si Si3 0.812478 0.922378 0.863418
Si Si4 0.660301 0.575875 0.519406
O O1 0.094881 0.933636 0.457285
O O2 0.000000 0.750000 0.405539
O O3 0.054700 0.000000 0.250000
O O4 0.000000 0.250000 0.411891
O O5 0.763518 0.750930 0.798504
O O6 0.690751 0.591114 0.642455
O O7 0.829697 0.703155 0.956101
O O8 0.848588 0.000000 0.750000
O O9 0.813525 0.193027 0.938807
#
# Coordination Sequence:
#
# PCOD9335240 Si02
#       4
#     8   4   8   8
#     4  10  21  43  69 102 133 166 221 292 355 405
#     4  12  28  42  68 104 140 186 234 280 340 416
#     4  12  27  44  64  97 144 186 231 271 333 415
#     4  12  26  44  71  99 140 181 225 288 346 408
#
# _framework density 19.96283
#
# number of rings (size 3 to 8) (size 9 to 14) (size 15 to 20)
#    0.000    0.571    4.286    2.571    8.000    0.000 
#    0.000    0.000    0.000   17.143    0.000    0.000 
#    0.000    0.000    0.000    0.000    0.000    0.000 
#
# Total GULP energy -77973.449998 kJ/mol
# GULP energy per Si atom -5569.532143 kJ/mol
# Density = 1.991739 g / cm^3
# Si number density = 19.962830 Si / 1000 Ang^3
#
#
#
# Elastic Constant Matrix: (Units=GPa)
#
#
# Indices 1 2 3 4 5 6 
#
# 1 74.5457 3.0694 27.1499 0.0000 0.0000 0.0000
# 2 3.0694 114.3889 8.9568 0.0000 0.0000 0.0000
# 3 27.1499 8.9568 126.2711 0.0000 0.0000 0.0000
# 4 0.0000 0.0000 0.0000 39.2625 0.0000 0.0000
# 5 0.0000 0.0000 0.0000 0.0000 -67.8552 0.0000
# 6 0.0000 0.0000 0.0000 0.0000 0.0000 -29.6069
#
#
#
# Elastic Compliance Matrix: (Units=1/GPa)
#
#
# Indices 1 2 3 4 5 6 
#
# 1 0.014557 -0.000146 -0.003120 0.000000 0.000000 0.000000
# 2 -0.000146 0.008792 -0.000592 0.000000 0.000000 0.000000
# 3 -0.003120 -0.000592 0.008632 0.000000 0.000000 0.000000
# 4 0.000000 0.000000 0.000000 0.025470 0.000000 0.000000
# 5 0.000000 0.000000 0.000000 0.000000 -0.014737 0.000000
# 6 0.000000 0.000000 0.000000 0.000000 0.000000 -0.033776
#
#
# Mechanical properties :
#
#
# Convention : Reuss Voigt Hill
#
# Bulk Modulus (GPa) = 41.21118 43.72866 42.46992
# Shear Modulus (GPa) = 202.08275 6.76205 104.42240
#
# Velocity S-wave (km/s) = 10.07220 1.84246 7.24030
# Velocity P-wave (km/s) = 12.48817 5.14576 9.55074
#
# Compressibility (1/GPa) = 0.02426526
#
# Stress axis : x y z
#
# Youngs Moduli (GPa) = 68.69665 113.73457 115.84515
#
# Poissons Ratio (x) = 0.01664 0.36138
# Poissons Ratio (y) = 0.01005 0.06860
# Poissons Ratio (z) = 0.21430 0.06736
#
# Static dielectric constant tensor:
#      x y z
#    x 1.692250 0.000000 0.000000 
#    y 0.000000 1.729470 0.000000 
#    z 0.000000 0.000000 1.737540 
# 
# From -- ./inp_files/21862.got.cif
#   From: 2010.05.17/outbox.cif.g08.bks.cpg/sg24_11_cif.got.tgz:21862.got - 2010.06.04 00:33:39.
