data_PCOD9335652
_publ_section_title
;
Structure prediction by ZEFSAII (Michael W. Deem and Ramdas Pophale) SiO2 
 PCOD9335652
Probable space group: I 21 21 21
;
_chemical_formula_sum "Si O2"
_cell_formula_units_Z 44
_cell_length_a 9.033526
_cell_length_b 10.833925
_cell_length_c 17.156404
_cell_angle_alpha 90.000000
_cell_angle_beta 90.000000
_cell_angle_gamma 90.000000
_cell_volume 1679.072266
_symmetry_space_group_name_H-M "I 21 21 21"
_symmetry_group_IT_number 24
_symmetry_cell_setting 'orthorhombic'
loop_
_space_group_symop_operation_xyz
x,y,z
-x,1/2-y,z
x,-y,1/2-z
1/2-x,y,-z
1/2+x,1/2+y,1/2+z
1/2-x,-y,1/2+z
1/2+x,1/2-y,-z
-x,1/2+y,1/2-z
loop_
_atom_site_type_symbol
_atom_site_label
_atom_site_fract_x
_atom_site_fract_y
_atom_site_fract_z
Si Si1 0.601039 0.869129 0.733297
Si Si2 0.685099 0.468542 0.913751
Si Si3 0.750000 0.865247 0.000000
Si Si4 0.635402 0.105104 0.935249
Si Si5 0.068087 0.878398 0.711882
Si Si6 0.756651 0.277379 0.642487
O O1 0.500000 0.750000 0.724461
O O2 0.693127 0.879826 0.653009
O O3 0.687639 0.836222 0.810865
O O4 0.523587 0.000000 0.750000
O O5 0.542107 0.379417 0.923177
O O6 0.808029 0.418401 0.852103
O O7 0.653996 0.608679 0.884389
O O8 0.750000 0.478664 0.000000
O O9 0.677311 0.780269 0.064891
O O10 0.863104 0.962272 0.037002
O O11 0.750000 0.162255 0.000000
O O12 0.141042 0.833021 0.791941
O O13 0.000000 0.750000 0.680126
O O14 0.985105 0.000000 0.750000
#
# Coordination Sequence:
#
# PCOD9335652 Si02
#       6
#     8   8   4   8   8   8
#     4  12  23  42  74 109 152 201 267 334 395 475
#     4  11  24  47  78 113 163 209 264 337 406 484
#     4  10  22  42  72 114 154 208 274 328 402 488
#     4  10  24  46  70 116 156 208 268 326 403 477
#     4  10  25  49  78 120 162 215 272 341 424 495
#     4  11  23  43  72 114 155 210 267 337 401 482
#
# _framework density 26.204947000000001
#
# number of rings (size 3 to 8) (size 9 to 14) (size 15 to 20)
#    0.545    0.727    2.727    2.182    0.000    6.545 
#    0.000    6.364    0.000    0.000    0.000    0.000 
#    0.000    0.000    0.000    0.000    0.000    0.000 
#
# Total GULP energy -122686.913149 kJ/mol
# GULP energy per Si atom -5576.677870 kJ/mol
# Density = 2.614530 g / cm^3
# Si number density = 26.204947 Si / 1000 Ang^3
#
#
#
# Elastic Constant Matrix: (Units=GPa)
#
#
# Indices 1 2 3 4 5 6 
#
# 1 72.0725 40.4750 37.7461 0.0000 0.0000 0.0000
# 2 40.4750 160.9033 53.0565 0.0000 0.0000 0.0000
# 3 37.7461 53.0565 193.5048 0.0000 0.0000 0.0000
# 4 0.0000 0.0000 0.0000 65.8819 0.0000 0.0000
# 5 0.0000 0.0000 0.0000 0.0000 -6.8035 0.0000
# 6 0.0000 0.0000 0.0000 0.0000 0.0000 32.4330
#
#
#
# Elastic Compliance Matrix: (Units=1/GPa)
#
#
# Indices 1 2 3 4 5 6 
#
# 1 0.017091 -0.003518 -0.002369 0.000000 0.000000 0.000000
# 2 -0.003518 0.007557 -0.001386 0.000000 0.000000 0.000000
# 3 -0.002369 -0.001386 0.006010 0.000000 0.000000 0.000000
# 4 0.000000 0.000000 0.000000 0.015179 0.000000 0.000000
# 5 0.000000 0.000000 0.000000 0.000000 -0.146984 0.000000
# 6 0.000000 0.000000 0.000000 0.000000 0.000000 0.030833
#
#
# Mechanical properties :
#
#
# Convention : Reuss Voigt Hill
#
# Bulk Modulus (GPa) = 62.06564 76.55953 69.31258
# Shear Modulus (GPa) = -99.21246 37.98249 -30.61499
#
# Velocity S-wave (km/s) = -6.15974 3.81128 -3.42173
# Velocity P-wave (km/s) = 5.18206 6.97473 3.30100
#
# Compressibility (1/GPa) = 0.01611198
#
# Stress axis : x y z
#
# Youngs Moduli (GPa) = 58.50863 132.33096 166.39052
#
# Poissons Ratio (x) = 0.46555 0.39424
# Poissons Ratio (y) = 0.20584 0.23057
# Poissons Ratio (z) = 0.13863 0.18337
#
# Static dielectric constant tensor:
#      x y z
#    x 2.229880 0.000000 0.000000 
#    y 0.000000 2.143490 0.000000 
#    z 0.000000 0.000000 2.004480 
# 
# From -- ./inp_files/14103.got.cif
#   From: 2010.05.17/outbox.cif.g08.bks.cpg/sg24_8_cif.got.tgz:14103.got - 2010.06.04 00:33:39.
