data_PCOD9335699
_publ_section_title
;
Structure prediction by ZEFSAII (Michael W. Deem and Ramdas Pophale) SiO2 
 PCOD9335699
Probable space group: I 21 21 21
;
_chemical_formula_sum "Si O2"
_cell_formula_units_Z 40
_cell_length_a 13.027516
_cell_length_b 13.697313
_cell_length_c 10.135195
_cell_angle_alpha 90.000000
_cell_angle_beta 90.000000
_cell_angle_gamma 90.000000
_cell_volume 1808.544104
_symmetry_space_group_name_H-M "I 21 21 21"
_symmetry_group_IT_number 24
_symmetry_cell_setting 'orthorhombic'
loop_
_space_group_symop_operation_xyz
x,y,z
-x,1/2-y,z
x,-y,1/2-z
1/2-x,y,-z
1/2+x,1/2+y,1/2+z
1/2-x,-y,1/2+z
1/2+x,1/2-y,-z
-x,1/2+y,1/2-z
loop_
_atom_site_type_symbol
_atom_site_label
_atom_site_fract_x
_atom_site_fract_y
_atom_site_fract_z
Si Si1 0.390226 0.461945 0.378681
Si Si2 0.881167 0.253906 0.679210
Si Si3 0.550604 0.486034 0.902375
Si Si4 0.750000 0.885962 0.500000
Si Si5 0.361755 0.203156 0.010700
Si Si6 0.750000 0.601226 0.000000
O O1 0.452139 0.500000 0.250000
O O2 0.345482 0.355431 0.353603
O O3 0.464147 0.467589 0.503882
O O4 0.302142 0.542191 0.397479
O O5 0.883652 0.276795 0.835593
O O6 0.809691 0.331264 0.606073
O O7 0.000000 0.250000 0.634166
O O8 0.525279 0.500000 0.750000
O O9 0.659211 0.539316 0.931931
O O10 0.562243 0.372022 0.943545
O O11 0.836144 0.809553 0.448551
O O12 0.250000 0.154159 0.000000
#
# Coordination Sequence:
#
# PCOD9335699 Si02
#       6
#     8   8   8   4   8   4
#     4  12  24  47  74 105 143 195 246 299 360 437
#     4  12  24  45  74 106 140 193 251 296 363 436
#     4  12  27  45  72 108 145 187 242 301 368 439
#     4  10  24  42  72 106 138 186 244 300 354 432
#     4  10  22  43  70 104 139 186 238 288 366 432
#     4  12  26  44  72 100 146 186 234 316 352 444
#
# _framework density 22.117239999999999
#
# number of rings (size 3 to 8) (size 9 to 14) (size 15 to 20)
#    0.600    0.000    5.000    3.000    0.000    0.800 
#    3.600    2.000    0.000    0.000    0.000    0.000 
#    0.000    0.000    0.000    0.000    0.000    0.000 
#
# Total GULP energy -111668.293988 kJ/mol
# GULP energy per Si atom -5583.414699 kJ/mol
# Density = 2.206690 g / cm^3
# Si number density = 22.117240 Si / 1000 Ang^3
#
#
#
# Elastic Constant Matrix: (Units=GPa)
#
#
# Indices 1 2 3 4 5 6 
#
# 1 92.6683 36.7366 44.9821 0.0000 0.0000 0.0000
# 2 36.7366 167.1998 64.3660 0.0000 0.0000 0.0000
# 3 44.9821 64.3660 160.8299 0.0000 0.0000 0.0000
# 4 0.0000 0.0000 0.0000 22.8536 0.0000 0.0000
# 5 0.0000 0.0000 0.0000 0.0000 31.7819 0.0000
# 6 0.0000 0.0000 0.0000 0.0000 0.0000-1483.9275
#
#
#
# Elastic Compliance Matrix: (Units=1/GPa)
#
#
# Indices 1 2 3 4 5 6 
#
# 1 0.012886 -0.001707 -0.002921 0.000000 0.000000 0.000000
# 2 -0.001707 0.007296 -0.002443 0.000000 0.000000 0.000000
# 3 -0.002921 -0.002443 0.008012 0.000000 0.000000 0.000000
# 4 0.000000 0.000000 0.000000 0.043757 0.000000 0.000000
# 5 0.000000 0.000000 0.000000 0.000000 0.031464 0.000000
# 6 0.000000 0.000000 0.000000 0.000000 0.000000 -0.000674
#
#
# Mechanical properties :
#
#
# Convention : Reuss Voigt Hill
#
# Bulk Modulus (GPa) = 71.15673 79.20749 75.18211
# Shear Modulus (GPa) = 41.12977 -267.55083 -113.21053
#
# Velocity S-wave (km/s) = 4.31702 -11.01054 -7.16224
# Velocity P-wave (km/s) = 7.55587 11.21393 5.85923
#
# Compressibility (1/GPa) = 0.01405349
#
# Stress axis : x y z
#
# Youngs Moduli (GPa) = 77.60587 137.05740 124.80853
#
# Poissons Ratio (x) = 0.23392 0.36455
# Poissons Ratio (y) = 0.13245 0.30487
# Poissons Ratio (z) = 0.22668 0.33479
#
# Static dielectric constant tensor:
#      x y z
#    x 1.851630 0.000000 0.000000 
#    y 0.000000 1.843410 0.000000 
#    z 0.000000 0.000000 1.878030 
# 
# From -- ./inp_files/12358.got.cif
#   From: 2010.05.17/outbox.cif.g08.bks.cpg/sg24_7_cif.got.tgz:12358.got - 2010.06.04 00:33:39.
