data_PCOD9335739
_publ_section_title
;
Structure prediction by ZEFSAII (Michael W. Deem and Ramdas Pophale) SiO2 
 PCOD9335739
Probable space group: I 21 21 21
;
_chemical_formula_sum "Si O2"
_cell_formula_units_Z 32
_cell_length_a 9.241596
_cell_length_b 10.361495
_cell_length_c 15.556351
_cell_angle_alpha 90.000000
_cell_angle_beta 90.000000
_cell_angle_gamma 90.000000
_cell_volume 1489.625625
_symmetry_space_group_name_H-M "I 21 21 21"
_symmetry_group_IT_number 24
_symmetry_cell_setting 'orthorhombic'
loop_
_space_group_symop_operation_xyz
x,y,z
-x,1/2-y,z
x,-y,1/2-z
1/2-x,y,-z
1/2+x,1/2+y,1/2+z
1/2-x,-y,1/2+z
1/2+x,1/2-y,-z
-x,1/2+y,1/2-z
loop_
_atom_site_type_symbol
_atom_site_label
_atom_site_fract_x
_atom_site_fract_y
_atom_site_fract_z
Si Si1 0.000000 0.250000 0.087372
Si Si2 0.500000 0.250000 0.616827
Si Si3 0.507817 0.400686 0.309904
Si Si4 0.076305 0.514304 0.996410
Si Si5 0.815883 0.356224 0.238459
O O1 0.870673 0.292658 0.151459
O O2 0.041961 0.372882 0.031728
O O3 0.512619 0.123913 0.558961
O O4 0.634180 0.269016 0.681635
O O5 0.500000 0.250000 0.335149
O O6 0.413712 0.500000 0.250000
O O7 0.495609 0.466740 0.403098
O O8 0.646415 0.379026 0.246354
O O9 0.250000 0.532810 0.000000
O O10 0.883906 0.500000 0.250000
#
# Coordination Sequence:
#
# PCOD9335739 Si02
#       5
#     4   4   8   8   8
#     4  11  26  46  73 106 142 190 249 312 358 445
#     4  11  22  44  69  98 140 178 237 292 358 439
#     4  11  26  45  69 102 142 191 232 300 370 440
#     4  12  27  45  71 108 140 190 244 307 367 443
#     4  10  22  44  70 100 137 187 232 287 371 434
#
# _framework density 21.481907
#
# number of rings (size 3 to 8) (size 9 to 14) (size 15 to 20)
#    0.000    1.000    3.750    1.500    5.250    2.000 
#    0.000    0.000    0.000    0.000    0.000    0.000 
#    0.000    0.000    0.000    0.000    0.000    0.000 
#
# Total GULP energy -89068.763979 kJ/mol
# GULP energy per Si atom -5566.797749 kJ/mol
# Density = 2.143301 g / cm^3
# Si number density = 21.481907 Si / 1000 Ang^3
#
#
#
# Elastic Constant Matrix: (Units=GPa)
#
#
# Indices 1 2 3 4 5 6 
#
# 1 42.4115 -7.5103 6.0767 0.0000 0.0000 0.0000
# 2 -7.5103 161.1704 79.6313 0.0000 0.0000 0.0000
# 3 6.0767 79.6313 146.2048 0.0000 0.0000 0.0000
# 4 0.0000 0.0000 0.0000 45.6896 0.0000 0.0000
# 5 0.0000 0.0000 0.0000 0.0000 -4.4044 0.0000
# 6 0.0000 0.0000 0.0000 0.0000 0.0000 -4.3378
#
#
#
# Elastic Compliance Matrix: (Units=1/GPa)
#
#
# Indices 1 2 3 4 5 6 
#
# 1 0.024292 0.002231 -0.002225 0.000000 0.000000 0.000000
# 2 0.002231 0.008694 -0.004828 0.000000 0.000000 0.000000
# 3 -0.002225 -0.004828 0.009562 0.000000 0.000000 0.000000
# 4 0.000000 0.000000 0.000000 0.021887 0.000000 0.000000
# 5 0.000000 0.000000 0.000000 0.000000 -0.227046 0.000000
# 6 0.000000 0.000000 0.000000 0.000000 0.000000 -0.230532
#
#
# Mechanical properties :
#
#
# Convention : Reuss Voigt Hill
#
# Bulk Modulus (GPa) = 30.39058 56.24247 43.31653
# Shear Modulus (GPa) = -13.42167 25.49543 6.03688
#
# Velocity S-wave (km/s) = -2.50229 3.44878 1.67819
# Velocity P-wave (km/s) = 2.41437 6.48822 4.89521
#
# Compressibility (1/GPa) = 0.03290493
#
# Stress axis : x y z
#
# Youngs Moduli (GPa) = 41.16511 115.02179 104.58298
#
# Poissons Ratio (x) = -0.25665 0.23269
# Poissons Ratio (y) = -0.09185 0.50492
# Poissons Ratio (z) = 0.09159 0.55532
#
# Static dielectric constant tensor:
#      x y z
#    x 2.105250 0.000000 0.000000 
#    y 0.000000 2.071260 0.000000 
#    z 0.000000 0.000000 1.749240 
# 
# From -- ./inp_files/10299.got.cif
#   From: 2010.05.17/outbox.cif.g08.bks.cpg/sg24_6_cif.got.tgz:10299.got - 2010.06.04 00:33:39.
