data_PCOD9335242
_publ_section_title
;
Structure prediction by ZEFSAII (Michael W. Deem and Ramdas Pophale) SiO2 
 PCOD9335242
Probable space group: I 21 21 21
;
_chemical_formula_sum "Si O2"
_cell_formula_units_Z 56
_cell_length_a 10.190245
_cell_length_b 16.565578
_cell_length_c 15.901495
_cell_angle_alpha 90.000000
_cell_angle_beta 90.000000
_cell_angle_gamma 90.000000
_cell_volume 2684.288411
_symmetry_space_group_name_H-M "I 21 21 21"
_symmetry_group_IT_number 24
_symmetry_cell_setting 'orthorhombic'
loop_
_space_group_symop_operation_xyz
x,y,z
-x,1/2-y,z
x,-y,1/2-z
1/2-x,y,-z
1/2+x,1/2+y,1/2+z
1/2-x,-y,1/2+z
1/2+x,1/2-y,-z
-x,1/2+y,1/2-z
loop_
_atom_site_type_symbol
_atom_site_label
_atom_site_fract_x
_atom_site_fract_y
_atom_site_fract_z
Si Si1 0.161537 0.491806 0.649691
Si Si2 0.500000 0.250000 0.210756
Si Si3 0.137086 0.357527 0.376120
Si Si4 0.637247 0.414463 0.706131
Si Si5 0.646216 0.248081 0.768370
Si Si6 0.083479 0.877447 0.853537
Si Si7 0.277949 0.671117 0.403786
Si Si8 0.500000 0.250000 0.489684
O O1 0.190596 0.500000 0.750000
O O2 0.266260 0.431437 0.608134
O O3 0.177341 0.579473 0.608974
O O4 0.019234 0.451034 0.640721
O O5 0.542211 0.324418 0.270937
O O6 0.381528 0.275051 0.148966
O O7 0.214341 0.303211 0.305597
O O8 0.101366 0.298364 0.451622
O O9 0.998888 0.394894 0.341943
O O10 0.625032 0.500000 0.750000
O O11 0.671263 0.342747 0.773030
O O12 0.768017 0.409475 0.649953
O O13 0.500000 0.250000 0.733180
O O14 0.648628 0.194266 0.850946
O O15 0.066674 0.816525 0.930794
O O16 0.250000 0.689926 0.500000
#
# Coordination Sequence:
#
# PCOD9335242 Si02
#       8
#     8   4   8   8   8   8   8   4
#     4  12  24  44  70 101 137 181 232 287 348 414
#     4  11  22  46  67  92 130 184 233 268 354 409
#     4  11  23  43  68 100 132 181 229 280 339 411
#     4  11  23  41  66  98 132 178 230 272 340 419
#     4  10  21  43  69  94 127 178 227 272 347 410
#     4  11  25  41  68 101 137 183 218 283 355 417
#     4  12  27  43  70 100 134 179 237 293 336 410
#     4  11  26  42  73 100 146 170 237 290 342 421
#
# _framework density 20.862141000000001
#
# number of rings (size 3 to 8) (size 9 to 14) (size 15 to 20)
#    0.000    0.857    6.429    0.857    7.000    1.714 
#    0.000    0.000    3.143    0.000    0.000    0.000 
#    0.000    0.000    0.000    0.000    0.000    0.000 
#
# Total GULP energy -156303.435593 kJ/mol
# GULP energy per Si atom -5582.265557 kJ/mol
# Density = 2.081466 g / cm^3
# Si number density = 20.862141 Si / 1000 Ang^3
#
#
#
# Elastic Constant Matrix: (Units=GPa)
#
#
# Indices 1 2 3 4 5 6 
#
# 1 61.8261 25.2679 5.2027 0.0000 0.0000 0.0000
# 2 25.2679 136.2187 40.4087 0.0000 0.0000 0.0000
# 3 5.2027 40.4087 119.7749 0.0000 0.0000 0.0000
# 4 0.0000 0.0000 0.0000 28.2545 0.0000 0.0000
# 5 0.0000 0.0000 0.0000 0.0000 19.5273 0.0000
# 6 0.0000 0.0000 0.0000 0.0000 0.0000 25.9465
#
#
#
# Elastic Compliance Matrix: (Units=1/GPa)
#
#
# Indices 1 2 3 4 5 6 
#
# 1 0.017516 -0.003360 0.000373 0.000000 0.000000 0.000000
# 2 -0.003360 0.008802 -0.002824 0.000000 0.000000 0.000000
# 3 0.000373 -0.002824 0.009285 0.000000 0.000000 0.000000
# 4 0.000000 0.000000 0.000000 0.035393 0.000000 0.000000
# 5 0.000000 0.000000 0.000000 0.000000 0.051210 0.000000
# 6 0.000000 0.000000 0.000000 0.000000 0.000000 0.038541
#
#
# Mechanical properties :
#
#
# Convention : Reuss Voigt Hill
#
# Bulk Modulus (GPa) = 41.69771 51.06426 46.38098
# Shear Modulus (GPa) = 27.72191 31.20835 29.46513
#
# Velocity S-wave (km/s) = 3.64924 3.87192 3.76223
# Velocity P-wave (km/s) = 6.14708 6.67227 6.41505
#
# Compressibility (1/GPa) = 0.02398213
#
# Stress axis : x y z
#
# Youngs Moduli (GPa) = 57.09030 113.61121 107.69580
#
# Poissons Ratio (x) = 0.38170 -0.04013
# Poissons Ratio (y) = 0.19181 0.30409
# Poissons Ratio (z) = -0.02127 0.32079
#
# Static dielectric constant tensor:
#      x y z
#    x 1.997300 0.000000 0.000000 
#    y 0.000000 1.772760 0.000000 
#    z 0.000000 0.000000 1.749350 
# 
# From -- ./inp_files/25852.got.cif
#   From: 2010.05.17/outbox.cif.g08.bks.cpg/sg24_13_cif.got.tgz:25852.got - 2010.06.04 00:33:39.
