data_PCOD9335262
_publ_section_title
;
Structure prediction by ZEFSAII (Michael W. Deem and Ramdas Pophale) SiO2 
 PCOD9335262
Probable space group: I 21 21 21
;
_chemical_formula_sum "Si O2"
_cell_formula_units_Z 40
_cell_length_a 9.654470
_cell_length_b 8.360842
_cell_length_c 20.572981
_cell_angle_alpha 90.000000
_cell_angle_beta 90.000000
_cell_angle_gamma 90.000000
_cell_volume 1660.640704
_symmetry_space_group_name_H-M "I 21 21 21"
_symmetry_group_IT_number 24
_symmetry_cell_setting 'orthorhombic'
loop_
_space_group_symop_operation_xyz
x,y,z
-x,1/2-y,z
x,-y,1/2-z
1/2-x,y,-z
1/2+x,1/2+y,1/2+z
1/2-x,-y,1/2+z
1/2+x,1/2-y,-z
-x,1/2+y,1/2-z
loop_
_atom_site_type_symbol
_atom_site_label
_atom_site_fract_x
_atom_site_fract_y
_atom_site_fract_z
Si Si1 0.000000 0.250000 0.077605
Si Si2 0.705497 0.000000 0.750000
Si Si3 0.792317 0.774427 0.639574
Si Si4 0.000000 0.250000 0.321059
Si Si5 0.000000 0.750000 0.875877
Si Si6 0.243340 0.063232 0.678156
Si Si7 0.898110 0.981244 0.526874
O O1 0.868971 0.248248 0.123661
O O2 0.986514 0.094343 0.031395
O O3 0.796887 0.094773 0.803334
O O4 0.603092 0.132596 0.718426
O O5 0.836573 0.594932 0.653686
O O6 0.857551 0.835774 0.573733
O O7 0.114472 0.131945 0.353752
O O8 0.129976 0.798228 0.831100
O O9 0.034717 0.609193 0.926228
O O10 0.283621 0.000000 0.750000
O O11 0.750000 0.044354 0.500000
#
# Coordination Sequence:
#
# PCOD9335262 Si02
#       7
#     4   4   8   4   4   8   8
#     4  10  21  44  69 103 134 192 253 310 372 444
#     4  12  20  38  68 106 142 182 246 300 368 450
#     4  11  23  41  72 103 141 194 242 307 370 449
#     4  12  21  40  67 100 144 185 239 288 344 460
#     4  12  28  46  70 107 148 195 246 316 384 434
#     4  12  26  45  68 108 147 193 236 300 379 454
#     4  10  24  45  70  99 141 193 253 303 370 448
#
# _framework density 24.087088999999999
#
# number of rings (size 3 to 8) (size 9 to 14) (size 15 to 20)
#    0.000    0.800    3.000    4.200    0.000    4.800 
#    1.800    4.000    0.000    0.000    0.000    0.000 
#    0.000    0.000    0.000    0.000    0.000    0.000 
#
# Total GULP energy -111778.563859 kJ/mol
# GULP energy per Si atom -5588.928193 kJ/mol
# Density = 2.403227 g / cm^3
# Si number density = 24.087089 Si / 1000 Ang^3
#
#
#
# Elastic Constant Matrix: (Units=GPa)
#
#
# Indices 1 2 3 4 5 6 
#
# 1 94.4187 13.6371 28.4472 0.0000 0.0000 0.0000
# 2 13.6371 103.8159 23.0104 0.0000 0.0000 0.0000
# 3 28.4472 23.0104 67.3942 0.0000 0.0000 0.0000
# 4 0.0000 0.0000 0.0000 -288.1127 0.0000 0.0000
# 5 0.0000 0.0000 0.0000 0.0000 52.8088 0.0000
# 6 0.0000 0.0000 0.0000 0.0000 0.0000 13.9740
#
#
#
# Elastic Compliance Matrix: (Units=1/GPa)
#
#
# Indices 1 2 3 4 5 6 
#
# 1 0.012158 -0.000497 -0.004962 0.000000 0.000000 0.000000
# 2 -0.000497 0.010441 -0.003355 0.000000 0.000000 0.000000
# 3 -0.004962 -0.003355 0.018078 0.000000 0.000000 0.000000
# 4 0.000000 0.000000 0.000000 -0.003471 0.000000 0.000000
# 5 0.000000 0.000000 0.000000 0.000000 0.018936 0.000000
# 6 0.000000 0.000000 0.000000 0.000000 0.000000 0.071561
#
#
# Mechanical properties :
#
#
# Convention : Reuss Voigt Hill
#
# Bulk Modulus (GPa) = 43.38668 43.97980 43.68324
# Shear Modulus (GPa) = 32.67628 -30.89704 0.88962
#
# Velocity S-wave (km/s) = 3.68719 -3.58540 0.60839
# Velocity P-wave (km/s) = 6.01487 1.07620 4.32070
#
# Compressibility (1/GPa) = 0.02304855
#
# Stress axis : x y z
#
# Youngs Moduli (GPa) = 82.25064 95.77254 55.31540
#
# Poissons Ratio (x) = 0.04762 0.27448
# Poissons Ratio (y) = 0.04090 0.18559
# Poissons Ratio (z) = 0.40814 0.32133
#
# Static dielectric constant tensor:
#      x y z
#    x 13.056110 0.000000 0.000000 
#    y 0.000000 1.993350 0.000000 
#    z 0.000000 0.000000 1.869730 
# 
# From -- ./inp_files/35059.got.cif
#   From: 2010.05.17/outbox.cif.g08.bks.cpg/sg24_18_cif.got.tgz:35059.got - 2010.06.04 00:33:39.
