data_PCOD9335809
_publ_section_title
;
Structure prediction by ZEFSAII (Michael W. Deem and Ramdas Pophale) SiO2 
 PCOD9335809
Probable space group: I 21 21 21
;
_chemical_formula_sum "Si O2"
_cell_formula_units_Z 32
_cell_length_a 7.370075
_cell_length_b 5.543896
_cell_length_c 30.407450
_cell_angle_alpha 90.000000
_cell_angle_beta 90.000000
_cell_angle_gamma 90.000000
_cell_volume 1242.415850
_symmetry_space_group_name_H-M "I 21 21 21"
_symmetry_group_IT_number 24
_symmetry_cell_setting 'orthorhombic'
loop_
_space_group_symop_operation_xyz
x,y,z
-x,1/2-y,z
x,-y,1/2-z
1/2-x,y,-z
1/2+x,1/2+y,1/2+z
1/2-x,-y,1/2+z
1/2+x,1/2-y,-z
-x,1/2+y,1/2-z
loop_
_atom_site_type_symbol
_atom_site_label
_atom_site_fract_x
_atom_site_fract_y
_atom_site_fract_z
Si Si1 0.500000 0.250000 0.352087
Si Si2 0.750000 0.624064 0.500000
Si Si3 0.000000 0.250000 0.145116
Si Si4 0.000000 0.750000 0.049605
Si Si5 0.680837 0.866077 0.790677
Si Si6 0.788915 0.900471 0.587938
O O1 0.327338 0.218073 0.319160
O O2 0.448618 0.477620 0.383541
O O3 0.904641 0.449724 0.480733
O O4 0.816127 0.789423 0.540114
O O5 0.084514 0.456072 0.174927
O O6 0.171220 0.200287 0.113855
O O7 0.150785 0.621539 0.079143
O O8 0.500000 0.750000 0.769994
O O9 0.777062 0.000000 0.750000
#
# Coordination Sequence:
#
# PCOD9335809 Si02
#       6
#     4   4   4   4   8   8
#     4  10  28  47  80 124 160 208 278 334 400 505
#     4  12  26  48  76 110 160 222 278 332 408 466
#     4  10  22  46  77 108 152 206 252 325 412 474
#     4  12  26  45  75 108 154 218 278 327 406 471
#     4  11  24  49  80 118 158 208 260 336 414 493
#     4  11  25  49  74 115 164 214 267 337 401 476
#
# _framework density 25.756269
#
# number of rings (size 3 to 8) (size 9 to 14) (size 15 to 20)
#    0.000    1.000    3.750    0.750    7.000    7.000 
#    0.000   11.250    0.000    0.000    0.000    0.000 
#    0.000    0.000    0.000    0.000    0.000    0.000 
#
# Total GULP energy -89544.092286 kJ/mol
# GULP energy per Si atom -5596.505768 kJ/mol
# Density = 2.569765 g / cm^3
# Si number density = 25.756269 Si / 1000 Ang^3
#
#
#
# Elastic Constant Matrix: (Units=GPa)
#
#
# Indices 1 2 3 4 5 6 
#
# 1 176.4660 60.6670 72.5745 0.0000 0.0000 0.0000
# 2 60.6670 89.0546 57.2925 0.0000 0.0000 0.0000
# 3 72.5745 57.2925 189.0323 0.0000 0.0000 0.0000
# 4 0.0000 0.0000 0.0000 -9.2346 0.0000 0.0000
# 5 0.0000 0.0000 0.0000 0.0000 19.1194 0.0000
# 6 0.0000 0.0000 0.0000 0.0000 0.0000 55.4751
#
#
#
# Elastic Compliance Matrix: (Units=1/GPa)
#
#
# Indices 1 2 3 4 5 6 
#
# 1 0.007828 -0.004223 -0.001726 0.000000 0.000000 0.000000
# 2 -0.004223 0.016227 -0.003297 0.000000 0.000000 0.000000
# 3 -0.001726 -0.003297 0.006952 0.000000 0.000000 0.000000
# 4 0.000000 0.000000 0.000000 -0.108288 0.000000 0.000000
# 5 0.000000 0.000000 0.000000 0.000000 0.052303 0.000000
# 6 0.000000 0.000000 0.000000 0.000000 0.000000 0.018026
#
#
# Mechanical properties :
#
#
# Convention : Reuss Voigt Hill
#
# Bulk Modulus (GPa) = 79.89491 92.84675 86.37083
# Shear Modulus (GPa) = 318.27108 30.67325 174.47217
#
# Velocity S-wave (km/s) = 11.12828 3.45469 8.23934
# Velocity P-wave (km/s) = 14.00732 7.21385 11.14102
#
# Compressibility (1/GPa) = 0.01251644
#
# Stress axis : x y z
#
# Youngs Moduli (GPa) = 127.74303 61.62691 143.84690
#
# Poissons Ratio (x) = 0.26023 0.24823
# Poissons Ratio (y) = 0.53942 0.47424
# Poissons Ratio (z) = 0.22044 0.20317
#
# Static dielectric constant tensor:
#      x y z
#    x 2.103620 0.000000 0.000000 
#    y 0.000000 2.195990 0.000000 
#    z 0.000000 0.000000 2.035910 
# 
# From -- ./inp_files/38113.got.cif
#   From: 2010.05.17/outbox.cif.g08.bks.cpg/sg24_20_cif.got.tgz:38113.got - 2010.06.04 00:33:39.
