data_PCOD9335293
_publ_section_title
;
Structure prediction by ZEFSAII (Michael W. Deem and Ramdas Pophale) SiO2 
 PCOD9335293
Probable space group: I 21 21 21
;
_chemical_formula_sum "Si O2"
_cell_formula_units_Z 52
_cell_length_a 7.814086
_cell_length_b 12.831327
_cell_length_c 19.952606
_cell_angle_alpha 90.000000
_cell_angle_beta 90.000000
_cell_angle_gamma 90.000000
_cell_volume 2000.549890
_symmetry_space_group_name_H-M "I 21 21 21"
_symmetry_group_IT_number 24
_symmetry_cell_setting 'orthorhombic'
loop_
_space_group_symop_operation_xyz
x,y,z
-x,1/2-y,z
x,-y,1/2-z
1/2-x,y,-z
1/2+x,1/2+y,1/2+z
1/2-x,-y,1/2+z
1/2+x,1/2-y,-z
-x,1/2+y,1/2-z
loop_
_atom_site_type_symbol
_atom_site_label
_atom_site_fract_x
_atom_site_fract_y
_atom_site_fract_z
Si Si1 0.250000 0.784900 0.500000
Si Si2 0.600922 0.432216 0.336631
Si Si3 0.129492 0.345695 0.439053
Si Si4 0.435633 0.994672 0.479015
Si Si5 0.986370 0.541530 0.174009
Si Si6 0.387107 0.660694 0.631343
Si Si7 0.547738 0.137950 0.208395
O O1 0.312043 0.713810 0.562987
O O2 0.400000 0.869139 0.477617
O O3 0.527500 0.445481 0.410200
O O4 0.478340 0.367761 0.288006
O O5 0.588793 0.552401 0.313323
O O6 0.800265 0.403260 0.332624
O O7 0.250000 0.307296 0.500000
O O8 0.130159 0.385409 0.360695
O O9 0.000000 0.250000 0.435094
O O10 0.071043 0.455677 0.472062
O O11 0.250000 0.035117 0.500000
O O12 0.008317 0.500000 0.250000
O O13 0.980194 0.434619 0.130187
O O14 0.500000 0.750000 0.665937
O O15 0.231029 0.617861 0.675926
O O16 0.500000 0.250000 0.182530
#
# Coordination Sequence:
#
# PCOD9335293 Si02
#       7
#     4   8   8   8   8   8   8
#     4  10  24  48  82 118 164 218 262 356 432 504
#     4  11  24  49  76 110 159 215 270 331 422 493
#     4  12  29  51  79 121 158 221 292 348 422 516
#     4  10  21  46  81 108 159 208 261 347 422 488
#     4  12  27  51  80 112 172 219 269 359 428 506
#     4  12  27  46  79 123 164 213 278 346 434 510
#     4  11  25  44  74 112 156 214 271 328 400 511
#
# _framework density 25.992853
#
# number of rings (size 3 to 8) (size 9 to 14) (size 15 to 20)
#    0.462    0.308    3.077    4.154    5.385    3.077 
#    0.000    0.000    0.000    0.000    0.000    0.000 
#    0.000    0.000    0.000    0.000    0.000    0.000 
#
# Total GULP energy -144902.808112 kJ/mol
# GULP energy per Si atom -5573.184927 kJ/mol
# Density = 2.593369 g / cm^3
# Si number density = 25.992853 Si / 1000 Ang^3
#
#
#
# Elastic Constant Matrix: (Units=GPa)
#
#
# Indices 1 2 3 4 5 6 
#
# 1 102.6606 9.2580 32.2619 0.0000 0.0000 0.0000
# 2 9.2580 68.7021 18.5758 0.0000 0.0000 0.0000
# 3 32.2619 18.5758 156.0718 0.0000 0.0000 0.0000
# 4 0.0000 0.0000 0.0000 -28.4019 0.0000 0.0000
# 5 0.0000 0.0000 0.0000 0.0000 19.8993 0.0000
# 6 0.0000 0.0000 0.0000 0.0000 0.0000 37.7856
#
#
#
# Elastic Compliance Matrix: (Units=1/GPa)
#
#
# Indices 1 2 3 4 5 6 
#
# 1 0.010466 -0.000853 -0.002062 0.000000 0.000000 0.000000
# 2 -0.000853 0.015109 -0.001622 0.000000 0.000000 0.000000
# 3 -0.002062 -0.001622 0.007027 0.000000 0.000000 0.000000
# 4 0.000000 0.000000 0.000000 -0.035209 0.000000 0.000000
# 5 0.000000 0.000000 0.000000 0.000000 0.050253 0.000000
# 6 0.000000 0.000000 0.000000 0.000000 0.000000 0.026465
#
#
# Mechanical properties :
#
#
# Convention : Reuss Voigt Hill
#
# Bulk Modulus (GPa) = 42.50263 49.73620 46.11942
# Shear Modulus (GPa) = 54.92897 23.67918 39.30408
#
# Velocity S-wave (km/s) = 4.60198 3.02153 3.89281
# Velocity P-wave (km/s) = 6.68018 5.59902 6.16335
#
# Compressibility (1/GPa) = 0.02352796
#
# Stress axis : x y z
#
# Youngs Moduli (GPa) = 95.55016 66.18532 142.31681
#
# Poissons Ratio (x) = 0.05644 0.29344
# Poissons Ratio (y) = 0.08149 0.23084
# Poissons Ratio (z) = 0.19701 0.10735
#
# Static dielectric constant tensor:
#      x y z
#    x 2.142640 0.000000 0.000000 
#    y 0.000000 2.006030 0.000000 
#    z 0.000000 0.000000 2.291060 
# 
# From -- ./inp_files/32793.got.cif
#   From: 2010.05.17/outbox.cif.g08.bks.cpg/sg24_17_cif.got.tgz:32793.got - 2010.06.04 00:33:39.
