data_PCOD9335413
_publ_section_title
;
Structure prediction by ZEFSAII (Michael W. Deem and Ramdas Pophale) SiO2 
 PCOD9335413
Probable space group: I 21 21 21
;
_chemical_formula_sum "Si O2"
_cell_formula_units_Z 48
_cell_length_a 9.181732
_cell_length_b 13.490499
_cell_length_c 17.355090
_cell_angle_alpha 90.000000
_cell_angle_beta 90.000000
_cell_angle_gamma 90.000000
_cell_volume 2149.708118
_symmetry_space_group_name_H-M "I 21 21 21"
_symmetry_group_IT_number 24
_symmetry_cell_setting 'orthorhombic'
loop_
_space_group_symop_operation_xyz
x,y,z
-x,1/2-y,z
x,-y,1/2-z
1/2-x,y,-z
1/2+x,1/2+y,1/2+z
1/2-x,-y,1/2+z
1/2+x,1/2-y,-z
-x,1/2+y,1/2-z
loop_
_atom_site_type_symbol
_atom_site_label
_atom_site_fract_x
_atom_site_fract_y
_atom_site_fract_z
Si Si1 0.000000 0.750000 0.580602
Si Si2 0.355225 0.106040 0.425276
Si Si3 0.750000 0.881600 0.500000
Si Si4 0.050115 0.437013 0.138258
Si Si5 0.670792 0.832723 0.081834
Si Si6 0.238310 0.103515 0.906135
Si Si7 0.580754 0.856566 0.802899
O O1 0.885113 0.816890 0.532715
O O2 0.886518 0.677470 0.622749
O O3 0.250000 0.106142 0.500000
O O4 0.528819 0.102413 0.437119
O O5 0.347399 0.217123 0.393836
O O6 0.310400 0.006741 0.382438
O O7 0.669492 0.937561 0.570338
O O8 0.108285 0.382911 0.214324
O O9 0.997784 0.548702 0.160125
O O10 0.902719 0.377701 0.118731
O O11 0.769770 0.867945 0.150937
O O12 0.750000 0.828515 0.000000
O O13 0.250000 0.107640 0.000000
O O14 0.500000 0.750000 0.813773
#
# Coordination Sequence:
#
# PCOD9335413 Si02
#       7
#     4   8   4   8   8   8   8
#     4  12  24  38  70 108 132 182 252 310 368 418
#     4   9  21  38  64 102 144 178 234 299 352 435
#     4  12  24  46  74 106 140 188 256 312 370 452
#     4  11  27  47  74 105 150 194 248 308 376 448
#     4  10  22  38  69 106 138 191 242 291 362 445
#     4  11  22  40  66 100 133 185 240 303 362 431
#     4  11  27  45  73 107 152 199 239 303 378 450
#
# _framework density 22.328610999999999
#
# number of rings (size 3 to 8) (size 9 to 14) (size 15 to 20)
#    0.000    1.333    2.500    1.000   16.333    0.000 
#    0.000    1.667    7.333    0.000    0.000    0.000 
#    0.000    0.000    0.000    0.000    0.000    0.000 
#
# Total GULP energy -133766.847422 kJ/mol
# GULP energy per Si atom -5573.618643 kJ/mol
# Density = 2.227779 g / cm^3
# Si number density = 22.328611 Si / 1000 Ang^3
#
#
#
# Elastic Constant Matrix: (Units=GPa)
#
#
# Indices 1 2 3 4 5 6 
#
# 1 153.1021 57.3737 61.7928 0.0000 0.0000 0.0000
# 2 57.3737 107.6264 39.7651 0.0000 0.0000 0.0000
# 3 61.7928 39.7651 92.5971 0.0000 0.0000 0.0000
# 4 0.0000 0.0000 0.0000 5.4831 0.0000 0.0000
# 5 0.0000 0.0000 0.0000 0.0000 27.5792 0.0000
# 6 0.0000 0.0000 0.0000 0.0000 0.0000 25.4316
#
#
#
# Elastic Compliance Matrix: (Units=1/GPa)
#
#
# Indices 1 2 3 4 5 6 
#
# 1 0.009865 -0.003360 -0.005141 0.000000 0.000000 0.000000
# 2 -0.003360 0.012188 -0.002992 0.000000 0.000000 0.000000
# 3 -0.005141 -0.002992 0.015515 0.000000 0.000000 0.000000
# 4 0.000000 0.000000 0.000000 0.182379 0.000000 0.000000
# 5 0.000000 0.000000 0.000000 0.000000 0.036259 0.000000
# 6 0.000000 0.000000 0.000000 0.000000 0.000000 0.039321
#
#
# Mechanical properties :
#
#
# Convention : Reuss Voigt Hill
#
# Bulk Modulus (GPa) = 68.57082 74.57651 71.57367
# Shear Modulus (GPa) = 15.46198 24.65836 20.06017
#
# Velocity S-wave (km/s) = 2.63434 3.32677 3.00059
# Velocity P-wave (km/s) = 6.32689 6.94468 6.64297
#
# Compressibility (1/GPa) = 0.01458346
#
# Stress axis : x y z
#
# Youngs Moduli (GPa) = 101.36417 82.04887 64.45432
#
# Poissons Ratio (x) = 0.27566 0.33134
# Poissons Ratio (y) = 0.34056 0.19284
# Poissons Ratio (z) = 0.52108 0.24548
#
# Static dielectric constant tensor:
#      x y z
#    x 1.850760 0.000000 0.000000 
#    y 0.000000 1.938050 0.000000 
#    z 0.000000 0.000000 1.810690 
# 
# From -- ./inp_files/29529.got.cif
#   From: 2010.05.17/outbox.cif.g08.bks.cpg/sg24_15_cif.got.tgz:29529.got - 2010.06.04 00:33:39.
