data_PCOD9335135
_publ_section_title
;
Structure prediction by ZEFSAII (Michael W. Deem and Ramdas Pophale) SiO2 
 PCOD9335135
Probable space group: I 21 21 21
;
_chemical_formula_sum "Si O2"
_cell_formula_units_Z 32
_cell_length_a 5.068036
_cell_length_b 20.785459
_cell_length_c 10.703745
_cell_angle_alpha 90.000000
_cell_angle_beta 90.000000
_cell_angle_gamma 90.000000
_cell_volume 1127.548067
_symmetry_space_group_name_H-M "I 21 21 21"
_symmetry_group_IT_number 24
_symmetry_cell_setting 'orthorhombic'
loop_
_space_group_symop_operation_xyz
x,y,z
-x,1/2-y,z
x,-y,1/2-z
1/2-x,y,-z
1/2+x,1/2+y,1/2+z
1/2-x,-y,1/2+z
1/2+x,1/2-y,-z
-x,1/2+y,1/2-z
loop_
_atom_site_type_symbol
_atom_site_label
_atom_site_fract_x
_atom_site_fract_y
_atom_site_fract_z
Si Si1 0.421325 0.174743 0.403706
Si Si2 0.928584 0.000000 0.250000
Si Si3 0.250000 0.567703 0.500000
Si Si4 0.016254 0.321721 0.868070
Si Si5 0.535071 0.861695 0.803649
O O1 0.500000 0.250000 0.398149
O O2 0.303935 0.170711 0.247275
O O3 0.407210 0.167687 0.566318
O O4 0.662115 0.127222 0.372023
O O5 0.788388 0.025681 0.123950
O O6 0.072353 0.065296 0.290060
O O7 0.018706 0.617864 0.540197
O O8 0.310987 0.325423 0.808037
O O9 0.000000 0.250000 0.920223
#
# Coordination Sequence:
#
# PCOD9335135 Si02
#       5
#     8   4   4   8   8
#     4  10  21  41  66 104 145 193 247 304 384 444
#     4  10  22  42  74 104 152 190 266 312 378 464
#     4  10  22  46  76 112 150 214 254 328 394 456
#     4   9  22  45  67 104 152 198 257 313 383 464
#     4   9  22  40  65 102 141 191 246 310 375 436
#
# _framework density 28.380161000000001
#
# number of rings (size 3 to 8) (size 9 to 14) (size 15 to 20)
#    1.500    1.000    0.000    0.750    3.500    2.000 
#   13.500    0.000    0.000    0.000    0.000    0.000 
#    0.000    0.000    0.000    0.000    0.000    0.000 
#
# Total GULP energy -89157.599161 kJ/mol
# GULP energy per Si atom -5572.349948 kJ/mol
# Density = 2.831557 g / cm^3
# Si number density = 28.380161 Si / 1000 Ang^3
#
#
#
# Elastic Constant Matrix: (Units=GPa)
#
#
# Indices 1 2 3 4 5 6 
#
# 1 189.7126 35.4657 50.6095 0.0000 0.0000 0.0000
# 2 35.4657 271.1467 64.9369 0.0000 0.0000 0.0000
# 3 50.6095 64.9369 224.8896 0.0000 0.0000 0.0000
# 4 0.0000 0.0000 0.0000 40.7543 0.0000 0.0000
# 5 0.0000 0.0000 0.0000 0.0000 70.8028 0.0000
# 6 0.0000 0.0000 0.0000 0.0000 0.0000 20.1722
#
#
#
# Elastic Compliance Matrix: (Units=1/GPa)
#
#
# Indices 1 2 3 4 5 6 
#
# 1 0.005662 -0.000468 -0.001139 0.000000 0.000000 0.000000
# 2 -0.000468 0.004001 -0.001050 0.000000 0.000000 0.000000
# 3 -0.001139 -0.001050 0.005006 0.000000 0.000000 0.000000
# 4 0.000000 0.000000 0.000000 0.024537 0.000000 0.000000
# 5 0.000000 0.000000 0.000000 0.000000 0.014124 0.000000
# 6 0.000000 0.000000 0.000000 0.000000 0.000000 0.049573
#
#
# Mechanical properties :
#
#
# Convention : Reuss Voigt Hill
#
# Bulk Modulus (GPa) = 106.88977 109.75257 108.32117
# Shear Modulus (GPa) = 44.90914 61.99497 53.45205
#
# Velocity S-wave (km/s) = 3.98227 4.67888 4.34456
# Velocity P-wave (km/s) = 7.67398 8.24290 7.96352
#
# Compressibility (1/GPa) = 0.00935543
#
# Stress axis : x y z
#
# Youngs Moduli (GPa) = 176.60058 249.95782 199.75388
#
# Poissons Ratio (x) = 0.11693 0.22756
# Poissons Ratio (y) = 0.08262 0.20972
# Poissons Ratio (z) = 0.20119 0.26243
#
# Static dielectric constant tensor:
#      x y z
#    x 2.901000 0.000000 0.000000 
#    y 0.000000 2.004270 0.000000 
#    z 0.000000 0.000000 2.565590 
# 
# From -- ./inp_files/19519.got.cif
#   From: 2010.05.17/outbox.cif.g08.bks.cpg/sg24_10_cif.got.tgz:19519.got - 2010.06.04 00:33:39.
