data_PCOD9335832
_publ_section_title
;
Structure prediction by ZEFSAII (Michael W. Deem and Ramdas Pophale) SiO2 
 PCOD9335832
Probable space group: I 21 21 21
;
_chemical_formula_sum "Si O2"
_cell_formula_units_Z 60
_cell_length_a 10.871430
_cell_length_b 12.130820
_cell_length_c 19.066529
_cell_angle_alpha 90.000000
_cell_angle_beta 90.000000
_cell_angle_gamma 90.000000
_cell_volume 2514.481651
_symmetry_space_group_name_H-M "I 21 21 21"
_symmetry_group_IT_number 24
_symmetry_cell_setting 'orthorhombic'
loop_
_space_group_symop_operation_xyz
x,y,z
-x,1/2-y,z
x,-y,1/2-z
1/2-x,y,-z
1/2+x,1/2+y,1/2+z
1/2-x,-y,1/2+z
1/2+x,1/2-y,-z
-x,1/2+y,1/2-z
loop_
_atom_site_type_symbol
_atom_site_label
_atom_site_fract_x
_atom_site_fract_y
_atom_site_fract_z
Si Si1 0.250000 0.744084 0.000000
Si Si2 0.746202 0.823766 0.623785
Si Si3 0.992480 0.598955 0.648270
Si Si4 0.081550 0.891287 0.104169
Si Si5 0.798625 0.917847 0.109401
Si Si6 0.540351 0.363098 0.310953
Si Si7 0.703465 0.736805 0.780132
Si Si8 0.774715 0.395000 0.077950
O O1 0.340631 0.823846 0.954954
O O2 0.210884 0.653505 0.941514
O O3 0.708498 0.769731 0.698958
O O4 0.685335 0.732893 0.573469
O O5 0.894715 0.836401 0.614249
O O6 0.709755 0.950948 0.615103
O O7 0.006183 0.467224 0.647111
O O8 0.005334 0.628001 0.730716
O O9 0.854774 0.611261 0.619424
O O10 0.096538 0.828848 0.179053
O O11 0.938883 0.894994 0.085074
O O12 0.134493 0.015352 0.110824
O O13 0.781291 0.855194 0.182722
O O14 0.500000 0.250000 0.344364
O O15 0.685293 0.346951 0.299600
O O16 0.750000 0.435588 0.000000
#
# Coordination Sequence:
#
# PCOD9335832 Si02
#       8
#     4   8   8   8   8   8   8   8
#     4  10  22  50  78  98 134 194 248 304 340 410
#     4  12  26  47  71 110 152 189 240 301 377 444
#     4  11  23  42  68 103 145 183 235 307 356 432
#     4  11  25  51  74 106 148 193 252 299 358 444
#     4  11  27  47  74 108 152 189 241 307 360 445
#     4  11  19  35  70 106 138 176 223 299 372 419
#     4  11  21  44  73 106 145 181 237 298 371 431
#     4  12  26  47  72 100 144 199 250 299 362 442
#
# _framework density 23.861777
#
# number of rings (size 3 to 8) (size 9 to 14) (size 15 to 20)
#    0.000    0.800    4.667    3.200    2.800    2.133 
#   12.000    2.667    0.000    0.000    0.000    0.000 
#    0.000    0.000    0.000    0.000    0.000    0.000 
#
# Total GULP energy -167368.940470 kJ/mol
# GULP energy per Si atom -5578.964682 kJ/mol
# Density = 2.380747 g / cm^3
# Si number density = 23.861777 Si / 1000 Ang^3
#
#
#
# Elastic Constant Matrix: (Units=GPa)
#
#
# Indices 1 2 3 4 5 6 
#
# 1 68.9445 27.6602 16.4663 0.0000 0.0000 0.0000
# 2 27.6602 196.9129 20.4270 0.0000 0.0000 0.0000
# 3 16.4663 20.4270 61.7952 0.0000 0.0000 0.0000
# 4 0.0000 0.0000 0.0000 22.5449 0.0000 0.0000
# 5 0.0000 0.0000 0.0000 0.0000 14.3318 0.0000
# 6 0.0000 0.0000 0.0000 0.0000 0.0000 40.6550
#
#
#
# Elastic Compliance Matrix: (Units=1/GPa)
#
#
# Indices 1 2 3 4 5 6 
#
# 1 0.016139 -0.001886 -0.003677 0.000000 0.000000 0.000000
# 2 -0.001886 0.005479 -0.001309 0.000000 0.000000 0.000000
# 3 -0.003677 -0.001309 0.017595 0.000000 0.000000 0.000000
# 4 0.000000 0.000000 0.000000 0.044356 0.000000 0.000000
# 5 0.000000 0.000000 0.000000 0.000000 0.069775 0.000000
# 6 0.000000 0.000000 0.000000 0.000000 0.000000 0.024597
#
#
# Mechanical properties :
#
#
# Convention : Reuss Voigt Hill
#
# Bulk Modulus (GPa) = 39.26175 50.75106 45.00640
# Shear Modulus (GPa) = 24.97828 33.04630 29.01229
#
# Velocity S-wave (km/s) = 3.23892 3.72547 3.49068
# Velocity P-wave (km/s) = 5.52060 6.31034 5.92864
#
# Compressibility (1/GPa) = 0.02547009
#
# Stress axis : x y z
#
# Youngs Moduli (GPa) = 61.96113 182.51466 56.83455
#
# Poissons Ratio (x) = 0.34415 0.20899
# Poissons Ratio (y) = 0.11683 0.07438
# Poissons Ratio (z) = 0.22784 0.23886
#
# Static dielectric constant tensor:
#      x y z
#    x 2.058090 0.000000 0.000000 
#    y 0.000000 1.974700 0.000000 
#    z 0.000000 0.000000 2.018120 
# 
# From -- ./inp_files/33440.got.cif
#   From: 2010.05.17/outbox.cif.g08.bks.cpg/sg24_17_cif.got.tgz:33440.got - 2010.06.04 00:33:39.
