data_PCOD9335301
_publ_section_title
;
Structure prediction by ZEFSAII (Michael W. Deem and Ramdas Pophale) SiO2 
 PCOD9335301
Probable space group: I 21 21 21
;
_chemical_formula_sum "Si O2"
_cell_formula_units_Z 36
_cell_length_a 9.019398
_cell_length_b 22.733835
_cell_length_c 8.548887
_cell_angle_alpha 90.000000
_cell_angle_beta 90.000000
_cell_angle_gamma 90.000000
_cell_volume 1752.910860
_symmetry_space_group_name_H-M "I 21 21 21"
_symmetry_group_IT_number 24
_symmetry_cell_setting 'orthorhombic'
loop_
_space_group_symop_operation_xyz
x,y,z
-x,1/2-y,z
x,-y,1/2-z
1/2-x,y,-z
1/2+x,1/2+y,1/2+z
1/2-x,-y,1/2+z
1/2+x,1/2-y,-z
-x,1/2+y,1/2-z
loop_
_atom_site_type_symbol
_atom_site_label
_atom_site_fract_x
_atom_site_fract_y
_atom_site_fract_z
Si Si1 0.685975 0.063651 0.175842
Si Si2 0.394835 0.884355 0.447815
Si Si3 0.837460 0.734967 0.703094
Si Si4 0.000000 0.250000 0.487942
Si Si5 0.102490 0.666649 0.275861
O O1 0.782063 0.114180 0.261034
O O2 0.701428 0.000000 0.250000
O O3 0.750000 0.061731 0.000000
O O4 0.515577 0.083392 0.159079
O O5 0.250000 0.920937 0.500000
O O6 0.320074 0.831351 0.350226
O O7 0.491066 0.858203 0.592907
O O8 0.705446 0.779222 0.663132
O O9 0.000000 0.750000 0.633777
O O10 0.867015 0.741644 0.887994
O O11 0.022261 0.305807 0.374877
#
# Coordination Sequence:
#
# PCOD9335301 Si02
#       5
#     8   8   8   4   8
#     4  10  23  42  65  88 113 156 209 252 302 363
#     4  11  24  38  61  90 122 161 201 250 304 365
#     4  10  22  32  55  92 127 155 195 243 303 355
#     4  10  22  32  54  90 130 156 194 246 302 354
#     4  11  22  39  61  91 124 162 203 245 304 369
#
# _framework density 20.537268000000001
#
# number of rings (size 3 to 8) (size 9 to 14) (size 15 to 20)
#    0.667    0.889    2.222    2.000    4.667    3.556 
#    0.000    4.444    0.000    5.333    0.000    0.000 
#    0.000    0.000    0.000    0.000    0.000    0.000 
#
# Total GULP energy -100413.157972 kJ/mol
# GULP energy per Si atom -5578.508776 kJ/mol
# Density = 2.049052 g / cm^3
# Si number density = 20.537268 Si / 1000 Ang^3
#
#
#
# Elastic Constant Matrix: (Units=GPa)
#
#
# Indices 1 2 3 4 5 6 
#
# 1 122.6435 33.5067 17.8241 0.0004 -0.0022 0.0006
# 2 33.5067 104.8214 22.7331 0.0004 -0.0007 0.0000
# 3 17.8241 22.7331 86.9949 0.0023 -0.0013 -0.0005
# 4 0.0004 0.0004 0.0023 32.5920 -0.0002 -0.0006
# 5 -0.0022 -0.0007 -0.0013 -0.0002 27.0998 -0.0005
# 6 0.0006 0.0000 -0.0005 -0.0006 -0.0005 -1.1282
#
#
#
# Elastic Compliance Matrix: (Units=1/GPa)
#
#
# Indices 1 2 3 4 5 6 
#
# 1 0.009044 -0.002639 -0.001163 0.000000 0.000001 0.000005
# 2 -0.002639 0.010883 -0.002303 0.000000 0.000000 0.000000
# 3 -0.001163 -0.002303 0.012335 -0.000001 0.000000 -0.000006
# 4 0.000000 0.000000 -0.000001 0.030682 0.000000 -0.000018
# 5 0.000001 0.000000 0.000000 0.000000 0.036901 -0.000015
# 6 0.000005 0.000000 -0.000006 -0.000018 -0.000015 -0.886351
#
#
# Mechanical properties :
#
#
# Convention : Reuss Voigt Hill
#
# Bulk Modulus (GPa) = 49.87207 51.39863 50.63535
# Shear Modulus (GPa) = -6.51371 27.73911 10.61270
#
# Velocity S-wave (km/s) = -1.78285 3.67914 2.27569
# Velocity P-wave (km/s) = 4.48312 6.56730 5.62262
#
# Compressibility (1/GPa) = 0.02005130
#
# Stress axis : x y z
#
# Youngs Moduli (GPa) = 110.57474 91.88663 81.06896
#
# Poissons Ratio (x) = 0.24245 0.09432
# Poissons Ratio (y) = 0.29175 0.18672
# Poissons Ratio (z) = 0.12865 0.21164
#
# Static dielectric constant tensor:
#      x y z
#    x 1.830210 0.000000 0.000000 
#    y 0.000000 1.710260 0.000000 
#    z 0.000000 0.000000 1.762610 
# 
# From -- ./inp_files/9051.got.cif
#   From: 2010.05.17/outbox.cif.g08.bks.cpg/sg24_5_cif.got.tgz:9051.got - 2010.06.04 00:33:39.
