data_PCOD9335142
_publ_section_title
;
Structure prediction by ZEFSAII (Michael W. Deem and Ramdas Pophale) SiO2 
 PCOD9335142
Probable space group: I 21 21 21
;
_chemical_formula_sum "Si O2"
_cell_formula_units_Z 48
_cell_length_a 13.738912
_cell_length_b 9.945324
_cell_length_c 16.346241
_cell_angle_alpha 90.000000
_cell_angle_beta 90.000000
_cell_angle_gamma 90.000000
_cell_volume 2233.516554
_symmetry_space_group_name_H-M "I 21 21 21"
_symmetry_group_IT_number 24
_symmetry_cell_setting 'orthorhombic'
loop_
_space_group_symop_operation_xyz
x,y,z
-x,1/2-y,z
x,-y,1/2-z
1/2-x,y,-z
1/2+x,1/2+y,1/2+z
1/2-x,-y,1/2+z
1/2+x,1/2-y,-z
-x,1/2+y,1/2-z
loop_
_atom_site_type_symbol
_atom_site_label
_atom_site_fract_x
_atom_site_fract_y
_atom_site_fract_z
Si Si1 0.890989 0.191812 0.673790
Si Si2 0.590337 0.577714 0.668252
Si Si3 0.811939 0.928640 0.654777
Si Si4 0.886644 0.146513 0.121812
Si Si5 0.197730 0.029220 0.651691
Si Si6 0.891695 0.704289 0.550220
O O1 0.848182 0.134240 0.759441
O O2 0.826585 0.314401 0.642026
O O3 0.000000 0.250000 0.682260
O O4 0.878240 0.052402 0.624584
O O5 0.564561 0.500000 0.750000
O O6 0.491728 0.576938 0.615073
O O7 0.611799 0.734511 0.689224
O O8 0.690047 0.510518 0.636902
O O9 0.697254 0.957427 0.646187
O O10 0.819590 0.801931 0.596938
O O11 0.878049 0.244784 0.042495
O O12 0.177089 0.000000 0.750000
O O13 0.133611 0.940846 0.588215
O O14 0.000000 0.750000 0.574667
#
# Coordination Sequence:
#
# PCOD9335142 Si02
#       6
#     8   8   8   8   8   8
#     4  11  24  41  63 102 135 170 232 283 350 409
#     4  10  21  41  66  92 136 169 224 297 325 406
#     4  11  23  39  68  93 134 182 219 289 342 414
#     4  11  23  42  66 103 126 179 240 269 349 416
#     4  11  22  40  66 100 135 178 226 283 347 403
#     4  12  22  39  71  97 138 178 222 290 335 415
#
# _framework density 21.490773999999998
#
# number of rings (size 3 to 8) (size 9 to 14) (size 15 to 20)
#    0.000    1.000    5.000    3.000    4.667    0.000 
#    0.000    0.000    7.333    2.000    0.000    0.000 
#    0.000    0.000    0.000    0.000    0.000    0.000 
#
# Total GULP energy -133635.502754 kJ/mol
# GULP energy per Si atom -5568.145948 kJ/mol
# Density = 2.144186 g / cm^3
# Si number density = 21.490774 Si / 1000 Ang^3
#
#
#
# Elastic Constant Matrix: (Units=GPa)
#
#
# Indices 1 2 3 4 5 6 
#
# 1 145.4030 37.7517 4.5617 0.0000 0.0000 0.0000
# 2 37.7517 129.2061 15.8622 0.0000 0.0000 0.0000
# 3 4.5617 15.8622 45.1465 0.0000 0.0000 0.0000
# 4 0.0000 0.0000 0.0000 24.3549 0.0000 0.0000
# 5 0.0000 0.0000 0.0000 0.0000 27.8887 0.0000
# 6 0.0000 0.0000 0.0000 0.0000 0.0000 36.6889
#
#
#
# Elastic Compliance Matrix: (Units=1/GPa)
#
#
# Indices 1 2 3 4 5 6 
#
# 1 0.007442 -0.002176 0.000013 0.000000 0.000000 0.000000
# 2 -0.002176 0.008725 -0.002846 0.000000 0.000000 0.000000
# 3 0.000013 -0.002846 0.023149 0.000000 0.000000 0.000000
# 4 0.000000 0.000000 0.000000 0.041059 0.000000 0.000000
# 5 0.000000 0.000000 0.000000 0.000000 0.035857 0.000000
# 6 0.000000 0.000000 0.000000 0.000000 0.000000 0.027256
#
#
# Mechanical properties :
#
#
# Convention : Reuss Voigt Hill
#
# Bulk Modulus (GPa) = 34.13269 48.45632 41.29451
# Shear Modulus (GPa) = 30.62384 35.22517 32.92450
#
# Velocity S-wave (km/s) = 3.77898 4.05295 3.91836
# Velocity P-wave (km/s) = 5.91252 6.67071 6.30302
#
# Compressibility (1/GPa) = 0.02929742
#
# Stress axis : x y z
#
# Youngs Moduli (GPa) = 134.37252 114.61724 43.19909
#
# Poissons Ratio (x) = 0.24940 -0.00054
# Poissons Ratio (y) = 0.29239 0.12293
# Poissons Ratio (z) = -0.00169 0.32615
#
# Static dielectric constant tensor:
#      x y z
#    x 1.901410 0.000000 0.000000 
#    y 0.000000 -0.705560 0.000000 
#    z 0.000000 0.000000 2.108290 
# 
# From -- ./inp_files/30704.got.cif
#   From: 2010.05.17/outbox.cif.g08.bks.cpg/sg24_16_cif.got.tgz:30704.got - 2010.06.04 00:33:39.
