data_PCOD9335176
_publ_section_title
;
Structure prediction by ZEFSAII (Michael W. Deem and Ramdas Pophale) SiO2 
 PCOD9335176
Probable space group: I 21 21 21
;
_chemical_formula_sum "Si O2"
_cell_formula_units_Z 44
_cell_length_a 7.844249
_cell_length_b 16.285377
_cell_length_c 18.035976
_cell_angle_alpha 90.000000
_cell_angle_beta 90.000000
_cell_angle_gamma 90.000000
_cell_volume 2304.033750
_symmetry_space_group_name_H-M "I 21 21 21"
_symmetry_group_IT_number 24
_symmetry_cell_setting 'orthorhombic'
loop_
_space_group_symop_operation_xyz
x,y,z
-x,1/2-y,z
x,-y,1/2-z
1/2-x,y,-z
1/2+x,1/2+y,1/2+z
1/2-x,-y,1/2+z
1/2+x,1/2-y,-z
-x,1/2+y,1/2-z
loop_
_atom_site_type_symbol
_atom_site_label
_atom_site_fract_x
_atom_site_fract_y
_atom_site_fract_z
Si Si1 0.796339 0.257902 0.267284
Si Si2 0.750000 0.920761 0.500000
Si Si3 0.093541 0.995562 0.058344
Si Si4 0.157674 0.190707 0.422046
Si Si5 0.104377 0.334126 0.858805
Si Si6 0.288293 0.928130 0.310178
O O1 0.738530 0.272166 0.352294
O O2 0.708102 0.188422 0.216517
O O3 0.758093 0.343278 0.228023
O O4 0.000000 0.250000 0.269215
O O5 0.714224 0.862999 0.428778
O O6 0.583437 0.975498 0.521165
O O7 0.093178 0.902526 0.089935
O O8 0.150929 0.051879 0.126775
O O9 0.250000 0.000244 0.000000
O O10 0.250000 0.189781 0.500000
O O11 0.000000 0.250000 0.430737
O O12 0.000000 0.250000 0.876653
O O13 0.973063 0.408514 0.844638
O O14 0.295207 0.000000 0.250000
#
# Coordination Sequence:
#
# PCOD9335176 Si02
#       6
#     8   4   8   8   8   8
#     4  10  21  42  62  92 128 169 222 269 337 404
#     4  12  24  42  70 104 132 176 224 284 340 418
#     4  11  23  43  67  97 136 173 218 275 342 398
#     4  10  23  41  63  92 128 177 219 279 334 402
#     4  10  24  41  65  97 129 177 223 274 341 411
#     4  11  21  42  65  93 134 178 214 279 339 396
#
# _framework density 19.096943
#
# number of rings (size 3 to 8) (size 9 to 14) (size 15 to 20)
#    0.000    1.455    3.636    1.091    1.273    5.818 
#    6.545    0.000    0.000    0.000    0.000    0.000 
#    0.000    0.000    0.000    0.000    0.000    0.000 
#
# Total GULP energy -122677.789733 kJ/mol
# GULP energy per Si atom -5576.263170 kJ/mol
# Density = 1.905348 g / cm^3
# Si number density = 19.096943 Si / 1000 Ang^3
#
#
#
# Elastic Constant Matrix: (Units=GPa)
#
#
# Indices 1 2 3 4 5 6 
#
# 1 93.8174 27.7101 45.9505 0.0000 0.0000 0.0000
# 2 27.7101 44.4172 36.9044 0.0000 0.0000 0.0000
# 3 45.9505 36.9044 132.0042 0.0000 0.0000 0.0000
# 4 0.0000 0.0000 0.0000 58.6599 0.0000 0.0000
# 5 0.0000 0.0000 0.0000 0.0000 24.1283 0.0000
# 6 0.0000 0.0000 0.0000 0.0000 0.0000 27.8697
#
#
#
# Elastic Compliance Matrix: (Units=1/GPa)
#
#
# Indices 1 2 3 4 5 6 
#
# 1 0.014017 -0.006110 -0.003171 0.000000 0.000000 0.000000
# 2 -0.006110 0.031989 -0.006816 0.000000 0.000000 0.000000
# 3 -0.003171 -0.006816 0.010585 0.000000 0.000000 0.000000
# 4 0.000000 0.000000 0.000000 0.017047 0.000000 0.000000
# 5 0.000000 0.000000 0.000000 0.000000 0.041445 0.000000
# 6 0.000000 0.000000 0.000000 0.000000 0.000000 0.035881
#
#
# Mechanical properties :
#
#
# Convention : Reuss Voigt Hill
#
# Bulk Modulus (GPa) = 40.98993 54.59653 47.79323
# Shear Modulus (GPa) = 26.13823 32.77652 29.45737
#
# Velocity S-wave (km/s) = 3.70363 4.14735 3.93175
# Velocity P-wave (km/s) = 6.30871 7.18228 6.75962
#
# Compressibility (1/GPa) = 0.02439623
#
# Stress axis : x y z
#
# Youngs Moduli (GPa) = 71.34319 31.26093 94.47318
#
# Poissons Ratio (x) = 0.19100 0.29959
# Poissons Ratio (y) = 0.43589 0.64396
# Poissons Ratio (z) = 0.22624 0.21308
#
# Static dielectric constant tensor:
#      x y z
#    x 1.731500 0.000000 0.000000 
#    y 0.000000 1.641930 0.000000 
#    z 0.000000 0.000000 1.735660 
# 
# From -- ./inp_files/12693.got.cif
#   From: 2010.05.17/outbox.cif.g08.bks.cpg/sg24_7_cif.got.tgz:12693.got - 2010.06.04 00:33:39.
