data_PCOD9335794
_publ_section_title
;
Structure prediction by ZEFSAII (Michael W. Deem and Ramdas Pophale) SiO2 
 PCOD9335794
Probable space group: I 21 21 21
;
_chemical_formula_sum "Si O2"
_cell_formula_units_Z 20
_cell_length_a 5.210442
_cell_length_b 30.309977
_cell_length_c 5.198049
_cell_angle_alpha 90.000000
_cell_angle_beta 90.000000
_cell_angle_gamma 90.000000
_cell_volume 820.919443
_symmetry_space_group_name_H-M "I 21 21 21"
_symmetry_group_IT_number 24
_symmetry_cell_setting 'orthorhombic'
loop_
_space_group_symop_operation_xyz
x,y,z
-x,1/2-y,z
x,-y,1/2-z
1/2-x,y,-z
1/2+x,1/2+y,1/2+z
1/2-x,-y,1/2+z
1/2+x,1/2-y,-z
-x,1/2+y,1/2-z
loop_
_atom_site_type_symbol
_atom_site_label
_atom_site_fract_x
_atom_site_fract_y
_atom_site_fract_z
Si Si1 0.250000 0.220565 0.500000
Si Si2 0.482953 0.403250 0.335074
Si Si3 0.250000 0.161145 0.000000
Si Si4 0.928275 0.500000 0.750000
O O1 0.500000 0.250000 0.447074
O O2 0.195252 0.191075 0.247961
O O3 0.750000 0.403728 0.500000
O O4 0.531058 0.372536 0.091793
O O5 0.422744 0.453981 0.265086
O O6 0.250000 0.385138 0.500000
O O7 0.750000 0.503481 0.500000
#
# Coordination Sequence:
#
# PCOD9335794 Si02
#       4
#     4   8   4   4
#     4  12  30  52  81 112 152 198 253 332 412 480
#     4  11  26  46  76 113 158 210 261 319 380 462
#     4  12  26  54  79 118 152 202 265 324 394 476
#     4  10  22  46  68 108 160 210 264 314 378 446
#
# _framework density 24.362925000000001
#
# number of rings (size 3 to 8) (size 9 to 14) (size 15 to 20)
#    0.000    0.800    4.000    1.200    2.800   11.200 
#    0.000    0.000    0.000    0.000    0.000    0.000 
#    0.000    0.000    0.000    0.000    0.000    0.000 
#
# Total GULP energy -56060.008714 kJ/mol
# GULP energy per Si atom -5606.000871 kJ/mol
# Density = 2.430747 g / cm^3
# Si number density = 24.362925 Si / 1000 Ang^3
#
#
#
# Elastic Constant Matrix: (Units=GPa)
#
#
# Indices 1 2 3 4 5 6 
#
# 1 138.6469 46.3961 56.7606 0.0001 -0.0001 -0.0003
# 2 46.3961 169.4540 75.8073 0.0013 -0.0003 0.0005
# 3 56.7606 75.8073 200.6320 0.0007 -0.0005 -0.0007
# 4 0.0001 0.0013 0.0007 15.1374 0.0009 -0.0005
# 5 -0.0001 -0.0003 -0.0005 0.0009 55.8991 0.0005
# 6 -0.0003 0.0005 -0.0007 -0.0005 0.0005 -81.3560
#
#
#
# Elastic Compliance Matrix: (Units=1/GPa)
#
#
# Indices 1 2 3 4 5 6 
#
# 1 0.008463 -0.001499 -0.001828 0.000000 0.000000 0.000000
# 2 -0.001499 0.007367 -0.002360 -0.000001 0.000000 0.000000
# 3 -0.001828 -0.002360 0.006393 0.000000 0.000000 0.000000
# 4 0.000000 -0.000001 0.000000 0.066062 -0.000001 0.000000
# 5 0.000000 0.000000 0.000000 -0.000001 0.017889 0.000000
# 6 0.000000 0.000000 0.000000 0.000000 0.000000 -0.012292
#
#
# Mechanical properties :
#
#
# Convention : Reuss Voigt Hill
#
# Bulk Modulus (GPa) = 92.16848 96.29565 94.23206
# Shear Modulus (GPa) = 45.92567 19.92071 32.92319
#
# Velocity S-wave (km/s) = 4.34644 2.86259 3.68008
# Velocity P-wave (km/s) = 7.94370 7.10895 7.53789
#
# Compressibility (1/GPa) = 0.01084970
#
# Stress axis : x y z
#
# Youngs Moduli (GPa) = 118.16811 135.73302 156.42565
#
# Poissons Ratio (x) = 0.20352 0.28588
# Poissons Ratio (y) = 0.17718 0.36909
# Poissons Ratio (z) = 0.21596 0.32026
#
# Static dielectric constant tensor:
#      x y z
#    x 1.974780 0.000000 0.000000 
#    y 0.000000 1.951290 0.000000 
#    z 0.000000 0.000000 1.944050 
# 
# From -- ./inp_files/422.got.cif
#   From: 2010.05.17/outbox.cif.g08.bks.cpg/sg24_1_cif.got.tgz:422.got - 2010.06.04 00:33:39.
