data_PCOD9335660
_publ_section_title
;
Structure prediction by ZEFSAII (Michael W. Deem and Ramdas Pophale) SiO2 
 PCOD9335660
Probable space group: I 21 21 21
;
_chemical_formula_sum "Si O2"
_cell_formula_units_Z 40
_cell_length_a 7.951042
_cell_length_b 25.038793
_cell_length_c 9.163432
_cell_angle_alpha 90.000000
_cell_angle_beta 90.000000
_cell_angle_gamma 90.000000
_cell_volume 1824.297230
_symmetry_space_group_name_H-M "I 21 21 21"
_symmetry_group_IT_number 24
_symmetry_cell_setting 'orthorhombic'
loop_
_space_group_symop_operation_xyz
x,y,z
-x,1/2-y,z
x,-y,1/2-z
1/2-x,y,-z
1/2+x,1/2+y,1/2+z
1/2-x,-y,1/2+z
1/2+x,1/2-y,-z
-x,1/2+y,1/2-z
loop_
_atom_site_type_symbol
_atom_site_label
_atom_site_fract_x
_atom_site_fract_y
_atom_site_fract_z
Si Si1 0.597432 0.475092 0.907333
Si Si2 0.187919 0.269701 0.658010
Si Si3 0.500000 0.250000 0.875237
Si Si4 0.004064 0.631647 0.470878
Si Si5 0.750000 0.974100 0.000000
Si Si6 0.185953 0.387359 0.749048
O O1 0.600737 0.500000 0.750000
O O2 0.619943 0.411163 0.899595
O O3 0.750000 0.498211 0.000000
O O4 0.415798 0.490510 0.974379
O O5 0.250000 0.249600 0.500000
O O6 0.332450 0.255352 0.775372
O O7 0.175077 0.333825 0.654831
O O8 0.000000 0.250000 0.691645
O O9 0.477042 0.195126 0.965121
O O10 0.031886 0.612557 0.637201
O O11 0.162422 0.622162 0.362781
O O12 0.716663 0.937037 0.142508
#
# Coordination Sequence:
#
# PCOD9335660 Si02
#       6
#     8   8   4   8   4   8
#     4  12  29  48  74 111 144 189 248 299 365 432
#     4  11  22  40  66 101 142 184 238 296 353 432
#     4  10  24  46  70 102 144 188 234 296 364 436
#     4  10  23  46  71 101 146 182 237 296 354 433
#     4  12  24  48  80  98 146 194 236 308 358 430
#     4  10  22  42  73 105 135 187 242 285 362 428
#
# _framework density 21.926251000000001
#
# number of rings (size 3 to 8) (size 9 to 14) (size 15 to 20)
#    0.000    1.200    4.000    1.200    4.200    1.600 
#    3.600    0.000    0.000    0.000    0.000    0.000 
#    0.000    0.000    0.000    0.000    0.000    0.000 
#
# Total GULP energy -111695.133187 kJ/mol
# GULP energy per Si atom -5584.756659 kJ/mol
# Density = 2.187635 g / cm^3
# Si number density = 21.926251 Si / 1000 Ang^3
#
#
#
# Elastic Constant Matrix: (Units=GPa)
#
#
# Indices 1 2 3 4 5 6 
#
# 1 143.6643 37.9409 40.4292 -0.0001 0.0000 0.0000
# 2 37.9409 156.5633 57.9161 -0.0001 0.0000 0.0000
# 3 40.4292 57.9161 119.0754 -0.0008 0.0000 0.0000
# 4 -0.0001 -0.0001 -0.0008 -8.8964 0.0001 0.0000
# 5 0.0000 0.0000 0.0000 0.0001 23.9728 0.0000
# 6 0.0000 0.0000 0.0000 0.0000 0.0000 23.0465
#
#
#
# Elastic Compliance Matrix: (Units=1/GPa)
#
#
# Indices 1 2 3 4 5 6 
#
# 1 0.007853 -0.001118 -0.002123 0.000000 0.000000 0.000000
# 2 -0.001118 0.007948 -0.003486 0.000000 0.000000 0.000000
# 3 -0.002123 -0.003486 0.010814 -0.000001 0.000000 0.000000
# 4 0.000000 0.000000 -0.000001 -0.112405 0.000000 0.000000
# 5 0.000000 0.000000 0.000000 0.000000 0.041714 0.000000
# 6 0.000000 0.000000 0.000000 0.000000 0.000000 0.043391
#
#
# Mechanical properties :
#
#
# Convention : Reuss Voigt Hill
#
# Bulk Modulus (GPa) = 75.97634 76.87505 76.42569
# Shear Modulus (GPa) = 291.46112 26.49238 158.97675
#
# Velocity S-wave (km/s) = 11.54195 3.47976 8.52424
# Velocity P-wave (km/s) = 14.57217 7.16113 11.48107
#
# Compressibility (1/GPa) = 0.01316199
#
# Stress axis : x y z
#
# Youngs Moduli (GPa) = 127.33578 125.82322 92.47034
#
# Poissons Ratio (x) = 0.14066 0.19628
# Poissons Ratio (y) = 0.14235 0.32235
# Poissons Ratio (z) = 0.27029 0.43862
#
# Static dielectric constant tensor:
#      x y z
#    x 1.945910 0.000000 0.000000 
#    y 0.000000 1.814260 0.000000 
#    z 0.000000 0.000000 1.783660 
# 
# From -- ./inp_files/9523.got.cif
#   From: 2010.05.17/outbox.cif.g08.bks.cpg/sg24_5_cif.got.tgz:9523.got - 2010.06.04 00:33:39.
