data_PCOD9335594
_publ_section_title
;
Structure prediction by ZEFSAII (Michael W. Deem and Ramdas Pophale) SiO2 
 PCOD9335594
Probable space group: I 21 21 21
;
_chemical_formula_sum "Si O2"
_cell_formula_units_Z 60
_cell_length_a 20.079586
_cell_length_b 8.849678
_cell_length_c 15.728637
_cell_angle_alpha 90.000000
_cell_angle_beta 90.000000
_cell_angle_gamma 90.000000
_cell_volume 2794.945300
_symmetry_space_group_name_H-M "I 21 21 21"
_symmetry_group_IT_number 24
_symmetry_cell_setting 'orthorhombic'
loop_
_space_group_symop_operation_xyz
x,y,z
-x,1/2-y,z
x,-y,1/2-z
1/2-x,y,-z
1/2+x,1/2+y,1/2+z
1/2-x,-y,1/2+z
1/2+x,1/2-y,-z
-x,1/2+y,1/2-z
loop_
_atom_site_type_symbol
_atom_site_label
_atom_site_fract_x
_atom_site_fract_y
_atom_site_fract_z
Si Si1 0.000000 0.750000 0.764528
Si Si2 0.834263 0.546666 0.152559
Si Si3 0.381662 0.611743 0.325315
Si Si4 0.599265 0.889613 0.522055
Si Si5 0.200592 0.079323 0.842003
Si Si6 0.951812 0.441824 0.042843
Si Si7 0.320292 0.339399 0.547715
Si Si8 0.904722 0.649624 0.913821
O O1 0.041675 0.644109 0.701672
O O2 0.059731 0.799539 0.827464
O O3 0.841327 0.500000 0.250000
O O4 0.774838 0.435753 0.119850
O O5 0.814790 0.717963 0.124956
O O6 0.905482 0.520113 0.111047
O O7 0.356779 0.500000 0.250000
O O8 0.387946 0.564026 0.423472
O O9 0.333968 0.759047 0.329305
O O10 0.528030 0.919627 0.566557
O O11 0.590658 0.707783 0.518572
O O12 0.653605 0.992520 0.570244
O O13 0.204929 0.000000 0.750000
O O14 0.153402 0.968802 0.894454
O O15 0.959034 0.552723 0.963162
O O16 0.250000 0.348801 0.500000
O O17 0.373019 0.267344 0.480008
#
# Coordination Sequence:
#
# PCOD9335594 Si02
#       8
#     4   8   8   8   8   8   8   8
#     4  12  24  36  62  98 142 190 230 262 320 394
#     4  10  24  45  71  92 120 165 227 281 336 401
#     4  12  25  36  58  96 143 181 216 271 326 401
#     4  11  24  40  61  96 134 170 218 273 334 404
#     4  11  22  39  61  92 130 176 221 272 321 395
#     4  10  22  42  63  90 128 171 218 272 332 398
#     4  11  23  42  68  97 133 168 221 277 332 398
#     4  11  20  38  61  90 126 182 222 262 309 399
#
# _framework density 21.467326
#
# number of rings (size 3 to 8) (size 9 to 14) (size 15 to 20)
#    0.000    1.067    4.000    3.200    1.867    2.667 
#    0.000    3.333    0.000    0.000    0.000    0.000 
#    0.000    0.000    0.000    0.000    0.000    0.000 
#
# Total GULP energy -167098.095983 kJ/mol
# GULP energy per Si atom -5569.936533 kJ/mol
# Density = 2.141847 g / cm^3
# Si number density = 21.467326 Si / 1000 Ang^3
#
#
#
# Elastic Constant Matrix: (Units=GPa)
#
#
# Indices 1 2 3 4 5 6 
#
# 1 73.1433 20.5972 19.9582 0.0000 0.0000 0.0000
# 2 20.5972 89.5478 15.8445 0.0000 0.0000 0.0000
# 3 19.9582 15.8445 44.4521 0.0000 0.0000 0.0000
# 4 0.0000 0.0000 0.0000 29.7115 0.0000 0.0000
# 5 0.0000 0.0000 0.0000 0.0000 18.9433 0.0000
# 6 0.0000 0.0000 0.0000 0.0000 0.0000 26.5600
#
#
#
# Elastic Compliance Matrix: (Units=1/GPa)
#
#
# Indices 1 2 3 4 5 6 
#
# 1 0.016125 -0.002591 -0.006316 0.000000 0.000000 0.000000
# 2 -0.002591 0.012335 -0.003233 0.000000 0.000000 0.000000
# 3 -0.006316 -0.003233 0.026484 0.000000 0.000000 0.000000
# 4 0.000000 0.000000 0.000000 0.033657 0.000000 0.000000
# 5 0.000000 0.000000 0.000000 0.000000 0.052789 0.000000
# 6 0.000000 0.000000 0.000000 0.000000 0.000000 0.037651
#
#
# Mechanical properties :
#
#
# Convention : Reuss Voigt Hill
#
# Bulk Modulus (GPa) = 32.61253 35.54921 34.08087
# Shear Modulus (GPa) = 23.41433 25.09251 24.25342
#
# Velocity S-wave (km/s) = 3.30615 3.42258 3.36487
# Velocity P-wave (km/s) = 5.45883 5.67577 5.56836
#
# Compressibility (1/GPa) = 0.03066306
#
# Stress axis : x y z
#
# Youngs Moduli (GPa) = 62.01552 81.06765 37.75798
#
# Poissons Ratio (x) = 0.21008 0.23849
# Poissons Ratio (y) = 0.16071 0.12208
# Poissons Ratio (z) = 0.39170 0.26212
#
# Static dielectric constant tensor:
#      x y z
#    x 1.796250 0.000000 0.000000 
#    y 0.000000 1.888250 0.000000 
#    z 0.000000 0.000000 1.989050 
# 
# From -- ./inp_files/31212.got.cif
#   From: 2010.05.17/outbox.cif.g08.bks.cpg/sg24_16_cif.got.tgz:31212.got - 2010.06.04 00:33:39.
