data_PCOD9335386
_publ_section_title
;
Structure prediction by ZEFSAII (Michael W. Deem and Ramdas Pophale) SiO2 
 PCOD9335386
Probable space group: I 21 21 21
;
_chemical_formula_sum "Si O2"
_cell_formula_units_Z 56
_cell_length_a 14.587706
_cell_length_b 8.283991
_cell_length_c 21.308041
_cell_angle_alpha 90.000000
_cell_angle_beta 90.000000
_cell_angle_gamma 90.000000
_cell_volume 2574.957967
_symmetry_space_group_name_H-M "I 21 21 21"
_symmetry_group_IT_number 24
_symmetry_cell_setting 'orthorhombic'
loop_
_space_group_symop_operation_xyz
x,y,z
-x,1/2-y,z
x,-y,1/2-z
1/2-x,y,-z
1/2+x,1/2+y,1/2+z
1/2-x,-y,1/2+z
1/2+x,1/2-y,-z
-x,1/2+y,1/2-z
loop_
_atom_site_type_symbol
_atom_site_label
_atom_site_fract_x
_atom_site_fract_y
_atom_site_fract_z
Si Si1 0.106674 0.780995 0.386458
Si Si2 0.351477 0.528462 0.969455
Si Si3 0.808763 0.758017 0.834124
Si Si4 0.778639 0.281658 0.809161
Si Si5 0.317905 0.110452 0.560227
Si Si6 0.613640 0.935665 0.399513
Si Si7 0.949928 0.489115 0.684428
O O1 0.137794 0.610937 0.418011
O O2 0.173524 0.809236 0.327073
O O3 0.000000 0.750000 0.372262
O O4 0.124986 0.944779 0.428096
O O5 0.369337 0.716213 0.951472
O O6 0.250000 0.525990 0.000000
O O7 0.408735 0.462470 0.028327
O O8 0.780210 0.790644 0.761898
O O9 0.741111 0.648355 0.876403
O O10 0.824913 0.916946 0.873936
O O11 0.910356 0.682974 0.832932
O O12 0.854535 0.419913 0.803266
O O13 0.823700 0.205671 0.872425
O O14 0.250000 0.087570 0.500000
O O15 0.516443 0.935098 0.365313
O O16 0.003480 0.500000 0.750000
#
# Coordination Sequence:
#
# PCOD9335386 Si02
#       7
#     8   8   8   8   8   8   8
#     4  12  27  46  72 100 136 187 242 296 346 403
#     4  11  23  46  68 103 138 181 240 280 341 431
#     4  11  21  40  69  98 134 182 221 280 353 415
#     4  11  23  41  69  96 139 179 228 282 350 413
#     4  11  23  45  77  97 138 187 225 288 361 407
#     4  12  22  39  66 100 144 176 221 279 344 424
#     4  10  22  38  63 104 137 172 218 269 344 434
#
# _framework density 21.747928000000002
#
# number of rings (size 3 to 8) (size 9 to 14) (size 15 to 20)
#    0.000    0.857    5.714    2.571    0.000    5.143 
#    2.571    0.000   12.571    0.000    0.000    0.000 
#    0.000    0.000    0.000    0.000    0.000    0.000 
#
# Total GULP energy -155928.460176 kJ/mol
# GULP energy per Si atom -5568.873578 kJ/mol
# Density = 2.169843 g / cm^3
# Si number density = 21.747928 Si / 1000 Ang^3
#
#
#
# Elastic Constant Matrix: (Units=GPa)
#
#
# Indices 1 2 3 4 5 6 
#
# 1 118.0117 23.1364 32.6265 0.0000 0.0000 0.0000
# 2 23.1364 82.7304 1.8202 0.0000 0.0000 0.0000
# 3 32.6265 1.8202 95.6831 0.0000 0.0000 0.0000
# 4 0.0000 0.0000 0.0000 38.4212 0.0000 0.0000
# 5 0.0000 0.0000 0.0000 0.0000 26.3495 0.0000
# 6 0.0000 0.0000 0.0000 0.0000 0.0000 13.5761
#
#
#
# Elastic Compliance Matrix: (Units=1/GPa)
#
#
# Indices 1 2 3 4 5 6 
#
# 1 0.009925 -0.002702 -0.003333 0.000000 0.000000 0.000000
# 2 -0.002702 0.012828 0.000677 0.000000 0.000000 0.000000
# 3 -0.003333 0.000677 0.011575 0.000000 0.000000 0.000000
# 4 0.000000 0.000000 0.000000 0.026027 0.000000 0.000000
# 5 0.000000 0.000000 0.000000 0.000000 0.037951 0.000000
# 6 0.000000 0.000000 0.000000 0.000000 0.000000 0.073659
#
#
# Mechanical properties :
#
#
# Convention : Reuss Voigt Hill
#
# Bulk Modulus (GPa) = 42.35047 45.73237 44.04142
# Shear Modulus (GPa) = 26.23960 31.59217 28.91588
#
# Velocity S-wave (km/s) = 3.47729 3.81550 3.65031
# Velocity P-wave (km/s) = 5.96973 6.36276 6.16938
#
# Compressibility (1/GPa) = 0.02361249
#
# Stress axis : x y z
#
# Youngs Moduli (GPa) = 100.75612 77.95280 86.39506
#
# Poissons Ratio (x) = 0.21065 0.28794
# Poissons Ratio (y) = 0.27227 -0.05852
# Poissons Ratio (z) = 0.33581 -0.05281
#
# Static dielectric constant tensor:
#      x y z
#    x 1.775620 0.000000 0.000000 
#    y 0.000000 -4.729090 0.000000 
#    z 0.000000 0.000000 1.976180 
# 
# From -- ./inp_files/33764.got.cif
#   From: 2010.05.17/outbox.cif.g08.bks.cpg/sg24_17_cif.got.tgz:33764.got - 2010.06.04 00:33:39.
