data_PCOD9335912
_publ_section_title
;
Structure prediction by ZEFSAII (Michael W. Deem and Ramdas Pophale) SiO2 
 PCOD9335912
Probable space group: I 21 21 21
;
_chemical_formula_sum "Si O2"
_cell_formula_units_Z 56
_cell_length_a 20.482506
_cell_length_b 8.454677
_cell_length_c 14.728034
_cell_angle_alpha 90.000000
_cell_angle_beta 90.000000
_cell_angle_gamma 90.000000
_cell_volume 2550.497425
_symmetry_space_group_name_H-M "I 21 21 21"
_symmetry_group_IT_number 24
_symmetry_cell_setting 'orthorhombic'
loop_
_space_group_symop_operation_xyz
x,y,z
-x,1/2-y,z
x,-y,1/2-z
1/2-x,y,-z
1/2+x,1/2+y,1/2+z
1/2-x,-y,1/2+z
1/2+x,1/2-y,-z
-x,1/2+y,1/2-z
loop_
_atom_site_type_symbol
_atom_site_label
_atom_site_fract_x
_atom_site_fract_y
_atom_site_fract_z
Si Si1 0.399337 0.232435 0.718627
Si Si2 0.250000 0.518610 0.500000
Si Si3 0.082166 0.093676 0.627208
Si Si4 0.633616 0.722602 0.306953
Si Si5 0.460745 0.594271 0.435500
Si Si6 0.003613 0.500000 0.250000
Si Si7 0.277226 0.662813 0.693553
Si Si8 0.879035 0.156040 0.479864
O O1 0.445795 0.359053 0.770338
O O2 0.448825 0.091182 0.689995
O O3 0.335842 0.217006 0.782053
O O4 0.372562 0.299033 0.624293
O O5 0.271565 0.620680 0.587005
O O6 0.188478 0.407408 0.520970
O O7 0.090982 0.198471 0.716664
O O8 0.096217 0.198459 0.539822
O O9 0.131238 0.945703 0.640896
O O10 0.011685 0.013457 0.619305
O O11 0.597946 0.848073 0.371293
O O12 0.706355 0.770188 0.281044
O O13 0.500000 0.750000 0.466361
O O14 0.430894 0.486277 0.513362
O O15 0.288293 0.500000 0.750000
#
# Coordination Sequence:
#
# PCOD9335912 Si02
#       8
#     8   4   8   8   8   4   8   8
#     4  11  25  48  74 102 139 177 236 290 359 420
#     4  12  24  44  74 100 132 184 236 278 356 424
#     4  10  24  40  67 104 143 187 230 291 349 420
#     4  10  23  44  66  99 148 185 235 284 354 420
#     4  10  23  42  67 105 143 186 233 286 347 418
#     4  10  24  48  72 102 130 182 224 294 348 418
#     4  12  23  47  71 101 137 186 233 292 353 426
#     4  12  24  45  71 103 135 185 231 295 344 426
#
# _framework density 21.956500999999999
#
# number of rings (size 3 to 8) (size 9 to 14) (size 15 to 20)
#    0.000    1.143    3.571    1.286    4.000    8.000 
#    7.714    0.000    0.000    0.000    0.000    0.000 
#    0.000    0.000    0.000    0.000    0.000    0.000 
#
# Total GULP energy -156344.624557 kJ/mol
# GULP energy per Si atom -5583.736591 kJ/mol
# Density = 2.190653 g / cm^3
# Si number density = 21.956501 Si / 1000 Ang^3
#
#
#
# Elastic Constant Matrix: (Units=GPa)
#
#
# Indices 1 2 3 4 5 6 
#
# 1 92.6017 22.7644 5.2989 0.0000 0.0000 0.0000
# 2 22.7644 51.9373 29.5468 0.0000 0.0000 0.0000
# 3 5.2989 29.5468 97.9534 0.0000 0.0000 0.0000
# 4 0.0000 0.0000 0.0000 15.4674 0.0000 0.0000
# 5 0.0000 0.0000 0.0000 0.0000 14.7871 0.0000
# 6 0.0000 0.0000 0.0000 0.0000 0.0000 21.5482
#
#
#
# Elastic Compliance Matrix: (Units=1/GPa)
#
#
# Indices 1 2 3 4 5 6 
#
# 1 0.012210 -0.006007 0.001151 0.000000 0.000000 0.000000
# 2 -0.006007 0.026197 -0.007577 0.000000 0.000000 0.000000
# 3 0.001151 -0.007577 0.012432 0.000000 0.000000 0.000000
# 4 0.000000 0.000000 0.000000 0.064652 0.000000 0.000000
# 5 0.000000 0.000000 0.000000 0.000000 0.067627 0.000000
# 6 0.000000 0.000000 0.000000 0.000000 0.000000 0.046408
#
#
# Mechanical properties :
#
#
# Convention : Reuss Voigt Hill
#
# Bulk Modulus (GPa) = 38.49961 39.74585 39.12273
# Shear Modulus (GPa) = 19.00789 22.68602 20.84695
#
# Velocity S-wave (km/s) = 2.94548 3.21787 3.08468
# Velocity P-wave (km/s) = 5.39818 5.65222 5.52666
#
# Compressibility (1/GPa) = 0.02597429
#
# Stress axis : x y z
#
# Youngs Moduli (GPa) = 81.90238 38.17179 80.43576
#
# Poissons Ratio (x) = 0.22928 -0.09261
# Poissons Ratio (y) = 0.49195 0.60948
# Poissons Ratio (z) = -0.09430 0.28924
#
# Static dielectric constant tensor:
#      x y z
#    x 1.799740 0.000000 0.000000 
#    y 0.000000 1.865530 0.000000 
#    z 0.000000 0.000000 1.796530 
# 
# From -- ./inp_files/27593.got.cif
#   From: 2010.05.17/outbox.cif.g08.bks.cpg/sg24_14_cif.got.tgz:27593.got - 2010.06.04 00:33:39.
