data_PCOD9335748
_publ_section_title
;
Structure prediction by ZEFSAII (Michael W. Deem and Ramdas Pophale) SiO2 
 PCOD9335748
Probable space group: I 21 21 21
;
_chemical_formula_sum "Si O2"
_cell_formula_units_Z 28
_cell_length_a 8.421634
_cell_length_b 27.600063
_cell_length_c 4.933012
_cell_angle_alpha 90.000000
_cell_angle_beta 90.000000
_cell_angle_gamma 90.000000
_cell_volume 1146.617613
_symmetry_space_group_name_H-M "I 21 21 21"
_symmetry_group_IT_number 24
_symmetry_cell_setting 'orthorhombic'
loop_
_space_group_symop_operation_xyz
x,y,z
-x,1/2-y,z
x,-y,1/2-z
1/2-x,y,-z
1/2+x,1/2+y,1/2+z
1/2-x,-y,1/2+z
1/2+x,1/2-y,-z
-x,1/2+y,1/2-z
loop_
_atom_site_type_symbol
_atom_site_label
_atom_site_fract_x
_atom_site_fract_y
_atom_site_fract_z
Si Si1 0.456160 0.135505 0.715084
Si Si2 0.464892 0.500000 0.250000
Si Si3 0.250000 0.055533 0.500000
Si Si4 0.090864 0.199489 0.811897
Si Si5 0.750000 0.076881 0.500000
O O1 0.316667 0.094734 0.718830
O O2 0.411853 0.176234 0.488914
O O3 0.613576 0.109155 0.623523
O O4 0.491446 0.159327 0.001692
O O5 0.598658 0.479098 0.456606
O O6 0.339209 0.456188 0.275293
O O7 0.000000 0.250000 0.799699
O O8 0.250000 0.206477 0.000000
#
# Coordination Sequence:
#
# PCOD9335748 Si02
#       5
#     8   4   4   8   4
#     4  11  25  46  74 107 152 194 246 303 380 447
#     4  10  24  44  68 106 144 196 254 310 380 440
#     4  10  22  44  71 104 142 202 247 312 364 460
#     4  12  26  46  74 109 145 193 248 307 373 453
#     4  10  26  44  71 110 152 194 245 314 376 446
#
# _framework density 24.419651999999999
#
# number of rings (size 3 to 8) (size 9 to 14) (size 15 to 20)
#    0.000    1.143    2.857    0.857    4.000   13.714 
#    0.000    0.000    0.000    0.000    0.000    0.000 
#    0.000    0.000    0.000    0.000    0.000    0.000 
#
# Total GULP energy -77996.777185 kJ/mol
# GULP energy per Si atom -5571.198370 kJ/mol
# Density = 2.436407 g / cm^3
# Si number density = 24.419652 Si / 1000 Ang^3
#
#
#
# Elastic Constant Matrix: (Units=GPa)
#
#
# Indices 1 2 3 4 5 6 
#
# 1 145.5178 40.2734 13.3474 -0.0072 -0.0036 -0.1030
# 2 40.2734 102.4784 34.5714 -0.0130 -0.0036 -0.0667
# 3 13.3474 34.5714 120.7316 0.0179 -0.0465 -0.9275
# 4 -0.0072 -0.0130 0.0179 -74.0362 -0.0372 -0.7357
# 5 -0.0036 -0.0036 -0.0465 -0.0372 15.9691 0.0477
# 6 -0.1030 -0.0667 -0.9275 -0.7357 0.0477 143.0351
#
#
#
# Elastic Compliance Matrix: (Units=1/GPa)
#
#
# Indices 1 2 3 4 5 6 
#
# 1 0.007711 -0.003036 0.000017 0.000000 0.000001 0.000004
# 2 -0.003036 0.011997 -0.003100 -0.000002 -0.000007 -0.000017
# 3 0.000017 -0.003100 0.009169 0.000002 0.000026 0.000058
# 4 0.000000 -0.000002 0.000002 -0.013506 -0.000031 -0.000069
# 5 0.000001 -0.000007 0.000026 -0.000031 0.062621 -0.000021
# 6 0.000004 -0.000017 0.000058 -0.000069 -0.000021 0.006991
#
#
# Mechanical properties :
#
#
# Convention : Reuss Voigt Hill
#
# Bulk Modulus (GPa) = 60.09966 60.56800 60.33383
# Shear Modulus (GPa) = 48.65387 35.69599 42.17493
#
# Velocity S-wave (km/s) = 4.46848 3.82746 4.16034
# Velocity P-wave (km/s) = 7.16154 6.66254 6.91654
#
# Compressibility (1/GPa) = 0.01663903
#
# Stress axis : x y z
#
# Youngs Moduli (GPa) = 129.69001 83.35425 109.06258
#
# Poissons Ratio (x) = 0.25306 -0.00185
# Poissons Ratio (y) = 0.39373 0.33807
# Poissons Ratio (z) = -0.00220 0.25838
#
# Static dielectric constant tensor:
#      x y z
#    x 2.020850 -0.000050 -0.000870 
#    y -0.000050 1.931030 0.000260 
#    z -0.000870 0.000260 1.699050 
# 
# From -- ./inp_files/1035.got.cif
#   From: 2010.05.17/outbox.cif.g08.bks.cpg/sg24_1_cif.got.tgz:1035.got - 2010.06.04 00:33:39.
