data_PCOD9335825
_publ_section_title
;
Structure prediction by ZEFSAII (Michael W. Deem and Ramdas Pophale) SiO2 
 PCOD9335825
Probable space group: I 21 21 21
;
_chemical_formula_sum "Si O2"
_cell_formula_units_Z 40
_cell_length_a 15.477491
_cell_length_b 4.956959
_cell_length_c 20.773919
_cell_angle_alpha 90.000000
_cell_angle_beta 90.000000
_cell_angle_gamma 90.000000
_cell_volume 1593.801829
_symmetry_space_group_name_H-M "I 21 21 21"
_symmetry_group_IT_number 24
_symmetry_cell_setting 'orthorhombic'
loop_
_space_group_symop_operation_xyz
x,y,z
-x,1/2-y,z
x,-y,1/2-z
1/2-x,y,-z
1/2+x,1/2+y,1/2+z
1/2-x,-y,1/2+z
1/2+x,1/2-y,-z
-x,1/2+y,1/2-z
loop_
_atom_site_type_symbol
_atom_site_label
_atom_site_fract_x
_atom_site_fract_y
_atom_site_fract_z
Si Si1 0.088460 0.094672 0.825080
Si Si2 0.586763 0.812589 0.641855
Si Si3 0.309525 0.376576 0.361336
Si Si4 0.820670 0.593891 0.046255
Si Si5 0.500000 0.250000 0.544796
Si Si6 0.214037 0.500000 0.250000
O O1 0.160309 0.318150 0.847151
O O2 0.000000 0.250000 0.839954
O O3 0.080749 0.000000 0.750000
O O4 0.110599 0.827067 0.865308
O O5 0.500000 0.750000 0.680857
O O6 0.637806 0.588992 0.601472
O O7 0.654222 0.896849 0.694050
O O8 0.544196 0.023381 0.591044
O O9 0.269695 0.291785 0.291629
O O10 0.238713 0.321476 0.417422
O O11 0.910911 0.666491 0.009808
O O12 0.750000 0.458536 0.000000
#
# Coordination Sequence:
#
# PCOD9335825 Si02
#       6
#     8   8   8   8   4   4
#     4  12  24  45  68 104 152 198 249 316 387 455
#     4  10  24  42  70 109 152 200 249 317 401 474
#     4  12  25  43  74 110 145 204 255 316 393 474
#     4  11  26  49  73 104 151 203 259 329 386 467
#     4  10  22  48  72 108 146 198 254 320 396 472
#     4  12  22  42  70 112 154 190 250 304 402 486
#
# _framework density 25.097221000000001
#
# number of rings (size 3 to 8) (size 9 to 14) (size 15 to 20)
#    0.000    0.800    4.000    3.000    1.400    0.800 
#    3.600    1.000    0.000    0.000    0.000    0.000 
#    0.000    0.000    0.000    0.000    0.000    0.000 
#
# Total GULP energy -111432.384347 kJ/mol
# GULP energy per Si atom -5571.619217 kJ/mol
# Density = 2.504010 g / cm^3
# Si number density = 25.097221 Si / 1000 Ang^3
#
#
#
# Elastic Constant Matrix: (Units=GPa)
#
#
# Indices 1 2 3 4 5 6 
#
# 1 203.1318 20.2673 36.0721 0.0000 0.0000 0.0000
# 2 20.2673 84.3050 9.8115 0.0000 0.0000 0.0000
# 3 36.0721 9.8115 87.6426 0.0000 0.0000 0.0000
# 4 0.0000 0.0000 0.0000 -1.1182 0.0000 0.0000
# 5 0.0000 0.0000 0.0000 0.0000 39.0200 0.0000
# 6 0.0000 0.0000 0.0000 0.0000 0.0000 40.8541
#
#
#
# Elastic Compliance Matrix: (Units=1/GPa)
#
#
# Indices 1 2 3 4 5 6 
#
# 1 0.005402 -0.001054 -0.002105 0.000000 0.000000 0.000000
# 2 -0.001054 0.012224 -0.000935 0.000000 0.000000 0.000000
# 3 -0.002105 -0.000935 0.012381 0.000000 0.000000 0.000000
# 4 0.000000 0.000000 0.000000 -0.894298 0.000000 0.000000
# 5 0.000000 0.000000 0.000000 0.000000 0.025628 0.000000
# 6 0.000000 0.000000 0.000000 0.000000 0.000000 0.024477
#
#
# Mechanical properties :
#
#
# Convention : Reuss Voigt Hill
#
# Bulk Modulus (GPa) = 45.83103 56.37570 51.10336
# Shear Modulus (GPa) = -6.25997 36.34642 15.04323
#
# Velocity S-wave (km/s) = -1.58104 3.80968 2.45092
# Velocity P-wave (km/s) = 3.86886 6.47018 5.33064
#
# Compressibility (1/GPa) = 0.02181928
#
# Stress axis : x y z
#
# Youngs Moduli (GPa) = 185.11974 81.80771 80.76788
#
# Poissons Ratio (x) = 0.08619 0.17005
# Poissons Ratio (y) = 0.19505 0.07550
# Poissons Ratio (z) = 0.38975 0.07647
#
# Static dielectric constant tensor:
#      x y z
#    x 2.151850 0.000000 0.000000 
#    y 0.000000 2.038340 0.000000 
#    z 0.000000 0.000000 2.023380 
# 
# From -- ./inp_files/23750.got.cif
#   From: 2010.05.17/outbox.cif.g08.bks.cpg/sg24_12_cif.got.tgz:23750.got - 2010.06.04 00:33:39.
