data_PCOD9335215
_publ_section_title
;
Structure prediction by ZEFSAII (Michael W. Deem and Ramdas Pophale) SiO2 
 PCOD9335215
Probable space group: I 21 21 21
;
_chemical_formula_sum "Si O2"
_cell_formula_units_Z 60
_cell_length_a 11.754496
_cell_length_b 24.869111
_cell_length_c 8.711696
_cell_angle_alpha 90.000000
_cell_angle_beta 90.000000
_cell_angle_gamma 90.000000
_cell_volume 2546.636652
_symmetry_space_group_name_H-M "I 21 21 21"
_symmetry_group_IT_number 24
_symmetry_cell_setting 'orthorhombic'
loop_
_space_group_symop_operation_xyz
x,y,z
-x,1/2-y,z
x,-y,1/2-z
1/2-x,y,-z
1/2+x,1/2+y,1/2+z
1/2-x,-y,1/2+z
1/2+x,1/2-y,-z
-x,1/2+y,1/2-z
loop_
_atom_site_type_symbol
_atom_site_label
_atom_site_fract_x
_atom_site_fract_y
_atom_site_fract_z
Si Si1 0.143768 0.615868 0.370450
Si Si2 0.387717 0.263977 0.916058
Si Si3 0.120099 0.356687 0.690408
Si Si4 0.843338 0.263389 0.762071
Si Si5 0.537245 0.950511 0.372263
Si Si6 0.250000 0.162774 0.500000
Si Si7 0.370370 0.993748 0.932217
Si Si8 0.985208 0.611252 0.092899
O O1 0.129809 0.673360 0.457195
O O2 0.257348 0.622631 0.261603
O O3 0.127442 0.566513 0.491139
O O4 0.035083 0.613419 0.261777
O O5 0.500000 0.250000 0.825251
O O6 0.285030 0.250756 0.807994
O O7 0.391440 0.225937 0.066939
O O8 0.102865 0.293290 0.713366
O O9 0.031691 0.395966 0.774198
O O10 0.084710 0.364447 0.513524
O O11 0.824715 0.304250 0.625080
O O12 0.561679 0.000000 0.250000
O O13 0.418633 0.959004 0.461255
O O14 0.355358 0.132662 0.583430
O O15 0.469861 0.950446 0.954489
O O16 0.358901 0.000000 0.750000
O O17 0.250000 0.976702 0.000000
#
# Coordination Sequence:
#
# PCOD9335215 Si02
#       8
#     8   8   8   8   8   4   8   8
#     4  11  24  47  72 108 149 198 243 309 384 464
#     4  10  21  42  71  98 142 192 246 296 370 452
#     4  11  25  47  71 105 149 197 245 306 386 463
#     4  10  24  43  66 103 143 191 238 308 376 438
#     4  12  24  46  75 110 144 196 258 313 385 458
#     4  12  28  44  72 112 150 194 266 312 380 454
#     4  12  26  49  76 106 150 201 254 316 383 449
#     4  12  26  47  74 108 148 197 255 315 376 463
#
# _framework density 23.560489
#
# number of rings (size 3 to 8) (size 9 to 14) (size 15 to 20)
#    0.000    0.800    4.667    2.000    5.600    0.000 
#    4.800    0.000    0.000    0.000    0.000    0.000 
#    0.000    0.000    0.000    0.000    0.000    0.000 
#
# Total GULP energy -167137.931365 kJ/mol
# GULP energy per Si atom -5571.264379 kJ/mol
# Density = 2.350686 g / cm^3
# Si number density = 23.560489 Si / 1000 Ang^3
#
#
#
# Elastic Constant Matrix: (Units=GPa)
#
#
# Indices 1 2 3 4 5 6 
#
# 1 83.6591 20.3001 32.0230 0.0000 0.0002 0.0000
# 2 20.3001 44.0804 35.2516 -0.0004 0.0002 0.0000
# 3 32.0230 35.2516 118.7987 -0.0021 0.0002 0.0001
# 4 0.0000 -0.0004 -0.0021 19.8000 0.0002 0.0002
# 5 0.0002 0.0002 0.0002 0.0002 35.6521 -0.0001
# 6 0.0000 0.0000 0.0001 0.0002 -0.0001 26.5392
#
#
#
# Elastic Compliance Matrix: (Units=1/GPa)
#
#
# Indices 1 2 3 4 5 6 
#
# 1 0.013974 -0.004488 -0.002435 0.000000 0.000000 0.000000
# 2 -0.004488 0.031186 -0.008044 0.000000 0.000000 0.000000
# 3 -0.002435 -0.008044 0.011461 0.000001 0.000000 0.000000
# 4 0.000000 0.000000 0.000001 0.050505 0.000000 0.000000
# 5 0.000000 0.000000 0.000000 0.000000 0.028049 0.000000
# 6 0.000000 0.000000 0.000000 0.000000 0.000000 0.037680
#
#
# Mechanical properties :
#
#
# Convention : Reuss Voigt Hill
#
# Bulk Modulus (GPa) = 37.47228 46.85418 42.16323
# Shear Modulus (GPa) = 23.61999 26.99582 25.30791
#
# Velocity S-wave (km/s) = 3.16970 3.38865 3.28100
# Velocity P-wave (km/s) = 5.41620 5.93638 5.68225
#
# Compressibility (1/GPa) = 0.02668640
#
# Stress axis : x y z
#
# Youngs Moduli (GPa) = 71.55913 32.06605 87.25292
#
# Poissons Ratio (x) = 0.14392 0.21247
# Poissons Ratio (y) = 0.32117 0.70186
# Poissons Ratio (z) = 0.17425 0.25794
#
# Static dielectric constant tensor:
#      x y z
#    x 1.986730 0.000000 0.000000 
#    y 0.000000 1.945110 0.000000 
#    z 0.000000 0.000000 1.985940 
# 
# From -- ./inp_files/11535.got.cif
#   From: 2010.05.17/outbox.cif.g08.bks.cpg/sg24_6_cif.got.tgz:11535.got - 2010.06.04 00:33:39.
