data_PCOD9335464
_publ_section_title
;
Structure prediction by ZEFSAII (Michael W. Deem and Ramdas Pophale) SiO2 
 PCOD9335464
Probable space group: I 21 21 21
;
_chemical_formula_sum "Si O2"
_cell_formula_units_Z 48
_cell_length_a 16.501569
_cell_length_b 8.051622
_cell_length_c 14.959608
_cell_angle_alpha 90.000000
_cell_angle_beta 90.000000
_cell_angle_gamma 90.000000
_cell_volume 1987.599281
_symmetry_space_group_name_H-M "I 21 21 21"
_symmetry_group_IT_number 24
_symmetry_cell_setting 'orthorhombic'
loop_
_space_group_symop_operation_xyz
x,y,z
-x,1/2-y,z
x,-y,1/2-z
1/2-x,y,-z
1/2+x,1/2+y,1/2+z
1/2-x,-y,1/2+z
1/2+x,1/2-y,-z
-x,1/2+y,1/2-z
loop_
_atom_site_type_symbol
_atom_site_label
_atom_site_fract_x
_atom_site_fract_y
_atom_site_fract_z
Si Si1 0.242755 0.377511 0.405791
Si Si2 0.581935 0.450258 0.348604
Si Si3 0.641317 0.319501 0.704692
Si Si4 0.598011 0.868845 0.624365
Si Si5 0.079480 0.975281 0.449990
Si Si6 0.599702 0.945462 0.155129
O O1 0.250000 0.285275 0.500000
O O2 0.229210 0.251270 0.323579
O O3 0.167104 0.497198 0.390639
O O4 0.325565 0.483132 0.407922
O O5 0.613835 0.500000 0.250000
O O6 0.607223 0.500955 0.448071
O O7 0.585726 0.251119 0.350149
O O8 0.489054 0.520737 0.352536
O O9 0.645273 0.500000 0.750000
O O10 0.595138 0.190622 0.770618
O O11 0.599679 0.363078 0.609734
O O12 0.514834 0.934120 0.578267
O O13 0.622246 0.694073 0.580406
O O14 0.631896 0.000000 0.250000
#
# Coordination Sequence:
#
# PCOD9335464 Si02
#       6
#     8   8   8   8   8   8
#     4  12  24  40  62  91 127 167 210 262 322 383
#     4  10  22  41  67  94 125 169 219 271 326 385
#     4  10  23  42  63  93 130 168 211 262 324 389
#     4  10  23  40  66  96 126 170 216 265 320 385
#     4  10  22  42  64  95 131 168 217 269 322 386
#     4  10  22  40  61  88 120 161 209 261 317 381
#
# _framework density 24.149735
#
# number of rings (size 3 to 8) (size 9 to 14) (size 15 to 20)
#    0.000    1.667    0.000    3.500    0.000   17.333 
#    0.000    6.667    0.000    0.000    0.000    0.000 
#    0.000    0.000    0.000    0.000    0.000    0.000 
#
# Total GULP energy -133718.272462 kJ/mol
# GULP energy per Si atom -5571.594686 kJ/mol
# Density = 2.409477 g / cm^3
# Si number density = 24.149735 Si / 1000 Ang^3
#
#
#
# Elastic Constant Matrix: (Units=GPa)
#
#
# Indices 1 2 3 4 5 6 
#
# 1 60.0320 17.8628 3.7406 0.0000 0.0000 0.0000
# 2 17.8628 88.0403 35.0556 0.0000 0.0000 0.0000
# 3 3.7406 35.0556 160.2294 0.0000 0.0000 0.0000
# 4 0.0000 0.0000 0.0000 23.5935 0.0000 0.0000
# 5 0.0000 0.0000 0.0000 0.0000 25.0363 0.0000
# 6 0.0000 0.0000 0.0000 0.0000 0.0000 16.8401
#
#
#
# Elastic Compliance Matrix: (Units=1/GPa)
#
#
# Indices 1 2 3 4 5 6 
#
# 1 0.017753 -0.003765 0.000409 0.000000 0.000000 0.000000
# 2 -0.003765 0.013241 -0.002809 0.000000 0.000000 0.000000
# 3 0.000409 -0.002809 0.006846 0.000000 0.000000 0.000000
# 4 0.000000 0.000000 0.000000 0.042385 0.000000 0.000000
# 5 0.000000 0.000000 0.000000 0.000000 0.039942 0.000000
# 6 0.000000 0.000000 0.000000 0.000000 0.000000 0.059382
#
#
# Mechanical properties :
#
#
# Convention : Reuss Voigt Hill
#
# Bulk Modulus (GPa) = 39.19994 46.84662 43.02328
# Shear Modulus (GPa) = 24.95254 29.87016 27.41135
#
# Velocity S-wave (km/s) = 3.21790 3.52074 3.37272
# Velocity P-wave (km/s) = 5.48395 5.99733 5.74638
#
# Compressibility (1/GPa) = 0.02551025
#
# Stress axis : x y z
#
# Youngs Moduli (GPa) = 56.33002 75.52436 146.06944
#
# Poissons Ratio (x) = 0.28434 -0.05978
# Poissons Ratio (y) = 0.21207 0.41031
# Poissons Ratio (z) = -0.02305 0.21215
#
# Static dielectric constant tensor:
#      x y z
#    x 2.063640 0.000000 0.000000 
#    y 0.000000 1.904640 0.000000 
#    z 0.000000 0.000000 2.104100 
# 
# From -- ./inp_files/27050.got.cif
#   From: 2010.05.17/outbox.cif.g08.bks.cpg/sg24_14_cif.got.tgz:27050.got - 2010.06.04 00:33:39.
