data_PCOD9335313
_publ_section_title
;
Structure prediction by ZEFSAII (Michael W. Deem and Ramdas Pophale) SiO2 
 PCOD9335313
Probable space group: I 21 21 21
;
_chemical_formula_sum "Si O2"
_cell_formula_units_Z 56
_cell_length_a 9.161622
_cell_length_b 13.346701
_cell_length_c 20.805385
_cell_angle_alpha 90.000000
_cell_angle_beta 90.000000
_cell_angle_gamma 90.000000
_cell_volume 2544.028998
_symmetry_space_group_name_H-M "I 21 21 21"
_symmetry_group_IT_number 24
_symmetry_cell_setting 'orthorhombic'
loop_
_space_group_symop_operation_xyz
x,y,z
-x,1/2-y,z
x,-y,1/2-z
1/2-x,y,-z
1/2+x,1/2+y,1/2+z
1/2-x,-y,1/2+z
1/2+x,1/2-y,-z
-x,1/2+y,1/2-z
loop_
_atom_site_type_symbol
_atom_site_label
_atom_site_fract_x
_atom_site_fract_y
_atom_site_fract_z
Si Si1 0.842721 0.514158 0.319596
Si Si2 0.112532 0.457859 0.918298
Si Si3 0.919294 0.852312 0.837608
Si Si4 0.658539 0.277594 0.662860
Si Si5 0.044550 0.533906 0.440410
Si Si6 0.540696 0.368174 0.204408
Si Si7 0.597673 0.329153 0.525237
O O1 0.920129 0.500000 0.250000
O O2 0.802020 0.396081 0.332308
O O3 0.704387 0.588629 0.309128
O O4 0.939889 0.556213 0.379034
O O5 0.084654 0.573078 0.897422
O O6 0.286912 0.447646 0.923718
O O7 0.051991 0.400909 0.856978
O O8 0.034473 0.426525 0.985375
O O9 0.765268 0.808550 0.813387
O O10 0.000000 0.750000 0.853252
O O11 0.994608 0.902958 0.775989
O O12 0.500000 0.250000 0.689664
O O13 0.652212 0.265174 0.586271
O O14 0.005136 0.418163 0.451922
O O15 0.500000 0.250000 0.208827
O O16 0.500000 0.250000 0.487069
O O17 0.750000 0.372732 0.500000
#
# Coordination Sequence:
#
# PCOD9335313 Si02
#       7
#     8   8   8   8   8   8   8
#     4  11  22  44  69  97 137 179 226 281 338 405
#     4  11  23  43  63  91 138 170 217 277 335 397
#     4  11  22  37  65 100 132 173 217 268 335 410
#     4  10  22  39  60 100 137 172 221 264 330 420
#     4  10  26  40  60  99 130 171 224 266 326 412
#     4  11  25  45  67  95 123 171 238 289 331 392
#     4  10  22  34  55  90 136 175 209 247 315 404
#
# _framework density 22.012326999999999
#
# number of rings (size 3 to 8) (size 9 to 14) (size 15 to 20)
#    0.000    1.429    0.000    6.429   10.000    2.286 
#    0.000    3.571    0.000    0.000    0.000    0.000 
#    0.000    0.000    0.000    0.000    0.000    0.000 
#
# Total GULP energy -155914.585511 kJ/mol
# GULP energy per Si atom -5568.378054 kJ/mol
# Density = 2.196223 g / cm^3
# Si number density = 22.012327 Si / 1000 Ang^3
#
#
#
# Elastic Constant Matrix: (Units=GPa)
#
#
# Indices 1 2 3 4 5 6 
#
# 1 104.4812 7.0156 54.9939 0.0000 0.0000 0.0000
# 2 7.0156 45.5023 10.5317 0.0000 0.0000 0.0000
# 3 54.9939 10.5317 171.8670 0.0000 0.0000 0.0000
# 4 0.0000 0.0000 0.0000 -5.8198 0.0000 0.0000
# 5 0.0000 0.0000 0.0000 0.0000 114.9979 0.0000
# 6 0.0000 0.0000 0.0000 0.0000 0.0000 33.0171
#
#
#
# Elastic Compliance Matrix: (Units=1/GPa)
#
#
# Indices 1 2 3 4 5 6 
#
# 1 0.011549 -0.000939 -0.003638 0.000000 0.000000 0.000000
# 2 -0.000939 0.022369 -0.001070 0.000000 0.000000 0.000000
# 3 -0.003638 -0.001070 0.007048 0.000000 0.000000 0.000000
# 4 0.000000 0.000000 0.000000 -0.171828 0.000000 0.000000
# 5 0.000000 0.000000 0.000000 0.000000 0.008696 0.000000
# 6 0.000000 0.000000 0.000000 0.000000 0.000000 0.030287
#
#
# Mechanical properties :
#
#
# Convention : Reuss Voigt Hill
#
# Bulk Modulus (GPa) = 33.70123 51.88146 42.79135
# Shear Modulus (GPa) = -70.72807 45.05967 -12.83420
#
# Velocity S-wave (km/s) = -5.67458 4.52931 -2.41725
# Velocity P-wave (km/s) = 5.25272 7.13956 3.41922
#
# Compressibility (1/GPa) = 0.02967250
#
# Stress axis : x y z
#
# Youngs Moduli (GPa) = 86.58803 44.70401 141.88223
#
# Poissons Ratio (x) = 0.04196 0.51615
# Poissons Ratio (y) = 0.08127 0.15187
# Poissons Ratio (z) = 0.31500 0.04785
#
# Static dielectric constant tensor:
#      x y z
#    x 2.185430 0.000000 0.000000 
#    y 0.000000 1.760240 0.000000 
#    z 0.000000 0.000000 1.880460 
# 
# From -- ./inp_files/32815.got.cif
#   From: 2010.05.17/outbox.cif.g08.bks.cpg/sg24_17_cif.got.tgz:32815.got - 2010.06.04 00:33:39.
