data_PCOD9335686
_publ_section_title
;
Structure prediction by ZEFSAII (Michael W. Deem and Ramdas Pophale) SiO2 
 PCOD9335686
Probable space group: I 21 21 21
;
_chemical_formula_sum "Si O2"
_cell_formula_units_Z 48
_cell_length_a 12.715729
_cell_length_b 5.621841
_cell_length_c 29.681135
_cell_angle_alpha 90.000000
_cell_angle_beta 90.000000
_cell_angle_gamma 90.000000
_cell_volume 2121.779877
_symmetry_space_group_name_H-M "I 21 21 21"
_symmetry_group_IT_number 24
_symmetry_cell_setting 'orthorhombic'
loop_
_space_group_symop_operation_xyz
x,y,z
-x,1/2-y,z
x,-y,1/2-z
1/2-x,y,-z
1/2+x,1/2+y,1/2+z
1/2-x,-y,1/2+z
1/2+x,1/2-y,-z
-x,1/2+y,1/2-z
loop_
_atom_site_type_symbol
_atom_site_label
_atom_site_fract_x
_atom_site_fract_y
_atom_site_fract_z
Si Si1 0.000000 0.750000 0.829376
Si Si2 0.561014 0.000000 0.750000
Si Si3 0.231199 0.803166 0.285041
Si Si4 0.124968 0.411711 0.011307
Si Si5 0.916431 0.000000 0.750000
Si Si6 0.500000 0.250000 0.069983
Si Si7 0.320529 0.977392 0.124263
Si Si8 0.832009 0.595421 0.041881
O O1 0.014816 0.536659 0.794265
O O2 0.893841 0.735642 0.857578
O O3 0.500000 0.750000 0.761517
O O4 0.643498 0.904965 0.711947
O O5 0.335588 0.709766 0.260297
O O6 0.263713 0.904118 0.333185
O O7 0.190118 0.000000 0.250000
O O8 0.109070 0.652953 0.038907
O O9 0.106981 0.154217 0.034860
O O10 0.250000 0.404742 0.000000
O O11 0.059545 0.425695 0.964809
O O12 0.408790 0.140518 0.100376
O O13 0.235479 0.912119 0.087175
O O14 0.750000 0.599305 0.000000
#
# Coordination Sequence:
#
# PCOD9335686 Si02
#       8
#     4   4   8   8   4   4   8   8
#     4  12  24  35  66 106 156 198 270 291 362 476
#     4  11  24  48  87 110 134 200 263 306 382 461
#     4  11  23  46  70 110 156 194 242 315 387 437
#     4  10  22  43  67  97 140 179 245 308 368 428
#     4  11  22  42  59  98 168 204 231 308 378 431
#     4  12  24  43  74 110 140 206 258 295 376 480
#     4  12  25  40  70 114 143 206 253 310 372 466
#     4  10  22  45  64  95 140 187 237 312 370 420
#
# _framework density 22.622517999999999
#
# number of rings (size 3 to 8) (size 9 to 14) (size 15 to 20)
#    0.000    1.000    5.833    2.000    4.667    2.000 
#    0.000    0.000    1.833    2.000    0.000    0.000 
#    0.000    0.000    0.000    0.000    0.000    0.000 
#
# Total GULP energy -133966.224632 kJ/mol
# GULP energy per Si atom -5581.926026 kJ/mol
# Density = 2.257103 g / cm^3
# Si number density = 22.622518 Si / 1000 Ang^3
#
#
#
# Elastic Constant Matrix: (Units=GPa)
#
#
# Indices 1 2 3 4 5 6 
#
# 1 91.6316 54.9351 49.4076 0.0000 0.0000 0.0000
# 2 54.9351 168.9641 54.1670 0.0000 0.0000 0.0000
# 3 49.4076 54.1670 153.9645 0.0000 0.0000 0.0000
# 4 0.0000 0.0000 0.0000 21.5630 0.0000 0.0000
# 5 0.0000 0.0000 0.0000 0.0000 8.5671 0.0000
# 6 0.0000 0.0000 0.0000 0.0000 0.0000 41.5731
#
#
#
# Elastic Compliance Matrix: (Units=1/GPa)
#
#
# Indices 1 2 3 4 5 6 
#
# 1 0.015067 -0.003774 -0.003507 0.000000 0.000000 0.000000
# 2 -0.003774 0.007616 -0.001468 0.000000 0.000000 0.000000
# 3 -0.003507 -0.001468 0.008137 0.000000 0.000000 0.000000
# 4 0.000000 0.000000 0.000000 0.046376 0.000000 0.000000
# 5 0.000000 0.000000 0.000000 0.000000 0.116725 0.000000
# 6 0.000000 0.000000 0.000000 0.000000 0.000000 0.024054
#
#
# Mechanical properties :
#
#
# Convention : Reuss Voigt Hill
#
# Bulk Modulus (GPa) = 75.07128 81.28663 78.17895
# Shear Modulus (GPa) = 20.84066 31.41068 26.12567
#
# Velocity S-wave (km/s) = 3.03848 3.73026 3.40200
# Velocity P-wave (km/s) = 6.75027 7.38667 7.07563
#
# Compressibility (1/GPa) = 0.01332067
#
# Stress axis : x y z
#
# Youngs Moduli (GPa) = 66.36933 131.29725 122.89472
#
# Poissons Ratio (x) = 0.49557 0.43102
# Poissons Ratio (y) = 0.25051 0.18045
# Poissons Ratio (z) = 0.23277 0.19278
#
# Static dielectric constant tensor:
#      x y z
#    x 1.894610 0.000000 0.000000 
#    y 0.000000 1.983380 0.000000 
#    z 0.000000 0.000000 1.804800 
# 
# From -- ./inp_files/37410.got.cif
#   From: 2010.05.17/outbox.cif.g08.bks.cpg/sg24_19_cif.got.tgz:37410.got - 2010.06.04 00:33:39.
