data_PCOD9335604
_publ_section_title
;
Structure prediction by ZEFSAII (Michael W. Deem and Ramdas Pophale) SiO2 
 PCOD9335604
Probable space group: I 21 21 21
;
_chemical_formula_sum "Si O2"
_cell_formula_units_Z 44
_cell_length_a 16.440382
_cell_length_b 14.079736
_cell_length_c 8.529205
_cell_angle_alpha 90.000000
_cell_angle_beta 90.000000
_cell_angle_gamma 90.000000
_cell_volume 1974.308289
_symmetry_space_group_name_H-M "I 21 21 21"
_symmetry_group_IT_number 24
_symmetry_cell_setting 'orthorhombic'
loop_
_space_group_symop_operation_xyz
x,y,z
-x,1/2-y,z
x,-y,1/2-z
1/2-x,y,-z
1/2+x,1/2+y,1/2+z
1/2-x,-y,1/2+z
1/2+x,1/2-y,-z
-x,1/2+y,1/2-z
loop_
_atom_site_type_symbol
_atom_site_label
_atom_site_fract_x
_atom_site_fract_y
_atom_site_fract_z
Si Si1 0.668227 0.263400 0.238585
Si Si2 0.500000 0.250000 0.049941
Si Si3 0.176804 0.954878 0.589207
Si Si4 0.455926 0.090800 0.832887
Si Si5 0.594354 0.263934 0.573764
Si Si6 0.211509 0.398115 0.328045
O O1 0.580848 0.254362 0.153897
O O2 0.708452 0.352401 0.151115
O O3 0.647876 0.285726 0.420501
O O4 0.723964 0.169805 0.236289
O O5 0.510906 0.161057 0.933780
O O6 0.250000 0.006005 0.500000
O O7 0.107101 0.946076 0.462174
O O8 0.146228 0.000000 0.750000
O O9 0.409078 0.154028 0.703744
O O10 0.494455 0.000000 0.750000
O O11 0.500000 0.250000 0.527093
O O12 0.632264 0.167834 0.645897
O O13 0.198455 0.500000 0.250000
O O14 0.250000 0.414214 0.500000
#
# Coordination Sequence:
#
# PCOD9335604 Si02
#       6
#     8   4   8   8   8   8
#     4  10  22  44  67  97 136 185 230 292 353 424
#     4  10  22  42  64  96 138 184 234 286 356 422
#     4  11  23  39  65  96 131 174 225 287 352 422
#     4  11  23  41  63  97 132 177 229 288 349 416
#     4  11  22  43  71  97 136 183 233 293 351 424
#     4  10  24  44  67 100 135 181 228 282 349 413
#
# _framework density 22.286286
#
# number of rings (size 3 to 8) (size 9 to 14) (size 15 to 20)
#    0.000    1.455    1.818    2.727    0.000    6.545 
#    6.545    0.909    0.000    0.000    0.000    0.000 
#    0.000    0.000    0.000    0.000    0.000    0.000 
#
# Total GULP energy -122990.842538 kJ/mol
# GULP energy per Si atom -5590.492843 kJ/mol
# Density = 2.223556 g / cm^3
# Si number density = 22.286286 Si / 1000 Ang^3
#
#
#
# Elastic Constant Matrix: (Units=GPa)
#
#
# Indices 1 2 3 4 5 6 
#
# 1 64.2604 15.2638 16.4966 0.0000 0.0000 0.0000
# 2 15.2638 124.4505 47.6163 0.0000 0.0000 0.0000
# 3 16.4966 47.6163 125.5079 0.0000 0.0000 0.0000
# 4 0.0000 0.0000 0.0000 41.9303 0.0000 0.0000
# 5 0.0000 0.0000 0.0000 0.0000 13.9448 0.0000
# 6 0.0000 0.0000 0.0000 0.0000 0.0000 21.3201
#
#
#
# Elastic Compliance Matrix: (Units=1/GPa)
#
#
# Indices 1 2 3 4 5 6 
#
# 1 0.016305 -0.001380 -0.001620 0.000000 0.000000 0.000000
# 2 -0.001380 0.009517 -0.003429 0.000000 0.000000 0.000000
# 3 -0.001620 -0.003429 0.009481 0.000000 0.000000 0.000000
# 4 0.000000 0.000000 0.000000 0.023849 0.000000 0.000000
# 5 0.000000 0.000000 0.000000 0.000000 0.071711 0.000000
# 6 0.000000 0.000000 0.000000 0.000000 0.000000 0.046904
#
#
# Mechanical properties :
#
#
# Convention : Reuss Voigt Hill
#
# Bulk Modulus (GPa) = 44.55186 52.55247 48.55217
# Shear Modulus (GPa) = 25.23887 31.09519 28.16703
#
# Velocity S-wave (km/s) = 3.36889 3.73937 3.55896
# Velocity P-wave (km/s) = 5.93015 6.50198 6.22263
#
# Compressibility (1/GPa) = 0.02244575
#
# Stress axis : x y z
#
# Youngs Moduli (GPa) = 61.32987 105.07940 105.46902
#
# Poissons Ratio (x) = 0.14503 0.17081
# Poissons Ratio (y) = 0.08465 0.36166
# Poissons Ratio (z) = 0.09933 0.36033
#
# Static dielectric constant tensor:
#      x y z
#    x 1.809950 0.000000 0.000000 
#    y 0.000000 1.885080 0.000000 
#    z 0.000000 0.000000 1.804590 
# 
# From -- ./inp_files/14099.got.cif
#   From: 2010.05.17/outbox.cif.g08.bks.cpg/sg24_8_cif.got.tgz:14099.got - 2010.06.04 00:33:39.
