data_PCOD9335415
_publ_section_title
;
Structure prediction by ZEFSAII (Michael W. Deem and Ramdas Pophale) SiO2 
 PCOD9335415
Probable space group: I 21 21 21
;
_chemical_formula_sum "Si O2"
_cell_formula_units_Z 60
_cell_length_a 5.567754
_cell_length_b 21.515433
_cell_length_c 21.194078
_cell_angle_alpha 90.000000
_cell_angle_beta 90.000000
_cell_angle_gamma 90.000000
_cell_volume 2538.894517
_symmetry_space_group_name_H-M "I 21 21 21"
_symmetry_group_IT_number 24
_symmetry_cell_setting 'orthorhombic'
loop_
_space_group_symop_operation_xyz
x,y,z
-x,1/2-y,z
x,-y,1/2-z
1/2-x,y,-z
1/2+x,1/2+y,1/2+z
1/2-x,-y,1/2+z
1/2+x,1/2-y,-z
-x,1/2+y,1/2-z
loop_
_atom_site_type_symbol
_atom_site_label
_atom_site_fract_x
_atom_site_fract_y
_atom_site_fract_z
Si Si1 0.499516 0.358164 0.510339
Si Si2 0.500000 0.750000 0.166259
Si Si3 0.621987 0.330812 0.740263
Si Si4 0.018872 0.927983 0.760938
Si Si5 0.270663 0.639709 0.862760
Si Si6 0.543490 0.320597 0.887673
Si Si7 0.499433 0.003852 0.464866
Si Si8 0.450671 0.610540 0.379944
O O1 0.750000 0.326193 0.500000
O O2 0.457348 0.379631 0.583229
O O3 0.502763 0.420281 0.465663
O O4 0.250000 0.324374 0.500000
O O5 0.334277 0.788511 0.214629
O O6 0.414307 0.694395 0.120415
O O7 0.412031 0.323169 0.691292
O O8 0.552863 0.318031 0.811401
O O9 0.712739 0.401615 0.732112
O O10 0.866703 0.912275 0.823111
O O11 0.935857 0.892921 0.696519
O O12 0.013470 0.000000 0.750000
O O13 0.500000 0.250000 0.911279
O O14 0.303764 0.360901 0.903726
O O15 0.808866 0.350659 0.901542
O O16 0.750000 0.989181 0.500000
O O17 0.509634 0.959893 0.404099
O O18 0.250000 0.987541 0.500000
#
# Coordination Sequence:
#
# PCOD9335415 Si02
#       8
#     8   4   8   8   8   8   8   8
#     4  10  25  43  69  97 127 183 237 288 336 408
#     4  10  22  38  70  96 136 186 222 294 344 428
#     4  10  22  39  64  99 138 185 225 273 356 430
#     4  10  24  37  60 101 142 181 214 290 355 421
#     4  11  22  42  68  97 140 174 239 280 359 421
#     4  11  22  39  66 100 137 173 222 276 346 421
#     4  10  22  42  67  93 127 180 235 279 331 408
#     4  11  23  41  63  99 139 175 226 277 347 413
#
# _framework density 23.632332999999999
#
# number of rings (size 3 to 8) (size 9 to 14) (size 15 to 20)
#    0.000    1.600    1.333    2.400   11.200    1.600 
#    0.000    0.000    2.933    8.000    0.000    0.000 
#    0.000    0.000    0.000    0.000    0.000    0.000 
#
# Total GULP energy -167279.836491 kJ/mol
# GULP energy per Si atom -5575.994550 kJ/mol
# Density = 2.357855 g / cm^3
# Si number density = 23.632333 Si / 1000 Ang^3
#
#
#
# Elastic Constant Matrix: (Units=GPa)
#
#
# Indices 1 2 3 4 5 6 
#
# 1 153.0158 45.2568 21.1084 0.0000 0.0000 0.0000
# 2 45.2568 142.4904 17.8161 0.0000 0.0000 0.0000
# 3 21.1084 17.8161 44.3217 0.0000 0.0000 0.0000
# 4 0.0000 0.0000 0.0000 -2.5313 0.0000 0.0000
# 5 0.0000 0.0000 0.0000 0.0000 27.9806 0.0000
# 6 0.0000 0.0000 0.0000 0.0000 0.0000 9.4161
#
#
#
# Elastic Compliance Matrix: (Units=1/GPa)
#
#
# Indices 1 2 3 4 5 6 
#
# 1 0.007520 -0.002043 -0.002760 0.000000 0.000000 0.000000
# 2 -0.002043 0.007945 -0.002220 0.000000 0.000000 0.000000
# 3 -0.002760 -0.002220 0.024769 0.000000 0.000000 0.000000
# 4 0.000000 0.000000 0.000000 -0.395051 0.000000 0.000000
# 5 0.000000 0.000000 0.000000 0.000000 0.035739 0.000000
# 6 0.000000 0.000000 0.000000 0.000000 0.000000 0.106201
#
#
# Mechanical properties :
#
#
# Convention : Reuss Voigt Hill
#
# Bulk Modulus (GPa) = 38.18772 56.46563 47.32667
# Shear Modulus (GPa) = -26.30199 24.01618 -1.14291
#
# Velocity S-wave (km/s) = -3.33973 3.19131 -0.69618
# Velocity P-wave (km/s) = 1.14996 6.12573 4.40721
#
# Compressibility (1/GPa) = 0.02618643
#
# Stress axis : x y z
#
# Youngs Moduli (GPa) = 132.97114 125.87066 40.37245
#
# Poissons Ratio (x) = 0.25721 0.11144
# Poissons Ratio (y) = 0.27172 0.08964
# Poissons Ratio (z) = 0.36703 0.27947
#
# Static dielectric constant tensor:
#      x y z
#    x 2.065090 0.000000 0.000000 
#    y 0.000000 1.903610 0.000000 
#    z 0.000000 0.000000 1.977330 
# 
# From -- ./inp_files/34793.got.cif
#   From: 2010.05.17/outbox.cif.g08.bks.cpg/sg24_18_cif.got.tgz:34793.got - 2010.06.04 00:33:39.
