data_PCOD9335913
_publ_section_title
;
Structure prediction by ZEFSAII (Michael W. Deem and Ramdas Pophale) SiO2 
 PCOD9335913
Probable space group: I 21 21 21
;
_chemical_formula_sum "Si O2"
_cell_formula_units_Z 56
_cell_length_a 7.475417
_cell_length_b 12.817135
_cell_length_c 27.029660
_cell_angle_alpha 90.000000
_cell_angle_beta 90.000000
_cell_angle_gamma 90.000000
_cell_volume 2589.804406
_symmetry_space_group_name_H-M "I 21 21 21"
_symmetry_group_IT_number 24
_symmetry_cell_setting 'orthorhombic'
loop_
_space_group_symop_operation_xyz
x,y,z
-x,1/2-y,z
x,-y,1/2-z
1/2-x,y,-z
1/2+x,1/2+y,1/2+z
1/2-x,-y,1/2+z
1/2+x,1/2-y,-z
-x,1/2+y,1/2-z
loop_
_atom_site_type_symbol
_atom_site_label
_atom_site_fract_x
_atom_site_fract_y
_atom_site_fract_z
Si Si1 0.616431 0.571152 0.881192
Si Si2 0.698031 0.790986 0.555011
Si Si3 0.011908 0.547838 0.857524
Si Si4 0.500000 0.250000 0.687719
Si Si5 0.209167 0.277938 0.767982
Si Si6 0.202268 0.458846 0.443530
Si Si7 0.356681 0.500000 0.250000
Si Si8 0.722240 0.643395 0.362211
O O1 0.509445 0.644927 0.844039
O O2 0.500165 0.576984 0.930974
O O3 0.629873 0.447798 0.868946
O O4 0.826399 0.602256 0.876127
O O5 0.500000 0.750000 0.564523
O O6 0.750000 0.759543 0.500000
O O7 0.710710 0.915037 0.558373
O O8 0.804594 0.723068 0.593842
O O9 0.164609 0.573517 0.898008
O O10 0.048672 0.556161 0.798110
O O11 0.957544 0.425335 0.859218
O O12 0.324849 0.246803 0.721173
O O13 0.241526 0.401699 0.774240
O O14 0.268054 0.209257 0.814257
O O15 0.000000 0.250000 0.762920
O O16 0.250000 0.427534 0.500000
#
# Coordination Sequence:
#
# PCOD9335913 Si02
#       8
#     8   8   8   4   8   8   4   8
#     4  10  24  46  65  97 132 170 232 279 347 406
#     4  11  23  36  60  98 133 174 221 274 338 413
#     4  10  23  42  67  93 138 181 220 282 338 416
#     4  12  28  42  72  96 130 178 228 296 344 404
#     4  12  25  42  64  98 137 181 231 275 334 413
#     4  11  24  42  70 100 134 179 229 279 344 411
#     4  12  22  42  68 100 138 188 228 276 344 408
#     4  10  24  40  63  89 139 177 219 270 344 404
#
# _framework density 21.623255
#
# number of rings (size 3 to 8) (size 9 to 14) (size 15 to 20)
#    0.857    0.286    2.857    2.571    5.000    3.429 
#    0.000    0.714    3.143    0.000    0.000    0.000 
#    0.000    0.000    0.000    0.000    0.000    0.000 
#
# Total GULP energy -156001.324368 kJ/mol
# GULP energy per Si atom -5571.475870 kJ/mol
# Density = 2.157404 g / cm^3
# Si number density = 21.623255 Si / 1000 Ang^3
#
#
#
# Elastic Constant Matrix: (Units=GPa)
#
#
# Indices 1 2 3 4 5 6 
#
# 1 78.1774 10.1969 58.3728 0.0000 0.0000 0.0000
# 2 10.1969 23.9363 20.4570 0.0000 0.0000 0.0000
# 3 58.3728 20.4570 132.2832 0.0000 0.0000 0.0000
# 4 0.0000 0.0000 0.0000 29.7238 0.0000 0.0000
# 5 0.0000 0.0000 0.0000 0.0000 35.3486 0.0000
# 6 0.0000 0.0000 0.0000 0.0000 0.0000 -2.2622
#
#
#
# Elastic Compliance Matrix: (Units=1/GPa)
#
#
# Indices 1 2 3 4 5 6 
#
# 1 0.019101 -0.001076 -0.008262 0.000000 0.000000 0.000000
# 2 -0.001076 0.048201 -0.006979 0.000000 0.000000 0.000000
# 3 -0.008262 -0.006979 0.012285 0.000000 0.000000 0.000000
# 4 0.000000 0.000000 0.000000 0.033643 0.000000 0.000000
# 5 0.000000 0.000000 0.000000 0.000000 0.028290 0.000000
# 6 0.000000 0.000000 0.000000 0.000000 0.000000 -0.442049
#
#
# Mechanical properties :
#
#
# Convention : Reuss Voigt Hill
#
# Bulk Modulus (GPa) = 21.29846 45.82780 33.56313
# Shear Modulus (GPa) = -19.82205 22.25337 1.21566
#
# Velocity S-wave (km/s) = -3.03099 3.21150 0.75061
# Velocity P-wave (km/s) = 1.54209 5.91536 4.03816
#
# Compressibility (1/GPa) = 0.04695176
#
# Stress axis : x y z
#
# Youngs Moduli (GPa) = 52.35319 20.74657 81.40122
#
# Poissons Ratio (x) = 0.02232 0.67257
# Poissons Ratio (y) = 0.05631 0.56813
# Poissons Ratio (z) = 0.43256 0.14480
#
# Static dielectric constant tensor:
#      x y z
#    x 2.475800 0.000000 0.000000 
#    y 0.000000 1.779380 0.000000 
#    z 0.000000 0.000000 1.848180 
# 
# From -- ./inp_files/32861.got.cif
#   From: 2010.05.17/outbox.cif.g08.bks.cpg/sg24_17_cif.got.tgz:32861.got - 2010.06.04 00:33:39.
