data_PCOD9335930
_publ_section_title
;
Structure prediction by ZEFSAII (Michael W. Deem and Ramdas Pophale) SiO2 
 PCOD9335930
Probable space group: I 21 21 21
;
_chemical_formula_sum "Si O2"
_cell_formula_units_Z 32
_cell_length_a 4.993535
_cell_length_b 9.955038
_cell_length_c 27.831704
_cell_angle_alpha 90.000000
_cell_angle_beta 90.000000
_cell_angle_gamma 90.000000
_cell_volume 1383.537125
_symmetry_space_group_name_H-M "I 21 21 21"
_symmetry_group_IT_number 24
_symmetry_cell_setting 'orthorhombic'
loop_
_space_group_symop_operation_xyz
x,y,z
-x,1/2-y,z
x,-y,1/2-z
1/2-x,y,-z
1/2+x,1/2+y,1/2+z
1/2-x,-y,1/2+z
1/2+x,1/2-y,-z
-x,1/2+y,1/2-z
loop_
_atom_site_type_symbol
_atom_site_label
_atom_site_fract_x
_atom_site_fract_y
_atom_site_fract_z
Si Si1 0.526745 0.037356 0.138873
Si Si2 0.268667 0.156303 0.232971
Si Si3 0.458046 0.097604 0.608648
Si Si4 0.199396 0.862031 0.444854
O O1 0.823180 0.980129 0.140974
O O2 0.325275 0.912341 0.134908
O O3 0.409285 0.123718 0.181811
O O4 0.457946 0.112784 0.088588
O O5 0.500000 0.250000 0.258303
O O6 0.000000 0.250000 0.230863
O O7 0.216694 0.000000 0.250000
O O8 0.500000 0.250000 0.597654
O O9 0.443988 0.006171 0.561087
O O10 0.250000 0.831527 0.500000
O O11 0.000000 0.750000 0.424100
#
# Coordination Sequence:
#
# PCOD9335930 Si02
#       4
#     8   8   8   8
#     4  10  24  42  70  96 138 186 233 291 361 423
#     4  12  27  48  76 110 147 192 245 308 373 442
#     4  10  23  43  65  98 135 186 235 294 352 427
#     4  10  25  39  66 101 136 187 234 294 347 433
#
# _framework density 23.129123
#
# number of rings (size 3 to 8) (size 9 to 14) (size 15 to 20)
#    1.500    0.000    0.000    3.750    7.000    3.000 
#    4.500    0.000    0.000    0.000    0.000    0.000 
#    0.000    0.000    0.000    0.000    0.000    0.000 
#
# Total GULP energy -89081.699492 kJ/mol
# GULP energy per Si atom -5567.606218 kJ/mol
# Density = 2.307648 g / cm^3
# Si number density = 23.129123 Si / 1000 Ang^3
#
#
#
# Elastic Constant Matrix: (Units=GPa)
#
#
# Indices 1 2 3 4 5 6 
#
# 1 84.6883 23.9563 3.7288 0.0000 0.0000 0.0000
# 2 23.9563 180.6479 1.7580 0.0000 0.0000 0.0000
# 3 3.7288 1.7580 55.6201 0.0000 0.0000 0.0000
# 4 0.0000 0.0000 0.0000 14.9436 0.0000 0.0000
# 5 0.0000 0.0000 0.0000 0.0000 14.2218 0.0000
# 6 0.0000 0.0000 0.0000 0.0000 0.0000 45.0088
#
#
#
# Elastic Compliance Matrix: (Units=1/GPa)
#
#
# Indices 1 2 3 4 5 6 
#
# 1 0.012301 -0.001624 -0.000773 0.000000 0.000000 0.000000
# 2 -0.001624 0.005752 -0.000073 0.000000 0.000000 0.000000
# 3 -0.000773 -0.000073 0.018033 0.000000 0.000000 0.000000
# 4 0.000000 0.000000 0.000000 0.066918 0.000000 0.000000
# 5 0.000000 0.000000 0.000000 0.000000 0.070314 0.000000
# 6 0.000000 0.000000 0.000000 0.000000 0.000000 0.022218
#
#
# Mechanical properties :
#
#
# Convention : Reuss Voigt Hill
#
# Bulk Modulus (GPa) = 32.10673 42.20473 37.15573
# Shear Modulus (GPa) = 23.71250 34.26906 28.99078
#
# Velocity S-wave (km/s) = 3.20538 3.85338 3.54422
# Velocity P-wave (km/s) = 5.25461 6.17132 5.73132
#
# Compressibility (1/GPa) = 0.03114612
#
# Stress axis : x y z
#
# Youngs Moduli (GPa) = 81.29166 173.86236 55.45308
#
# Poissons Ratio (x) = 0.28232 0.04289
# Poissons Ratio (y) = 0.13200 0.00404
# Poissons Ratio (z) = 0.06287 0.01268
#
# Static dielectric constant tensor:
#      x y z
#    x 1.925700 0.000000 0.000000 
#    y 0.000000 1.896940 0.000000 
#    z 0.000000 0.000000 1.905120 
# 
# From -- ./inp_files/1144.got.cif
#   From: 2010.05.17/outbox.cif.g08.bks.cpg/sg24_1_cif.got.tgz:1144.got - 2010.06.04 00:33:39.
