data_PCOD9335845
_publ_section_title
;
Structure prediction by ZEFSAII (Michael W. Deem and Ramdas Pophale) SiO2 
 PCOD9335845
Probable space group: I 21 21 21
;
_chemical_formula_sum "Si O2"
_cell_formula_units_Z 64
_cell_length_a 23.270018
_cell_length_b 25.269823
_cell_length_c 5.493108
_cell_angle_alpha 90.000000
_cell_angle_beta 90.000000
_cell_angle_gamma 90.000000
_cell_volume 3230.108101
_symmetry_space_group_name_H-M "I 21 21 21"
_symmetry_group_IT_number 24
_symmetry_cell_setting 'orthorhombic'
loop_
_space_group_symop_operation_xyz
x,y,z
-x,1/2-y,z
x,-y,1/2-z
1/2-x,y,-z
1/2+x,1/2+y,1/2+z
1/2-x,-y,1/2+z
1/2+x,1/2-y,-z
-x,1/2+y,1/2-z
loop_
_atom_site_type_symbol
_atom_site_label
_atom_site_fract_x
_atom_site_fract_y
_atom_site_fract_z
Si Si1 0.022573 0.165821 0.923598
Si Si2 0.713537 0.561428 0.750786
Si Si3 0.630044 0.658719 0.740523
Si Si4 0.589188 0.173638 0.763145
Si Si5 0.904977 0.256086 0.616893
Si Si6 0.999621 0.445689 0.800793
Si Si7 0.429236 0.554770 0.807288
Si Si8 0.182638 0.258625 0.995915
O O1 0.050745 0.216269 0.798338
O O2 0.026582 0.112348 0.764813
O O3 0.065317 0.153404 0.145761
O O4 0.958272 0.174391 0.021922
O O5 0.694448 0.500000 0.750000
O O6 0.750000 0.569588 0.500000
O O7 0.662154 0.603498 0.758600
O O8 0.750000 0.569244 0.000000
O O9 0.666077 0.698070 0.563375
O O10 0.622966 0.694165 0.978143
O O11 0.565268 0.211764 0.550405
O O12 0.598757 0.112423 0.703882
O O13 0.648326 0.202789 0.824613
O O14 0.850545 0.229552 0.746919
O O15 0.964441 0.500000 0.750000
O O16 0.045941 0.449376 0.581231
O O17 0.024432 0.445022 0.079438
O O18 0.396024 0.500000 0.750000
O O19 0.250000 0.265721 0.000000
#
# Coordination Sequence:
#
# PCOD9335845 Si02
#       8
#     8   8   8   8   8   8   8   8
#     4  10  23  39  55  90 128 166 209 253 320 386
#     4  10  23  43  67  92 122 168 227 283 328 366
#     4  10  23  38  58  89 122 169 209 263 320 380
#     4  10  23  39  60  92 122 164 206 255 318 379
#     4  10  24  39  59  87 127 167 205 263 316 385
#     4   9  19  37  57  83 122 166 208 249 295 363
#     4   9  19  37  61  89 119 161 208 244 298 370
#     4  10  23  41  62  88 118 157 212 258 318 381
#
# _framework density 19.813579000000001
#
# number of rings (size 3 to 8) (size 9 to 14) (size 15 to 20)
#    0.000    2.250    0.000    0.375   12.250    7.000 
#    2.250    0.625    0.000    0.000    3.250    0.000 
#    0.000    0.000    0.000    0.000    0.000    0.000 
#
# Total GULP energy -178282.983978 kJ/mol
# GULP energy per Si atom -5571.343249 kJ/mol
# Density = 1.976848 g / cm^3
# Si number density = 19.813579 Si / 1000 Ang^3
#
#
#
# Elastic Constant Matrix: (Units=GPa)
#
#
# Indices 1 2 3 4 5 6 
#
# 1 78.8561 32.2968 9.3266 0.0000 0.0000 0.0000
# 2 32.2968 142.6461 16.3610 0.0000 0.0000 0.0000
# 3 9.3266 16.3610 83.2491 0.0000 0.0000 0.0000
# 4 0.0000 0.0000 0.0000 14.0860 0.0000 0.0000
# 5 0.0000 0.0000 0.0000 0.0000 5.6156 0.0000
# 6 0.0000 0.0000 0.0000 0.0000 0.0000 31.7536
#
#
#
# Elastic Compliance Matrix: (Units=1/GPa)
#
#
# Indices 1 2 3 4 5 6 
#
# 1 0.014054 -0.003071 -0.000971 0.000000 0.000000 0.000000
# 2 -0.003071 0.007843 -0.001197 0.000000 0.000000 0.000000
# 3 -0.000971 -0.001197 0.012356 0.000000 0.000000 0.000000
# 4 0.000000 0.000000 0.000000 0.070992 0.000000 0.000000
# 5 0.000000 0.000000 0.000000 0.000000 0.178076 0.000000
# 6 0.000000 0.000000 0.000000 0.000000 0.000000 0.031493
#
#
# Mechanical properties :
#
#
# Convention : Reuss Voigt Hill
#
# Bulk Modulus (GPa) = 42.06097 46.74668 44.40382
# Shear Modulus (GPa) = 15.00525 26.74216 20.87371
#
# Velocity S-wave (km/s) = 2.75493 3.67780 3.24930
# Velocity P-wave (km/s) = 5.60303 6.45596 6.04456
#
# Compressibility (1/GPa) = 0.02377501
#
# Stress axis : x y z
#
# Youngs Moduli (GPa) = 71.15526 127.50380 80.93076
#
# Poissons Ratio (x) = 0.39151 0.07858
# Poissons Ratio (y) = 0.21849 0.09690
# Poissons Ratio (z) = 0.06909 0.15267
#
# Static dielectric constant tensor:
#      x y z
#    x 1.662440 0.000000 0.000000 
#    y 0.000000 1.784560 0.000000 
#    z 0.000000 0.000000 1.817820 
# 
# From -- ./inp_files/6625.got.cif
#   From: 2010.05.17/outbox.cif.g08.bks.cpg/sg24_4_cif.got.tgz:6625.got - 2010.06.04 00:33:39.
