data_PCOD9335374
_publ_section_title
;
Structure prediction by ZEFSAII (Michael W. Deem and Ramdas Pophale) SiO2 
 PCOD9335374
Probable space group: I 21 21 21
;
_chemical_formula_sum "Si O2"
_cell_formula_units_Z 28
_cell_length_a 23.385507
_cell_length_b 6.855870
_cell_length_c 9.390960
_cell_angle_alpha 90.000000
_cell_angle_beta 90.000000
_cell_angle_gamma 90.000000
_cell_volume 1505.633796
_symmetry_space_group_name_H-M "I 21 21 21"
_symmetry_group_IT_number 24
_symmetry_cell_setting 'orthorhombic'
loop_
_space_group_symop_operation_xyz
x,y,z
-x,1/2-y,z
x,-y,1/2-z
1/2-x,y,-z
1/2+x,1/2+y,1/2+z
1/2-x,-y,1/2+z
1/2+x,1/2-y,-z
-x,1/2+y,1/2-z
loop_
_atom_site_type_symbol
_atom_site_label
_atom_site_fract_x
_atom_site_fract_y
_atom_site_fract_z
Si Si1 0.934215 0.224187 0.759123
Si Si2 0.821534 0.500000 0.250000
Si Si3 0.126684 0.035442 0.555548
Si Si4 0.230150 0.688951 0.843069
O O1 0.079561 0.500000 0.750000
O O2 0.924798 0.323013 0.604533
O O3 0.000000 0.250000 0.803489
O O4 0.891889 0.336909 0.866183
O O5 0.859409 0.501895 0.392195
O O6 0.780502 0.310592 0.265024
O O7 0.181420 0.150583 0.620290
O O8 0.214228 0.500000 0.750000
O O9 0.250000 0.620410 0.000000
#
# Coordination Sequence:
#
# PCOD9335374 Si02
#       4
#     8   4   8   8
#     4  11  21  39  63  82 111 152 205 247 292 341
#     4  10  22  40  58  90 130 154 190 240 298 352
#     4  10  22  38  61  90 119 156 196 247 288 353
#     4  10  22  38  60  89 123 160 195 235 291 356
#
# _framework density 18.596819
#
# number of rings (size 3 to 8) (size 9 to 14) (size 15 to 20)
#    0.000    1.714    2.857    2.571    0.000   12.571 
#    0.000    1.429    0.000    0.000    0.000    0.000 
#    0.000    0.000    0.000    0.000    0.000    0.000 
#
# Total GULP energy -78032.008197 kJ/mol
# GULP energy per Si atom -5573.714871 kJ/mol
# Density = 1.855449 g / cm^3
# Si number density = 18.596819 Si / 1000 Ang^3
#
#
#
# Elastic Constant Matrix: (Units=GPa)
#
#
# Indices 1 2 3 4 5 6 
#
# 1 80.7340 42.8813 71.0171 0.0000 0.0000 0.0000
# 2 42.8813 169.6388 81.0856 0.0000 0.0000 0.0000
# 3 71.0171 81.0856 165.2194 0.0000 0.0000 0.0000
# 4 0.0000 0.0000 0.0000 32.0326 0.0000 0.0000
# 5 0.0000 0.0000 0.0000 0.0000 22.2137 0.0000
# 6 0.0000 0.0000 0.0000 0.0000 0.0000 31.9651
#
#
#
# Elastic Compliance Matrix: (Units=1/GPa)
#
#
# Indices 1 2 3 4 5 6 
#
# 1 0.020116 -0.001244 -0.008036 0.000000 0.000000 0.000000
# 2 -0.001244 0.007778 -0.003283 0.000000 0.000000 0.000000
# 3 -0.008036 -0.003283 0.011118 0.000000 0.000000 0.000000
# 4 0.000000 0.000000 0.000000 0.031218 0.000000 0.000000
# 5 0.000000 0.000000 0.000000 0.000000 0.045017 0.000000
# 6 0.000000 0.000000 0.000000 0.000000 0.000000 0.031284
#
#
# Mechanical properties :
#
#
# Convention : Reuss Voigt Hill
#
# Bulk Modulus (GPa) = 72.01077 89.50670 80.75874
# Shear Modulus (GPa) = 28.36295 31.94947 30.15621
#
# Velocity S-wave (km/s) = 3.90955 4.14938 4.03125
# Velocity P-wave (km/s) = 7.69322 8.43748 8.07393
#
# Compressibility (1/GPa) = 0.01388681
#
# Stress axis : x y z
#
# Youngs Moduli (GPa) = 49.71194 128.56036 89.94476
#
# Poissons Ratio (x) = 0.15989 0.72281
# Poissons Ratio (y) = 0.06183 0.29528
# Poissons Ratio (z) = 0.39949 0.42205
#
# Static dielectric constant tensor:
#      x y z
#    x 1.697590 0.000000 0.000000 
#    y 0.000000 1.684940 0.000000 
#    z 0.000000 0.000000 1.646800 
# 
# From -- ./inp_files/15575.got.cif
#   From: 2010.05.17/outbox.cif.g08.bks.cpg/sg24_8_cif.got.tgz:15575.got - 2010.06.04 00:33:39.
