data_PCOD9335595
_publ_section_title
;
Structure prediction by ZEFSAII (Michael W. Deem and Ramdas Pophale) SiO2 
 PCOD9335595
Probable space group: I 21 21 21
;
_chemical_formula_sum "Si O2"
_cell_formula_units_Z 40
_cell_length_a 21.093344
_cell_length_b 5.574305
_cell_length_c 14.382660
_cell_angle_alpha 90.000000
_cell_angle_beta 90.000000
_cell_angle_gamma 90.000000
_cell_volume 1691.123704
_symmetry_space_group_name_H-M "I 21 21 21"
_symmetry_group_IT_number 24
_symmetry_cell_setting 'orthorhombic'
loop_
_space_group_symop_operation_xyz
x,y,z
-x,1/2-y,z
x,-y,1/2-z
1/2-x,y,-z
1/2+x,1/2+y,1/2+z
1/2-x,-y,1/2+z
1/2+x,1/2-y,-z
-x,1/2+y,1/2-z
loop_
_atom_site_type_symbol
_atom_site_label
_atom_site_fract_x
_atom_site_fract_y
_atom_site_fract_z
Si Si1 0.076841 0.759696 0.133747
Si Si2 0.572910 0.243855 0.961355
Si Si3 0.613339 0.116070 0.160552
Si Si4 0.262455 0.359001 0.392087
Si Si5 0.707064 0.500000 0.250000
Si Si6 0.333268 0.500000 0.750000
O O1 0.118195 0.715952 0.226156
O O2 0.000000 0.750000 0.149658
O O3 0.094460 0.515626 0.077043
O O4 0.096787 0.000688 0.078550
O O5 0.500000 0.250000 0.933449
O O6 0.577630 0.225690 0.073036
O O7 0.660104 0.313140 0.202142
O O8 0.577987 0.000000 0.250000
O O9 0.663955 0.924822 0.121029
O O10 0.250000 0.342736 0.500000
O O11 0.215397 0.537511 0.336258
O O12 0.253034 0.119983 0.331869
#
# Coordination Sequence:
#
# PCOD9335595 Si02
#       6
#     8   8   8   8   4   4
#     4  10  25  45  70 102 141 180 245 305 363 438
#     4  10  23  46  71 103 139 193 239 299 372 434
#     4  10  22  42  63  96 146 182 239 305 355 425
#     4  11  24  44  65 100 142 185 245 297 368 439
#     4  10  22  42  63  95 142 186 238 306 354 430
#     4  12  24  46  69 105 138 192 244 290 382 442
#
# _framework density 23.652912000000001
#
# number of rings (size 3 to 8) (size 9 to 14) (size 15 to 20)
#    0.000    1.600    3.000    1.200    8.400    5.600 
#    1.800    0.000    0.000    0.000    0.000    0.000 
#    0.000    0.000    0.000    0.000    0.000    0.000 
#
# Total GULP energy -111559.178576 kJ/mol
# GULP energy per Si atom -5577.958929 kJ/mol
# Density = 2.359908 g / cm^3
# Si number density = 23.652912 Si / 1000 Ang^3
#
#
#
# Elastic Constant Matrix: (Units=GPa)
#
#
# Indices 1 2 3 4 5 6 
#
# 1 39.9775 14.3015 3.9599 0.0000 0.0000 0.0000
# 2 14.3015 151.7131 82.0197 0.0000 0.0000 0.0000
# 3 3.9599 82.0197 165.9781 0.0000 0.0000 0.0000
# 4 0.0000 0.0000 0.0000 40.5724 0.0000 0.0000
# 5 0.0000 0.0000 0.0000 0.0000 8.9114 0.0000
# 6 0.0000 0.0000 0.0000 0.0000 0.0000 13.3976
#
#
#
# Elastic Compliance Matrix: (Units=1/GPa)
#
#
# Indices 1 2 3 4 5 6 
#
# 1 0.025966 -0.002883 0.000805 0.000000 0.000000 0.000000
# 2 -0.002883 0.009314 -0.004534 0.000000 0.000000 0.000000
# 3 0.000805 -0.004534 0.008246 0.000000 0.000000 0.000000
# 4 0.000000 0.000000 0.000000 0.024647 0.000000 0.000000
# 5 0.000000 0.000000 0.000000 0.000000 0.112216 0.000000
# 6 0.000000 0.000000 0.000000 0.000000 0.000000 0.074640
#
#
# Mechanical properties :
#
#
# Convention : Reuss Voigt Hill
#
# Bulk Modulus (GPa) = 33.00052 62.02567 47.51310
# Shear Modulus (GPa) = 17.96272 29.73545 23.84909
#
# Velocity S-wave (km/s) = 2.75876 3.54949 3.17881
# Velocity P-wave (km/s) = 4.91223 6.56344 5.79693
#
# Compressibility (1/GPa) = 0.03030255
#
# Stress axis : x y z
#
# Youngs Moduli (GPa) = 38.51244 107.36136 121.26800
#
# Poissons Ratio (x) = 0.30952 -0.09764
# Poissons Ratio (y) = 0.11103 0.54983
# Poissons Ratio (z) = -0.03101 0.48678
#
# Static dielectric constant tensor:
#      x y z
#    x 1.900090 0.000000 0.000000 
#    y 0.000000 2.029110 0.000000 
#    z 0.000000 0.000000 1.949910 
# 
# From -- ./inp_files/27743.got.cif
#   From: 2010.05.17/outbox.cif.g08.bks.cpg/sg24_14_cif.got.tgz:27743.got - 2010.06.04 00:33:39.
