data_PCOD9335729
_publ_section_title
;
Structure prediction by ZEFSAII (Michael W. Deem and Ramdas Pophale) SiO2 
 PCOD9335729
Probable space group: I 21 21 21
;
_chemical_formula_sum "Si O2"
_cell_formula_units_Z 64
_cell_length_a 29.077748
_cell_length_b 12.270807
_cell_length_c 8.531405
_cell_angle_alpha 90.000000
_cell_angle_beta 90.000000
_cell_angle_gamma 90.000000
_cell_volume 3044.068724
_symmetry_space_group_name_H-M "I 21 21 21"
_symmetry_group_IT_number 24
_symmetry_cell_setting 'orthorhombic'
loop_
_space_group_symop_operation_xyz
x,y,z
-x,1/2-y,z
x,-y,1/2-z
1/2-x,y,-z
1/2+x,1/2+y,1/2+z
1/2-x,-y,1/2+z
1/2+x,1/2-y,-z
-x,1/2+y,1/2-z
loop_
_atom_site_type_symbol
_atom_site_label
_atom_site_fract_x
_atom_site_fract_y
_atom_site_fract_z
Si Si1 0.597134 0.316906 0.114431
Si Si2 0.380016 0.413505 0.520335
Si Si3 0.052557 0.240761 0.574635
Si Si4 0.703008 0.542947 0.071928
Si Si5 0.369738 0.653457 0.621230
Si Si6 0.270993 0.394112 0.843061
Si Si7 0.395657 0.031814 0.569849
Si Si8 0.685923 0.772170 0.187437
O O1 0.559175 0.289363 0.243174
O O2 0.645675 0.281414 0.201526
O O3 0.599744 0.245575 0.957041
O O4 0.589878 0.439703 0.056010
O O5 0.424695 0.359086 0.446041
O O6 0.376341 0.543131 0.520871
O O7 0.380814 0.373311 0.699781
O O8 0.338462 0.359680 0.424418
O O9 0.081882 0.147779 0.480356
O O10 0.000000 0.250000 0.525761
O O11 0.695854 0.500000 0.250000
O O12 0.705441 0.672424 0.089530
O O13 0.750000 0.496866 0.000000
O O14 0.659342 0.527462 0.959537
O O15 0.315280 0.679762 0.622109
O O16 0.287954 0.500000 0.750000
O O17 0.228979 0.328897 0.769197
O O18 0.250000 0.442018 0.000000
O O19 0.405908 0.000000 0.750000
#
# Coordination Sequence:
#
# PCOD9335729 Si02
#       8
#     8   8   8   8   8   8   8   8
#     4  11  23  45  70  96 141 176 225 279 356 411
#     4  10  22  44  66  94 142 176 223 281 352 397
#     4  11  25  49  77 105 131 179 232 288 357 439
#     4  12  25  42  63  99 137 187 240 283 335 411
#     4  11  23  40  64 102 137 187 220 282 345 411
#     4  12  24  37  57  93 135 184 245 283 334 398
#     4  12  24  48  74 102 144 184 225 291 357 413
#     4  11  24  37  63  89 135 188 229 286 330 396
#
# _framework density 21.024491999999999
#
# number of rings (size 3 to 8) (size 9 to 14) (size 15 to 20)
#    0.000    0.750    6.250    2.250    1.750    3.000 
#    6.750    1.250    0.000    0.000    0.000    0.000 
#    0.000    0.000    0.000    0.000    0.000    0.000 
#
# Total GULP energy -178720.619856 kJ/mol
# GULP energy per Si atom -5585.019370 kJ/mol
# Density = 2.097664 g / cm^3
# Si number density = 21.024492 Si / 1000 Ang^3
#
#
#
# Elastic Constant Matrix: (Units=GPa)
#
#
# Indices 1 2 3 4 5 6 
#
# 1 79.6208 10.5504 1.6236 0.0000 0.0000 0.0000
# 2 10.5504 43.5519 -10.8207 0.0000 0.0000 0.0000
# 3 1.6236 -10.8207 48.3850 0.0000 0.0000 0.0000
# 4 0.0000 0.0000 0.0000 31.7075 0.0000 0.0000
# 5 0.0000 0.0000 0.0000 0.0000 -0.2830 0.0000
# 6 0.0000 0.0000 0.0000 0.0000 0.0000 31.4586
#
#
#
# Elastic Compliance Matrix: (Units=1/GPa)
#
#
# Indices 1 2 3 4 5 6 
#
# 1 0.013043 -0.003461 -0.001212 0.000000 0.000000 0.000000
# 2 -0.003461 0.025230 0.005759 0.000000 0.000000 0.000000
# 3 -0.001212 0.005759 0.021996 0.000000 0.000000 0.000000
# 4 0.000000 0.000000 0.000000 0.031538 0.000000 0.000000
# 5 0.000000 0.000000 0.000000 0.000000 -3.533861 0.000000
# 6 0.000000 0.000000 0.000000 0.000000 0.000000 0.031788
#
#
# Mechanical properties :
#
#
# Convention : Reuss Voigt Hill
#
# Bulk Modulus (GPa) = 16.01495 19.36270 17.68883
# Shear Modulus (GPa) = -1.47422 23.92358 11.22468
#
# Velocity S-wave (km/s) = -0.83828 3.37692 2.31310
# Velocity P-wave (km/s) = 2.58783 4.94312 3.94533
#
# Compressibility (1/GPa) = 0.06244166
#
# Stress axis : x y z
#
# Youngs Moduli (GPa) = 76.67067 39.63504 45.46274
#
# Poissons Ratio (x) = 0.13716 0.05508
# Poissons Ratio (y) = 0.26533 -0.26180
# Poissons Ratio (z) = 0.09289 -0.22824
#
# Static dielectric constant tensor:
#      x y z
#    x 1.811360 0.000000 0.000000 
#    y 0.000000 1.768150 0.000000 
#    z 0.000000 0.000000 1.626440 
# 
# From -- ./inp_files/17009.got.cif
#   From: 2010.05.17/outbox.cif.g08.bks.cpg/sg24_9_cif.got.tgz:17009.got - 2010.06.04 00:33:39.
