data_PCOD9335834
_publ_section_title
;
Structure prediction by ZEFSAII (Michael W. Deem and Ramdas Pophale) SiO2 
 PCOD9335834
Probable space group: I 21 21 21
;
_chemical_formula_sum "Si O2"
_cell_formula_units_Z 32
_cell_length_a 15.051300
_cell_length_b 10.295272
_cell_length_c 7.379116
_cell_angle_alpha 90.000000
_cell_angle_beta 90.000000
_cell_angle_gamma 90.000000
_cell_volume 1143.447356
_symmetry_space_group_name_H-M "I 21 21 21"
_symmetry_group_IT_number 24
_symmetry_cell_setting 'orthorhombic'
loop_
_space_group_symop_operation_xyz
x,y,z
-x,1/2-y,z
x,-y,1/2-z
1/2-x,y,-z
1/2+x,1/2+y,1/2+z
1/2-x,-y,1/2+z
1/2+x,1/2-y,-z
-x,1/2+y,1/2-z
loop_
_atom_site_type_symbol
_atom_site_label
_atom_site_fract_x
_atom_site_fract_y
_atom_site_fract_z
Si Si1 0.691765 0.741432 0.145407
Si Si2 0.313617 0.000000 0.750000
Si Si3 0.750000 0.848172 0.500000
Si Si4 0.000000 0.250000 0.664390
Si Si5 0.526655 0.606178 0.520597
Si Si6 0.114122 0.500000 0.250000
O O1 0.749982 0.612818 0.177596
O O2 0.682419 0.788157 0.351993
O O3 0.593510 0.740899 0.063134
O O4 0.750000 0.822310 0.000000
O O5 0.377766 0.062083 0.903125
O O6 0.682587 0.906619 0.647004
O O7 0.014010 0.132108 0.808617
O O8 0.500000 0.750000 0.602347
O O9 0.459367 0.494546 0.588471
#
# Coordination Sequence:
#
# PCOD9335834 Si02
#       6
#     8   4   4   4   8   4
#     4  12  28  49  79 123 173 226 288 362 440 520
#     4  11  24  44  83 124 168 222 291 354 445 520
#     4  12  26  52  74 118 178 212 300 362 422 548
#     4  10  22  52  76 112 182 210 276 380 416 520
#     4   9  20  45  83 114 162 212 279 366 431 512
#     4  11  22  44  83 108 152 240 269 350 459 500
#
# _framework density 27.985548000000001
#
# number of rings (size 3 to 8) (size 9 to 14) (size 15 to 20)
#    0.750    0.500    2.500    3.000    7.000    0.000 
#   11.250    1.250    0.000    0.000    0.000    0.000 
#    0.000    0.000    0.000    0.000    0.000    0.000 
#
# Total GULP energy -89236.249522 kJ/mol
# GULP energy per Si atom -5577.265595 kJ/mol
# Density = 2.792185 g / cm^3
# Si number density = 27.985548 Si / 1000 Ang^3
#
#
#
# Elastic Constant Matrix: (Units=GPa)
#
#
# Indices 1 2 3 4 5 6 
#
# 1 249.6313 38.3872 34.3531 0.0000 0.0000 0.0000
# 2 38.3872 84.4809 35.5225 0.0000 0.0000 0.0000
# 3 34.3531 35.5225 126.1784 0.0000 0.0000 0.0000
# 4 0.0000 0.0000 0.0000 53.8916 0.0000 0.0000
# 5 0.0000 0.0000 0.0000 0.0000 50.5575 0.0000
# 6 0.0000 0.0000 0.0000 0.0000 0.0000 30.0853
#
#
#
# Elastic Compliance Matrix: (Units=1/GPa)
#
#
# Indices 1 2 3 4 5 6 
#
# 1 0.004363 -0.001682 -0.000714 0.000000 0.000000 0.000000
# 2 -0.001682 0.014075 -0.003504 0.000000 0.000000 0.000000
# 3 -0.000714 -0.003504 0.009106 0.000000 0.000000 0.000000
# 4 0.000000 0.000000 0.000000 0.018556 0.000000 0.000000
# 5 0.000000 0.000000 0.000000 0.000000 0.019779 0.000000
# 6 0.000000 0.000000 0.000000 0.000000 0.000000 0.033239
#
#
# Mechanical properties :
#
#
# Convention : Reuss Voigt Hill
#
# Bulk Modulus (GPa) = 63.52270 75.20179 69.36225
# Shear Modulus (GPa) = 43.04133 50.37538 46.70835
#
# Velocity S-wave (km/s) = 3.92597 4.24730 4.08979
# Velocity P-wave (km/s) = 6.58017 7.14022 6.86591
#
# Compressibility (1/GPa) = 0.01574240
#
# Stress axis : x y z
#
# Youngs Moduli (GPa) = 229.20699 71.04855 109.81340
#
# Poissons Ratio (x) = 0.11951 0.07844
# Poissons Ratio (y) = 0.38555 0.38484
# Poissons Ratio (z) = 0.16372 0.24899
#
# Static dielectric constant tensor:
#      x y z
#    x 2.273720 0.000000 0.000000 
#    y 0.000000 2.430120 0.000000 
#    z 0.000000 0.000000 2.244320 
# 
# From -- ./inp_files/12155.got.cif
#   From: 2010.05.17/outbox.cif.g08.bks.cpg/sg24_7_cif.got.tgz:12155.got - 2010.06.04 00:33:39.
