data_PCOD9335209
_publ_section_title
;
Structure prediction by ZEFSAII (Michael W. Deem and Ramdas Pophale) SiO2 
 PCOD9335209
Probable space group: I 21 21 21
;
_chemical_formula_sum "Si O2"
_cell_formula_units_Z 28
_cell_length_a 19.736207
_cell_length_b 7.976632
_cell_length_c 7.688532
_cell_angle_alpha 90.000000
_cell_angle_beta 90.000000
_cell_angle_gamma 90.000000
_cell_volume 1210.393755
_symmetry_space_group_name_H-M "I 21 21 21"
_symmetry_group_IT_number 24
_symmetry_cell_setting 'orthorhombic'
loop_
_space_group_symop_operation_xyz
x,y,z
-x,1/2-y,z
x,-y,1/2-z
1/2-x,y,-z
1/2+x,1/2+y,1/2+z
1/2-x,-y,1/2+z
1/2+x,1/2-y,-z
-x,1/2+y,1/2-z
loop_
_atom_site_type_symbol
_atom_site_label
_atom_site_fract_x
_atom_site_fract_y
_atom_site_fract_z
Si Si1 0.908866 0.500000 0.250000
Si Si2 0.164746 0.306242 0.712658
Si Si3 0.322020 0.309898 0.702892
Si Si4 0.047180 0.100455 0.905859
O O1 0.865462 0.665116 0.289892
O O2 0.946780 0.477345 0.430567
O O3 0.147322 0.500000 0.750000
O O4 0.244061 0.285524 0.761182
O O5 0.167266 0.284339 0.503760
O O6 0.114716 0.181218 0.815161
O O7 0.341388 0.500000 0.750000
O O8 0.000000 0.250000 0.966517
O O9 0.012813 0.000000 0.750000
#
# Coordination Sequence:
#
# PCOD9335209 Si02
#       4
#     4   8   8   8
#     4  12  26  46  74 108 138 190 248 312 358 430
#     4  10  21  42  69 105 146 188 235 295 372 434
#     4  10  22  40  72 110 146 181 234 308 368 431
#     4  12  27  48  71 101 142 200 248 298 361 438
#
# _framework density 23.132968000000002
#
# number of rings (size 3 to 8) (size 9 to 14) (size 15 to 20)
#    0.000    1.143    2.857    2.571    2.000    4.571 
#    7.714    0.000    0.000    0.000    0.000    0.000 
#    0.000    0.000    0.000    0.000    0.000    0.000 
#
# Total GULP energy -78249.756274 kJ/mol
# GULP energy per Si atom -5589.268305 kJ/mol
# Density = 2.308032 g / cm^3
# Si number density = 23.132968 Si / 1000 Ang^3
#
#
#
# Elastic Constant Matrix: (Units=GPa)
#
#
# Indices 1 2 3 4 5 6 
#
# 1 57.8440 17.2952 24.1762 0.0000 0.0000 0.0000
# 2 17.2952 56.6993 -5.2052 0.0000 0.0000 0.0000
# 3 24.1762 -5.2052 108.6482 0.0000 0.0000 0.0000
# 4 0.0000 0.0000 0.0000 39.8048 0.0000 0.0000
# 5 0.0000 0.0000 0.0000 0.0000 -3.0194 0.0000
# 6 0.0000 0.0000 0.0000 0.0000 0.0000 42.2542
#
#
#
# Elastic Compliance Matrix: (Units=1/GPa)
#
#
# Indices 1 2 3 4 5 6 
#
# 1 0.021537 -0.007040 -0.005130 0.000000 0.000000 0.000000
# 2 -0.007040 0.020016 0.002526 0.000000 0.000000 0.000000
# 3 -0.005130 0.002526 0.010466 0.000000 0.000000 0.000000
# 4 0.000000 0.000000 0.000000 0.025123 0.000000 0.000000
# 5 0.000000 0.000000 0.000000 0.000000 -0.331191 0.000000
# 6 0.000000 0.000000 0.000000 0.000000 0.000000 0.023666
#
#
# Mechanical properties :
#
#
# Convention : Reuss Voigt Hill
#
# Bulk Modulus (GPa) = 30.55235 32.85823 31.70529
# Shear Modulus (GPa) = -24.97709 28.26962 1.64626
#
# Velocity S-wave (km/s) = -3.28947 3.49957 0.84451
# Velocity P-wave (km/s) = 1.09158 5.52850 3.83228
#
# Compressibility (1/GPa) = 0.03273070
#
# Stress axis : x y z
#
# Youngs Moduli (GPa) = 46.43197 49.95927 95.54335
#
# Poissons Ratio (x) = 0.35173 0.49010
# Poissons Ratio (y) = 0.32690 -0.24130
# Poissons Ratio (z) = 0.23818 -0.12618
#
# Static dielectric constant tensor:
#      x y z
#    x 1.870090 0.000000 0.000000 
#    y 0.000000 1.844770 0.000000 
#    z 0.000000 0.000000 1.861680 
# 
# From -- ./inp_files/13641.got.cif
#   From: 2010.05.17/outbox.cif.g08.bks.cpg/sg24_7_cif.got.tgz:13641.got - 2010.06.04 00:33:39.
