data_PCOD9335822
_publ_section_title
;
Structure prediction by ZEFSAII (Michael W. Deem and Ramdas Pophale) SiO2 
 PCOD9335822
Probable space group: I 21 21 21
;
_chemical_formula_sum "Si O2"
_cell_formula_units_Z 32
_cell_length_a 29.959185
_cell_length_b 4.932679
_cell_length_c 8.538687
_cell_angle_alpha 90.000000
_cell_angle_beta 90.000000
_cell_angle_gamma 90.000000
_cell_volume 1261.838991
_symmetry_space_group_name_H-M "I 21 21 21"
_symmetry_group_IT_number 24
_symmetry_cell_setting 'orthorhombic'
loop_
_space_group_symop_operation_xyz
x,y,z
-x,1/2-y,z
x,-y,1/2-z
1/2-x,y,-z
1/2+x,1/2+y,1/2+z
1/2-x,-y,1/2+z
1/2+x,1/2-y,-z
-x,1/2+y,1/2-z
loop_
_atom_site_type_symbol
_atom_site_label
_atom_site_fract_x
_atom_site_fract_y
_atom_site_fract_z
Si Si1 0.094343 0.607763 0.005079
Si Si2 0.812768 0.125323 0.994253
Si Si3 0.471606 0.500000 0.250000
Si Si4 0.246449 0.500000 0.250000
Si Si5 0.142435 0.000000 0.250000
Si Si6 0.030690 0.500000 0.250000
O O1 0.139934 0.485652 0.938927
O O2 0.111694 0.821481 0.133544
O O3 0.063190 0.411634 0.109374
O O4 0.060872 0.668450 0.865946
O O5 0.826837 0.341865 0.124918
O O6 0.785878 0.913968 0.106914
O O7 0.780599 0.191890 0.848464
O O8 0.500000 0.250000 0.177796
O O9 0.000000 0.250000 0.300663
#
# Coordination Sequence:
#
# PCOD9335822 Si02
#       6
#     8   8   4   4   4   4
#     4  12  25  48  73 108 157 200 263 320 407 482
#     4  11  23  47  75 111 155 208 253 335 388 491
#     4  12  31  52  78 120 164 211 269 344 413 488
#     4  10  22  48  70 109 164 192 267 316 400 466
#     4  12  23  46  82 114 144 218 266 320 410 483
#     4  12  24  40  74 107 142 199 260 328 381 463
#
# _framework density 25.359811000000001
#
# number of rings (size 3 to 8) (size 9 to 14) (size 15 to 20)
#    0.000    0.500    5.000    3.000    3.500    0.000 
#    9.000    0.000    0.000    0.000    0.000    0.000 
#    0.000    0.000    0.000    0.000    0.000    0.000 
#
# Total GULP energy -89114.008743 kJ/mol
# GULP energy per Si atom -5569.625546 kJ/mol
# Density = 2.530209 g / cm^3
# Si number density = 25.359811 Si / 1000 Ang^3
#
#
#
# Elastic Constant Matrix: (Units=GPa)
#
#
# Indices 1 2 3 4 5 6 
#
# 1 170.4769 41.4980 64.8199 0.0000 0.0000 0.0000
# 2 41.4980 86.0620 31.1927 0.0000 0.0000 0.0000
# 3 64.8199 31.1927 123.5711 0.0000 0.0000 0.0000
# 4 0.0000 0.0000 0.0000 10.4231 0.0000 0.0000
# 5 0.0000 0.0000 0.0000 0.0000 99.8645 0.0000
# 6 0.0000 0.0000 0.0000 0.0000 0.0000 9.9451
#
#
#
# Elastic Compliance Matrix: (Units=1/GPa)
#
#
# Indices 1 2 3 4 5 6 
#
# 1 0.007788 -0.002504 -0.003453 0.000000 0.000000 0.000000
# 2 -0.002504 0.013595 -0.002118 0.000000 0.000000 0.000000
# 3 -0.003453 -0.002118 0.010439 0.000000 0.000000 0.000000
# 4 0.000000 0.000000 0.000000 0.095941 0.000000 0.000000
# 5 0.000000 0.000000 0.000000 0.000000 0.010014 0.000000
# 6 0.000000 0.000000 0.000000 0.000000 0.000000 0.100553
#
#
# Mechanical properties :
#
#
# Convention : Reuss Voigt Hill
#
# Bulk Modulus (GPa) = 63.81316 72.79238 68.30277
# Shear Modulus (GPa) = 19.25275 40.21983 29.73629
#
# Velocity S-wave (km/s) = 2.75832 3.98674 3.42800
# Velocity P-wave (km/s) = 5.94661 7.06812 6.53148
#
# Compressibility (1/GPa) = 0.01567075
#
# Stress axis : x y z
#
# Youngs Moduli (GPa) = 128.39473 73.55867 95.79702
#
# Poissons Ratio (x) = 0.18418 0.33083
# Poissons Ratio (y) = 0.32148 0.20292
# Poissons Ratio (z) = 0.44341 0.15582
#
# Static dielectric constant tensor:
#      x y z
#    x 2.059850 0.000000 0.000000 
#    y 0.000000 2.047520 0.000000 
#    z 0.000000 0.000000 2.039630 
# 
# From -- ./inp_files/16599.got.cif
#   From: 2010.05.17/outbox.cif.g08.bks.cpg/sg24_9_cif.got.tgz:16599.got - 2010.06.04 00:33:39.
