data_PCOD9335678
_publ_section_title
;
Structure prediction by ZEFSAII (Michael W. Deem and Ramdas Pophale) SiO2 
 PCOD9335678
Probable space group: I 21 21 21
;
_chemical_formula_sum "Si O2"
_cell_formula_units_Z 56
_cell_length_a 13.422709
_cell_length_b 23.085936
_cell_length_c 8.008324
_cell_angle_alpha 90.000000
_cell_angle_beta 90.000000
_cell_angle_gamma 90.000000
_cell_volume 2481.585814
_symmetry_space_group_name_H-M "I 21 21 21"
_symmetry_group_IT_number 24
_symmetry_cell_setting 'orthorhombic'
loop_
_space_group_symop_operation_xyz
x,y,z
-x,1/2-y,z
x,-y,1/2-z
1/2-x,y,-z
1/2+x,1/2+y,1/2+z
1/2-x,-y,1/2+z
1/2+x,1/2-y,-z
-x,1/2+y,1/2-z
loop_
_atom_site_type_symbol
_atom_site_label
_atom_site_fract_x
_atom_site_fract_y
_atom_site_fract_z
Si Si1 0.554509 0.697669 0.632234
Si Si2 0.491131 0.596659 0.409642
Si Si3 0.198056 0.063014 0.818107
Si Si4 0.629564 0.837840 0.841136
Si Si5 0.235697 0.192322 0.697074
Si Si6 0.666750 0.052724 0.862532
Si Si7 0.848973 0.808276 0.770659
O O1 0.500000 0.750000 0.535613
O O2 0.553719 0.638902 0.530072
O O3 0.473016 0.688502 0.777401
O O4 0.663479 0.707430 0.702966
O O5 0.577235 0.564990 0.309538
O O6 0.429396 0.550300 0.517418
O O7 0.415753 0.643852 0.324715
O O8 0.222300 0.123795 0.725011
O O9 0.230962 0.000000 0.750000
O O10 0.250000 0.067414 0.000000
O O11 0.631249 0.903799 0.782948
O O12 0.730729 0.818897 0.745588
O O13 0.636264 0.823834 0.034747
O O14 0.250000 0.203077 0.500000
O O15 0.148584 0.237892 0.752234
O O16 0.703894 0.000000 0.750000
O O17 0.750000 0.069432 0.000000
#
# Coordination Sequence:
#
# PCOD9335678 Si02
#       7
#     8   8   8   8   8   8   8
#     4  11  22  42  68 105 146 190 234 290 369 441
#     4  11  27  46  71 104 142 193 242 301 373 445
#     4  12  29  54  75 101 140 192 255 315 368 439
#     4  10  22  43  66 100 150 190 235 295 358 444
#     4  12  25  46  75 111 148 197 243 305 373 442
#     4  11  25  43  70 102 144 189 241 301 366 438
#     4  11  22  43  72 110 150 187 237 297 377 442
#
# _framework density 22.566216000000001
#
# number of rings (size 3 to 8) (size 9 to 14) (size 15 to 20)
#    0.000    0.857    5.714    0.429    6.000    2.286 
#    2.571    0.000    0.000    0.000    0.000    0.000 
#    0.000    0.000    0.000    0.000    0.000    0.000 
#
# Total GULP energy -155963.888129 kJ/mol
# GULP energy per Si atom -5570.138862 kJ/mol
# Density = 2.251485 g / cm^3
# Si number density = 22.566216 Si / 1000 Ang^3
#
#
#
# Elastic Constant Matrix: (Units=GPa)
#
#
# Indices 1 2 3 4 5 6 
#
# 1 88.1468 31.3937 37.7416 -0.0087 -0.0001 0.0001
# 2 31.3937 75.3283 43.8973 0.0067 0.0000 0.0000
# 3 37.7416 43.8973 75.5621 0.0311 0.0016 0.0007
# 4 -0.0087 0.0067 0.0311 108.0835 -0.0019 -0.0060
# 5 -0.0001 0.0000 0.0016 -0.0019 14.5337 -0.0001
# 6 0.0001 0.0000 0.0007 -0.0060 -0.0001 20.7414
#
#
#
# Elastic Compliance Matrix: (Units=1/GPa)
#
#
# Indices 1 2 3 4 5 6 
#
# 1 0.014816 -0.002815 -0.005765 0.000003 0.000001 0.000000
# 2 -0.002815 0.020605 -0.010564 0.000002 0.000001 0.000000
# 3 -0.005765 -0.010564 0.022250 -0.000006 -0.000002 -0.000001
# 4 0.000003 0.000002 -0.000006 0.009252 0.000001 0.000003
# 5 0.000001 0.000001 -0.000002 0.000001 0.068806 0.000000
# 6 0.000000 0.000000 -0.000001 0.000003 0.000000 0.048213
#
#
# Mechanical properties :
#
#
# Convention : Reuss Voigt Hill
#
# Bulk Modulus (GPa) = 51.59122 51.67805 51.63464
# Shear Modulus (GPa) = 21.86369 37.07203 29.46786
#
# Velocity S-wave (km/s) = 3.11604 4.05756 3.61756
# Velocity P-wave (km/s) = 5.98816 6.70090 6.35453
#
# Compressibility (1/GPa) = 0.01938314
#
# Stress axis : x y z
#
# Youngs Moduli (GPa) = 67.49657 48.53285 44.94283
#
# Poissons Ratio (x) = 0.13663 0.25908
# Poissons Ratio (y) = 0.19002 0.47477
# Poissons Ratio (z) = 0.38909 0.51270
#
# Static dielectric constant tensor:
#      x y z
#    x 1.740830 0.000000 -0.000020 
#    y 0.000000 2.065280 0.000000 
#    z -0.000020 0.000000 1.834460 
# 
# From -- ./inp_files/13158.got.cif
#   From: 2010.05.17/outbox.cif.g08.bks.cpg/sg24_7_cif.got.tgz:13158.got - 2010.06.04 00:33:39.
