data_PCOD9335244
_publ_section_title
;
Structure prediction by ZEFSAII (Michael W. Deem and Ramdas Pophale) SiO2 
 PCOD9335244
Probable space group: I 21 21 21
;
_chemical_formula_sum "Si O2"
_cell_formula_units_Z 40
_cell_length_a 11.809081
_cell_length_b 8.731111
_cell_length_c 17.812630
_cell_angle_alpha 90.000000
_cell_angle_beta 90.000000
_cell_angle_gamma 90.000000
_cell_volume 1836.596101
_symmetry_space_group_name_H-M "I 21 21 21"
_symmetry_group_IT_number 24
_symmetry_cell_setting 'orthorhombic'
loop_
_space_group_symop_operation_xyz
x,y,z
-x,1/2-y,z
x,-y,1/2-z
1/2-x,y,-z
1/2+x,1/2+y,1/2+z
1/2-x,-y,1/2+z
1/2+x,1/2-y,-z
-x,1/2+y,1/2-z
loop_
_atom_site_type_symbol
_atom_site_label
_atom_site_fract_x
_atom_site_fract_y
_atom_site_fract_z
Si Si1 0.250000 0.460648 0.500000
Si Si2 0.114954 0.342399 0.632162
Si Si3 0.868887 0.213203 0.102840
Si Si4 0.049954 0.094682 0.893347
Si Si5 0.750000 0.542745 0.500000
Si Si6 0.767458 0.326762 0.767768
O O1 0.179063 0.353249 0.554054
O O2 0.328018 0.568116 0.553414
O O3 0.192057 0.265323 0.694877
O O4 0.000000 0.250000 0.630056
O O5 0.062061 0.512298 0.639073
O O6 0.808566 0.356027 0.063261
O O7 0.818543 0.219565 0.186415
O O8 0.000000 0.250000 0.104673
O O9 0.133615 0.999392 0.950432
O O10 0.125247 0.141108 0.821952
O O11 0.000000 0.250000 0.930983
O O12 0.723106 0.500000 0.750000
#
# Coordination Sequence:
#
# PCOD9335244 Si02
#       6
#     4   8   8   8   4   8
#     4  11  26  45  66 108 133 179 238 280 343 425
#     4  12  25  45  68  99 143 179 225 290 349 399
#     4  10  21  43  70  99 133 177 225 283 345 405
#     4  11  22  37  70 100 133 179 225 286 348 404
#     4   9  18  35  64 100 133 161 224 270 327 425
#     4  11  24  43  65 102 135 179 237 280 338 421
#
# _framework density 21.779419000000001
#
# number of rings (size 3 to 8) (size 9 to 14) (size 15 to 20)
#    0.000    1.200    2.000    6.000    0.000    4.800 
#    7.200    0.000    0.000    0.000    0.000    0.000 
#    0.000    0.000    0.000    0.000    0.000    0.000 
#
# Total GULP energy -111473.004320 kJ/mol
# GULP energy per Si atom -5573.650216 kJ/mol
# Density = 2.172985 g / cm^3
# Si number density = 21.779419 Si / 1000 Ang^3
#
#
#
# Elastic Constant Matrix: (Units=GPa)
#
#
# Indices 1 2 3 4 5 6 
#
# 1 96.1658 25.7877 53.6125 0.0000 0.0000 0.0000
# 2 25.7877 87.2459 49.6936 0.0000 0.0000 0.0000
# 3 53.6125 49.6936 138.7342 0.0000 0.0000 0.0000
# 4 0.0000 0.0000 0.0000 48.7711 0.0000 0.0000
# 5 0.0000 0.0000 0.0000 0.0000 30.3183 0.0000
# 6 0.0000 0.0000 0.0000 0.0000 0.0000 17.0146
#
#
#
# Elastic Compliance Matrix: (Units=1/GPa)
#
#
# Indices 1 2 3 4 5 6 
#
# 1 0.013365 -0.001267 -0.004711 0.000000 0.000000 0.000000
# 2 -0.001267 0.014520 -0.004711 0.000000 0.000000 0.000000
# 3 -0.004711 -0.004711 0.010716 0.000000 0.000000 0.000000
# 4 0.000000 0.000000 0.000000 0.020504 0.000000 0.000000
# 5 0.000000 0.000000 0.000000 0.000000 0.032983 0.000000
# 6 0.000000 0.000000 0.000000 0.000000 0.000000 0.058773
#
#
# Mechanical properties :
#
#
# Convention : Reuss Voigt Hill
#
# Bulk Modulus (GPa) = 58.06432 64.48152 61.27292
# Shear Modulus (GPa) = 28.09302 32.09093 30.09197
#
# Velocity S-wave (km/s) = 3.59540 3.84272 3.72111
# Velocity P-wave (km/s) = 6.62977 7.02564 6.83057
#
# Compressibility (1/GPa) = 0.01722228
#
# Stress axis : x y z
#
# Youngs Moduli (GPa) = 74.82352 68.87147 93.31830
#
# Poissons Ratio (x) = 0.08727 0.43961
# Poissons Ratio (y) = 0.09481 0.43964
# Poissons Ratio (z) = 0.35248 0.32447
#
# Static dielectric constant tensor:
#      x y z
#    x 1.662500 0.000000 0.000000 
#    y 0.000000 1.991080 0.000000 
#    z 0.000000 0.000000 1.885360 
# 
# From -- ./inp_files/30082.got.cif
#   From: 2010.05.17/outbox.cif.g08.bks.cpg/sg24_16_cif.got.tgz:30082.got - 2010.06.04 00:33:39.
