data_PCOD9335270
_publ_section_title
;
Structure prediction by ZEFSAII (Michael W. Deem and Ramdas Pophale) SiO2 
 PCOD9335270
Probable space group: I 21 21 21
;
_chemical_formula_sum "Si O2"
_cell_formula_units_Z 48
_cell_length_a 7.937054
_cell_length_b 29.575640
_cell_length_c 9.415492
_cell_angle_alpha 90.000000
_cell_angle_beta 90.000000
_cell_angle_gamma 90.000000
_cell_volume 2210.225092
_symmetry_space_group_name_H-M "I 21 21 21"
_symmetry_group_IT_number 24
_symmetry_cell_setting 'orthorhombic'
loop_
_space_group_symop_operation_xyz
x,y,z
-x,1/2-y,z
x,-y,1/2-z
1/2-x,y,-z
1/2+x,1/2+y,1/2+z
1/2-x,-y,1/2+z
1/2+x,1/2-y,-z
-x,1/2+y,1/2-z
loop_
_atom_site_type_symbol
_atom_site_label
_atom_site_fract_x
_atom_site_fract_y
_atom_site_fract_z
Si Si1 0.057568 0.000000 0.250000
Si Si2 0.931744 0.316933 0.578492
Si Si3 0.250000 0.957010 0.000000
Si Si4 0.247906 0.769411 0.329170
Si Si5 0.688322 0.918109 0.661762
Si Si6 0.083731 0.318102 0.275395
Si Si7 0.087145 0.410193 0.604134
O O1 0.945415 0.957870 0.306841
O O2 0.182099 0.986124 0.126830
O O3 0.750000 0.325956 0.500000
O O4 0.885807 0.287415 0.716240
O O5 0.051535 0.305971 0.442329
O O6 0.031955 0.359558 0.638230
O O7 0.416785 0.929354 0.039873
O O8 0.250000 0.770577 0.500000
O O9 0.216329 0.717588 0.284794
O O10 0.089956 0.801951 0.295136
O O11 0.750000 0.912513 0.500000
O O12 0.623007 0.870083 0.731055
O O13 0.851704 0.932766 0.752118
O O14 0.250000 0.412817 0.500000
#
# Coordination Sequence:
#
# PCOD9335270 Si02
#       7
#     4   8   4   8   8   8   8
#     4  12  30  50  80 118 152 202 266 324 412 478
#     4  10  21  44  72 106 144 200 260 318 384 477
#     4  12  28  52  78 114 152 204 256 330 400 474
#     4  10  23  43  70 104 156 201 262 325 389 468
#     4  12  29  49  79 113 159 203 265 325 402 481
#     4  10  22  49  67 107 149 205 262 317 398 479
#     4  12  24  50  79 107 154 203 253 321 394 476
#
# _framework density 21.717244999999998
#
# number of rings (size 3 to 8) (size 9 to 14) (size 15 to 20)
#    0.000    1.000    4.167    0.500    9.333    0.000 
#   19.500    0.000    0.000    0.000    0.000    0.000 
#    0.000    0.000    0.000    0.000    0.000    0.000 
#
# Total GULP energy -133823.979758 kJ/mol
# GULP energy per Si atom -5575.999157 kJ/mol
# Density = 2.166782 g / cm^3
# Si number density = 21.717245 Si / 1000 Ang^3
#
#
#
# Elastic Constant Matrix: (Units=GPa)
#
#
# Indices 1 2 3 4 5 6 
#
# 1 155.1656 69.2867 73.0666 -0.0001 0.0000 0.0000
# 2 69.2867 134.5003 74.5132 -0.0002 0.0000 0.0000
# 3 73.0666 74.5132 189.0898 -0.0004 0.0000 -0.0001
# 4 -0.0001 -0.0002 -0.0004 15.2561 0.0000 0.0000
# 5 0.0000 0.0000 0.0000 0.0000 34.3108 -0.0001
# 6 0.0000 0.0000 -0.0001 0.0000 -0.0001 67.9376
#
#
#
# Elastic Compliance Matrix: (Units=1/GPa)
#
#
# Indices 1 2 3 4 5 6 
#
# 1 0.008982 -0.003459 -0.002107 0.000000 0.000000 0.000000
# 2 -0.003459 0.010844 -0.002936 0.000000 0.000000 0.000000
# 3 -0.002107 -0.002936 0.007260 0.000000 0.000000 0.000000
# 4 0.000000 0.000000 0.000000 0.065547 0.000000 0.000000
# 5 0.000000 0.000000 0.000000 0.000000 0.029145 0.000000
# 6 0.000000 0.000000 0.000000 0.000000 0.000000 0.014719
#
#
# Mechanical properties :
#
#
# Convention : Reuss Voigt Hill
#
# Bulk Modulus (GPa) = 99.21521 101.38763 100.30142
# Shear Modulus (GPa) = 31.87477 40.96020 36.41749
#
# Velocity S-wave (km/s) = 3.83524 4.34760 4.09943
# Velocity P-wave (km/s) = 8.08679 8.48462 8.28809
#
# Compressibility (1/GPa) = 0.01007910
#
# Stress axis : x y z
#
# Youngs Moduli (GPa) = 111.33555 92.21909 137.74173
#
# Poissons Ratio (x) = 0.31902 0.29029
# Poissons Ratio (y) = 0.38515 0.40446
# Poissons Ratio (z) = 0.23464 0.27079
#
# Static dielectric constant tensor:
#      x y z
#    x 1.893350 0.000000 0.000000 
#    y 0.000000 2.044290 0.000000 
#    z 0.000000 0.000000 1.759590 
# 
# From -- ./inp_files/9805.got.cif
#   From: 2010.05.17/outbox.cif.g08.bks.cpg/sg24_5_cif.got.tgz:9805.got - 2010.06.04 00:33:39.
