data_PCOD9335753
_publ_section_title
;
Structure prediction by ZEFSAII (Michael W. Deem and Ramdas Pophale) SiO2 
 PCOD9335753
Probable space group: I 21 21 21
;
_chemical_formula_sum "Si O2"
_cell_formula_units_Z 60
_cell_length_a 9.579519
_cell_length_b 16.261630
_cell_length_c 18.048745
_cell_angle_alpha 90.000000
_cell_angle_beta 90.000000
_cell_angle_gamma 90.000000
_cell_volume 2811.608112
_symmetry_space_group_name_H-M "I 21 21 21"
_symmetry_group_IT_number 24
_symmetry_cell_setting 'orthorhombic'
loop_
_space_group_symop_operation_xyz
x,y,z
-x,1/2-y,z
x,-y,1/2-z
1/2-x,y,-z
1/2+x,1/2+y,1/2+z
1/2-x,-y,1/2+z
1/2+x,1/2-y,-z
-x,1/2+y,1/2-z
loop_
_atom_site_type_symbol
_atom_site_label
_atom_site_fract_x
_atom_site_fract_y
_atom_site_fract_z
Si Si1 0.916178 0.611799 0.503370
Si Si2 0.649038 0.706598 0.872284
Si Si3 0.512136 0.935370 0.951433
Si Si4 0.575692 0.149158 0.150594
Si Si5 0.186461 0.529458 0.328077
Si Si6 0.250000 0.675596 0.000000
Si Si7 0.465475 0.841652 0.656861
Si Si8 0.814030 0.681570 0.720831
O O1 0.750000 0.624845 0.500000
O O2 0.950235 0.514608 0.493150
O O3 0.985914 0.651468 0.430768
O O4 0.984338 0.651099 0.575959
O O5 0.500000 0.750000 0.853305
O O6 0.605059 0.622331 0.913943
O O7 0.727135 0.766530 0.929298
O O8 0.746711 0.693646 0.801218
O O9 0.611742 0.880610 0.003531
O O10 0.614212 0.966935 0.884838
O O11 0.690392 0.080674 0.135041
O O12 0.460387 0.134291 0.214822
O O13 0.654296 0.231256 0.179430
O O14 0.244227 0.500000 0.250000
O O15 0.065335 0.593362 0.305407
O O16 0.500000 0.750000 0.681390
O O17 0.306701 0.862851 0.674762
#
# Coordination Sequence:
#
# PCOD9335753 Si02
#       8
#     8   8   8   8   8   4   8   8
#     4  11  24  43  64  95 144 186 233 289 352 434
#     4  10  23  44  75 101 135 184 240 298 354 429
#     4  10  23  44  70  98 140 186 239 292 349 441
#     4  11  25  43  63 102 141 180 231 294 368 412
#     4  11  24  43  68 102 138 186 231 287 359 425
#     4  10  22  44  72 106 126 178 244 296 352 402
#     4  11  22  40  72  96 131 188 238 285 337 427
#     4  11  23  44  66 101 140 179 238 302 350 426
#
# _framework density 21.3401
#
# number of rings (size 3 to 8) (size 9 to 14) (size 15 to 20)
#    0.000    1.333    2.667    2.000    6.533    1.600 
#    9.600    0.667    0.000    0.000    0.000    0.000 
#    0.000    0.000    0.000    0.000    0.000    0.000 
#
# Total GULP energy -167550.842239 kJ/mol
# GULP energy per Si atom -5585.028075 kJ/mol
# Density = 2.129153 g / cm^3
# Si number density = 21.340100 Si / 1000 Ang^3
#
#
#
# Elastic Constant Matrix: (Units=GPa)
#
#
# Indices 1 2 3 4 5 6 
#
# 1 91.9853 20.6108 26.5903 0.0000 0.0000 0.0000
# 2 20.6108 82.5980 18.1640 0.0000 0.0000 0.0000
# 3 26.5903 18.1640 85.0539 0.0000 0.0000 0.0000
# 4 0.0000 0.0000 0.0000 14.4129 0.0000 0.0000
# 5 0.0000 0.0000 0.0000 0.0000 45.1911 0.0000
# 6 0.0000 0.0000 0.0000 0.0000 0.0000 35.4235
#
#
#
# Elastic Compliance Matrix: (Units=1/GPa)
#
#
# Indices 1 2 3 4 5 6 
#
# 1 0.012370 -0.002347 -0.003366 0.000000 0.000000 0.000000
# 2 -0.002347 0.013149 -0.002074 0.000000 0.000000 0.000000
# 3 -0.003366 -0.002074 0.013253 0.000000 0.000000 0.000000
# 4 0.000000 0.000000 0.000000 0.069382 0.000000 0.000000
# 5 0.000000 0.000000 0.000000 0.000000 0.022128 0.000000
# 6 0.000000 0.000000 0.000000 0.000000 0.000000 0.028230
#
#
# Mechanical properties :
#
#
# Convention : Reuss Voigt Hill
#
# Bulk Modulus (GPa) = 43.10867 43.37416 43.24142
# Shear Modulus (GPa) = 27.49999 31.95698 29.72848
#
# Velocity S-wave (km/s) = 3.59368 3.87396 3.73645
# Velocity P-wave (km/s) = 6.12078 6.35448 6.23873
#
# Compressibility (1/GPa) = 0.02319719
#
# Stress axis : x y z
#
# Youngs Moduli (GPa) = 80.83985 76.05413 75.45688
#
# Poissons Ratio (x) = 0.17846 0.25400
# Poissons Ratio (y) = 0.18969 0.15653
# Poissons Ratio (z) = 0.27212 0.15777
#
# Static dielectric constant tensor:
#      x y z
#    x 1.779160 0.000000 0.000000 
#    y 0.000000 1.822430 0.000000 
#    z 0.000000 0.000000 1.775370 
# 
# From -- ./inp_files/29704.got.cif
#   From: 2010.05.17/outbox.cif.g08.bks.cpg/sg24_15_cif.got.tgz:29704.got - 2010.06.04 00:33:39.
