data_PCOD9335139
_publ_section_title
;
Structure prediction by ZEFSAII (Michael W. Deem and Ramdas Pophale) SiO2 
 PCOD9335139
Probable space group: I 21 21 21
;
_chemical_formula_sum "Si O2"
_cell_formula_units_Z 56
_cell_length_a 14.597622
_cell_length_b 22.039759
_cell_length_c 8.060057
_cell_angle_alpha 90.000000
_cell_angle_beta 90.000000
_cell_angle_gamma 90.000000
_cell_volume 2593.146590
_symmetry_space_group_name_H-M "I 21 21 21"
_symmetry_group_IT_number 24
_symmetry_cell_setting 'orthorhombic'
loop_
_space_group_symop_operation_xyz
x,y,z
-x,1/2-y,z
x,-y,1/2-z
1/2-x,y,-z
1/2+x,1/2+y,1/2+z
1/2-x,-y,1/2+z
1/2+x,1/2-y,-z
-x,1/2+y,1/2-z
loop_
_atom_site_type_symbol
_atom_site_label
_atom_site_fract_x
_atom_site_fract_y
_atom_site_fract_z
Si Si1 0.500000 0.750000 0.631292
Si Si2 0.118724 0.307956 0.680028
Si Si3 0.489120 0.902571 0.338750
Si Si4 0.528405 0.976205 0.996573
Si Si5 0.152006 0.200830 0.903964
Si Si6 0.532665 0.141338 0.657356
Si Si7 0.225677 0.373015 0.182548
Si Si8 0.806803 0.000000 0.250000
O O1 0.589290 0.744271 0.518599
O O2 0.480096 0.807773 0.745535
O O3 0.136946 0.238410 0.730973
O O4 0.068205 0.325719 0.510544
O O5 0.219415 0.335611 0.683996
O O6 0.063124 0.348353 0.817516
O O7 0.511011 0.941944 0.171955
O O8 0.395729 0.864533 0.369819
O O9 0.496954 0.954671 0.478599
O O10 0.486211 0.923463 0.878312
O O11 0.628707 0.983179 0.908915
O O12 0.250000 0.196450 0.000000
O O13 0.619878 0.129081 0.774576
O O14 0.253870 0.442914 0.201924
O O15 0.250000 0.351095 0.000000
#
# Coordination Sequence:
#
# PCOD9335139 Si02
#       8
#     4   8   8   8   8   8   8   4
#     4  12  24  42  68  98 134 172 226 286 346 406
#     4  11  21  39  65  94 137 177 222 270 345 406
#     4  10  21  41  66  92 126 180 222 278 331 404
#     4   9  21  38  65  93 130 174 228 269 339 391
#     4  12  26  43  71 101 130 179 232 284 344 412
#     4  10  24  38  62  98 131 180 222 277 332 409
#     4  11  22  36  58  92 143 174 217 271 331 407
#     4  10  22  36  60 102 138 178 226 274 334 416
#
# _framework density 21.595383999999999
#
# number of rings (size 3 to 8) (size 9 to 14) (size 15 to 20)
#    0.000    1.429    1.429    3.429    8.000    5.714 
#    0.000    0.000    6.286    0.000    0.000    0.000 
#    0.000    0.000    0.000    0.000    0.000    0.000 
#
# Total GULP energy -155871.500144 kJ/mol
# GULP energy per Si atom -5566.839291 kJ/mol
# Density = 2.154623 g / cm^3
# Si number density = 21.595384 Si / 1000 Ang^3
#
#
#
# Elastic Constant Matrix: (Units=GPa)
#
#
# Indices 1 2 3 4 5 6 
#
# 1 57.0758 30.5926 28.9047 0.0000 0.0000 0.0000
# 2 30.5926 126.0375 41.5769 0.0000 0.0000 0.0000
# 3 28.9047 41.5769 107.8991 0.0000 -0.0001 0.0000
# 4 0.0000 0.0000 0.0000 28.9975 0.0000 0.0000
# 5 0.0000 0.0000 -0.0001 0.0000 16.7502 0.0000
# 6 0.0000 0.0000 0.0000 0.0000 0.0000 38.4516
#
#
#
# Elastic Compliance Matrix: (Units=1/GPa)
#
#
# Indices 1 2 3 4 5 6 
#
# 1 0.021790 -0.003853 -0.004353 0.000000 0.000000 0.000000
# 2 -0.003853 0.009771 -0.002733 0.000000 0.000000 0.000000
# 3 -0.004353 -0.002733 0.011487 0.000000 0.000000 0.000000
# 4 0.000000 0.000000 0.000000 0.034486 0.000000 0.000000
# 5 0.000000 0.000000 0.000000 0.000000 0.059701 0.000000
# 6 0.000000 0.000000 0.000000 0.000000 0.000000 0.026007
#
#
# Mechanical properties :
#
#
# Convention : Reuss Voigt Hill
#
# Bulk Modulus (GPa) = 47.23471 54.79564 51.01518
# Shear Modulus (GPa) = 26.01790 29.50240 27.76015
#
# Velocity S-wave (km/s) = 3.47477 3.70015 3.58923
# Velocity P-wave (km/s) = 6.16594 6.60936 6.39150
#
# Compressibility (1/GPa) = 0.02117087
#
# Stress axis : x y z
#
# Youngs Moduli (GPa) = 45.89233 102.34453 87.05547
#
# Poissons Ratio (x) = 0.39436 0.37891
# Poissons Ratio (y) = 0.17683 0.23791
# Poissons Ratio (z) = 0.19975 0.27969
#
# Static dielectric constant tensor:
#      x y z
#    x 1.820040 0.000000 0.000000 
#    y 0.000000 1.921060 0.000000 
#    z 0.000000 0.000000 1.630880 
# 
# From -- ./inp_files/13214.got.cif
#   From: 2010.05.17/outbox.cif.g08.bks.cpg/sg24_7_cif.got.tgz:13214.got - 2010.06.04 00:33:39.
