data_PCOD9335097
_publ_section_title
;
Structure prediction by ZEFSAII (Michael W. Deem and Ramdas Pophale) SiO2 
 PCOD9335097
Probable space group: I 21 21 21
;
_chemical_formula_sum "Si O2"
_cell_formula_units_Z 48
_cell_length_a 10.515841
_cell_length_b 22.940143
_cell_length_c 9.548208
_cell_angle_alpha 90.000000
_cell_angle_beta 90.000000
_cell_angle_gamma 90.000000
_cell_volume 2303.360967
_symmetry_space_group_name_H-M "I 21 21 21"
_symmetry_group_IT_number 24
_symmetry_cell_setting 'orthorhombic'
loop_
_space_group_symop_operation_xyz
x,y,z
-x,1/2-y,z
x,-y,1/2-z
1/2-x,y,-z
1/2+x,1/2+y,1/2+z
1/2-x,-y,1/2+z
1/2+x,1/2-y,-z
-x,1/2+y,1/2-z
loop_
_atom_site_type_symbol
_atom_site_label
_atom_site_fract_x
_atom_site_fract_y
_atom_site_fract_z
Si Si1 0.499455 0.067207 0.786055
Si Si2 0.887178 0.967750 0.558747
Si Si3 0.414249 0.338541 0.590011
Si Si4 0.528916 0.085973 0.324863
Si Si5 0.232041 0.122454 0.831614
Si Si6 0.186834 0.781778 0.142682
O O1 0.589241 0.105320 0.687707
O O2 0.353357 0.087121 0.771033
O O3 0.512297 0.000000 0.750000
O O4 0.543743 0.072564 0.945602
O O5 0.750000 0.985651 0.500000
O O6 0.874143 0.931362 0.701418
O O7 0.973014 0.025127 0.588040
O O8 0.427985 0.363297 0.431711
O O9 0.545799 0.307086 0.631170
O O10 0.315236 0.288136 0.631135
O O11 0.396972 0.099372 0.242722
O O12 0.248184 0.188911 0.776351
O O13 0.250000 0.118994 0.000000
O O14 0.250000 0.804271 0.000000
#
# Coordination Sequence:
#
# PCOD9335097 Si02
#       6
#     8   8   8   8   8   8
#     4  11  23  39  66 101 143 176 226 278 353 416
#     4  11  26  42  62 100 145 189 233 270 336 437
#     4  10  22  40  66  98 130 177 223 284 340 410
#     4  11  23  43  70  97 140 180 231 286 345 411
#     4  11  23  42  69 105 140 177 223 300 363 410
#     4  10  21  40  67  96 130 171 235 282 337 407
#
# _framework density 20.839115
#
# number of rings (size 3 to 8) (size 9 to 14) (size 15 to 20)
#    0.000    1.333    5.000    0.000    4.667    2.000 
#    0.000    2.500    3.667    0.000    0.000    0.000 
#    0.000    0.000    0.000    0.000    0.000    0.000 
#
# Total GULP energy -133832.367118 kJ/mol
# GULP energy per Si atom -5576.348630 kJ/mol
# Density = 2.079168 g / cm^3
# Si number density = 20.839115 Si / 1000 Ang^3
#
#
#
# Elastic Constant Matrix: (Units=GPa)
#
#
# Indices 1 2 3 4 5 6 
#
# 1 82.1968 41.8051 27.1020 -0.0007 0.0000 0.0000
# 2 41.8051 128.0306 49.7517 0.0003 0.0000 0.0000
# 3 27.1020 49.7517 111.8381 0.0014 -0.0003 -0.0001
# 4 -0.0007 0.0003 0.0014 1161.6179 0.0006 -0.0001
# 5 0.0000 0.0000 -0.0003 0.0006 23.8184 0.0000
# 6 0.0000 0.0000 -0.0001 -0.0001 0.0000 15.3262
#
#
#
# Elastic Compliance Matrix: (Units=1/GPa)
#
#
# Indices 1 2 3 4 5 6 
#
# 1 0.014865 -0.004176 -0.001745 0.000000 0.000000 0.000000
# 2 -0.004176 0.010616 -0.003711 0.000000 0.000000 0.000000
# 3 -0.001745 -0.003711 0.011015 0.000000 0.000000 0.000000
# 4 0.000000 0.000000 0.000000 0.000861 0.000000 0.000000
# 5 0.000000 0.000000 0.000000 0.000000 0.041984 0.000000
# 6 0.000000 0.000000 0.000000 0.000000 0.000000 0.065248
#
#
# Mechanical properties :
#
#
# Convention : Reuss Voigt Hill
#
# Bulk Modulus (GPa) = 58.02555 62.15365 60.08960
# Shear Modulus (GPa) = 29.48187 253.71297 141.59742
#
# Velocity S-wave (km/s) = 3.76538 11.04594 8.25199
# Velocity P-wave (km/s) = 6.84172 13.87710 10.94036
#
# Compressibility (1/GPa) = 0.01723379
#
# Stress axis : x y z
#
# Youngs Moduli (GPa) = 67.27227 94.19675 90.78544
#
# Poissons Ratio (x) = 0.39335 0.15839
# Poissons Ratio (y) = 0.28092 0.33687
# Poissons Ratio (z) = 0.11736 0.34953
#
# Static dielectric constant tensor:
#      x y z
#    x 0.097310 0.000000 0.000000 
#    y 0.000000 1.768770 0.000000 
#    z 0.000000 0.000000 1.781940 
# 
# From -- ./inp_files/11274.got.cif
#   From: 2010.05.17/outbox.cif.g08.bks.cpg/sg24_6_cif.got.tgz:11274.got - 2010.06.04 00:33:39.
