data_PCOD9335968
_publ_section_title
;
Structure prediction by ZEFSAII (Michael W. Deem and Ramdas Pophale) SiO2 
 PCOD9335968
Probable space group: I 21 21 21
;
_chemical_formula_sum "Si O2"
_cell_formula_units_Z 48
_cell_length_a 14.472409
_cell_length_b 26.788429
_cell_length_c 6.361485
_cell_angle_alpha 90.000000
_cell_angle_beta 90.000000
_cell_angle_gamma 90.000000
_cell_volume 2466.303846
_symmetry_space_group_name_H-M "I 21 21 21"
_symmetry_group_IT_number 24
_symmetry_cell_setting 'orthorhombic'
loop_
_space_group_symop_operation_xyz
x,y,z
-x,1/2-y,z
x,-y,1/2-z
1/2-x,y,-z
1/2+x,1/2+y,1/2+z
1/2-x,-y,1/2+z
1/2+x,1/2-y,-z
-x,1/2+y,1/2-z
loop_
_atom_site_type_symbol
_atom_site_label
_atom_site_fract_x
_atom_site_fract_y
_atom_site_fract_z
Si Si1 0.469662 0.500000 0.250000
Si Si2 0.841190 0.352977 0.119449
Si Si3 0.750000 0.297185 0.500000
Si Si4 0.145133 0.579986 0.995313
Si Si5 0.656700 0.148327 0.124428
Si Si6 0.987009 0.078670 0.096256
Si Si7 0.892485 0.741781 0.672185
O O1 0.407673 0.456757 0.342730
O O2 0.510761 0.529250 0.456031
O O3 0.806182 0.330620 0.336921
O O4 0.917819 0.394652 0.156822
O O5 0.750000 0.372623 0.000000
O O6 0.878749 0.306099 0.979535
O O7 0.825908 0.266646 0.629521
O O8 0.084995 0.574887 0.207919
O O9 0.250000 0.561367 0.000000
O O10 0.155809 0.633348 0.872728
O O11 0.642798 0.206371 0.075317
O O12 0.750000 0.131552 0.000000
O O13 0.567856 0.119240 0.041495
O O14 0.000000 0.750000 0.725370
#
# Coordination Sequence:
#
# PCOD9335968 Si02
#       7
#     4   8   4   8   8   8   8
#     4  10  26  40  66  90 130 162 212 264 328 398
#     4  10  23  44  67  93 127 172 223 280 328 387
#     4  10  24  38  60  96 128 172 220 268 328 376
#     4  11  24  37  63  94 131 172 211 257 322 393
#     4  11  22  38  58  93 133 173 214 259 311 384
#     4  11  23  43  65  94 126 169 217 268 329 395
#     4  11  23  40  62  92 136 177 221 264 315 384
#
# _framework density 19.462320999999999
#
# number of rings (size 3 to 8) (size 9 to 14) (size 15 to 20)
#    0.000    1.333    3.333    2.000    5.833    3.333 
#    0.000    0.000    3.667    0.000    0.000    0.000 
#    0.000    0.000    0.000    0.000    0.000    0.000 
#
# Total GULP energy -133610.511444 kJ/mol
# GULP energy per Si atom -5567.104643 kJ/mol
# Density = 1.941802 g / cm^3
# Si number density = 19.462321 Si / 1000 Ang^3
#
#
#
# Elastic Constant Matrix: (Units=GPa)
#
#
# Indices 1 2 3 4 5 6 
#
# 1 133.1981 36.3086 43.1625 0.0061 -0.0028 0.0013
# 2 36.3086 66.1131 22.7717 0.0041 0.0055 0.0041
# 3 43.1625 22.7717 91.6714 0.0274 0.0195 0.0046
# 4 0.0061 0.0041 0.0274 5.3535 0.0099 0.0056
# 5 -0.0028 0.0055 0.0195 0.0099 14.2687 -0.0037
# 6 0.0013 0.0041 0.0046 0.0056 -0.0037 13.5836
#
#
#
# Elastic Compliance Matrix: (Units=1/GPa)
#
#
# Indices 1 2 3 4 5 6 
#
# 1 0.009799 -0.004147 -0.003584 0.000010 0.000008 0.000002
# 2 -0.004147 0.018296 -0.002592 0.000004 -0.000004 -0.000004
# 3 -0.003584 -0.002592 0.013240 -0.000062 -0.000018 -0.000003
# 4 0.000010 0.000004 -0.000062 0.186793 -0.000129 -0.000077
# 5 0.000008 -0.000004 -0.000018 -0.000129 0.070083 0.000019
# 6 0.000002 -0.000004 -0.000003 -0.000077 0.000019 0.073618
#
#
# Mechanical properties :
#
#
# Convention : Reuss Voigt Hill
#
# Bulk Modulus (GPa) = 48.33508 55.05203 51.69355
# Shear Modulus (GPa) = 12.51963 19.22382 15.87172
#
# Velocity S-wave (km/s) = 2.53904 3.14625 2.85881
# Velocity P-wave (km/s) = 5.78660 6.44565 6.12500
#
# Compressibility (1/GPa) = 0.02068891
#
# Stress axis : x y z
#
# Youngs Moduli (GPa) = 102.04641 54.65638 75.52985
#
# Poissons Ratio (x) = 0.22668 0.27068
# Poissons Ratio (y) = 0.42323 0.19578
# Poissons Ratio (z) = 0.36571 0.14167
#
# Static dielectric constant tensor:
#      x y z
#    x 1.678080 0.000010 0.000010 
#    y 0.000010 1.696420 -0.000010 
#    z 0.000010 -0.000010 1.776410 
# 
# From -- ./inp_files/3785.got.cif
#   From: 2010.05.17/outbox.cif.g08.bks.cpg/sg24_2_cif.got.tgz:3785.got - 2010.06.04 00:33:39.
