data_PCOD9335734
_publ_section_title
;
Structure prediction by ZEFSAII (Michael W. Deem and Ramdas Pophale) SiO2 
 PCOD9335734
Probable space group: I 21 21 21
;
_chemical_formula_sum "Si O2"
_cell_formula_units_Z 40
_cell_length_a 8.426062
_cell_length_b 28.315268
_cell_length_c 8.015802
_cell_angle_alpha 90.000000
_cell_angle_beta 90.000000
_cell_angle_gamma 90.000000
_cell_volume 1912.459769
_symmetry_space_group_name_H-M "I 21 21 21"
_symmetry_group_IT_number 24
_symmetry_cell_setting 'orthorhombic'
loop_
_space_group_symop_operation_xyz
x,y,z
-x,1/2-y,z
x,-y,1/2-z
1/2-x,y,-z
1/2+x,1/2+y,1/2+z
1/2-x,-y,1/2+z
1/2+x,1/2-y,-z
-x,1/2+y,1/2-z
loop_
_atom_site_type_symbol
_atom_site_label
_atom_site_fract_x
_atom_site_fract_y
_atom_site_fract_z
Si Si1 0.575487 0.512146 0.443668
Si Si2 0.424761 0.423705 0.552532
Si Si3 0.424095 0.111599 0.880367
Si Si4 0.931403 0.197702 0.924986
Si Si5 0.637141 0.646646 0.152717
O O1 0.554716 0.500000 0.250000
O O2 0.750000 0.495530 0.500000
O O3 0.453056 0.479566 0.542251
O O4 0.570121 0.566762 0.495447
O O5 0.250000 0.411362 0.500000
O O6 0.460688 0.404681 0.733779
O O7 0.546562 0.397358 0.429863
O O8 0.259020 0.125891 0.790470
O O9 0.485941 0.159034 0.960218
O O10 0.000000 0.250000 0.945455
O O11 0.002062 0.179728 0.741687
O O12 0.750000 0.198279 0.000000
O O13 0.750000 0.666953 0.000000
#
# Coordination Sequence:
#
# PCOD9335734 Si02
#       5
#     8   8   8   8   8
#     4  12  23  37  60  89 126 173 221 268 328 397
#     4  11  23  39  61  94 132 171 217 271 332 394
#     4  11  23  42  66  92 129 172 221 273 329 396
#     4  12  25  44  71 101 132 170 220 276 337 401
#     4  10  22  44  68  94 131 174 221 274 334 400
#
# _framework density 20.915472000000001
#
# number of rings (size 3 to 8) (size 9 to 14) (size 15 to 20)
#    0.000    0.800    0.000   10.200    0.000    2.400 
#    0.000    9.000    0.000    0.000    0.000    0.000 
#    0.000    0.000    0.000    0.000    0.000    0.000 
#
# Total GULP energy -111572.623442 kJ/mol
# GULP energy per Si atom -5578.631172 kJ/mol
# Density = 2.086787 g / cm^3
# Si number density = 20.915472 Si / 1000 Ang^3
#
#
#
# Elastic Constant Matrix: (Units=GPa)
#
#
# Indices 1 2 3 4 5 6 
#
# 1 110.2365 40.0451 48.2776 -0.0004 -0.0006 -0.0006
# 2 40.0451 149.0624 81.1821 -0.0005 -0.0001 -0.0001
# 3 48.2776 81.1821 123.7544 -0.0011 -0.0027 -0.0005
# 4 -0.0004 -0.0005 -0.0011 23.8773 -0.0002 0.0006
# 5 -0.0006 -0.0001 -0.0027 -0.0002 27.2944 -0.0020
# 6 -0.0006 -0.0001 -0.0005 0.0006 -0.0020 -9.7916
#
#
#
# Elastic Compliance Matrix: (Units=1/GPa)
#
#
# Indices 1 2 3 4 5 6 
#
# 1 0.011029 -0.000964 -0.003670 0.000000 0.000000 -0.000001
# 2 -0.000964 0.010522 -0.006526 0.000000 -0.000001 0.000000
# 3 -0.003670 -0.006526 0.013793 0.000000 0.000001 0.000000
# 4 0.000000 0.000000 0.000000 0.041881 0.000000 0.000003
# 5 0.000000 -0.000001 0.000001 0.000000 0.036637 -0.000008
# 6 -0.000001 0.000000 0.000000 0.000003 -0.000008 -0.102129
#
#
# Mechanical properties :
#
#
# Convention : Reuss Voigt Hill
#
# Bulk Modulus (GPa) = 76.78411 80.22920 78.50666
# Shear Modulus (GPa) = 130.22301 22.51260 76.36781
#
# Velocity S-wave (km/s) = 7.89916 3.28435 6.04912
# Velocity P-wave (km/s) = 10.95386 7.26806 9.29547
#
# Compressibility (1/GPa) = 0.01302353
#
# Stress axis : x y z
#
# Youngs Moduli (GPa) = 90.67087 95.03998 72.49865
#
# Poissons Ratio (x) = 0.09163 0.26607
# Poissons Ratio (y) = 0.08742 0.47314
# Poissons Ratio (z) = 0.33276 0.62025
#
# Static dielectric constant tensor:
#      x y z
#    x 1.780560 0.000000 0.000000 
#    y 0.000000 1.701290 0.000000 
#    z 0.000000 0.000000 1.816270 
# 
# From -- ./inp_files/9278.got.cif
#   From: 2010.05.17/outbox.cif.g08.bks.cpg/sg24_5_cif.got.tgz:9278.got - 2010.06.04 00:33:39.
