data_PCOD9335330
_publ_section_title
;
Structure prediction by ZEFSAII (Michael W. Deem and Ramdas Pophale) SiO2 
 PCOD9335330
Probable space group: I 21 21 21
;
_chemical_formula_sum "Si O2"
_cell_formula_units_Z 60
_cell_length_a 19.678768
_cell_length_b 17.580033
_cell_length_c 8.816641
_cell_angle_alpha 90.000000
_cell_angle_beta 90.000000
_cell_angle_gamma 90.000000
_cell_volume 3050.146850
_symmetry_space_group_name_H-M "I 21 21 21"
_symmetry_group_IT_number 24
_symmetry_cell_setting 'orthorhombic'
loop_
_space_group_symop_operation_xyz
x,y,z
-x,1/2-y,z
x,-y,1/2-z
1/2-x,y,-z
1/2+x,1/2+y,1/2+z
1/2-x,-y,1/2+z
1/2+x,1/2-y,-z
-x,1/2+y,1/2-z
loop_
_atom_site_type_symbol
_atom_site_label
_atom_site_fract_x
_atom_site_fract_y
_atom_site_fract_z
Si Si1 0.196181 0.588665 0.285733
Si Si2 0.524712 0.543631 0.889909
Si Si3 0.416919 0.755140 0.197546
Si Si4 0.842945 0.129398 0.866985
Si Si5 0.396318 0.926129 0.191123
Si Si6 0.581373 0.180753 0.634188
Si Si7 0.018262 0.591266 0.571394
Si Si8 0.000000 0.750000 0.385244
O O1 0.186055 0.500000 0.250000
O O2 0.276165 0.607237 0.276060
O O3 0.173266 0.612769 0.456444
O O4 0.150277 0.637806 0.174424
O O5 0.558809 0.500000 0.750000
O O6 0.479683 0.618310 0.862082
O O7 0.577722 0.560066 0.021637
O O8 0.476381 0.476178 0.950786
O O9 0.500000 0.750000 0.228969
O O10 0.371632 0.712056 0.323150
O O11 0.380809 0.837063 0.190505
O O12 0.413960 0.716947 0.031627
O O13 0.912649 0.086041 0.833694
O O14 0.458119 0.924214 0.312615
O O15 0.354426 0.000000 0.250000
O O16 0.562959 0.240875 0.767337
O O17 0.003887 0.671624 0.483740
#
# Coordination Sequence:
#
# PCOD9335330 Si02
#       8
#     8   8   8   8   8   8   8   4
#     4  11  26  43  60  92 133 178 230 256 305 394
#     4  11  19  33  52  81 123 164 200 253 321 378
#     4  12  22  39  62  92 126 164 218 271 332 388
#     4  11  23  40  61  84 124 178 219 265 313 373
#     4  10  22  36  55  90 121 155 201 261 321 393
#     4  12  22  37  59  90 130 167 214 269 321 388
#     4  11  20  33  58  82 119 166 213 257 315 374
#     4  12  20  32  60  88 118 170 210 272 332 380
#
# _framework density 19.671185000000001
#
# number of rings (size 3 to 8) (size 9 to 14) (size 15 to 20)
#    0.000    0.800    6.000    2.000    0.000    5.333 
#    0.000    0.000    0.000    0.000    0.000    3.733 
#    0.000    0.000    0.000    0.000    0.000    0.000 
#
# Total GULP energy -167061.853833 kJ/mol
# GULP energy per Si atom -5568.728461 kJ/mol
# Density = 1.962641 g / cm^3
# Si number density = 19.671185 Si / 1000 Ang^3
#
#
#
# Elastic Constant Matrix: (Units=GPa)
#
#
# Indices 1 2 3 4 5 6 
#
# 1 52.2675 27.5874 16.1462 0.0000 0.0000 0.0000
# 2 27.5874 144.8072 51.3599 0.0000 0.0000 0.0000
# 3 16.1462 51.3599 95.3475 0.0000 0.0000 0.0000
# 4 0.0000 0.0000 0.0000 39.5231 0.0000 0.0000
# 5 0.0000 0.0000 0.0000 0.0000 7.2390 0.0000
# 6 0.0000 0.0000 0.0000 0.0000 0.0000 17.6388
#
#
#
# Elastic Compliance Matrix: (Units=1/GPa)
#
#
# Indices 1 2 3 4 5 6 
#
# 1 0.021511 -0.003469 -0.001774 0.000000 0.000000 0.000000
# 2 -0.003469 0.009096 -0.004312 0.000000 0.000000 0.000000
# 3 -0.001774 -0.004312 0.013111 0.000000 0.000000 0.000000
# 4 0.000000 0.000000 0.000000 0.025302 0.000000 0.000000
# 5 0.000000 0.000000 0.000000 0.000000 0.138140 0.000000
# 6 0.000000 0.000000 0.000000 0.000000 0.000000 0.056693
#
#
# Mechanical properties :
#
#
# Convention : Reuss Voigt Hill
#
# Bulk Modulus (GPa) = 40.63725 53.62324 47.13024
# Shear Modulus (GPa) = 17.17226 26.03544 21.60385
#
# Velocity S-wave (km/s) = 2.95780 3.64198 3.31758
# Velocity P-wave (km/s) = 5.68928 6.70853 6.21982
#
# Compressibility (1/GPa) = 0.02460797
#
# Stress axis : x y z
#
# Youngs Moduli (GPa) = 46.48707 109.93773 76.27049
#
# Poissons Ratio (x) = 0.38136 0.13532
# Poissons Ratio (y) = 0.16126 0.32890
# Poissons Ratio (z) = 0.08248 0.47408
#
# Static dielectric constant tensor:
#      x y z
#    x 1.687420 0.000000 0.000000 
#    y 0.000000 1.844930 0.000000 
#    z 0.000000 0.000000 1.774640 
# 
# From -- ./inp_files/14468.got.cif
#   From: 2010.05.17/outbox.cif.g08.bks.cpg/sg24_8_cif.got.tgz:14468.got - 2010.06.04 00:33:39.
