data_PCOD9335558
_publ_section_title
;
Structure prediction by ZEFSAII (Michael W. Deem and Ramdas Pophale) SiO2 
 PCOD9335558
Probable space group: I 21 21 21
;
_chemical_formula_sum "Si O2"
_cell_formula_units_Z 60
_cell_length_a 11.876428
_cell_length_b 8.776300
_cell_length_c 27.398908
_cell_angle_alpha 90.000000
_cell_angle_beta 90.000000
_cell_angle_gamma 90.000000
_cell_volume 2855.818184
_symmetry_space_group_name_H-M "I 21 21 21"
_symmetry_group_IT_number 24
_symmetry_cell_setting 'orthorhombic'
loop_
_space_group_symop_operation_xyz
x,y,z
-x,1/2-y,z
x,-y,1/2-z
1/2-x,y,-z
1/2+x,1/2+y,1/2+z
1/2-x,-y,1/2+z
1/2+x,1/2-y,-z
-x,1/2+y,1/2-z
loop_
_atom_site_type_symbol
_atom_site_label
_atom_site_fract_x
_atom_site_fract_y
_atom_site_fract_z
Si Si1 0.277254 0.389548 0.795048
Si Si2 0.689401 0.860083 0.453369
Si Si3 0.375344 0.186759 0.145053
Si Si4 0.797286 0.094380 0.390292
Si Si5 0.454742 0.025460 0.597369
Si Si6 0.523308 0.434491 0.485487
Si Si7 0.193063 0.102455 0.600644
Si Si8 0.000000 0.750000 0.328340
O O1 0.254408 0.500000 0.750000
O O2 0.190991 0.256271 0.809221
O O3 0.277466 0.497215 0.842242
O O4 0.399498 0.310927 0.794704
O O5 0.750000 0.784588 0.500000
O O6 0.675002 0.750532 0.406636
O O7 0.777896 0.989408 0.437317
O O8 0.574132 0.954819 0.463302
O O9 0.500000 0.250000 0.147048
O O10 0.365243 0.005307 0.140379
O O11 0.696835 0.217050 0.391840
O O12 0.931592 0.123618 0.391659
O O13 0.458120 0.999158 0.539293
O O14 0.326988 0.078762 0.604098
O O15 0.464747 0.883505 0.634309
O O16 0.500000 0.250000 0.490168
O O17 0.631519 0.436618 0.450011
#
# Coordination Sequence:
#
# PCOD9335558 Si02
#       8
#     8   8   8   8   8   8   8   4
#     4  10  23  49  74  98 131 171 219 283 368 430
#     4  11  22  39  58  87 133 187 227 268 331 400
#     4  11  24  44  67  97 134 179 231 292 344 404
#     4  10  22  41  66  91 132 181 215 277 348 406
#     4  11  23  37  61  93 138 176 227 272 335 397
#     4  12  23  35  59  92 137 189 235 270 322 397
#     4  12  23  39  60  95 135 173 234 278 325 393
#     4  10  22  46  68 100 132 174 216 284 350 430
#
# _framework density 21.009741000000002
#
# number of rings (size 3 to 8) (size 9 to 14) (size 15 to 20)
#    0.000    1.067    5.333    1.600    0.000    2.133 
#    4.800    2.000    0.000    0.000    0.000    0.000 
#    0.000    0.000    0.000    0.000    0.000    0.000 
#
# Total GULP energy -167245.642243 kJ/mol
# GULP energy per Si atom -5574.854741 kJ/mol
# Density = 2.096192 g / cm^3
# Si number density = 21.009741 Si / 1000 Ang^3
#
#
#
# Elastic Constant Matrix: (Units=GPa)
#
#
# Indices 1 2 3 4 5 6 
#
# 1 58.7354 -0.0336 -0.5512 0.0000 0.0000 0.0000
# 2 -0.0336 38.3967 2.2123 0.0000 0.0000 0.0000
# 3 -0.5512 2.2123 47.0135 0.0000 0.0000 0.0000
# 4 0.0000 0.0000 0.0000 24.1100 0.0000 0.0000
# 5 0.0000 0.0000 0.0000 0.0000 14.8212 0.0000
# 6 0.0000 0.0000 0.0000 0.0000 0.0000 31.5498
#
#
#
# Elastic Compliance Matrix: (Units=1/GPa)
#
#
# Indices 1 2 3 4 5 6 
#
# 1 0.017027 0.000003 0.000199 0.000000 0.000000 0.000000
# 2 0.000003 0.026115 -0.001229 0.000000 0.000000 0.000000
# 3 0.000199 -0.001229 0.021331 0.000000 0.000000 0.000000
# 4 0.000000 0.000000 0.000000 0.041477 0.000000 0.000000
# 5 0.000000 0.000000 0.000000 0.000000 0.067471 0.000000
# 6 0.000000 0.000000 0.000000 0.000000 0.000000 0.031696
#
#
# Mechanical properties :
#
#
# Convention : Reuss Voigt Hill
#
# Bulk Modulus (GPa) = 16.02030 16.37786 16.19908
# Shear Modulus (GPa) = 21.93224 23.59741 22.76482
#
# Velocity S-wave (km/s) = 3.23446 3.35500 3.29528
# Velocity P-wave (km/s) = 4.64658 4.77706 4.71227
#
# Compressibility (1/GPa) = 0.06242079
#
# Stress axis : x y z
#
# Youngs Moduli (GPa) = 58.72897 38.29261 46.88089
#
# Poissons Ratio (x) = -0.00013 -0.00935
# Poissons Ratio (y) = -0.00020 0.05761
# Poissons Ratio (z) = -0.01171 0.04706
#
# Static dielectric constant tensor:
#      x y z
#    x 1.781350 0.000000 0.000000 
#    y 0.000000 2.198700 0.000000 
#    z 0.000000 0.000000 1.720670 
# 
# From -- ./inp_files/37212.got.cif
#   From: 2010.05.17/outbox.cif.g08.bks.cpg/sg24_19_cif.got.tgz:37212.got - 2010.06.04 00:33:39.
