data_PCOD9335823
_publ_section_title
;
Structure prediction by ZEFSAII (Michael W. Deem and Ramdas Pophale) SiO2 
 PCOD9335823
Probable space group: I 21 21 21
;
_chemical_formula_sum "Si O2"
_cell_formula_units_Z 28
_cell_length_a 8.520285
_cell_length_b 18.194258
_cell_length_c 6.558007
_cell_angle_alpha 90.000000
_cell_angle_beta 90.000000
_cell_angle_gamma 90.000000
_cell_volume 1016.623973
_symmetry_space_group_name_H-M "I 21 21 21"
_symmetry_group_IT_number 24
_symmetry_cell_setting 'orthorhombic'
loop_
_space_group_symop_operation_xyz
x,y,z
-x,1/2-y,z
x,-y,1/2-z
1/2-x,y,-z
1/2+x,1/2+y,1/2+z
1/2-x,-y,1/2+z
1/2+x,1/2-y,-z
-x,1/2+y,1/2-z
loop_
_atom_site_type_symbol
_atom_site_label
_atom_site_fract_x
_atom_site_fract_y
_atom_site_fract_z
Si Si1 0.430531 0.851569 0.839376
Si Si2 0.500000 0.250000 0.297773
Si Si3 0.750000 0.105033 0.500000
Si Si4 0.974866 0.000000 0.750000
Si Si5 0.750000 0.490195 0.500000
Si Si6 0.750000 0.257919 0.000000
O O1 0.346538 0.930509 0.860772
O O2 0.357179 0.807855 0.651260
O O3 0.413517 0.806926 0.053598
O O4 0.620810 0.857511 0.850628
O O5 0.629662 0.216504 0.148484
O O6 0.635801 0.056054 0.362601
O O7 0.103934 0.034002 0.904402
#
# Coordination Sequence:
#
# PCOD9335823 Si02
#       6
#     8   4   4   4   4   4
#     4  11  25  47  71 112 158 195 257 319 376 473
#     4  12  26  46  72 118 160 200 258 320 366 484
#     4  10  26  47  73 112 150 192 254 348 374 450
#     4  10  24  46  74 100 146 190 250 322 394 434
#     4  10  22  48  72 102 146 201 249 322 372 464
#     4  12  26  43  79 106 156 223 243 300 408 436
#
# _framework density 27.542138999999999
#
# number of rings (size 3 to 8) (size 9 to 14) (size 15 to 20)
#    0.000    1.143    2.857    0.857    8.000    8.000 
#    0.000    0.000    0.000    0.000    0.000    0.000 
#    0.000    0.000    0.000    0.000    0.000    0.000 
#
# Total GULP energy -78258.669631 kJ/mol
# GULP energy per Si atom -5589.904974 kJ/mol
# Density = 2.747945 g / cm^3
# Si number density = 27.542139 Si / 1000 Ang^3
#
#
#
# Elastic Constant Matrix: (Units=GPa)
#
#
# Indices 1 2 3 4 5 6 
#
# 1 258.4344 44.5328 101.8080 0.0002 0.0003 0.0001
# 2 44.5328 66.5775 39.7066 0.0001 0.0002 0.0002
# 3 101.8080 39.7066 157.9501 0.0003 0.0002 0.0004
# 4 0.0002 0.0001 0.0003 9.1121 0.0004 0.0001
# 5 0.0003 0.0002 0.0002 0.0004 116.7322 0.0001
# 6 0.0001 0.0002 0.0004 0.0001 0.0001 53.0981
#
#
#
# Elastic Compliance Matrix: (Units=1/GPa)
#
#
# Indices 1 2 3 4 5 6 
#
# 1 0.005363 -0.001795 -0.003005 0.000000 0.000000 0.000000
# 2 -0.001795 0.018270 -0.003436 0.000000 0.000000 0.000000
# 3 -0.003005 -0.003436 0.009132 0.000000 0.000000 0.000000
# 4 0.000000 0.000000 0.000000 0.109744 0.000000 0.000000
# 5 0.000000 0.000000 0.000000 0.000000 0.008567 0.000000
# 6 0.000000 0.000000 0.000000 0.000000 0.000000 0.018833
#
#
# Mechanical properties :
#
#
# Convention : Reuss Voigt Hill
#
# Bulk Modulus (GPa) = 61.37858 95.00631 78.19245
# Shear Modulus (GPa) = 26.06729 55.58279 40.82504
#
# Velocity S-wave (km/s) = 3.07978 4.49720 3.85421
# Velocity P-wave (km/s) = 5.91443 7.84450 6.94682
#
# Compressibility (1/GPa) = 0.01629233
#
# Stress axis : x y z
#
# Youngs Moduli (GPa) = 186.47515 54.73537 109.50450
#
# Poissons Ratio (x) = 0.09823 0.32910
# Poissons Ratio (y) = 0.33465 0.37626
# Poissons Ratio (z) = 0.56043 0.18807
#
# Static dielectric constant tensor:
#      x y z
#    x 2.181800 0.000000 0.000000 
#    y 0.000000 2.113940 0.000000 
#    z 0.000000 0.000000 2.445960 
# 
# From -- ./inp_files/900.got.cif
#   From: 2010.05.17/outbox.cif.g08.bks.cpg/sg24_1_cif.got.tgz:900.got - 2010.06.04 00:33:39.
