data_PCOD9335768
_publ_section_title
;
Structure prediction by ZEFSAII (Michael W. Deem and Ramdas Pophale) SiO2 
 PCOD9335768
Probable space group: I 21 21 21
;
_chemical_formula_sum "Si O2"
_cell_formula_units_Z 32
_cell_length_a 13.198346
_cell_length_b 7.652151
_cell_length_c 12.381391
_cell_angle_alpha 90.000000
_cell_angle_beta 90.000000
_cell_angle_gamma 90.000000
_cell_volume 1250.467703
_symmetry_space_group_name_H-M "I 21 21 21"
_symmetry_group_IT_number 24
_symmetry_cell_setting 'orthorhombic'
loop_
_space_group_symop_operation_xyz
x,y,z
-x,1/2-y,z
x,-y,1/2-z
1/2-x,y,-z
1/2+x,1/2+y,1/2+z
1/2-x,-y,1/2+z
1/2+x,1/2-y,-z
-x,1/2+y,1/2-z
loop_
_atom_site_type_symbol
_atom_site_label
_atom_site_fract_x
_atom_site_fract_y
_atom_site_fract_z
Si Si1 0.250000 0.629429 0.500000
Si Si2 0.955643 0.000000 0.750000
Si Si3 0.096775 0.844125 0.169244
Si Si4 0.019836 0.548038 0.509874
Si Si5 0.290402 0.204973 0.233269
O O1 0.141953 0.526582 0.495719
O O2 0.257851 0.746630 0.390254
O O3 0.006443 0.980608 0.634260
O O4 0.884872 0.828336 0.757618
O O5 0.200863 0.740582 0.182523
O O6 0.000000 0.750000 0.218155
O O7 0.117781 0.000000 0.250000
O O8 0.053058 0.923840 0.059332
O O9 0.000000 0.750000 0.481893
O O10 0.311755 0.000000 0.250000
#
# Coordination Sequence:
#
# PCOD9335768 Si02
#       5
#     4   4   8   8   8
#     4  10  22  44  78 104 148 196 240 318 378 452
#     4  10  26  48  74 100 148 206 244 310 382 452
#     4  11  23  39  71 109 145 185 244 309 374 447
#     4  11  24  47  73 104 149 196 248 309 383 452
#     4  10  22  45  71 106 145 189 247 303 376 450
#
# _framework density 25.590425
#
# number of rings (size 3 to 8) (size 9 to 14) (size 15 to 20)
#    0.000    1.500    0.000    5.250    8.750    1.000 
#   27.000    0.000    0.000    0.000    0.000    0.000 
#    0.000    0.000    0.000    0.000    0.000    0.000 
#
# Total GULP energy -89529.049696 kJ/mol
# GULP energy per Si atom -5595.565606 kJ/mol
# Density = 2.553218 g / cm^3
# Si number density = 25.590425 Si / 1000 Ang^3
#
#
#
# Elastic Constant Matrix: (Units=GPa)
#
#
# Indices 1 2 3 4 5 6 
#
# 1 159.8515 8.6163 71.3346 0.0000 0.0000 0.0000
# 2 8.6163 66.1841 46.5696 0.0000 0.0000 0.0000
# 3 71.3346 46.5696 179.7292 0.0000 0.0000 0.0000
# 4 0.0000 0.0000 0.0000 49.8118 0.0000 0.0000
# 5 0.0000 0.0000 0.0000 0.0000 115.4524 0.0000
# 6 0.0000 0.0000 0.0000 0.0000 0.0000 9.4371
#
#
#
# Elastic Compliance Matrix: (Units=1/GPa)
#
#
# Indices 1 2 3 4 5 6 
#
# 1 0.007708 0.001405 -0.003423 0.000000 0.000000 0.000000
# 2 0.001405 0.018735 -0.005412 0.000000 0.000000 0.000000
# 3 -0.003423 -0.005412 0.008325 0.000000 0.000000 0.000000
# 4 0.000000 0.000000 0.000000 0.020076 0.000000 0.000000
# 5 0.000000 0.000000 0.000000 0.000000 0.008662 0.000000
# 6 0.000000 0.000000 0.000000 0.000000 0.000000 0.105965
#
#
# Mechanical properties :
#
#
# Convention : Reuss Voigt Hill
#
# Bulk Modulus (GPa) = 50.23329 73.20063 61.71696
# Shear Modulus (GPa) = 26.18282 53.55656 39.86969
#
# Velocity S-wave (km/s) = 3.20214 4.57972 3.95142
# Velocity P-wave (km/s) = 5.77442 7.52541 6.70730
#
# Compressibility (1/GPa) = 0.01990712
#
# Stress axis : x y z
#
# Youngs Moduli (GPa) = 129.73969 53.37726 120.12038
#
# Poissons Ratio (x) = -0.07501 0.41121
# Poissons Ratio (y) = -0.18233 0.65010
# Poissons Ratio (z) = 0.44414 0.28888
#
# Static dielectric constant tensor:
#      x y z
#    x 2.476390 0.000000 0.000000 
#    y 0.000000 1.920290 0.000000 
#    z 0.000000 0.000000 1.979180 
# 
# From -- ./inp_files/10437.got.cif
#   From: 2010.05.17/outbox.cif.g08.bks.cpg/sg24_6_cif.got.tgz:10437.got - 2010.06.04 00:33:39.
