data_PCOD9335572
_publ_section_title
;
Structure prediction by ZEFSAII (Michael W. Deem and Ramdas Pophale) SiO2 
 PCOD9335572
Probable space group: I 21 21 21
;
_chemical_formula_sum "Si O2"
_cell_formula_units_Z 32
_cell_length_a 31.964864
_cell_length_b 8.527577
_cell_length_c 5.372225
_cell_angle_alpha 90.000000
_cell_angle_beta 90.000000
_cell_angle_gamma 90.000000
_cell_volume 1464.376343
_symmetry_space_group_name_H-M "I 21 21 21"
_symmetry_group_IT_number 24
_symmetry_cell_setting 'orthorhombic'
loop_
_space_group_symop_operation_xyz
x,y,z
-x,1/2-y,z
x,-y,1/2-z
1/2-x,y,-z
1/2+x,1/2+y,1/2+z
1/2-x,-y,1/2+z
1/2+x,1/2-y,-z
-x,1/2+y,1/2-z
loop_
_atom_site_type_symbol
_atom_site_label
_atom_site_fract_x
_atom_site_fract_y
_atom_site_fract_z
Si Si1 0.705059 0.829837 0.626913
Si Si2 0.472844 0.595872 0.511612
Si Si3 0.319769 0.000000 0.750000
Si Si4 0.125174 0.000000 0.750000
Si Si5 0.886040 0.833562 0.613628
O O1 0.750000 0.835644 0.500000
O O2 0.705399 0.663276 0.770399
O O3 0.661868 0.817616 0.473261
O O4 0.700750 0.000000 0.750000
O O5 0.500000 0.750000 0.476762
O O6 0.473567 0.500000 0.250000
O O7 0.424752 0.646322 0.573879
O O8 0.488700 0.500000 0.750000
O O9 0.347850 0.000072 0.502474
O O10 0.102901 0.170027 0.747441
O O11 0.885829 0.000000 0.750000
#
# Coordination Sequence:
#
# PCOD9335572 Si02
#       5
#     8   8   4   4   8
#     4  11  23  39  64  96 131 177 220 271 327 397
#     4  11  25  46  71 103 138 179 226 286 347 410
#     4  10  24  43  62  94 136 170 226 274 326 381
#     4  10  22  41  68 100 124 184 218 270 334 399
#     4  10  22  42  68  97 137 174 223 276 334 395
#
# _framework density 21.852308000000001
#
# number of rings (size 3 to 8) (size 9 to 14) (size 15 to 20)
#    0.000    1.500    0.000    3.750    1.750   13.000 
#    9.000    0.000    0.000    0.000    0.000    0.000 
#    0.000    0.000    0.000    0.000    0.000    0.000 
#
# Total GULP energy -89078.440895 kJ/mol
# GULP energy per Si atom -5567.402556 kJ/mol
# Density = 2.180257 g / cm^3
# Si number density = 21.852308 Si / 1000 Ang^3
#
#
#
# Elastic Constant Matrix: (Units=GPa)
#
#
# Indices 1 2 3 4 5 6 
#
# 1 99.8527 22.4030 10.1369 0.0000 0.0000 0.0000
# 2 22.4030 234.5174 35.9565 0.0000 0.0000 -0.0002
# 3 10.1369 35.9565 89.2620 -0.0001 0.0000 -0.0001
# 4 0.0000 0.0000 -0.0001 44.1227 0.0000 -0.0001
# 5 0.0000 0.0000 0.0000 0.0000 21.0917 0.0001
# 6 0.0000 -0.0002 -0.0001 -0.0001 0.0001 -247.1142
#
#
#
# Elastic Compliance Matrix: (Units=1/GPa)
#
#
# Indices 1 2 3 4 5 6 
#
# 1 0.010291 -0.000857 -0.000824 0.000000 0.000000 0.000000
# 2 -0.000857 0.004616 -0.001762 0.000000 0.000000 0.000000
# 3 -0.000824 -0.001762 0.012006 0.000000 0.000000 0.000000
# 4 0.000000 0.000000 0.000000 0.022664 0.000000 0.000000
# 5 0.000000 0.000000 0.000000 0.000000 0.047412 0.000000
# 6 0.000000 0.000000 0.000000 0.000000 0.000000 -0.004047
#
#
# Mechanical properties :
#
#
# Convention : Reuss Voigt Hill
#
# Bulk Modulus (GPa) = 49.92981 62.29165 56.11073
# Shear Modulus (GPa) = 46.94688 -12.70426 17.12131
#
# Velocity S-wave (km/s) = 4.64008 -2.41378 2.80215
# Velocity P-wave (km/s) = 7.18370 4.56062 6.01684
#
# Compressibility (1/GPa) = 0.02002812
#
# Stress axis : x y z
#
# Youngs Moduli (GPa) = 97.17627 216.63324 83.28942
#
# Poissons Ratio (x) = 0.18561 0.06859
# Poissons Ratio (y) = 0.08326 0.14677
# Poissons Ratio (z) = 0.08003 0.38174
#
# Static dielectric constant tensor:
#      x y z
#    x 1.614390 0.000000 0.000000 
#    y 0.000000 1.927870 0.000000 
#    z 0.000000 0.000000 1.946600 
# 
# From -- ./inp_files/7464.got.cif
#   From: 2010.05.17/outbox.cif.g08.bks.cpg/sg24_4_cif.got.tgz:7464.got - 2010.06.04 00:33:39.
