data_PCOD9335358
_publ_section_title
;
Structure prediction by ZEFSAII (Michael W. Deem and Ramdas Pophale) SiO2 
 PCOD9335358
Probable space group: I 21 21 21
;
_chemical_formula_sum "Si O2"
_cell_formula_units_Z 44
_cell_length_a 19.276116
_cell_length_b 13.860717
_cell_length_c 6.577407
_cell_angle_alpha 90.000000
_cell_angle_beta 90.000000
_cell_angle_gamma 90.000000
_cell_volume 1757.356790
_symmetry_space_group_name_H-M "I 21 21 21"
_symmetry_group_IT_number 24
_symmetry_cell_setting 'orthorhombic'
loop_
_space_group_symop_operation_xyz
x,y,z
-x,1/2-y,z
x,-y,1/2-z
1/2-x,y,-z
1/2+x,1/2+y,1/2+z
1/2-x,-y,1/2+z
1/2+x,1/2-y,-z
-x,1/2+y,1/2-z
loop_
_atom_site_type_symbol
_atom_site_label
_atom_site_fract_x
_atom_site_fract_y
_atom_site_fract_z
Si Si1 0.390484 0.000000 0.250000
Si Si2 0.031927 0.095272 0.113174
Si Si3 0.124751 0.585393 0.463637
Si Si4 0.309611 0.178240 0.309136
Si Si5 0.339007 0.219020 0.829725
Si Si6 0.328985 0.387424 0.431264
O O1 0.342621 0.076511 0.366422
O O2 0.437843 0.939443 0.399220
O O3 0.085573 0.171932 0.209960
O O4 0.030256 0.000000 0.250000
O O5 0.953232 0.124097 0.064337
O O6 0.166774 0.663966 0.330415
O O7 0.126018 0.468364 0.449287
O O8 0.156119 0.595625 0.690857
O O9 0.226084 0.176072 0.293612
O O10 0.339903 0.271312 0.429368
O O11 0.327672 0.194440 0.069424
O O12 0.250000 0.407984 0.500000
#
# Coordination Sequence:
#
# PCOD9335358 Si02
#       6
#     4   8   8   8   8   8
#     4  10  22  44  70  96 142 182 230 314 358 412
#     4  11  24  43  67 100 134 194 248 288 359 441
#     4  10  22  40  65  94 143 185 230 298 362 437
#     4   9  20  38  63 100 132 179 230 296 366 421
#     4   9  20  39  64  93 135 187 235 286 366 433
#     4  10  22  37  64 101 138 179 231 297 366 441
#
# _framework density 25.037600000000001
#
# number of rings (size 3 to 8) (size 9 to 14) (size 15 to 20)
#    0.000    2.182    0.000    1.636    8.909    2.909 
#    3.273    4.545    0.000    0.000    0.000    0.000 
#    0.000    0.000    0.000    0.000    0.000    0.000 
#
# Total GULP energy -122878.620979 kJ/mol
# GULP energy per Si atom -5585.391863 kJ/mol
# Density = 2.498061 g / cm^3
# Si number density = 25.037600 Si / 1000 Ang^3
#
#
#
# Elastic Constant Matrix: (Units=GPa)
#
#
# Indices 1 2 3 4 5 6 
#
# 1 150.7678 39.9675 28.1207 0.0000 0.0000 0.0000
# 2 39.9675 98.2667 7.0310 0.0000 0.0000 0.0000
# 3 28.1207 7.0310 49.2749 0.0000 0.0000 0.0000
# 4 0.0000 0.0000 0.0000 57.9430 0.0000 0.0000
# 5 0.0000 0.0000 0.0000 0.0000 34.4946 0.0000
# 6 0.0000 0.0000 0.0000 0.0000 0.0000 38.8949
#
#
#
# Elastic Compliance Matrix: (Units=1/GPa)
#
#
# Indices 1 2 3 4 5 6 
#
# 1 0.008235 -0.003044 -0.004265 0.000000 0.000000 0.000000
# 2 -0.003044 0.011407 0.000110 0.000000 0.000000 0.000000
# 3 -0.004265 0.000110 0.022713 0.000000 0.000000 0.000000
# 4 0.000000 0.000000 0.000000 0.017258 0.000000 0.000000
# 5 0.000000 0.000000 0.000000 0.000000 0.028990 0.000000
# 6 0.000000 0.000000 0.000000 0.000000 0.000000 0.025710
#
#
# Mechanical properties :
#
#
# Convention : Reuss Voigt Hill
#
# Bulk Modulus (GPa) = 35.77183 49.83864 42.80523
# Shear Modulus (GPa) = 36.22349 41.14584 38.68467
#
# Velocity S-wave (km/s) = 3.80776 4.05824 3.93499
# Velocity P-wave (km/s) = 5.80089 6.47362 6.14647
#
# Compressibility (1/GPa) = 0.02795496
#
# Stress axis : x y z
#
# Youngs Moduli (GPa) = 121.42820 87.66748 44.02785
#
# Poissons Ratio (x) = 0.26689 0.18780
# Poissons Ratio (y) = 0.36967 -0.00483
# Poissons Ratio (z) = 0.51794 -0.00962
#
# Static dielectric constant tensor:
#      x y z
#    x 1.931320 0.000000 0.000000 
#    y 0.000000 2.021230 0.000000 
#    z 0.000000 0.000000 2.077080 
# 
# From -- ./inp_files/14086.got.cif
#   From: 2010.05.17/outbox.cif.g08.bks.cpg/sg24_8_cif.got.tgz:14086.got - 2010.06.04 00:33:39.
