data_PCOD9335303
_publ_section_title
;
Structure prediction by ZEFSAII (Michael W. Deem and Ramdas Pophale) SiO2 
 PCOD9335303
Probable space group: I 21 21 21
;
_chemical_formula_sum "Si O2"
_cell_formula_units_Z 36
_cell_length_a 29.124823
_cell_length_b 13.050335
_cell_length_c 5.237050
_cell_angle_alpha 90.000000
_cell_angle_beta 90.000000
_cell_angle_gamma 90.000000
_cell_volume 1990.543510
_symmetry_space_group_name_H-M "I 21 21 21"
_symmetry_group_IT_number 24
_symmetry_cell_setting 'orthorhombic'
loop_
_space_group_symop_operation_xyz
x,y,z
-x,1/2-y,z
x,-y,1/2-z
1/2-x,y,-z
1/2+x,1/2+y,1/2+z
1/2-x,-y,1/2+z
1/2+x,1/2-y,-z
-x,1/2+y,1/2-z
loop_
_atom_site_type_symbol
_atom_site_label
_atom_site_fract_x
_atom_site_fract_y
_atom_site_fract_z
Si Si1 0.063205 0.321204 0.842439
Si Si2 0.571605 0.500000 0.750000
Si Si3 0.350019 0.611300 0.616296
Si Si4 0.909891 0.722741 0.163200
Si Si5 0.491675 0.000000 0.250000
Si Si6 0.250000 0.570474 0.500000
O O1 0.069912 0.240312 0.616336
O O2 0.024677 0.401326 0.765610
O O3 0.111588 0.380319 0.894408
O O4 0.056165 0.265656 0.114795
O O5 0.599595 0.605309 0.772171
O O6 0.539343 0.500953 0.501457
O O7 0.352960 0.500000 0.750000
O O8 0.366495 0.701764 0.804583
O O9 0.298183 0.628573 0.526094
O O10 0.254308 0.500000 0.250000
#
# Coordination Sequence:
#
# PCOD9335303 Si02
#       6
#     8   4   8   8   4   4
#     4  10  22  37  58  83 110 159 182 237 290 343
#     4  12  26  40  54  86 112 156 206 244 272 324
#     4   9  21  37  60  88 116 150 182 227 298 344
#     4  10  23  39  59  80 115 158 192 237 287 337
#     4  12  24  36  60  84 116 148 198 246 284 342
#     4  10  22  32  58  92 122 140 178 230 282 362
#
# _framework density 18.085512999999999
#
# number of rings (size 3 to 8) (size 9 to 14) (size 15 to 20)
#    1.333    0.444    0.000    4.000    9.333    5.333 
#    0.000    0.000    0.000    0.000    5.778    0.000 
#    0.000    0.000    0.000    0.000    0.000    0.000 
#
# Total GULP energy -100355.572235 kJ/mol
# GULP energy per Si atom -5575.309569 kJ/mol
# Density = 1.804435 g / cm^3
# Si number density = 18.085513 Si / 1000 Ang^3
#
#
#
# Elastic Constant Matrix: (Units=GPa)
#
#
# Indices 1 2 3 4 5 6 
#
# 1 89.1561 34.9387 18.5948 0.0000 0.0000 0.0000
# 2 34.9387 114.3438 10.2284 0.0001 0.0000 0.0000
# 3 18.5948 10.2284 110.7994 0.0002 0.0004 -0.0001
# 4 0.0000 0.0001 0.0002 22.5308 0.0000 0.0000
# 5 0.0000 0.0000 0.0004 0.0000 15.5544 0.0000
# 6 0.0000 0.0000 -0.0001 0.0000 0.0000 12.2566
#
#
#
# Elastic Compliance Matrix: (Units=1/GPa)
#
#
# Indices 1 2 3 4 5 6 
#
# 1 0.013106 -0.003840 -0.001845 0.000000 0.000000 0.000000
# 2 -0.003840 0.009943 -0.000274 0.000000 0.000000 0.000000
# 3 -0.001845 -0.000274 0.009360 0.000000 0.000000 0.000000
# 4 0.000000 0.000000 0.000000 0.044384 0.000000 0.000000
# 5 0.000000 0.000000 0.000000 0.000000 0.064291 0.000000
# 6 0.000000 0.000000 0.000000 0.000000 0.000000 0.081589
#
#
# Mechanical properties :
#
#
# Convention : Reuss Voigt Hill
#
# Bulk Modulus (GPa) = 48.79712 49.09145 48.94429
# Shear Modulus (GPa) = 20.71084 26.77085 23.74084
#
# Velocity S-wave (km/s) = 3.38770 3.85156 3.62705
# Velocity P-wave (km/s) = 6.50706 6.85437 6.68297
#
# Compressibility (1/GPa) = 0.02049301
#
# Stress axis : x y z
#
# Youngs Moduli (GPa) = 76.30250 100.57096 106.83523
#
# Poissons Ratio (x) = 0.38615 0.19711
# Poissons Ratio (y) = 0.29297 0.02922
# Poissons Ratio (z) = 0.14078 0.02751
#
# Static dielectric constant tensor:
#      x y z
#    x 1.616380 0.000000 0.000000 
#    y 0.000000 1.641370 0.000000 
#    z 0.000000 0.000000 1.641410 
# 
# From -- ./inp_files/7610.got.cif
#   From: 2010.05.17/outbox.cif.g08.bks.cpg/sg24_4_cif.got.tgz:7610.got - 2010.06.04 00:33:39.
