data_PCOD9335252
_publ_section_title
;
Structure prediction by ZEFSAII (Michael W. Deem and Ramdas Pophale) SiO2 
 PCOD9335252
Probable space group: I 21 21 21
;
_chemical_formula_sum "Si O2"
_cell_formula_units_Z 40
_cell_length_a 25.146950
_cell_length_b 5.793259
_cell_length_c 11.912363
_cell_angle_alpha 90.000000
_cell_angle_beta 90.000000
_cell_angle_gamma 90.000000
_cell_volume 1735.426330
_symmetry_space_group_name_H-M "I 21 21 21"
_symmetry_group_IT_number 24
_symmetry_cell_setting 'orthorhombic'
loop_
_space_group_symop_operation_xyz
x,y,z
-x,1/2-y,z
x,-y,1/2-z
1/2-x,y,-z
1/2+x,1/2+y,1/2+z
1/2-x,-y,1/2+z
1/2+x,1/2-y,-z
-x,1/2+y,1/2-z
loop_
_atom_site_type_symbol
_atom_site_label
_atom_site_fract_x
_atom_site_fract_y
_atom_site_fract_z
Si Si1 0.581226 0.801112 0.951174
Si Si2 0.472660 0.500000 0.750000
Si Si3 0.951145 0.421011 0.876935
Si Si4 0.176576 0.049797 0.372297
Si Si5 0.250000 0.584384 0.000000
Si Si6 0.845984 0.831423 0.556746
O O1 0.555901 0.990944 0.870562
O O2 0.617334 0.653414 0.866051
O O3 0.549831 0.622973 0.029628
O O4 0.620119 0.939986 0.032600
O O5 0.500000 0.750000 0.752557
O O6 0.961770 0.500000 0.750000
O O7 0.890477 0.317778 0.877388
O O8 0.000000 0.250000 0.905569
O O9 0.212719 0.243512 0.429930
O O10 0.197885 0.000000 0.250000
O O11 0.169069 0.824528 0.448755
O O12 0.212873 0.430323 0.916760
#
# Coordination Sequence:
#
# PCOD9335252 Si02
#       6
#     8   4   8   8   4   8
#     4  10  25  46  68 104 146 193 253 320 386 483
#     4  12  30  42  72 114 152 198 248 314 402 466
#     4  11  28  48  76 107 152 214 276 334 407 483
#     4  10  21  43  72  99 139 192 245 311 394 481
#     4  10  22  44  68 106 142 188 242 320 402 472
#     4  10  23  45  73  99 146 190 252 321 390 469
#
# _framework density 23.049092000000002
#
# number of rings (size 3 to 8) (size 9 to 14) (size 15 to 20)
#    0.000    1.600    0.000    1.800   12.600    2.400 
#    0.000   24.000    0.000    0.000    0.000    0.000 
#    0.000    0.000    0.000    0.000    0.000    0.000 
#
# Total GULP energy -111504.528069 kJ/mol
# GULP energy per Si atom -5575.226403 kJ/mol
# Density = 2.299663 g / cm^3
# Si number density = 23.049092 Si / 1000 Ang^3
#
#
#
# Elastic Constant Matrix: (Units=GPa)
#
#
# Indices 1 2 3 4 5 6 
#
# 1 112.1066 41.3425 27.6359 0.0000 0.0000 0.0000
# 2 41.3425 83.7074 7.9422 0.0000 0.0000 0.0000
# 3 27.6359 7.9422 59.2353 0.0000 0.0000 0.0000
# 4 0.0000 0.0000 0.0000 14.9896 0.0000 0.0000
# 5 0.0000 0.0000 0.0000 0.0000 12.8788 0.0000
# 6 0.0000 0.0000 0.0000 0.0000 0.0000 37.7535
#
#
#
# Elastic Compliance Matrix: (Units=1/GPa)
#
#
# Indices 1 2 3 4 5 6 
#
# 1 0.012184 -0.005549 -0.004941 0.000000 0.000000 0.000000
# 2 -0.005549 0.014627 0.000628 0.000000 0.000000 0.000000
# 3 -0.004941 0.000628 0.019103 0.000000 0.000000 0.000000
# 4 0.000000 0.000000 0.000000 0.066713 0.000000 0.000000
# 5 0.000000 0.000000 0.000000 0.000000 0.077647 0.000000
# 6 0.000000 0.000000 0.000000 0.000000 0.000000 0.026488
#
#
# Mechanical properties :
#
#
# Convention : Reuss Voigt Hill
#
# Bulk Modulus (GPa) = 38.18162 45.43229 41.80695
# Shear Modulus (GPa) = 20.39016 24.99962 22.69489
#
# Velocity S-wave (km/s) = 2.97752 3.29694 3.14129
# Velocity P-wave (km/s) = 5.33124 5.85209 5.59773
#
# Compressibility (1/GPa) = 0.02619061
#
# Stress axis : x y z
#
# Youngs Moduli (GPa) = 82.07247 68.36463 52.34878
#
# Poissons Ratio (x) = 0.37936 0.25863
# Poissons Ratio (y) = 0.45542 -0.03286
# Poissons Ratio (z) = 0.40548 -0.04291
#
# Static dielectric constant tensor:
#      x y z
#    x 1.987130 0.000000 0.000000 
#    y 0.000000 1.897080 0.000000 
#    z 0.000000 0.000000 1.807700 
# 
# From -- ./inp_files/22820.got.cif
#   From: 2010.05.17/outbox.cif.g08.bks.cpg/sg24_12_cif.got.tgz:22820.got - 2010.06.04 00:33:39.
