data_PCOD9335495
_publ_section_title
;
Structure prediction by ZEFSAII (Michael W. Deem and Ramdas Pophale) SiO2 
 PCOD9335495
Probable space group: I 21 21 21
;
_chemical_formula_sum "Si O2"
_cell_formula_units_Z 40
_cell_length_a 12.793672
_cell_length_b 15.920973
_cell_length_c 8.842194
_cell_angle_alpha 90.000000
_cell_angle_beta 90.000000
_cell_angle_gamma 90.000000
_cell_volume 1801.046216
_symmetry_space_group_name_H-M "I 21 21 21"
_symmetry_group_IT_number 24
_symmetry_cell_setting 'orthorhombic'
loop_
_space_group_symop_operation_xyz
x,y,z
-x,1/2-y,z
x,-y,1/2-z
1/2-x,y,-z
1/2+x,1/2+y,1/2+z
1/2-x,-y,1/2+z
1/2+x,1/2-y,-z
-x,1/2+y,1/2-z
loop_
_atom_site_type_symbol
_atom_site_label
_atom_site_fract_x
_atom_site_fract_y
_atom_site_fract_z
Si Si1 0.421787 0.852505 0.540459
Si Si2 0.354271 0.324458 0.084970
Si Si3 0.497607 0.907447 0.830463
Si Si4 0.354665 0.973774 0.072183
Si Si5 0.262652 0.408826 0.675083
O O1 0.372524 0.772265 0.459448
O O2 0.538395 0.865777 0.471047
O O3 0.431598 0.846035 0.721423
O O4 0.360669 0.936006 0.506926
O O5 0.322631 0.345654 0.255262
O O6 0.250000 0.355648 0.000000
O O7 0.617207 0.879868 0.810741
O O8 0.492466 0.000000 0.750000
O O9 0.451200 0.920845 0.998744
O O10 0.355480 0.000000 0.250000
O O11 0.250000 0.933273 0.000000
O O12 0.248837 0.500000 0.750000
O O13 0.250000 0.421012 0.500000
#
# Coordination Sequence:
#
# PCOD9335495 Si02
#       5
#     8   8   8   8   8
#     4  10  22  40  64  93 133 178 238 278 346 430
#     4  11  22  40  65  93 130 186 230 284 357 413
#     4   9  20  39  63  95 129 176 226 289 345 413
#     4  11  23  40  67 100 135 176 229 287 350 417
#     4  11  24  38  67 102 139 177 234 296 355 422
#
# _framework density 22.209316000000001
#
# number of rings (size 3 to 8) (size 9 to 14) (size 15 to 20)
#    0.000    1.600    2.000    3.000    8.400    0.000 
#    0.000    3.000    0.000    0.000    0.000    0.000 
#    0.000    0.000    0.000    0.000    0.000    0.000 
#
# Total GULP energy -111548.773603 kJ/mol
# GULP energy per Si atom -5577.438680 kJ/mol
# Density = 2.215877 g / cm^3
# Si number density = 22.209316 Si / 1000 Ang^3
#
#
#
# Elastic Constant Matrix: (Units=GPa)
#
#
# Indices 1 2 3 4 5 6 
#
# 1 116.6649 16.6300 34.4171 0.0000 0.0000 0.0000
# 2 16.6300 52.1366 17.0977 0.0000 0.0000 0.0000
# 3 34.4171 17.0977 168.7735 0.0000 0.0000 0.0000
# 4 0.0000 0.0000 0.0000 26.5696 0.0000 0.0000
# 5 0.0000 0.0000 0.0000 0.0000 30.8296 0.0000
# 6 0.0000 0.0000 0.0000 0.0000 0.0000 13.2892
#
#
#
# Elastic Compliance Matrix: (Units=1/GPa)
#
#
# Indices 1 2 3 4 5 6 
#
# 1 0.009414 -0.002455 -0.001671 0.000000 0.000000 0.000000
# 2 -0.002455 0.020480 -0.001574 0.000000 0.000000 0.000000
# 3 -0.001671 -0.001574 0.006425 0.000000 0.000000 0.000000
# 4 0.000000 0.000000 0.000000 0.037637 0.000000 0.000000
# 5 0.000000 0.000000 0.000000 0.000000 0.032436 0.000000
# 6 0.000000 0.000000 0.000000 0.000000 0.000000 0.075249
#
#
# Mechanical properties :
#
#
# Convention : Reuss Voigt Hill
#
# Bulk Modulus (GPa) = 40.12971 52.65163 46.39067
# Shear Modulus (GPa) = 24.83255 32.09970 28.46613
#
# Velocity S-wave (km/s) = 3.34745 3.80587 3.58400
# Velocity P-wave (km/s) = 5.74880 6.56287 6.16928
#
# Compressibility (1/GPa) = 0.02491919
#
# Stress axis : x y z
#
# Youngs Moduli (GPa) = 106.21921 48.82904 155.63340
#
# Poissons Ratio (x) = 0.11987 0.26009
# Poissons Ratio (y) = 0.26076 0.24498
# Poissons Ratio (z) = 0.17751 0.07686
#
# Static dielectric constant tensor:
#      x y z
#    x 1.967040 0.000000 0.000000 
#    y 0.000000 1.796570 0.000000 
#    z 0.000000 0.000000 1.943130 
# 
# From -- ./inp_files/10689.got.cif
#   From: 2010.05.17/outbox.cif.g08.bks.cpg/sg24_6_cif.got.tgz:10689.got - 2010.06.04 00:33:39.
