data_PCOD9335591
_publ_section_title
;
Structure prediction by ZEFSAII (Michael W. Deem and Ramdas Pophale) SiO2 
 PCOD9335591
Probable space group: I 21 21 21
;
_chemical_formula_sum "Si O2"
_cell_formula_units_Z 60
_cell_length_a 10.273974
_cell_length_b 10.975510
_cell_length_c 25.252154
_cell_angle_alpha 90.000000
_cell_angle_beta 90.000000
_cell_angle_gamma 90.000000
_cell_volume 2847.486025
_symmetry_space_group_name_H-M "I 21 21 21"
_symmetry_group_IT_number 24
_symmetry_cell_setting 'orthorhombic'
loop_
_space_group_symop_operation_xyz
x,y,z
-x,1/2-y,z
x,-y,1/2-z
1/2-x,y,-z
1/2+x,1/2+y,1/2+z
1/2-x,-y,1/2+z
1/2+x,1/2-y,-z
-x,1/2+y,1/2-z
loop_
_atom_site_type_symbol
_atom_site_label
_atom_site_fract_x
_atom_site_fract_y
_atom_site_fract_z
Si Si1 0.848971 0.213437 0.952364
Si Si2 0.594289 0.500000 0.750000
Si Si3 0.432213 0.081079 0.350141
Si Si4 0.199801 0.452367 0.597027
Si Si5 0.861573 0.694832 0.654381
Si Si6 0.358920 0.791804 0.038949
Si Si7 0.422698 0.375521 0.665616
Si Si8 0.274612 0.771584 0.236260
O O1 0.789753 0.283254 0.900746
O O2 0.000000 0.250000 0.965545
O O3 0.841562 0.071747 0.934819
O O4 0.750000 0.234380 0.000000
O O5 0.511955 0.468284 0.698024
O O6 0.681181 0.381026 0.754996
O O7 0.587195 0.068893 0.358441
O O8 0.384509 0.127683 0.408110
O O9 0.378970 0.170963 0.304640
O O10 0.376624 0.948500 0.336334
O O11 0.198173 0.334427 0.560274
O O12 0.342909 0.449095 0.621855
O O13 0.828450 0.769324 0.707301
O O14 0.000000 0.750000 0.639308
O O15 0.500000 0.750000 0.015992
O O16 0.250000 0.846256 0.000000
O O17 0.500000 0.250000 0.648800
O O18 0.314603 0.323988 0.706237
#
# Coordination Sequence:
#
# PCOD9335591 Si02
#       8
#     8   4   8   8   8   8   8   8
#     4  11  25  50  69  99 138 185 243 305 348 419
#     4  10  22  42  58  88 146 176 214 268 320 418
#     4  11  21  42  68  97 137 173 219 295 349 406
#     4  11  22  44  70  97 138 169 232 289 349 420
#     4  11  23  40  66  96 133 170 234 281 333 424
#     4  10  23  41  65  98 128 169 221 281 346 410
#     4  10  24  40  63  97 141 181 221 273 347 424
#     4  11  22  42  65 100 137 173 221 284 348 412
#
# _framework density 21.071217999999998
#
# number of rings (size 3 to 8) (size 9 to 14) (size 15 to 20)
#    0.000    1.333    5.333    0.400    3.733    1.067 
#    2.400    0.000    0.000    0.000    0.000    0.000 
#    0.000    0.000    0.000    0.000    0.000    0.000 
#
# Total GULP energy -167303.838277 kJ/mol
# GULP energy per Si atom -5576.794609 kJ/mol
# Density = 2.102326 g / cm^3
# Si number density = 21.071218 Si / 1000 Ang^3
#
#
#
# Elastic Constant Matrix: (Units=GPa)
#
#
# Indices 1 2 3 4 5 6 
#
# 1 93.9630 3.7768 51.1677 0.0000 0.0000 0.0000
# 2 3.7768 57.8856 1.1370 0.0000 0.0000 0.0000
# 3 51.1677 1.1370 84.5323 0.0000 0.0000 0.0000
# 4 0.0000 0.0000 0.0000 22.6856 0.0000 0.0000
# 5 0.0000 0.0000 0.0000 0.0000 43.4421 0.0000
# 6 0.0000 0.0000 0.0000 0.0000 0.0000 4.4253
#
#
#
# Elastic Compliance Matrix: (Units=1/GPa)
#
#
# Indices 1 2 3 4 5 6 
#
# 1 0.015917 -0.000849 -0.009623 0.000000 0.000000 0.000000
# 2 -0.000849 0.017325 0.000281 0.000000 0.000000 0.000000
# 3 -0.009623 0.000281 0.017651 0.000000 0.000000 0.000000
# 4 0.000000 0.000000 0.000000 0.044081 0.000000 0.000000
# 5 0.000000 0.000000 0.000000 0.000000 0.023019 0.000000
# 6 0.000000 0.000000 0.000000 0.000000 0.000000 0.225975
#
#
# Mechanical properties :
#
#
# Convention : Reuss Voigt Hill
#
# Bulk Modulus (GPa) = 32.77583 38.72709 35.75146
# Shear Modulus (GPa) = 13.35037 26.13057 19.74047
#
# Velocity S-wave (km/s) = 2.51984 3.52534 3.06411
# Velocity P-wave (km/s) = 4.90456 5.91521 5.43343
#
# Compressibility (1/GPa) = 0.03051029
#
# Stress axis : x y z
#
# Youngs Moduli (GPa) = 62.82622 57.71888 56.65419
#
# Poissons Ratio (x) = 0.04903 0.54519
# Poissons Ratio (y) = 0.05337 -0.01593
# Poissons Ratio (z) = 0.60459 -0.01623
#
# Static dielectric constant tensor:
#      x y z
#    x 1.814410 0.000000 0.000000 
#    y 0.000000 1.761490 0.000000 
#    z 0.000000 0.000000 1.957950 
# 
# From -- ./inp_files/36928.got.cif
#   From: 2010.05.17/outbox.cif.g08.bks.cpg/sg24_19_cif.got.tgz:36928.got - 2010.06.04 00:33:39.
