data_PCOD9335990
_publ_section_title
;
Structure prediction by ZEFSAII (Michael W. Deem and Ramdas Pophale) SiO2 
 PCOD9335990
Probable space group: I 21 21 21
;
_chemical_formula_sum "Si O2"
_cell_formula_units_Z 40
_cell_length_a 14.552540
_cell_length_b 16.685430
_cell_length_c 7.344178
_cell_angle_alpha 90.000000
_cell_angle_beta 90.000000
_cell_angle_gamma 90.000000
_cell_volume 1783.279427
_symmetry_space_group_name_H-M "I 21 21 21"
_symmetry_group_IT_number 24
_symmetry_cell_setting 'orthorhombic'
loop_
_space_group_symop_operation_xyz
x,y,z
-x,1/2-y,z
x,-y,1/2-z
1/2-x,y,-z
1/2+x,1/2+y,1/2+z
1/2-x,-y,1/2+z
1/2+x,1/2-y,-z
-x,1/2+y,1/2-z
loop_
_atom_site_type_symbol
_atom_site_label
_atom_site_fract_x
_atom_site_fract_y
_atom_site_fract_z
Si Si1 0.893870 0.763084 0.751268
Si Si2 0.510491 0.511941 0.967038
Si Si3 0.348833 0.124628 0.988697
Si Si4 0.323320 0.426598 0.354767
Si Si5 0.352883 0.844407 0.934847
O O1 0.842780 0.698637 0.626246
O O2 0.857261 0.852680 0.732371
O O3 0.000000 0.750000 0.704990
O O4 0.879968 0.736843 0.961505
O O5 0.500036 0.500000 0.750000
O O6 0.566626 0.434027 0.034705
O O7 0.577263 0.587242 0.999847
O O8 0.413479 0.533415 0.054669
O O9 0.360515 0.155978 0.782670
O O10 0.250000 0.080437 0.000000
O O11 0.276387 0.500000 0.250000
O O12 0.250000 0.395496 0.500000
O O13 0.250000 0.863979 0.000000
#
# Coordination Sequence:
#
# PCOD9335990 Si02
#       5
#     8   8   8   8   8
#     4  12  25  46  71 103 142 189 234 294 356 418
#     4  10  23  44  71 106 142 182 232 290 355 425
#     4  11  24  42  72 113 142 182 232 290 359 426
#     4  12  27  48  71  96 138 192 243 292 348 421
#     4  11  22  42  70 105 146 182 224 287 357 424
#
# _framework density 22.430582999999999
#
# number of rings (size 3 to 8) (size 9 to 14) (size 15 to 20)
#    0.000    0.800    4.000    3.000    0.000    1.600 
#    3.600    0.000    0.000    0.000    0.000    0.000 
#    0.000    0.000    0.000    0.000    0.000    0.000 
#
# Total GULP energy -111896.171387 kJ/mol
# GULP energy per Si atom -5594.808569 kJ/mol
# Density = 2.237953 g / cm^3
# Si number density = 22.430583 Si / 1000 Ang^3
#
#
#
# Elastic Constant Matrix: (Units=GPa)
#
#
# Indices 1 2 3 4 5 6 
#
# 1 103.0278 10.5247 -0.0996 0.0000 0.0000 0.0000
# 2 10.5247 115.3870 17.6793 0.0000 0.0000 0.0000
# 3 -0.0996 17.6793 51.6186 0.0000 0.0000 0.0000
# 4 0.0000 0.0000 0.0000 29.2860 0.0000 0.0000
# 5 0.0000 0.0000 0.0000 0.0000 27.2935 0.0000
# 6 0.0000 0.0000 0.0000 0.0000 0.0000 29.7802
#
#
#
# Elastic Compliance Matrix: (Units=1/GPa)
#
#
# Indices 1 2 3 4 5 6 
#
# 1 0.009803 -0.000947 0.000343 0.000000 0.000000 0.000000
# 2 -0.000947 0.009238 -0.003166 0.000000 0.000000 0.000000
# 3 0.000343 -0.003166 0.020458 0.000000 0.000000 0.000000
# 4 0.000000 0.000000 0.000000 0.034146 0.000000 0.000000
# 5 0.000000 0.000000 0.000000 0.000000 0.036639 0.000000
# 6 0.000000 0.000000 0.000000 0.000000 0.000000 0.033579
#
#
# Mechanical properties :
#
#
# Convention : Reuss Voigt Hill
#
# Bulk Modulus (GPa) = 31.28900 36.24914 33.76907
# Shear Modulus (GPa) = 30.85368 33.40052 32.12710
#
# Velocity S-wave (km/s) = 3.71282 3.86302 3.78867
# Velocity P-wave (km/s) = 5.68855 6.00774 5.85032
#
# Compressibility (1/GPa) = 0.03196012
#
# Stress axis : x y z
#
# Youngs Moduli (GPa) = 102.00788 108.24970 48.88108
#
# Poissons Ratio (x) = 0.10248 -0.01677
# Poissons Ratio (y) = 0.09658 0.15475
# Poissons Ratio (z) = -0.03501 0.34270
#
# Static dielectric constant tensor:
#      x y z
#    x 1.828900 0.000000 0.000000 
#    y 0.000000 1.822870 0.000000 
#    z 0.000000 0.000000 1.858440 
# 
# From -- ./inp_files/12299.got.cif
#   From: 2010.05.17/outbox.cif.g08.bks.cpg/sg24_7_cif.got.tgz:12299.got - 2010.06.04 00:33:39.
