data_PCOD9335326
_publ_section_title
;
Structure prediction by ZEFSAII (Michael W. Deem and Ramdas Pophale) SiO2 
 PCOD9335326
Probable space group: I 21 21 21
;
_chemical_formula_sum "Si O2"
_cell_formula_units_Z 64
_cell_length_a 13.183250
_cell_length_b 16.721200
_cell_length_c 14.895814
_cell_angle_alpha 90.000000
_cell_angle_beta 90.000000
_cell_angle_gamma 90.000000
_cell_volume 3283.629662
_symmetry_space_group_name_H-M "I 21 21 21"
_symmetry_group_IT_number 24
_symmetry_cell_setting 'orthorhombic'
loop_
_space_group_symop_operation_xyz
x,y,z
-x,1/2-y,z
x,-y,1/2-z
1/2-x,y,-z
1/2+x,1/2+y,1/2+z
1/2-x,-y,1/2+z
1/2+x,1/2-y,-z
-x,1/2+y,1/2-z
loop_
_atom_site_type_symbol
_atom_site_label
_atom_site_fract_x
_atom_site_fract_y
_atom_site_fract_z
Si Si1 0.024738 0.412867 0.703564
Si Si2 0.055667 0.666220 0.165337
Si Si3 0.326674 0.406678 0.934127
Si Si4 0.767324 0.164400 0.766419
Si Si5 0.978045 0.658052 0.347035
Si Si6 0.598015 0.305139 0.163031
Si Si7 0.362956 0.916681 0.509838
Si Si8 0.461027 0.544971 0.996990
O O1 0.021365 0.500000 0.750000
O O2 0.132765 0.371481 0.722013
O O3 0.021918 0.423162 0.596893
O O4 0.938359 0.358649 0.751466
O O5 0.171016 0.678483 0.201488
O O6 0.050214 0.612672 0.077448
O O7 0.000000 0.750000 0.146706
O O8 0.997464 0.621894 0.248685
O O9 0.270749 0.401860 0.838783
O O10 0.432109 0.364120 0.915123
O O11 0.362056 0.488158 0.982413
O O12 0.250000 0.362519 0.000000
O O13 0.808113 0.246265 0.813060
O O14 0.877384 0.635768 0.399594
O O15 0.000000 0.750000 0.330254
O O16 0.500000 0.250000 0.141798
O O17 0.614980 0.362244 0.077521
O O18 0.250000 0.947645 0.500000
O O19 0.441954 0.988597 0.519818
#
# Coordination Sequence:
#
# PCOD9335326 Si02
#       8
#     8   8   8   8   8   8   8   8
#     4  11  22  43  67  94 137 170 222 280 333 400
#     4  10  24  45  64  93 133 176 227 277 329 406
#     4  10  22  35  60  96 128 164 204 266 335 389
#     4  10  24  39  67 100 130 176 220 272 348 401
#     4   9  21  37  58  91 131 165 211 267 330 386
#     4  10  23  42  64  98 136 170 221 277 340 402
#     4  11  24  39  64  96 127 176 221 270 341 408
#     4  11  25  45  64  95 133 174 224 278 338 394
#
# _framework density 19.490625000000001
#
# number of rings (size 3 to 8) (size 9 to 14) (size 15 to 20)
#    0.000    1.750    1.250    1.125   15.750    5.500 
#    2.250    1.250    0.000    0.000    0.000    0.000 
#    0.000    0.000    0.000    0.000    0.000    0.000 
#
# Total GULP energy -178399.397409 kJ/mol
# GULP energy per Si atom -5574.981169 kJ/mol
# Density = 1.944626 g / cm^3
# Si number density = 19.490625 Si / 1000 Ang^3
#
#
#
# Elastic Constant Matrix: (Units=GPa)
#
#
# Indices 1 2 3 4 5 6 
#
# 1 90.7225 26.0040 32.8790 0.0000 0.0000 0.0000
# 2 26.0040 53.9778 31.7451 0.0000 0.0000 0.0000
# 3 32.8790 31.7451 109.8791 0.0000 0.0000 0.0000
# 4 0.0000 0.0000 0.0000 28.4563 0.0000 0.0000
# 5 0.0000 0.0000 0.0000 0.0000 10.0259 0.0000
# 6 0.0000 0.0000 0.0000 0.0000 0.0000 20.1697
#
#
#
# Elastic Compliance Matrix: (Units=1/GPa)
#
#
# Indices 1 2 3 4 5 6 
#
# 1 0.013368 -0.004924 -0.002577 0.000000 0.000000 0.000000
# 2 -0.004924 0.024132 -0.005499 0.000000 0.000000 0.000000
# 3 -0.002577 -0.005499 0.011461 0.000000 0.000000 0.000000
# 4 0.000000 0.000000 0.000000 0.035142 0.000000 0.000000
# 5 0.000000 0.000000 0.000000 0.000000 0.099742 0.000000
# 6 0.000000 0.000000 0.000000 0.000000 0.000000 0.049579
#
#
# Mechanical properties :
#
#
# Convention : Reuss Voigt Hill
#
# Bulk Modulus (GPa) = 43.55303 48.42617 45.98960
# Shear Modulus (GPa) = 18.72111 22.66048 20.69079
#
# Velocity S-wave (km/s) = 3.10259 3.41344 3.26172
# Velocity P-wave (km/s) = 5.93539 6.35887 6.15078
#
# Compressibility (1/GPa) = 0.02296051
#
# Stress axis : x y z
#
# Youngs Moduli (GPa) = 74.80437 41.43841 87.25448
#
# Poissons Ratio (x) = 0.20406 0.22490
# Poissons Ratio (y) = 0.36836 0.47977
# Poissons Ratio (z) = 0.19281 0.22785
#
# Static dielectric constant tensor:
#      x y z
#    x 1.685840 0.000000 0.000000 
#    y 0.000000 1.716220 0.000000 
#    z 0.000000 0.000000 1.740430 
# 
# From -- ./inp_files/26004.got.cif
#   From: 2010.05.17/outbox.cif.g08.bks.cpg/sg24_14_cif.got.tgz:26004.got - 2010.06.04 00:33:39.
