data_PCOD9335205
_publ_section_title
;
Structure prediction by ZEFSAII (Michael W. Deem and Ramdas Pophale) SiO2 
 PCOD9335205
Probable space group: I 21 21 21
;
_chemical_formula_sum "Si O2"
_cell_formula_units_Z 56
_cell_length_a 18.810369
_cell_length_b 15.096611
_cell_length_c 8.271432
_cell_angle_alpha 90.000000
_cell_angle_beta 90.000000
_cell_angle_gamma 90.000000
_cell_volume 2348.861900
_symmetry_space_group_name_H-M "I 21 21 21"
_symmetry_group_IT_number 24
_symmetry_cell_setting 'orthorhombic'
loop_
_space_group_symop_operation_xyz
x,y,z
-x,1/2-y,z
x,-y,1/2-z
1/2-x,y,-z
1/2+x,1/2+y,1/2+z
1/2-x,-y,1/2+z
1/2+x,1/2-y,-z
-x,1/2+y,1/2-z
loop_
_atom_site_type_symbol
_atom_site_label
_atom_site_fract_x
_atom_site_fract_y
_atom_site_fract_z
Si Si1 0.394369 0.360505 0.838538
Si Si2 0.966631 0.020324 0.918281
Si Si3 0.388491 0.093060 0.166637
Si Si4 0.851590 0.330128 0.158627
Si Si5 0.022208 0.845531 0.089159
Si Si6 0.710098 0.724867 0.172633
Si Si7 0.742740 0.902783 0.305107
O O1 0.380202 0.263684 0.912077
O O2 0.463487 0.353113 0.730118
O O3 0.322995 0.382237 0.741216
O O4 0.410872 0.438961 0.960182
O O5 0.027772 0.091684 0.875073
O O6 0.930677 0.000000 0.750000
O O7 0.007285 0.933365 0.985042
O O8 0.359536 0.166980 0.290570
O O9 0.371200 0.000000 0.250000
O O10 0.355693 0.101774 0.987577
O O11 0.902211 0.347315 0.315272
O O12 0.771014 0.315180 0.210849
O O13 0.000000 0.750000 0.012659
O O14 0.696195 0.825256 0.228180
O O15 0.750000 0.722627 0.000000
O O16 0.750000 0.894758 0.500000
O O17 0.724463 0.000000 0.250000
#
# Coordination Sequence:
#
# PCOD9335205 Si02
#       7
#     8   8   8   8   8   8   8
#     4  10  21  43  71  99 134 181 225 281 349 425
#     4  11  24  41  65 103 140 175 229 285 344 412
#     4  11  25  44  64 100 138 181 234 285 338 407
#     4  10  22  43  72  95 135 184 232 284 347 409
#     4  10  21  42  68  98 132 181 225 279 346 415
#     4  11  25  44  67 100 141 189 240 290 347 413
#     4  11  23  43  73 104 142 182 233 292 358 425
#
# _framework density 23.841332999999999
#
# number of rings (size 3 to 8) (size 9 to 14) (size 15 to 20)
#    0.000    1.429    1.429    3.857    4.000    1.714 
#    5.143    5.714    0.000    0.000    0.000    0.000 
#    0.000    0.000    0.000    0.000    0.000    0.000 
#
# Total GULP energy -156580.295378 kJ/mol
# GULP energy per Si atom -5592.153406 kJ/mol
# Density = 2.378707 g / cm^3
# Si number density = 23.841333 Si / 1000 Ang^3
#
#
#
# Elastic Constant Matrix: (Units=GPa)
#
#
# Indices 1 2 3 4 5 6 
#
# 1 73.4295 29.2665 -12.4158 0.0000 0.0000 0.0000
# 2 29.2665 120.0411 29.4129 0.0000 0.0000 0.0000
# 3 -12.4158 29.4129 66.8347 0.0000 0.0000 0.0000
# 4 0.0000 0.0000 0.0000 32.6274 0.0000 0.0000
# 5 0.0000 0.0000 0.0000 0.0000 20.3231 0.0000
# 6 0.0000 0.0000 0.0000 0.0000 0.0000 21.7662
#
#
#
# Elastic Compliance Matrix: (Units=1/GPa)
#
#
# Indices 1 2 3 4 5 6 
#
# 1 0.016706 -0.005417 0.005488 0.000000 0.000000 0.000000
# 2 -0.005417 0.011094 -0.005889 0.000000 0.000000 0.000000
# 3 0.005488 -0.005889 0.018573 0.000000 0.000000 0.000000
# 4 0.000000 0.000000 0.000000 0.030649 0.000000 0.000000
# 5 0.000000 0.000000 0.000000 0.000000 0.049205 0.000000
# 6 0.000000 0.000000 0.000000 0.000000 0.000000 0.045943
#
#
# Mechanical properties :
#
#
# Convention : Reuss Voigt Hill
#
# Bulk Modulus (GPa) = 28.78894 39.20362 33.99628
# Shear Modulus (GPa) = 25.59038 29.21278 27.40158
#
# Velocity S-wave (km/s) = 3.27977 3.50423 3.39386
# Velocity P-wave (km/s) = 5.14237 5.73167 5.44500
#
# Compressibility (1/GPa) = 0.03473556
#
# Stress axis : x y z
#
# Youngs Moduli (GPa) = 59.86027 90.13743 53.84087
#
# Poissons Ratio (x) = 0.48832 -0.29545
# Poissons Ratio (y) = 0.32429 0.31706
# Poissons Ratio (z) = -0.32848 0.53080
#
# Static dielectric constant tensor:
#      x y z
#    x 1.894330 0.000000 0.000000 
#    y 0.000000 1.940910 0.000000 
#    z 0.000000 0.000000 1.937190 
# 
# From -- ./inp_files/15228.got.cif
#   From: 2010.05.17/outbox.cif.g08.bks.cpg/sg24_8_cif.got.tgz:15228.got - 2010.06.04 00:33:39.
