data_PCOD9335161
_publ_section_title
;
Structure prediction by ZEFSAII (Michael W. Deem and Ramdas Pophale) SiO2 
 PCOD9335161
Probable space group: I 21 21 21
;
_chemical_formula_sum "Si O2"
_cell_formula_units_Z 28
_cell_length_a 11.999693
_cell_length_b 7.133599
_cell_length_c 13.501877
_cell_angle_alpha 90.000000
_cell_angle_beta 90.000000
_cell_angle_gamma 90.000000
_cell_volume 1155.774146
_symmetry_space_group_name_H-M "I 21 21 21"
_symmetry_group_IT_number 24
_symmetry_cell_setting 'orthorhombic'
loop_
_space_group_symop_operation_xyz
x,y,z
-x,1/2-y,z
x,-y,1/2-z
1/2-x,y,-z
1/2+x,1/2+y,1/2+z
1/2-x,-y,1/2+z
1/2+x,1/2-y,-z
-x,1/2+y,1/2-z
loop_
_atom_site_type_symbol
_atom_site_label
_atom_site_fract_x
_atom_site_fract_y
_atom_site_fract_z
Si Si1 0.750000 0.429730 0.500000
Si Si2 0.874354 0.098773 0.970410
Si Si3 0.413584 0.999710 0.365871
Si Si4 0.963207 0.465137 0.366870
O O1 0.660418 0.347801 0.422800
O O2 0.842581 0.498809 0.417045
O O3 0.869671 0.304887 0.917427
O O4 0.957286 0.994017 0.894364
O O5 0.750000 0.042244 0.000000
O O6 0.943695 0.081436 0.072805
O O7 0.397999 0.000000 0.250000
O O8 0.960744 0.500000 0.250000
O O9 0.000000 0.250000 0.382084
#
# Coordination Sequence:
#
# PCOD9335161 Si02
#       4
#     4   8   8   8
#     4  10  22  44  70 100 154 182 242 294 374 428
#     4  10  23  44  71 104 151 185 245 303 353 439
#     4  10  21  41  71 107 138 194 237 295 369 430
#     4  11  27  45  76 107 147 197 249 299 370 429
#
# _framework density 24.226188
#
# number of rings (size 3 to 8) (size 9 to 14) (size 15 to 20)
#    0.000    1.714    1.429    0.857   10.000    3.429 
#   20.571    5.714    0.000    0.000    0.000    0.000 
#    0.000    0.000    0.000    0.000    0.000    0.000 
#
# Total GULP energy -77948.228394 kJ/mol
# GULP energy per Si atom -5567.730600 kJ/mol
# Density = 2.417105 g / cm^3
# Si number density = 24.226188 Si / 1000 Ang^3
#
#
#
# Elastic Constant Matrix: (Units=GPa)
#
#
# Indices 1 2 3 4 5 6 
#
# 1 211.2493 71.1277 80.7899 0.0000 0.0000 0.0000
# 2 71.1277 92.1486 45.8077 0.0000 0.0000 0.0000
# 3 80.7899 45.8077 282.4221 0.0000 0.0000 0.0000
# 4 0.0000 0.0000 0.0000 18.3518 0.0000 0.0000
# 5 0.0000 0.0000 0.0000 0.0000 9.7131 0.0000
# 6 0.0000 0.0000 0.0000 0.0000 0.0000 24.5477
#
#
#
# Elastic Compliance Matrix: (Units=1/GPa)
#
#
# Indices 1 2 3 4 5 6 
#
# 1 0.006739 -0.004615 -0.001179 0.000000 0.000000 0.000000
# 2 -0.004615 0.014965 -0.001107 0.000000 0.000000 0.000000
# 3 -0.001179 -0.001107 0.004058 0.000000 0.000000 0.000000
# 4 0.000000 0.000000 0.000000 0.054491 0.000000 0.000000
# 5 0.000000 0.000000 0.000000 0.000000 0.102954 0.000000
# 6 0.000000 0.000000 0.000000 0.000000 0.000000 0.040737
#
#
# Mechanical properties :
#
#
# Convention : Reuss Voigt Hill
#
# Bulk Modulus (GPa) = 83.62351 109.03006 96.32678
# Shear Modulus (GPa) = 20.68410 36.39548 28.53979
#
# Velocity S-wave (km/s) = 2.92514 3.88018 3.43600
# Velocity P-wave (km/s) = 6.78243 8.07324 7.45582
#
# Compressibility (1/GPa) = 0.01195836
#
# Stress axis : x y z
#
# Youngs Moduli (GPa) = 148.39784 66.82360 246.44905
#
# Poissons Ratio (x) = 0.30841 0.29058
# Poissons Ratio (y) = 0.68490 0.27281
# Poissons Ratio (z) = 0.17497 0.07397
#
# Static dielectric constant tensor:
#      x y z
#    x 1.942480 0.000000 0.000000 
#    y 0.000000 2.404960 0.000000 
#    z 0.000000 0.000000 1.856860 
# 
# From -- ./inp_files/25391.got.cif
#   From: 2010.05.17/outbox.cif.g08.bks.cpg/sg24_13_cif.got.tgz:25391.got - 2010.06.04 00:33:39.
