data_PCOD9335987
_publ_section_title
;
Structure prediction by ZEFSAII (Michael W. Deem and Ramdas Pophale) SiO2 
 PCOD9335987
Probable space group: I 21 21 21
;
_chemical_formula_sum "Si O2"
_cell_formula_units_Z 60
_cell_length_a 18.048014
_cell_length_b 7.603474
_cell_length_c 17.505145
_cell_angle_alpha 90.000000
_cell_angle_beta 90.000000
_cell_angle_gamma 90.000000
_cell_volume 2402.189127
_symmetry_space_group_name_H-M "I 21 21 21"
_symmetry_group_IT_number 24
_symmetry_cell_setting 'orthorhombic'
loop_
_space_group_symop_operation_xyz
x,y,z
-x,1/2-y,z
x,-y,1/2-z
1/2-x,y,-z
1/2+x,1/2+y,1/2+z
1/2-x,-y,1/2+z
1/2+x,1/2-y,-z
-x,1/2+y,1/2-z
loop_
_atom_site_type_symbol
_atom_site_label
_atom_site_fract_x
_atom_site_fract_y
_atom_site_fract_z
Si Si1 0.653040 0.693561 0.771423
Si Si2 0.664197 0.911495 0.319016
Si Si3 0.500000 0.750000 0.838201
Si Si4 0.953028 0.078589 0.060477
Si Si5 0.242336 0.141831 0.413380
Si Si6 0.515634 0.957738 0.387866
Si Si7 0.303883 0.263514 0.893598
Si Si8 0.881214 0.354954 0.693912
O O1 0.682957 0.500000 0.750000
O O2 0.567320 0.682251 0.788539
O O3 0.692498 0.744991 0.851046
O O4 0.664027 0.790522 0.691930
O O5 0.599165 0.007255 0.364654
O O6 0.720145 0.833499 0.381045
O O7 0.616132 0.792959 0.259507
O O8 0.710514 0.000000 0.250000
O O9 0.467826 0.587548 0.886452
O O10 0.866712 0.141006 0.055737
O O11 0.000000 0.250000 0.086224
O O12 0.986868 0.023338 0.978622
O O13 0.250000 0.207150 0.500000
O O14 0.322948 0.152881 0.374894
O O15 0.207561 0.942679 0.416096
O O16 0.500000 0.750000 0.374874
O O17 0.457457 0.072685 0.340588
O O18 0.846453 0.500000 0.750000
#
# Coordination Sequence:
#
# PCOD9335987 Si02
#       8
#     8   8   4   8   8   8   8   8
#     4  10  23  44  70 109 139 192 251 302 373 459
#     4  12  27  44  71 108 141 200 248 309 379 451
#     4  12  28  46  76 102 156 198 238 312 386 444
#     4  11  28  48  72 114 151 197 253 313 389 464
#     4  11  23  41  77 109 145 195 247 314 392 461
#     4  11  25  44  75 105 146 190 251 313 378 457
#     4  11  24  44  72 104 148 191 252 312 367 463
#     4  12  22  45  73 105 145 191 250 305 378 473
#
# _framework density 24.977218000000001
#
# number of rings (size 3 to 8) (size 9 to 14) (size 15 to 20)
#    0.000    0.800    4.000    2.400   12.133    1.067 
#    0.000    0.000    0.000    0.000    0.000    0.000 
#    0.000    0.000    0.000    0.000    0.000    0.000 
#
# Total GULP energy -167512.034761 kJ/mol
# GULP energy per Si atom -5583.734492 kJ/mol
# Density = 2.492037 g / cm^3
# Si number density = 24.977218 Si / 1000 Ang^3
#
#
#
# Elastic Constant Matrix: (Units=GPa)
#
#
# Indices 1 2 3 4 5 6 
#
# 1 148.3899 33.7142 45.0674 0.0000 0.0000 0.0000
# 2 33.7142 64.3992 19.5540 0.0000 0.0000 0.0000
# 3 45.0674 19.5540 126.7769 0.0000 0.0000 0.0000
# 4 0.0000 0.0000 0.0000 15.4942 0.0000 0.0000
# 5 0.0000 0.0000 0.0000 0.0000 117.5044 0.0000
# 6 0.0000 0.0000 0.0000 0.0000 0.0000 28.8186
#
#
#
# Elastic Compliance Matrix: (Units=1/GPa)
#
#
# Indices 1 2 3 4 5 6 
#
# 1 0.008285 -0.003612 -0.002388 0.000000 0.000000 0.000000
# 2 -0.003612 0.017866 -0.001472 0.000000 0.000000 0.000000
# 3 -0.002388 -0.001472 0.008964 0.000000 0.000000 0.000000
# 4 0.000000 0.000000 0.000000 0.064540 0.000000 0.000000
# 5 0.000000 0.000000 0.000000 0.000000 0.008510 0.000000
# 6 0.000000 0.000000 0.000000 0.000000 0.000000 0.034700
#
#
# Mechanical properties :
#
#
# Convention : Reuss Voigt Hill
#
# Bulk Modulus (GPa) = 49.57582 59.58188 54.57885
# Shear Modulus (GPa) = 30.38911 48.44546 39.41729
#
# Velocity S-wave (km/s) = 3.49187 4.40885 3.97688
# Velocity P-wave (km/s) = 6.01241 7.05858 6.55639
#
# Compressibility (1/GPa) = 0.02017112
#
# Stress axis : x y z
#
# Youngs Moduli (GPa) = 120.70037 55.97208 111.56034
#
# Poissons Ratio (x) = 0.20219 0.26641
# Poissons Ratio (y) = 0.43600 0.16417
# Poissons Ratio (z) = 0.28824 0.08237
#
# Static dielectric constant tensor:
#      x y z
#    x 1.957210 0.000000 0.000000 
#    y 0.000000 0.202760 0.000000 
#    z 0.000000 0.000000 2.091210 
# 
# From -- ./inp_files/31215.got.cif
#   From: 2010.05.17/outbox.cif.g08.bks.cpg/sg24_16_cif.got.tgz:31215.got - 2010.06.04 00:33:39.
