data_PCOD9335929
_publ_section_title
;
Structure prediction by ZEFSAII (Michael W. Deem and Ramdas Pophale) SiO2 
 PCOD9335929
Probable space group: I 21 21 21
;
_chemical_formula_sum "Si O2"
_cell_formula_units_Z 44
_cell_length_a 15.923152
_cell_length_b 8.135258
_cell_length_c 17.432069
_cell_angle_alpha 90.000000
_cell_angle_beta 90.000000
_cell_angle_gamma 90.000000
_cell_volume 2258.131909
_symmetry_space_group_name_H-M "I 21 21 21"
_symmetry_group_IT_number 24
_symmetry_cell_setting 'orthorhombic'
loop_
_space_group_symop_operation_xyz
x,y,z
-x,1/2-y,z
x,-y,1/2-z
1/2-x,y,-z
1/2+x,1/2+y,1/2+z
1/2-x,-y,1/2+z
1/2+x,1/2-y,-z
-x,1/2+y,1/2-z
loop_
_atom_site_type_symbol
_atom_site_label
_atom_site_fract_x
_atom_site_fract_y
_atom_site_fract_z
Si Si1 0.251057 0.740337 0.806262
Si Si2 0.000000 0.250000 0.474153
Si Si3 0.607936 0.000000 0.750000
Si Si4 0.669220 0.872056 0.047857
Si Si5 0.477264 0.916740 0.622507
Si Si6 0.250000 0.311640 0.000000
Si Si7 0.714968 0.395153 0.850113
O O1 0.333310 0.626434 0.796912
O O2 0.187963 0.642338 0.861484
O O3 0.238315 0.796552 0.718132
O O4 0.259454 0.915179 0.848320
O O5 0.916619 0.212240 0.523204
O O6 0.983075 0.412988 0.423574
O O7 0.547179 0.919959 0.688302
O O8 0.750000 0.801085 0.000000
O O9 0.674655 0.062132 0.020756
O O10 0.500000 0.750000 0.576281
O O11 0.385391 0.902953 0.659851
O O12 0.269240 0.199016 0.928198
#
# Coordination Sequence:
#
# PCOD9335929 Si02
#       7
#     8   4   4   8   8   4   8
#     4  11  23  39  64  94 132 188 224 283 351 430
#     4  12  26  44  68 106 142 180 246 288 358 436
#     4  12  22  40  58  98 146 172 230 282 366 436
#     4  10  23  43  65  97 136 186 231 285 355 419
#     4  12  24  36  62 101 138 179 217 297 358 424
#     4  10  24  42  66 100 134 190 236 294 358 428
#     4  11  23  39  63  98 135 179 239 286 356 428
#
# _framework density 19.485133000000001
#
# number of rings (size 3 to 8) (size 9 to 14) (size 15 to 20)
#    0.545    0.364    1.818    6.545    5.091    0.000 
#    0.000    0.000    0.000    6.545    0.000    0.000 
#    0.000    0.000    0.000    0.000    0.000    0.000 
#
# Total GULP energy -122706.189650 kJ/mol
# GULP energy per Si atom -5577.554075 kJ/mol
# Density = 1.944078 g / cm^3
# Si number density = 19.485133 Si / 1000 Ang^3
#
#
#
# Elastic Constant Matrix: (Units=GPa)
#
#
# Indices 1 2 3 4 5 6 
#
# 1 89.4104 29.7936 50.4748 0.0000 0.0000 0.0000
# 2 29.7936 125.3116 73.6016 0.0000 0.0000 0.0000
# 3 50.4748 73.6016 131.4417 0.0000 0.0000 0.0000
# 4 0.0000 0.0000 0.0000 34.4483 0.0000 0.0000
# 5 0.0000 0.0000 0.0000 0.0000 33.4263 0.0000
# 6 0.0000 0.0000 0.0000 0.0000 0.0000 34.4863
#
#
#
# Elastic Compliance Matrix: (Units=1/GPa)
#
#
# Indices 1 2 3 4 5 6 
#
# 1 0.014286 -0.000260 -0.005340 0.000000 0.000000 0.000000
# 2 -0.000260 0.011896 -0.006561 0.000000 0.000000 0.000000
# 3 -0.005340 -0.006561 0.013333 0.000000 0.000000 0.000000
# 4 0.000000 0.000000 0.000000 0.029029 0.000000 0.000000
# 5 0.000000 0.000000 0.000000 0.000000 0.029917 0.000000
# 6 0.000000 0.000000 0.000000 0.000000 0.000000 0.028997
#
#
# Mechanical properties :
#
#
# Convention : Reuss Voigt Hill
#
# Bulk Modulus (GPa) = 65.82778 72.65598 69.24188
# Shear Modulus (GPa) = 31.87895 33.29176 32.58535
#
# Velocity S-wave (km/s) = 4.04922 4.13797 4.09384
# Velocity P-wave (km/s) = 7.46448 7.75882 7.61307
#
# Compressibility (1/GPa) = 0.01519115
#
# Stress axis : x y z
#
# Youngs Moduli (GPa) = 69.99977 84.06448 75.00367
#
# Poissons Ratio (x) = 0.02185 0.40055
# Poissons Ratio (y) = 0.01819 0.49212
# Poissons Ratio (z) = 0.37382 0.55157
#
# Static dielectric constant tensor:
#      x y z
#    x 1.664770 0.000000 0.000000 
#    y 0.000000 1.728390 0.000000 
#    z 0.000000 0.000000 1.690840 
# 
# From -- ./inp_files/30695.got.cif
#   From: 2010.05.17/outbox.cif.g08.bks.cpg/sg24_16_cif.got.tgz:30695.got - 2010.06.04 00:33:39.
