data_PCOD9335698
_publ_section_title
;
Structure prediction by ZEFSAII (Michael W. Deem and Ramdas Pophale) SiO2 
 PCOD9335698
Probable space group: I 21 21 21
;
_chemical_formula_sum "Si O2"
_cell_formula_units_Z 48
_cell_length_a 10.008174
_cell_length_b 28.916415
_cell_length_c 7.346570
_cell_angle_alpha 90.000000
_cell_angle_beta 90.000000
_cell_angle_gamma 90.000000
_cell_volume 2126.101125
_symmetry_space_group_name_H-M "I 21 21 21"
_symmetry_group_IT_number 24
_symmetry_cell_setting 'orthorhombic'
loop_
_space_group_symop_operation_xyz
x,y,z
-x,1/2-y,z
x,-y,1/2-z
1/2-x,y,-z
1/2+x,1/2+y,1/2+z
1/2-x,-y,1/2+z
1/2+x,1/2-y,-z
-x,1/2+y,1/2-z
loop_
_atom_site_type_symbol
_atom_site_label
_atom_site_fract_x
_atom_site_fract_y
_atom_site_fract_z
Si Si1 0.366964 0.451722 0.855007
Si Si2 0.616013 0.212449 0.422440
Si Si3 0.013673 0.361856 0.297653
Si Si4 0.016326 0.697094 0.567894
Si Si5 0.617427 0.457162 0.120640
Si Si6 0.789917 0.636710 0.712227
O O1 0.339910 0.500000 0.750000
O O2 0.408957 0.410403 0.718199
O O3 0.250000 0.440810 0.000000
O O4 0.497850 0.455243 0.979610
O O5 0.500000 0.250000 0.431970
O O6 0.750000 0.233888 0.500000
O O7 0.576124 0.169149 0.545553
O O8 0.635151 0.197178 0.213472
O O9 0.030866 0.336214 0.102409
O O10 0.850611 0.363059 0.319049
O O11 0.000000 0.750000 0.504227
O O12 0.890176 0.680073 0.694281
O O13 0.599657 0.500000 0.250000
O O14 0.629290 0.410568 0.241789
O O15 0.750000 0.463358 0.000000
O O16 0.750000 0.632150 0.500000
#
# Coordination Sequence:
#
# PCOD9335698 Si02
#       6
#     8   8   8   8   8   8
#     4  12  27  47  68 101 144 190 238 298 368 438
#     4  11  28  45  68 107 140 185 242 290 354 432
#     4  11  24  46  74  98 144 185 237 292 360 426
#     4  10  22  43  70 103 143 180 228 293 360 418
#     4  11  21  41  69 101 139 177 238 294 352 426
#     4   9  19  40  66 104 132 174 233 292 340 422
#
# _framework density 22.576537999999999
#
# number of rings (size 3 to 8) (size 9 to 14) (size 15 to 20)
#    0.000    1.333    5.000    1.500    7.000    2.000 
#    6.000    0.000    0.000    0.000    0.000    0.000 
#    0.000    0.000    0.000    0.000    0.000    0.000 
#
# Total GULP energy -134113.290758 kJ/mol
# GULP energy per Si atom -5588.053782 kJ/mol
# Density = 2.252515 g / cm^3
# Si number density = 22.576538 Si / 1000 Ang^3
#
#
#
# Elastic Constant Matrix: (Units=GPa)
#
#
# Indices 1 2 3 4 5 6 
#
# 1 55.9432 -1.2159 -2.1175 0.0579 0.0014 0.0020
# 2 -1.2159 144.1220 15.6757 0.0130 0.0015 0.0007
# 3 -2.1175 15.6757 56.3157 0.0469 0.0119 0.0049
# 4 0.0579 0.0130 0.0469 62.9258 0.0003 0.0010
# 5 0.0014 0.0015 0.0119 0.0003 25.4235 0.0004
# 6 0.0020 0.0007 0.0049 0.0010 0.0004 23.6195
#
#
#
# Elastic Compliance Matrix: (Units=1/GPa)
#
#
# Indices 1 2 3 4 5 6 
#
# 1 0.017902 0.000080 0.000651 -0.000017 -0.000001 -0.000002
# 2 0.000080 0.007156 -0.001989 0.000000 0.000001 0.000000
# 3 0.000651 -0.001989 0.018335 -0.000014 -0.000008 -0.000004
# 4 -0.000017 0.000000 -0.000014 0.015892 0.000000 -0.000001
# 5 -0.000001 0.000001 -0.000008 0.000000 0.039334 -0.000001
# 6 -0.000002 0.000000 -0.000004 -0.000001 -0.000001 0.042338
#
#
# Mechanical properties :
#
#
# Convention : Reuss Voigt Hill
#
# Bulk Modulus (GPa) = 24.46372 31.22951 27.84661
# Shear Modulus (GPa) = 31.82752 38.66299 35.24526
#
# Velocity S-wave (km/s) = 3.75875 4.14276 3.95542
# Velocity P-wave (km/s) = 5.44950 6.06185 5.76381
#
# Compressibility (1/GPa) = 0.04087686
#
# Stress axis : x y z
#
# Youngs Moduli (GPa) = 55.86072 139.75160 54.54016
#
# Poissons Ratio (x) = -0.01121 -0.03549
# Poissons Ratio (y) = -0.00448 0.10847
# Poissons Ratio (z) = -0.03635 0.27793
#
# Static dielectric constant tensor:
#      x y z
#    x 1.284790 0.000070 0.000190 
#    y 0.000070 1.894090 0.000000 
#    z 0.000190 0.000000 1.860930 
# 
# From -- ./inp_files/9764.got.cif
#   From: 2010.05.17/outbox.cif.g08.bks.cpg/sg24_5_cif.got.tgz:9764.got - 2010.06.04 00:33:39.
