data_PCOD9335348
_publ_section_title
;
Structure prediction by ZEFSAII (Michael W. Deem and Ramdas Pophale) SiO2 
 PCOD9335348
Probable space group: I 21 21 21
;
_chemical_formula_sum "Si O2"
_cell_formula_units_Z 64
_cell_length_a 8.874431
_cell_length_b 16.445689
_cell_length_c 23.038399
_cell_angle_alpha 90.000000
_cell_angle_beta 90.000000
_cell_angle_gamma 90.000000
_cell_volume 3362.365228
_symmetry_space_group_name_H-M "I 21 21 21"
_symmetry_group_IT_number 24
_symmetry_cell_setting 'orthorhombic'
loop_
_space_group_symop_operation_xyz
x,y,z
-x,1/2-y,z
x,-y,1/2-z
1/2-x,y,-z
1/2+x,1/2+y,1/2+z
1/2-x,-y,1/2+z
1/2+x,1/2-y,-z
-x,1/2+y,1/2-z
loop_
_atom_site_type_symbol
_atom_site_label
_atom_site_fract_x
_atom_site_fract_y
_atom_site_fract_z
Si Si1 0.416245 0.168603 0.286826
Si Si2 0.587176 0.983746 0.873155
Si Si3 0.583427 0.671445 0.474696
Si Si4 0.947079 0.963491 0.871819
Si Si5 0.527266 0.656346 0.666408
Si Si6 0.069443 0.500995 0.998124
Si Si7 0.444235 0.162802 0.698910
Si Si8 0.617558 0.369178 0.154632
O O1 0.500000 0.250000 0.304995
O O2 0.491880 0.099772 0.325580
O O3 0.237004 0.166649 0.297838
O O4 0.439147 0.159600 0.217440
O O5 0.766515 0.970979 0.866833
O O6 0.501424 0.918758 0.832717
O O7 0.560203 0.079912 0.861030
O O8 0.529433 0.966378 0.938525
O O9 0.500000 0.750000 0.499066
O O10 0.750000 0.666801 0.500000
O O11 0.498631 0.588648 0.490567
O O12 0.588261 0.678300 0.404937
O O13 0.975967 0.948710 0.940719
O O14 0.036524 0.045471 0.856646
O O15 0.500000 0.750000 0.645516
O O16 0.493412 0.658110 0.735194
O O17 0.701687 0.631353 0.659441
O O18 0.250000 0.493762 0.000000
O O19 0.500000 0.250000 0.674013
#
# Coordination Sequence:
#
# PCOD9335348 Si02
#       8
#     8   8   8   8   8   8   8   8
#     4  11  22  38  60  85 116 147 187 242 295 347
#     4  11  21  38  62  84 115 154 193 239 291 348
#     4  11  22  35  54  80 113 152 194 235 280 335
#     4  10  22  38  59  85 113 150 192 237 294 349
#     4  10  22  37  57  86 119 155 195 237 286 346
#     4   9  21  39  56  78 109 147 190 234 282 344
#     4  10  22  39  59  86 116 149 192 239 290 348
#     4  10  22  38  56  82 117 154 192 235 286 343
#
# _framework density 19.034220000000001
#
# number of rings (size 3 to 8) (size 9 to 14) (size 15 to 20)
#    0.000    1.750    0.000    3.750    0.000   13.000 
#    0.000    0.625    0.000    0.000    0.000    0.000 
#    0.000    0.000    0.000    0.000    0.000    0.000 
#
# Total GULP energy -178467.314745 kJ/mol
# GULP energy per Si atom -5577.103586 kJ/mol
# Density = 1.899090 g / cm^3
# Si number density = 19.034220 Si / 1000 Ang^3
#
#
#
# Elastic Constant Matrix: (Units=GPa)
#
#
# Indices 1 2 3 4 5 6 
#
# 1 39.2407 37.2936 43.3032 0.0000 0.0000 0.0000
# 2 37.2936 85.7637 54.5568 0.0000 0.0000 0.0000
# 3 43.3032 54.5568 114.6938 0.0000 0.0000 0.0000
# 4 0.0000 0.0000 0.0000 -23.3633 0.0000 0.0000
# 5 0.0000 0.0000 0.0000 0.0000 32.3159 0.0000
# 6 0.0000 0.0000 0.0000 0.0000 0.0000 26.8416
#
#
#
# Elastic Compliance Matrix: (Units=1/GPa)
#
#
# Indices 1 2 3 4 5 6 
#
# 1 0.054851 -0.015311 -0.013427 0.000000 0.000000 0.000000
# 2 -0.015311 0.020993 -0.004205 0.000000 0.000000 0.000000
# 3 -0.013427 -0.004205 0.015788 0.000000 0.000000 0.000000
# 4 0.000000 0.000000 0.000000 -0.042802 0.000000 0.000000
# 5 0.000000 0.000000 0.000000 0.000000 0.030945 0.000000
# 6 0.000000 0.000000 0.000000 0.000000 0.000000 0.037256
#
#
# Mechanical properties :
#
#
# Convention : Reuss Voigt Hill
#
# Bulk Modulus (GPa) = 38.83815 56.66728 47.75271
# Shear Modulus (GPa) = 26.11004 14.12846 20.11925
#
# Velocity S-wave (km/s) = 3.70772 2.72741 3.25469
# Velocity P-wave (km/s) = 6.22722 6.30510 6.26628
#
# Compressibility (1/GPa) = 0.02574788
#
# Stress axis : x y z
#
# Youngs Moduli (GPa) = 18.23110 47.63587 63.33788
#
# Poissons Ratio (x) = 0.72934 0.85041
# Poissons Ratio (y) = 0.27913 0.26634
# Poissons Ratio (z) = 0.24478 0.20031
#
# Static dielectric constant tensor:
#      x y z
#    x 1.639180 0.000000 0.000000 
#    y 0.000000 1.524970 0.000000 
#    z 0.000000 0.000000 1.700520 
# 
# From -- ./inp_files/29817.got.cif
#   From: 2010.05.17/outbox.cif.g08.bks.cpg/sg24_15_cif.got.tgz:29817.got - 2010.06.04 00:33:39.
