data_PCOD9335379
_publ_section_title
;
Structure prediction by ZEFSAII (Michael W. Deem and Ramdas Pophale) SiO2 
 PCOD9335379
Probable space group: I 21 21 21
;
_chemical_formula_sum "Si O2"
_cell_formula_units_Z 40
_cell_length_a 25.554134
_cell_length_b 14.658598
_cell_length_c 5.026165
_cell_angle_alpha 90.000000
_cell_angle_beta 90.000000
_cell_angle_gamma 90.000000
_cell_volume 1882.739977
_symmetry_space_group_name_H-M "I 21 21 21"
_symmetry_group_IT_number 24
_symmetry_cell_setting 'orthorhombic'
loop_
_space_group_symop_operation_xyz
x,y,z
-x,1/2-y,z
x,-y,1/2-z
1/2-x,y,-z
1/2+x,1/2+y,1/2+z
1/2-x,-y,1/2+z
1/2+x,1/2-y,-z
-x,1/2+y,1/2-z
loop_
_atom_site_type_symbol
_atom_site_label
_atom_site_fract_x
_atom_site_fract_y
_atom_site_fract_z
Si Si1 0.750000 0.157608 0.500000
Si Si2 0.860231 0.768645 0.988771
Si Si3 0.007398 0.143030 0.185057
Si Si4 0.893155 0.121212 0.999968
Si Si5 0.813629 0.000000 0.250000
Si Si6 0.925279 0.400350 0.674222
O O1 0.799332 0.217760 0.585033
O O2 0.776327 0.085616 0.299464
O O3 0.891393 0.836011 0.791243
O O4 0.881758 0.668580 0.934669
O O5 0.871388 0.803745 0.287018
O O6 0.031787 0.093506 0.439628
O O7 0.000000 0.250000 0.258181
O O8 0.952165 0.103060 0.089738
O O9 0.046867 0.139499 0.936290
O O10 0.854178 0.035638 0.028047
O O11 0.905219 0.500000 0.750000
#
# Coordination Sequence:
#
# PCOD9335379 Si02
#       6
#     4   8   8   8   4   8
#     4  10  22  40  68  88 130 166 222 262 346 380
#     4  11  22  42  62  89 119 172 208 271 320 385
#     4  12  22  42  63  92 129 179 214 262 326 400
#     4  11  23  37  62  90 131 162 211 251 331 390
#     4  10  22  38  60  98 124 162 204 282 308 416
#     4  12  25  40  64  94 133 170 225 273 316 384
#
# _framework density 21.245629999999998
#
# number of rings (size 3 to 8) (size 9 to 14) (size 15 to 20)
#    0.000    0.800    4.000    3.600    2.800    4.800 
#    0.000    0.000    0.000    7.200    0.000    0.000 
#    0.000    0.000    0.000    0.000    0.000    0.000 
#
# Total GULP energy -111870.389805 kJ/mol
# GULP energy per Si atom -5593.519490 kJ/mol
# Density = 2.119727 g / cm^3
# Si number density = 21.245630 Si / 1000 Ang^3
#
#
#
# Elastic Constant Matrix: (Units=GPa)
#
#
# Indices 1 2 3 4 5 6 
#
# 1 125.5416 45.4740 2.1675 0.0000 0.0000 0.0000
# 2 45.4740 94.9321 14.0857 0.0000 0.0000 0.0000
# 3 2.1675 14.0857 71.9180 0.0000 0.0000 0.0000
# 4 0.0000 0.0000 0.0000 25.1695 0.0000 0.0000
# 5 0.0000 0.0000 0.0000 0.0000 12.4511 0.0000
# 6 0.0000 0.0000 0.0000 0.0000 0.0000 -54.1320
#
#
#
# Elastic Compliance Matrix: (Units=1/GPa)
#
#
# Indices 1 2 3 4 5 6 
#
# 1 0.009666 -0.004724 0.000634 0.000000 0.000000 0.000000
# 2 -0.004724 0.013158 -0.002435 0.000000 0.000000 0.000000
# 3 0.000634 -0.002435 0.014362 0.000000 0.000000 0.000000
# 4 0.000000 0.000000 0.000000 0.039731 0.000000 0.000000
# 5 0.000000 0.000000 0.000000 0.000000 0.080314 0.000000
# 6 0.000000 0.000000 0.000000 0.000000 0.000000 -0.018473
#
#
# Mechanical properties :
#
#
# Convention : Reuss Voigt Hill
#
# Bulk Modulus (GPa) = 41.43111 46.20513 43.81812
# Shear Modulus (GPa) = 31.27873 12.07534 21.67703
#
# Velocity S-wave (km/s) = 3.84114 2.38663 3.19769
# Velocity P-wave (km/s) = 6.26226 5.42125 5.85687
#
# Compressibility (1/GPa) = 0.02413645
#
# Stress axis : x y z
#
# Youngs Moduli (GPa) = 103.45844 75.99929 69.62591
#
# Poissons Ratio (x) = 0.35903 -0.04414
# Poissons Ratio (y) = 0.48875 0.16952
# Poissons Ratio (z) = -0.06559 0.18504
#
# Static dielectric constant tensor:
#      x y z
#    x 1.774740 0.000000 0.000000 
#    y 0.000000 1.812410 0.000000 
#    z 0.000000 0.000000 1.880030 
# 
# From -- ./inp_files/6326.got.cif
#   From: 2010.05.17/outbox.cif.g08.bks.cpg/sg24_4_cif.got.tgz:6326.got - 2010.06.04 00:33:39.
