data_PCOD9335514
_publ_section_title
;
Structure prediction by ZEFSAII (Michael W. Deem and Ramdas Pophale) SiO2 
 PCOD9335514
Probable space group: I 21 21 21
;
_chemical_formula_sum "Si O2"
_cell_formula_units_Z 32
_cell_length_a 33.613379
_cell_length_b 7.907289
_cell_length_c 5.218127
_cell_angle_alpha 90.000000
_cell_angle_beta 90.000000
_cell_angle_gamma 90.000000
_cell_volume 1386.929639
_symmetry_space_group_name_H-M "I 21 21 21"
_symmetry_group_IT_number 24
_symmetry_cell_setting 'orthorhombic'
loop_
_space_group_symop_operation_xyz
x,y,z
-x,1/2-y,z
x,-y,1/2-z
1/2-x,y,-z
1/2+x,1/2+y,1/2+z
1/2-x,-y,1/2+z
1/2+x,1/2-y,-z
-x,1/2+y,1/2-z
loop_
_atom_site_type_symbol
_atom_site_label
_atom_site_fract_x
_atom_site_fract_y
_atom_site_fract_z
Si Si1 0.210090 0.686775 0.638148
Si Si2 0.081017 0.686191 0.116217
Si Si3 0.035353 0.500000 0.750000
Si Si4 0.000000 0.750000 0.376969
Si Si5 0.168730 0.188737 0.344529
O O1 0.218544 0.500000 0.750000
O O2 0.250000 0.755235 0.500000
O O3 0.180328 0.690434 0.395825
O O4 0.192270 0.779152 0.889044
O O5 0.086356 0.500000 0.250000
O O6 0.121882 0.784366 0.114049
O O7 0.041843 0.770071 0.234509
O O8 0.065263 0.646677 0.833220
O O9 0.007626 0.580649 0.538350
O O10 0.177099 0.000000 0.250000
#
# Coordination Sequence:
#
# PCOD9335514 Si02
#       5
#     8   8   4   4   8
#     4  12  26  51  79 110 144 194 248 296 368 455
#     4  10  23  42  65 101 140 198 251 297 358 437
#     4  10  22  40  66  98 136 200 236 322 346 436
#     4  10  22  40  66  98 142 186 252 298 366 418
#     4  12  28  46  75 114 155 193 242 311 373 432
#
# _framework density 23.072547
#
# number of rings (size 3 to 8) (size 9 to 14) (size 15 to 20)
#    0.000    1.000    0.000    6.000    8.750    7.000 
#    0.000    1.250    0.000    0.000    0.000    0.000 
#    0.000    0.000    0.000    0.000    0.000    0.000 
#
# Total GULP energy -89369.309264 kJ/mol
# GULP energy per Si atom -5585.581829 kJ/mol
# Density = 2.302003 g / cm^3
# Si number density = 23.072547 Si / 1000 Ang^3
#
#
#
# Elastic Constant Matrix: (Units=GPa)
#
#
# Indices 1 2 3 4 5 6 
#
# 1 186.3018 47.4412 93.3122 0.0000 0.0000 0.0000
# 2 47.4412 57.0463 39.4840 0.0000 0.0001 0.0000
# 3 93.3122 39.4840 168.1395 0.0000 0.0000 0.0000
# 4 0.0000 0.0000 0.0000 38.9601 0.0000 0.0000
# 5 0.0000 0.0001 0.0000 0.0000 -106.1148 0.0000
# 6 0.0000 0.0000 0.0000 0.0000 0.0000 28.0598
#
#
#
# Elastic Compliance Matrix: (Units=1/GPa)
#
#
# Indices 1 2 3 4 5 6 
#
# 1 0.008273 -0.004421 -0.003553 0.000000 0.000000 0.000000
# 2 -0.004421 0.023294 -0.003017 0.000000 0.000000 0.000000
# 3 -0.003553 -0.003017 0.008628 0.000000 0.000000 0.000000
# 4 0.000000 0.000000 0.000000 0.025667 0.000000 0.000000
# 5 0.000000 0.000000 0.000000 0.000000 -0.009424 0.000000
# 6 0.000000 0.000000 0.000000 0.000000 0.000000 0.035638
#
#
# Mechanical properties :
#
#
# Convention : Reuss Voigt Hill
#
# Bulk Modulus (GPa) = 54.90429 85.77361 70.33895
# Shear Modulus (GPa) = 41.62191 7.59769 24.60980
#
# Velocity S-wave (km/s) = 4.25191 1.81662 3.26947
# Velocity P-wave (km/s) = 6.92481 6.45418 6.69363
#
# Compressibility (1/GPa) = 0.01821351
#
# Stress axis : x y z
#
# Youngs Moduli (GPa) = 120.87482 42.92943 115.90521
#
# Poissons Ratio (x) = 0.18978 0.41183
# Poissons Ratio (y) = 0.53436 0.34965
# Poissons Ratio (z) = 0.42949 0.12951
#
# Static dielectric constant tensor:
#      x y z
#    x 1.869710 0.000000 0.000000 
#    y 0.000000 2.000600 0.000000 
#    z 0.000000 0.000000 1.976340 
# 
# From -- ./inp_files/7462.got.cif
#   From: 2010.05.17/outbox.cif.g08.bks.cpg/sg24_4_cif.got.tgz:7462.got - 2010.06.04 00:33:39.
