data_PCOD9335550
_publ_section_title
;
Structure prediction by ZEFSAII (Michael W. Deem and Ramdas Pophale) SiO2 
 PCOD9335550
Probable space group: I 21 21 21
;
_chemical_formula_sum "Si O2"
_cell_formula_units_Z 48
_cell_length_a 10.550987
_cell_length_b 9.150360
_cell_length_c 25.315898
_cell_angle_alpha 90.000000
_cell_angle_beta 90.000000
_cell_angle_gamma 90.000000
_cell_volume 2444.131712
_symmetry_space_group_name_H-M "I 21 21 21"
_symmetry_group_IT_number 24
_symmetry_cell_setting 'orthorhombic'
loop_
_space_group_symop_operation_xyz
x,y,z
-x,1/2-y,z
x,-y,1/2-z
1/2-x,y,-z
1/2+x,1/2+y,1/2+z
1/2-x,-y,1/2+z
1/2+x,1/2-y,-z
-x,1/2+y,1/2-z
loop_
_atom_site_type_symbol
_atom_site_label
_atom_site_fract_x
_atom_site_fract_y
_atom_site_fract_z
Si Si1 0.090017 0.612119 0.428219
Si Si2 0.194013 0.000000 0.250000
Si Si3 0.622075 0.164963 0.077453
Si Si4 0.102704 0.380369 0.518059
Si Si5 0.789931 0.000000 0.250000
Si Si6 0.980360 0.091862 0.331655
Si Si7 0.641487 0.754324 0.301984
O O1 0.231525 0.670289 0.440754
O O2 0.059365 0.490448 0.471815
O O3 0.070485 0.528679 0.372399
O O4 0.000000 0.750000 0.428029
O O5 0.279374 0.872273 0.274321
O O6 0.105231 0.954619 0.200532
O O7 0.500000 0.250000 0.052762
O O8 0.633488 0.242069 0.134722
O O9 0.600582 0.989126 0.069481
O O10 0.250000 0.339169 0.500000
O O11 0.000000 0.250000 0.523172
O O12 0.877730 0.895318 0.215105
O O13 0.705195 0.906144 0.287995
O O14 0.000000 0.250000 0.357632
O O15 0.500000 0.750000 0.280544
#
# Coordination Sequence:
#
# PCOD9335550 Si02
#       7
#     8   4   8   8   4   8   8
#     4  11  22  39  66  96 127 166 220 273 329 393
#     4  11  23  38  60  92 121 167 222 272 332 385
#     4  10  22  41  63  93 130 172 216 265 332 397
#     4  10  23  43  67  96 132 170 216 276 336 396
#     4  11  21  38  58  82 125 157 208 262 320 373
#     4  11  22  36  60  88 123 164 206 274 325 383
#     4  11  22  40  60  86 125 170 217 262 318 400
#
# _framework density 19.638876
#
# number of rings (size 3 to 8) (size 9 to 14) (size 15 to 20)
#    0.000    1.333    3.333    2.500    0.000    1.333 
#    0.000   10.833    0.000    0.000    0.000    0.000 
#    0.000    0.000    0.000    0.000    0.000    0.000 
#
# Total GULP energy -133626.707046 kJ/mol
# GULP energy per Si atom -5567.779460 kJ/mol
# Density = 1.959418 g / cm^3
# Si number density = 19.638876 Si / 1000 Ang^3
#
#
#
# Elastic Constant Matrix: (Units=GPa)
#
#
# Indices 1 2 3 4 5 6 
#
# 1 145.5632 75.9952 17.0397 0.0000 0.0000 0.0000
# 2 75.9952 100.4866 14.2183 0.0000 0.0000 0.0000
# 3 17.0397 14.2183 73.2487 0.0000 0.0000 0.0000
# 4 0.0000 0.0000 0.0000 28.3486 0.0000 0.0000
# 5 0.0000 0.0000 0.0000 0.0000 19.6091 0.0000
# 6 0.0000 0.0000 0.0000 0.0000 0.0000 42.6267
#
#
#
# Elastic Compliance Matrix: (Units=1/GPa)
#
#
# Indices 1 2 3 4 5 6 
#
# 1 0.011424 -0.008497 -0.001008 0.000000 0.000000 0.000000
# 2 -0.008497 0.016553 -0.001236 0.000000 0.000000 0.000000
# 3 -0.001008 -0.001236 0.014127 0.000000 0.000000 0.000000
# 4 0.000000 0.000000 0.000000 0.035275 0.000000 0.000000
# 5 0.000000 0.000000 0.000000 0.000000 0.050997 0.000000
# 6 0.000000 0.000000 0.000000 0.000000 0.000000 0.023459
#
#
# Mechanical properties :
#
#
# Convention : Reuss Voigt Hill
#
# Bulk Modulus (GPa) = 48.49643 59.31165 53.90404
# Shear Modulus (GPa) = 27.74833 32.25321 30.00077
#
# Velocity S-wave (km/s) = 3.76297 4.05694 3.91272
# Velocity P-wave (km/s) = 6.60512 7.22577 6.92241
#
# Compressibility (1/GPa) = 0.02062008
#
# Stress axis : x y z
#
# Youngs Moduli (GPa) = 87.53527 60.41369 70.78825
#
# Poissons Ratio (x) = 0.51333 0.07137
# Poissons Ratio (y) = 0.74379 0.08752
# Poissons Ratio (z) = 0.08825 0.07469
#
# Static dielectric constant tensor:
#      x y z
#    x 1.721990 0.000000 0.000000 
#    y 0.000000 1.681310 0.000000 
#    z 0.000000 0.000000 1.688910 
# 
# From -- ./inp_files/38321.got.cif
#   From: 2010.05.17/outbox.cif.g08.bks.cpg/sg24_20_cif.got.tgz:38321.got - 2010.06.04 00:33:39.
