data_PCOD9335031
_publ_section_title
;
Structure prediction by ZEFSAII (Michael W. Deem and Ramdas Pophale) SiO2 
 PCOD9335031
Probable space group: I 21 21 21
;
_chemical_formula_sum "Si O2"
_cell_formula_units_Z 56
_cell_length_a 14.706405
_cell_length_b 10.171089
_cell_length_c 17.547530
_cell_angle_alpha 90.000000
_cell_angle_beta 90.000000
_cell_angle_gamma 90.000000
_cell_volume 2624.762242
_symmetry_space_group_name_H-M "I 21 21 21"
_symmetry_group_IT_number 24
_symmetry_cell_setting 'orthorhombic'
loop_
_space_group_symop_operation_xyz
x,y,z
-x,1/2-y,z
x,-y,1/2-z
1/2-x,y,-z
1/2+x,1/2+y,1/2+z
1/2-x,-y,1/2+z
1/2+x,1/2-y,-z
-x,1/2+y,1/2-z
loop_
_atom_site_type_symbol
_atom_site_label
_atom_site_fract_x
_atom_site_fract_y
_atom_site_fract_z
Si Si1 0.661020 0.938752 0.335069
Si Si2 0.510058 0.399833 0.070365
Si Si3 0.715872 0.333766 0.085833
Si Si4 0.951127 0.620501 0.206951
Si Si5 0.747318 0.431663 0.680684
Si Si6 0.963827 0.881387 0.048785
Si Si7 0.240516 0.679038 0.087722
O O1 0.554424 0.920236 0.356113
O O2 0.704985 0.797277 0.361160
O O3 0.673658 0.000000 0.250000
O O4 0.704673 0.049181 0.389810
O O5 0.500000 0.250000 0.043270
O O6 0.617624 0.407743 0.083222
O O7 0.470453 0.497815 0.007509
O O8 0.775791 0.449396 0.123024
O O9 0.750000 0.300774 0.000000
O O10 0.994299 0.500000 0.250000
O O11 0.844322 0.623104 0.220072
O O12 0.000000 0.750000 0.233022
O O13 0.966341 0.601409 0.117694
O O14 0.802426 0.500000 0.750000
O O15 0.778018 0.301617 0.636590
O O16 0.867145 0.856099 0.090270
O O17 0.000000 0.750000 0.007029
O O18 0.250000 0.716022 0.000000
#
# Coordination Sequence:
#
# PCOD9335031 Si02
#       7
#     8   8   8   8   8   8   8
#     4  11  25  46  68 103 139 182 235 287 353 425
#     4  10  24  43  67  98 136 179 226 285 343 414
#     4  11  24  43  72 101 138 183 236 289 355 422
#     4  10  21  40  58  88 131 168 216 267 330 408
#     4  11  23  41  62  95 136 177 224 281 344 412
#     4  11  22  41  63  97 131 170 227 279 334 408
#     4  12  23  41  69  96 136 175 228 287 338 410
#
# _framework density 21.335267000000002
#
# number of rings (size 3 to 8) (size 9 to 14) (size 15 to 20)
#    0.000    1.143    4.286    2.571    4.000    1.714 
#    5.143    3.571    0.000    0.000    0.000    0.000 
#    0.000    0.000    0.000    0.000    0.000    0.000 
#
# Total GULP energy -156055.545379 kJ/mol
# GULP energy per Si atom -5573.412335 kJ/mol
# Density = 2.128671 g / cm^3
# Si number density = 21.335267 Si / 1000 Ang^3
#
#
#
# Elastic Constant Matrix: (Units=GPa)
#
#
# Indices 1 2 3 4 5 6 
#
# 1 82.2035 29.0085 12.2229 0.0000 0.0000 0.0000
# 2 29.0085 165.1099 53.0753 0.0000 0.0000 0.0000
# 3 12.2229 53.0753 63.1044 0.0000 0.0000 0.0000
# 4 0.0000 0.0000 0.0000 38.6767 0.0000 0.0000
# 5 0.0000 0.0000 0.0000 0.0000 13.2043 0.0000
# 6 0.0000 0.0000 0.0000 0.0000 0.0000 19.5082
#
#
#
# Elastic Compliance Matrix: (Units=1/GPa)
#
#
# Indices 1 2 3 4 5 6 
#
# 1 0.013000 -0.002021 -0.000818 0.000000 0.000000 0.000000
# 2 -0.002021 0.008615 -0.006854 0.000000 0.000000 0.000000
# 3 -0.000818 -0.006854 0.021770 0.000000 0.000000 0.000000
# 4 0.000000 0.000000 0.000000 0.025855 0.000000 0.000000
# 5 0.000000 0.000000 0.000000 0.000000 0.075733 0.000000
# 6 0.000000 0.000000 0.000000 0.000000 0.000000 0.051260
#
#
# Mechanical properties :
#
#
# Convention : Reuss Voigt Hill
#
# Bulk Modulus (GPa) = 41.67026 55.44791 48.55909
# Shear Modulus (GPa) = 22.35932 28.68524 25.52228
#
# Velocity S-wave (km/s) = 3.24079 3.67072 3.46243
# Velocity P-wave (km/s) = 5.79458 6.63407 6.22848
#
# Compressibility (1/GPa) = 0.02399793
#
# Stress axis : x y z
#
# Youngs Moduli (GPa) = 76.92450 116.07654 45.93420
#
# Poissons Ratio (x) = 0.23458 0.03758
# Poissons Ratio (y) = 0.15546 0.31485
# Poissons Ratio (z) = 0.06294 0.79563
#
# Static dielectric constant tensor:
#      x y z
#    x 1.950250 0.000000 0.000000 
#    y 0.000000 1.818980 0.000000 
#    z 0.000000 0.000000 1.826910 
# 
# From -- ./inp_files/33765.got.cif
#   From: 2010.05.17/outbox.cif.g08.bks.cpg/sg24_17_cif.got.tgz:33765.got - 2010.06.04 00:33:39.
