data_PCOD9335299
_publ_section_title
;
Structure prediction by ZEFSAII (Michael W. Deem and Ramdas Pophale) SiO2 
 PCOD9335299
Probable space group: I 21 21 21
;
_chemical_formula_sum "Si O2"
_cell_formula_units_Z 28
_cell_length_a 6.695647
_cell_length_b 21.842286
_cell_length_c 7.993047
_cell_angle_alpha 90.000000
_cell_angle_beta 90.000000
_cell_angle_gamma 90.000000
_cell_volume 1168.969030
_symmetry_space_group_name_H-M "I 21 21 21"
_symmetry_group_IT_number 24
_symmetry_cell_setting 'orthorhombic'
loop_
_space_group_symop_operation_xyz
x,y,z
-x,1/2-y,z
x,-y,1/2-z
1/2-x,y,-z
1/2+x,1/2+y,1/2+z
1/2-x,-y,1/2+z
1/2+x,1/2-y,-z
-x,1/2+y,1/2-z
loop_
_atom_site_type_symbol
_atom_site_label
_atom_site_fract_x
_atom_site_fract_y
_atom_site_fract_z
Si Si1 0.011092 0.815238 0.825227
Si Si2 0.861160 0.626148 0.335352
Si Si3 0.250000 0.579317 0.000000
Si Si4 0.977541 0.500000 0.250000
Si Si5 0.250000 0.669047 0.500000
O O1 0.901367 0.873526 0.908144
O O2 0.888526 0.803195 0.648545
O O3 0.000000 0.750000 0.916795
O O4 0.242274 0.835310 0.801220
O O5 0.750000 0.647043 0.500000
O O6 0.835957 0.554247 0.312035
O O7 0.091465 0.634570 0.381358
O O8 0.380793 0.534256 0.883691
#
# Coordination Sequence:
#
# PCOD9335299 Si02
#       5
#     8   8   4   4   4
#     4  11  27  47  75 111 152 198 253 304 384 457
#     4  10  24  43  75 107 144 196 242 308 378 445
#     4  12  29  48  72 110 152 201 244 326 372 444
#     4  12  26  46  74 102 150 190 256 308 376 452
#     4  10  21  50  68 114 142 189 246 308 380 444
#
# _framework density 23.952731
#
# number of rings (size 3 to 8) (size 9 to 14) (size 15 to 20)
#    0.000    1.143    2.857    0.857   14.000    2.286 
#    0.000    0.000    0.000    0.000    0.000    0.000 
#    0.000    0.000    0.000    0.000    0.000    0.000 
#
# Total GULP energy -78014.983365 kJ/mol
# GULP energy per Si atom -5572.498812 kJ/mol
# Density = 2.389821 g / cm^3
# Si number density = 23.952731 Si / 1000 Ang^3
#
#
#
# Elastic Constant Matrix: (Units=GPa)
#
#
# Indices 1 2 3 4 5 6 
#
# 1 108.0875 52.4607 17.1269 0.0000 0.0000 0.0000
# 2 52.4607 160.5362 36.0747 -0.0001 0.0000 0.0000
# 3 17.1269 36.0747 71.4172 0.0003 0.0002 0.0000
# 4 0.0000 -0.0001 0.0003 -5.8389 0.0000 0.0000
# 5 0.0000 0.0000 0.0002 0.0000 11.1310 0.0000
# 6 0.0000 0.0000 0.0000 0.0000 0.0000 43.7937
#
#
#
# Elastic Compliance Matrix: (Units=1/GPa)
#
#
# Indices 1 2 3 4 5 6 
#
# 1 0.011050 -0.003402 -0.000932 0.000000 0.000000 0.000000
# 2 -0.003402 0.008074 -0.003263 0.000000 0.000000 0.000000
# 3 -0.000932 -0.003263 0.015874 0.000001 0.000000 0.000000
# 4 0.000000 0.000000 0.000001 -0.171264 0.000001 0.000000
# 5 0.000000 0.000000 0.000000 0.000001 0.089839 0.000000
# 6 0.000000 0.000000 0.000000 0.000000 0.000000 0.022834
#
#
# Mechanical properties :
#
#
# Convention : Reuss Voigt Hill
#
# Bulk Modulus (GPa) = 50.48990 61.26283 55.87637
# Shear Modulus (GPa) = -2779.60356 25.44240 -1377.08058
#
# Velocity S-wave (km/s) = -34.10239 3.26266 -24.00342
# Velocity P-wave (km/s) = 39.10890 6.31074 27.29176
#
# Compressibility (1/GPa) = 0.01980594
#
# Stress axis : x y z
#
# Youngs Moduli (GPa) = 90.49408 123.85593 62.99739
#
# Poissons Ratio (x) = 0.42132 0.05870
# Poissons Ratio (y) = 0.30784 0.20553
# Poissons Ratio (z) = 0.08432 0.40409
#
# Static dielectric constant tensor:
#      x y z
#    x 2.042160 0.000000 0.000000 
#    y 0.000000 1.871460 0.000000 
#    z 0.000000 0.000000 2.103270 
# 
# From -- ./inp_files/9159.got.cif
#   From: 2010.05.17/outbox.cif.g08.bks.cpg/sg24_5_cif.got.tgz:9159.got - 2010.06.04 00:33:39.
