data_PCOD9335421
_publ_section_title
;
Structure prediction by ZEFSAII (Michael W. Deem and Ramdas Pophale) SiO2 
 PCOD9335421
Probable space group: I 21 21 21
;
_chemical_formula_sum "Si O2"
_cell_formula_units_Z 32
_cell_length_a 23.501354
_cell_length_b 7.846171
_cell_length_c 8.976041
_cell_angle_alpha 90.000000
_cell_angle_beta 90.000000
_cell_angle_gamma 90.000000
_cell_volume 1655.142845
_symmetry_space_group_name_H-M "I 21 21 21"
_symmetry_group_IT_number 24
_symmetry_cell_setting 'orthorhombic'
loop_
_space_group_symop_operation_xyz
x,y,z
-x,1/2-y,z
x,-y,1/2-z
1/2-x,y,-z
1/2+x,1/2+y,1/2+z
1/2-x,-y,1/2+z
1/2+x,1/2-y,-z
-x,1/2+y,1/2-z
loop_
_atom_site_type_symbol
_atom_site_label
_atom_site_fract_x
_atom_site_fract_y
_atom_site_fract_z
Si Si1 0.938112 0.323334 0.166313
Si Si2 0.772145 0.846155 0.663029
Si Si3 0.140658 0.045792 0.907873
Si Si4 0.668465 0.315842 0.666467
O O1 0.948848 0.500000 0.250000
O O2 0.891007 0.235567 0.274677
O O3 0.000000 0.250000 0.141171
O O4 0.904225 0.363039 0.015391
O O5 0.750000 0.902132 0.500000
O O6 0.809129 0.678638 0.628238
O O7 0.720328 0.793611 0.772416
O O8 0.802935 0.000000 0.750000
O O9 0.114310 0.000000 0.750000
O O10 0.163995 0.878405 0.995954
O O11 0.674078 0.500000 0.750000
#
# Coordination Sequence:
#
# PCOD9335421 Si02
#       4
#     8   8   8   8
#     4   9  19  39  62  83 107 149 198 248 291 350
#     4  12  24  37  56  93 127 152 195 255 303 347
#     4  10  22  39  61  86 117 162 204 235 290 370
#     4   9  19  39  62  80 111 164 203 230 285 365
#
# _framework density 19.333677999999999
#
# number of rings (size 3 to 8) (size 9 to 14) (size 15 to 20)
#    0.000    2.500    5.000    0.750    3.500    1.000 
#    0.000    6.250    0.000    0.000    0.000    0.000 
#    0.000    0.000    0.000    0.000    0.000    0.000 
#
# Total GULP energy -89150.295512 kJ/mol
# GULP energy per Si atom -5571.893469 kJ/mol
# Density = 1.928967 g / cm^3
# Si number density = 19.333678 Si / 1000 Ang^3
#
#
#
# Elastic Constant Matrix: (Units=GPa)
#
#
# Indices 1 2 3 4 5 6 
#
# 1 134.3931 37.9324 50.8296 0.0000 0.0000 0.0000
# 2 37.9324 37.9285 36.6300 0.0000 0.0000 0.0000
# 3 50.8296 36.6300 140.7748 0.0000 0.0000 0.0000
# 4 0.0000 0.0000 0.0000 24.4117 0.0000 0.0000
# 5 0.0000 0.0000 0.0000 0.0000 14.1008 0.0000
# 6 0.0000 0.0000 0.0000 0.0000 0.0000 24.3253
#
#
#
# Elastic Compliance Matrix: (Units=1/GPa)
#
#
# Indices 1 2 3 4 5 6 
#
# 1 0.010577 -0.009202 -0.001425 0.000000 0.000000 0.000000
# 2 -0.009202 0.043221 -0.007924 0.000000 0.000000 0.000000
# 3 -0.001425 -0.007924 0.009680 0.000000 0.000000 0.000000
# 4 0.000000 0.000000 0.000000 0.040964 0.000000 0.000000
# 5 0.000000 0.000000 0.000000 0.000000 0.070918 0.000000
# 6 0.000000 0.000000 0.000000 0.000000 0.000000 0.041110
#
#
# Mechanical properties :
#
#
# Convention : Reuss Voigt Hill
#
# Bulk Modulus (GPa) = 37.91214 62.65338 50.28276
# Shear Modulus (GPa) = 19.05765 25.08119 22.06942
#
# Velocity S-wave (km/s) = 3.14303 3.60568 3.38228
# Velocity P-wave (km/s) = 5.72918 7.05771 6.42786
#
# Compressibility (1/GPa) = 0.02637678
#
# Stress axis : x y z
#
# Youngs Moduli (GPa) = 94.54479 23.13695 103.30965
#
# Poissons Ratio (x) = 0.21291 0.14717
# Poissons Ratio (y) = 0.87003 0.81858
# Poissons Ratio (z) = 0.13469 0.18333
#
# Static dielectric constant tensor:
#      x y z
#    x 1.713080 0.000000 0.000000 
#    y 0.000000 1.498800 0.000000 
#    z 0.000000 0.000000 1.731190 
# 
# From -- ./inp_files/9174.got.cif
#   From: 2010.05.17/outbox.cif.g08.bks.cpg/sg24_5_cif.got.tgz:9174.got - 2010.06.04 00:33:39.
