data_PCOD9335346
_publ_section_title
;
Structure prediction by ZEFSAII (Michael W. Deem and Ramdas Pophale) SiO2 
 PCOD9335346
Probable space group: I 21 21 21
;
_chemical_formula_sum "Si O2"
_cell_formula_units_Z 40
_cell_length_a 17.192334
_cell_length_b 5.570817
_cell_length_c 18.447008
_cell_angle_alpha 90.000000
_cell_angle_beta 90.000000
_cell_angle_gamma 90.000000
_cell_volume 1766.768583
_symmetry_space_group_name_H-M "I 21 21 21"
_symmetry_group_IT_number 24
_symmetry_cell_setting 'orthorhombic'
loop_
_space_group_symop_operation_xyz
x,y,z
-x,1/2-y,z
x,-y,1/2-z
1/2-x,y,-z
1/2+x,1/2+y,1/2+z
1/2-x,-y,1/2+z
1/2+x,1/2-y,-z
-x,1/2+y,1/2-z
loop_
_atom_site_type_symbol
_atom_site_label
_atom_site_fract_x
_atom_site_fract_y
_atom_site_fract_z
Si Si1 0.084620 0.335929 0.683340
Si Si2 0.250000 0.717457 0.500000
Si Si3 0.899960 0.928526 0.976257
Si Si4 0.640924 0.450700 0.588497
Si Si5 0.756643 0.746045 0.205826
Si Si6 0.500000 0.250000 0.915226
O O1 0.107271 0.500000 0.750000
O O2 0.066283 0.434396 0.603772
O O3 0.167830 0.200309 0.675782
O O4 0.000000 0.250000 0.708164
O O5 0.316674 0.551278 0.468326
O O6 0.290629 0.873028 0.562533
O O7 0.950698 0.076715 0.032790
O O8 0.888802 0.671142 0.013787
O O9 0.680664 0.256452 0.640597
O O10 0.567095 0.590664 0.622671
O O11 0.774316 0.500000 0.250000
O O12 0.764279 0.000000 0.250000
#
# Coordination Sequence:
#
# PCOD9335346 Si02
#       6
#     8   4   8   8   8   4
#     4  11  24  40  65 100 150 191 238 287 358 433
#     4  10  22  36  72 100 134 180 240 298 352 430
#     4  11  23  42  66 104 133 185 240 295 362 429
#     4  11  23  43  71  99 141 184 245 306 366 440
#     4  11  27  46  74 106 145 192 244 301 368 440
#     4  10  24  40  74  98 140 178 246 310 368 428
#
# _framework density 22.640205000000002
#
# number of rings (size 3 to 8) (size 9 to 14) (size 15 to 20)
#    0.000    1.200    0.000    5.400   12.600    1.600 
#    0.000    0.000    4.400    0.000    0.000    0.000 
#    0.000    0.000    0.000    0.000    0.000    0.000 
#
# Total GULP energy -111533.074684 kJ/mol
# GULP energy per Si atom -5576.653734 kJ/mol
# Density = 2.258868 g / cm^3
# Si number density = 22.640205 Si / 1000 Ang^3
#
#
#
# Elastic Constant Matrix: (Units=GPa)
#
#
# Indices 1 2 3 4 5 6 
#
# 1 144.3707 35.2364 12.0383 0.0000 0.0000 0.0000
# 2 35.2364 76.9413 10.0646 0.0000 0.0000 0.0000
# 3 12.0383 10.0646 54.2043 0.0000 0.0000 0.0000
# 4 0.0000 0.0000 0.0000 29.6325 0.0000 0.0000
# 5 0.0000 0.0000 0.0000 0.0000 35.9976 0.0000
# 6 0.0000 0.0000 0.0000 0.0000 0.0000 58.2196
#
#
#
# Elastic Compliance Matrix: (Units=1/GPa)
#
#
# Indices 1 2 3 4 5 6 
#
# 1 0.007862 -0.003456 -0.001104 0.000000 0.000000 0.000000
# 2 -0.003456 0.014840 -0.001988 0.000000 0.000000 0.000000
# 3 -0.001104 -0.001988 0.019063 0.000000 0.000000 0.000000
# 4 0.000000 0.000000 0.000000 0.033747 0.000000 0.000000
# 5 0.000000 0.000000 0.000000 0.000000 0.027780 0.000000
# 6 0.000000 0.000000 0.000000 0.000000 0.000000 0.017176
#
#
# Mechanical properties :
#
#
# Convention : Reuss Voigt Hill
#
# Bulk Modulus (GPa) = 34.88177 43.35501 39.11839
# Shear Modulus (GPa) = 34.93555 39.31507 37.12531
#
# Velocity S-wave (km/s) = 3.93246 4.17167 4.05383
# Velocity P-wave (km/s) = 6.00495 6.51114 6.26316
#
# Compressibility (1/GPa) = 0.02866827
#
# Stress axis : x y z
#
# Youngs Moduli (GPa) = 127.19014 67.38656 52.45735
#
# Poissons Ratio (x) = 0.23290 0.05793
# Poissons Ratio (y) = 0.43959 0.10428
# Poissons Ratio (z) = 0.14047 0.13395
#
# Static dielectric constant tensor:
#      x y z
#    x 1.926620 0.000000 0.000000 
#    y 0.000000 1.944800 0.000000 
#    z 0.000000 0.000000 1.552940 
# 
# From -- ./inp_files/30997.got.cif
#   From: 2010.05.17/outbox.cif.g08.bks.cpg/sg24_16_cif.got.tgz:30997.got - 2010.06.04 00:33:39.
