data_PCOD9335458
_publ_section_title
;
Structure prediction by ZEFSAII (Michael W. Deem and Ramdas Pophale) SiO2 
 PCOD9335458
Probable space group: I 21 21 21
;
_chemical_formula_sum "Si O2"
_cell_formula_units_Z 64
_cell_length_a 25.533297
_cell_length_b 9.425366
_cell_length_c 14.007787
_cell_angle_alpha 90.000000
_cell_angle_beta 90.000000
_cell_angle_gamma 90.000000
_cell_volume 3371.123396
_symmetry_space_group_name_H-M "I 21 21 21"
_symmetry_group_IT_number 24
_symmetry_cell_setting 'orthorhombic'
loop_
_space_group_symop_operation_xyz
x,y,z
-x,1/2-y,z
x,-y,1/2-z
1/2-x,y,-z
1/2+x,1/2+y,1/2+z
1/2-x,-y,1/2+z
1/2+x,1/2-y,-z
-x,1/2+y,1/2-z
loop_
_atom_site_type_symbol
_atom_site_label
_atom_site_fract_x
_atom_site_fract_y
_atom_site_fract_z
Si Si1 0.173659 0.081983 0.150446
Si Si2 0.221170 0.928559 0.852741
Si Si3 0.299233 0.637744 0.565740
Si Si4 0.436536 0.239573 0.185061
Si Si5 0.382949 0.020606 0.037250
Si Si6 0.266025 0.591439 0.155089
Si Si7 0.061875 0.246486 0.591492
Si Si8 0.376041 0.477708 0.078045
O O1 0.191347 0.248315 0.150225
O O2 0.160849 0.000000 0.250000
O O3 0.224844 0.998385 0.113235
O O4 0.129925 0.075105 0.068575
O O5 0.231460 0.760605 0.842028
O O6 0.211267 0.000000 0.750000
O O7 0.171848 0.970094 0.916281
O O8 0.250000 0.691043 0.500000
O O9 0.280452 0.479109 0.593283
O O10 0.352501 0.620395 0.505738
O O11 0.500000 0.250000 0.176491
O O12 0.412373 0.123595 0.112656
O O13 0.422974 0.217631 0.296786
O O14 0.408251 0.383631 0.152640
O O15 0.417911 0.881871 0.029288
O O16 0.259615 0.500000 0.250000
O O17 0.322968 0.543480 0.119311
O O18 0.086834 0.391467 0.554047
O O19 0.000000 0.250000 0.590746
#
# Coordination Sequence:
#
# PCOD9335458 Si02
#       8
#     8   8   8   8   8   8   8   8
#     4  11  24  41  61  86 120 161 209 261 301 353
#     4  11  23  36  60  94 128 161 202 244 303 368
#     4  10  22  40  59  86 124 164 206 248 301 363
#     4  11  23  40  62  91 125 161 201 248 304 372
#     4  12  23  38  64  89 123 163 205 252 305 365
#     4  11  22  35  58  88 124 163 199 241 294 364
#     4  11  23  39  60  94 128 158 198 248 304 371
#     4  11  22  37  60  85 126 164 199 238 299 364
#
# _framework density 18.984769
#
# number of rings (size 3 to 8) (size 9 to 14) (size 15 to 20)
#    0.000    1.000    2.500    5.625    5.250    3.000 
#    0.000    0.000    0.000    0.750    0.000    0.000 
#    0.000    0.000    0.000    0.000    0.000    0.000 
#
# Total GULP energy -178532.050479 kJ/mol
# GULP energy per Si atom -5579.126577 kJ/mol
# Density = 1.894156 g / cm^3
# Si number density = 18.984769 Si / 1000 Ang^3
#
#
#
# Elastic Constant Matrix: (Units=GPa)
#
#
# Indices 1 2 3 4 5 6 
#
# 1 76.1796 26.3677 33.1577 0.0000 0.0000 0.0000
# 2 26.3677 118.4702 34.3444 0.0000 0.0000 0.0000
# 3 33.1577 34.3444 72.1761 0.0000 0.0000 0.0000
# 4 0.0000 0.0000 0.0000 30.8951 0.0000 0.0000
# 5 0.0000 0.0000 0.0000 0.0000 33.6228 0.0000
# 6 0.0000 0.0000 0.0000 0.0000 0.0000 22.6794
#
#
#
# Elastic Compliance Matrix: (Units=1/GPa)
#
#
# Indices 1 2 3 4 5 6 
#
# 1 0.016709 -0.001733 -0.006852 0.000000 0.000000 0.000000
# 2 -0.001733 0.009971 -0.003949 0.000000 0.000000 0.000000
# 3 -0.006852 -0.003949 0.018882 0.000000 0.000000 0.000000
# 4 0.000000 0.000000 0.000000 0.032368 0.000000 0.000000
# 5 0.000000 0.000000 0.000000 0.000000 0.029742 0.000000
# 6 0.000000 0.000000 0.000000 0.000000 0.000000 0.044093
#
#
# Mechanical properties :
#
#
# Convention : Reuss Voigt Hill
#
# Bulk Modulus (GPa) = 48.79059 50.50729 49.64894
# Shear Modulus (GPa) = 27.22397 28.96987 28.09692
#
# Velocity S-wave (km/s) = 3.79091 3.91058 3.85121
# Velocity P-wave (km/s) = 6.70202 6.85945 6.78119
#
# Compressibility (1/GPa) = 0.02049576
#
# Stress axis : x y z
#
# Youngs Moduli (GPa) = 59.84887 100.28764 52.96153
#
# Poissons Ratio (x) = 0.17376 0.36287
# Poissons Ratio (y) = 0.10369 0.20914
# Poissons Ratio (z) = 0.41006 0.39602
#
# Static dielectric constant tensor:
#      x y z
#    x 1.642650 0.000000 0.000000 
#    y 0.000000 1.647690 0.000000 
#    z 0.000000 0.000000 1.775440 
# 
# From -- ./inp_files/27896.got.cif
#   From: 2010.05.17/outbox.cif.g08.bks.cpg/sg24_14_cif.got.tgz:27896.got - 2010.06.04 00:33:39.
