data_PCOD9335260
_publ_section_title
;
Structure prediction by ZEFSAII (Michael W. Deem and Ramdas Pophale) SiO2 
 PCOD9335260
Probable space group: I 21 21 21
;
_chemical_formula_sum "Si O2"
_cell_formula_units_Z 48
_cell_length_a 20.034854
_cell_length_b 5.684895
_cell_length_c 19.353187
_cell_angle_alpha 90.000000
_cell_angle_beta 90.000000
_cell_angle_gamma 90.000000
_cell_volume 2204.251386
_symmetry_space_group_name_H-M "I 21 21 21"
_symmetry_group_IT_number 24
_symmetry_cell_setting 'orthorhombic'
loop_
_space_group_symop_operation_xyz
x,y,z
-x,1/2-y,z
x,-y,1/2-z
1/2-x,y,-z
1/2+x,1/2+y,1/2+z
1/2-x,-y,1/2+z
1/2+x,1/2-y,-z
-x,1/2+y,1/2-z
loop_
_atom_site_type_symbol
_atom_site_label
_atom_site_fract_x
_atom_site_fract_y
_atom_site_fract_z
Si Si1 0.434753 0.860958 0.480923
Si Si2 0.642967 0.000000 0.250000
Si Si3 0.392869 0.587677 0.613933
Si Si4 0.000000 0.750000 0.288936
Si Si5 0.140788 0.000000 0.750000
Si Si6 0.500000 0.750000 0.922590
Si Si7 0.307150 0.991807 0.098389
Si Si8 0.759188 0.009669 0.883110
O O1 0.500000 0.750000 0.444005
O O2 0.398319 0.681432 0.534557
O O3 0.381172 0.982864 0.432315
O O4 0.468649 0.051215 0.529887
O O5 0.604331 0.752064 0.250045
O O6 0.690663 0.994265 0.317504
O O7 0.433707 0.763862 0.662921
O O8 0.438691 0.357354 0.618320
O O9 0.318410 0.528781 0.635606
O O10 0.003428 0.500000 0.250000
O O11 0.186309 0.994209 0.818439
O O12 0.272897 0.240259 0.079270
O O13 0.273835 0.741311 0.079747
#
# Coordination Sequence:
#
# PCOD9335260 Si02
#       8
#     8   4   8   4   4   4   8   8
#     4  10  23  42  68  89 127 179 216 260 335 401
#     4   8  16  36  54  85 119 170 190 238 322 390
#     4  11  24  44  62  94 132 174 216 279 331 383
#     4  12  27  44  68  98 129 176 236 282 316 393
#     4   8  16  36  62  83 131 154 198 254 312 368
#     4  10  21  44  66  80 127 178 216 258 330 393
#     4  10  22  41  65  99 127 168 214 265 322 399
#     4  10  23  38  63  95 128 165 211 268 328 383
#
# _framework density 21.776098999999999
#
# number of rings (size 3 to 8) (size 9 to 14) (size 15 to 20)
#    0.000    2.000    2.500    0.500    8.167    0.667 
#    6.000    0.000    1.833    0.000    0.000    0.000 
#    0.000    0.000    0.000    0.000    0.000    0.000 
#
# Total GULP energy -133692.250665 kJ/mol
# GULP energy per Si atom -5570.510444 kJ/mol
# Density = 2.172654 g / cm^3
# Si number density = 21.776099 Si / 1000 Ang^3
#
#
#
# Elastic Constant Matrix: (Units=GPa)
#
#
# Indices 1 2 3 4 5 6 
#
# 1 89.5558 34.2907 20.2632 0.0000 0.0000 0.0000
# 2 34.2907 190.8857 11.2774 0.0000 0.0000 0.0000
# 3 20.2632 11.2774 62.4787 0.0000 0.0000 0.0000
# 4 0.0000 0.0000 0.0000 -2.5310 0.0000 0.0000
# 5 0.0000 0.0000 0.0000 0.0000 -1.1492 0.0000
# 6 0.0000 0.0000 0.0000 0.0000 0.0000 29.7947
#
#
#
# Elastic Compliance Matrix: (Units=1/GPa)
#
#
# Indices 1 2 3 4 5 6 
#
# 1 0.012818 -0.002079 -0.003782 0.000000 0.000000 0.000000
# 2 -0.002079 0.005632 -0.000342 0.000000 0.000000 0.000000
# 3 -0.003782 -0.000342 0.017294 0.000000 0.000000 0.000000
# 4 0.000000 0.000000 0.000000 -0.395101 0.000000 0.000000
# 5 0.000000 0.000000 0.000000 0.000000 -0.870184 0.000000
# 6 0.000000 0.000000 0.000000 0.000000 0.000000 0.033563
#
#
# Mechanical properties :
#
#
# Convention : Reuss Voigt Hill
#
# Bulk Modulus (GPa) = 42.84951 52.73143 47.79047
# Shear Modulus (GPa) = -4.25245 23.69550 9.72152
#
# Velocity S-wave (km/s) = -1.39894 3.30228 2.11518
# Velocity P-wave (km/s) = 4.13650 6.22960 5.28765
#
# Compressibility (1/GPa) = 0.02333749
#
# Stress axis : x y z
#
# Youngs Moduli (GPa) = 78.01499 177.54194 57.82424
#
# Poissons Ratio (x) = 0.36915 0.21868
# Poissons Ratio (y) = 0.16221 0.01980
# Poissons Ratio (z) = 0.29504 0.06078
#
# Static dielectric constant tensor:
#      x y z
#    x 1.938440 0.000000 0.000000 
#    y 0.000000 1.920260 0.000000 
#    z 0.000000 0.000000 1.847690 
# 
# From -- ./inp_files/5656.got.cif
#   From: 2010.05.17/outbox.cif.g08.bks.cpg/sg24_3_cif.got.tgz:5656.got - 2010.06.04 00:33:39.
