data_PCOD9335486
_publ_section_title
;
Structure prediction by ZEFSAII (Michael W. Deem and Ramdas Pophale) SiO2 
 PCOD9335486
Probable space group: I 21 21 21
;
_chemical_formula_sum "Si O2"
_cell_formula_units_Z 48
_cell_length_a 25.517832
_cell_length_b 16.897849
_cell_length_c 4.955898
_cell_angle_alpha 90.000000
_cell_angle_beta 90.000000
_cell_angle_gamma 90.000000
_cell_volume 2136.965733
_symmetry_space_group_name_H-M "I 21 21 21"
_symmetry_group_IT_number 24
_symmetry_cell_setting 'orthorhombic'
loop_
_space_group_symop_operation_xyz
x,y,z
-x,1/2-y,z
x,-y,1/2-z
1/2-x,y,-z
1/2+x,1/2+y,1/2+z
1/2-x,-y,1/2+z
1/2+x,1/2-y,-z
-x,1/2+y,1/2-z
loop_
_atom_site_type_symbol
_atom_site_label
_atom_site_fract_x
_atom_site_fract_y
_atom_site_fract_z
Si Si1 0.513991 0.913646 0.114361
Si Si2 0.634371 0.244642 0.790524
Si Si3 0.715278 0.373454 0.753377
Si Si4 0.131484 0.000000 0.250000
Si Si5 0.287102 0.500000 0.250000
Si Si6 0.051161 0.123478 0.089228
Si Si7 0.368466 0.639911 0.205064
O O1 0.479495 0.860056 0.315346
O O2 0.574715 0.892171 0.120255
O O3 0.508784 0.000000 0.250000
O O4 0.489302 0.904041 0.819830
O O5 0.683647 0.298925 0.868633
O O6 0.583454 0.300083 0.816980
O O7 0.642263 0.213890 0.489076
O O8 0.629637 0.170719 0.989481
O O9 0.750000 0.350655 0.500000
O O10 0.671313 0.434101 0.640273
O O11 0.750000 0.407660 0.000000
O O12 0.093310 0.948426 0.440280
O O13 0.250000 0.521019 0.500000
O O14 0.324652 0.573100 0.175403
#
# Coordination Sequence:
#
# PCOD9335486 Si02
#       7
#     8   8   8   4   4   8   8
#     4  12  23  42  69  97 134 170 220 266 321 389
#     4  11  26  43  67  98 137 172 216 272 330 394
#     4  11  24  41  64  93 128 173 219 265 321 375
#     4  10  22  40  63  94 133 170 222 262 302 380
#     4  12  28  48  73 100 125 170 230 282 340 394
#     4  11  24  41  66 101 136 180 214 259 322 386
#     4  12  26  47  69  99 131 169 219 277 331 394
#
# _framework density 22.461756999999999
#
# number of rings (size 3 to 8) (size 9 to 14) (size 15 to 20)
#    0.000    0.667    2.500    4.500    0.000   13.333 
#    0.000    0.000    0.000    0.000    0.000    0.000 
#    0.000    0.000    0.000    0.000    0.000    0.000 
#
# Total GULP energy -134312.441511 kJ/mol
# GULP energy per Si atom -5596.351730 kJ/mol
# Density = 2.241063 g / cm^3
# Si number density = 22.461757 Si / 1000 Ang^3
#
#
#
# Elastic Constant Matrix: (Units=GPa)
#
#
# Indices 1 2 3 4 5 6 
#
# 1 143.3891 33.0484 27.5535 0.0000 0.0000 0.0000
# 2 33.0484 60.2696 -10.2307 0.0000 0.0000 0.0000
# 3 27.5535 -10.2307 83.6725 0.0000 0.0000 0.0000
# 4 0.0000 0.0000 0.0000 27.9745 0.0000 0.0000
# 5 0.0000 0.0000 0.0000 0.0000 17.2787 0.0000
# 6 0.0000 0.0000 0.0000 0.0000 0.0000 26.9888
#
#
#
# Elastic Compliance Matrix: (Units=1/GPa)
#
#
# Indices 1 2 3 4 5 6 
#
# 1 0.008941 -0.005517 -0.003619 0.000000 0.000000 0.000000
# 2 -0.005517 0.020348 0.004305 0.000000 0.000000 0.000000
# 3 -0.003619 0.004305 0.013669 0.000000 0.000000 0.000000
# 4 0.000000 0.000000 0.000000 0.035747 0.000000 0.000000
# 5 0.000000 0.000000 0.000000 0.000000 0.057875 0.000000
# 6 0.000000 0.000000 0.000000 0.000000 0.000000 0.037052
#
#
# Mechanical properties :
#
#
# Convention : Reuss Voigt Hill
#
# Bulk Modulus (GPa) = 30.03349 43.11930 36.57639
# Shear Modulus (GPa) = 25.72100 30.24571 27.98336
#
# Velocity S-wave (km/s) = 3.38761 3.67351 3.53345
# Velocity P-wave (km/s) = 5.35734 6.10175 5.74162
#
# Compressibility (1/GPa) = 0.03329616
#
# Stress axis : x y z
#
# Youngs Moduli (GPa) = 111.84436 49.14470 73.15612
#
# Poissons Ratio (x) = 0.27113 0.26474
# Poissons Ratio (y) = 0.61705 -0.31492
# Poissons Ratio (z) = 0.40475 -0.21156
#
# Static dielectric constant tensor:
#      x y z
#    x 1.810430 0.000000 0.000000 
#    y 0.000000 1.861150 0.000000 
#    z 0.000000 0.000000 1.761020 
# 
# From -- ./inp_files/6423.got.cif
#   From: 2010.05.17/outbox.cif.g08.bks.cpg/sg24_4_cif.got.tgz:6423.got - 2010.06.04 00:33:39.
