data_PCOD9335799
_publ_section_title
;
Structure prediction by ZEFSAII (Michael W. Deem and Ramdas Pophale) SiO2 
 PCOD9335799
Probable space group: I 21 21 21
;
_chemical_formula_sum "Si O2"
_cell_formula_units_Z 60
_cell_length_a 9.120927
_cell_length_b 11.580382
_cell_length_c 27.464515
_cell_angle_alpha 90.000000
_cell_angle_beta 90.000000
_cell_angle_gamma 90.000000
_cell_volume 2900.906957
_symmetry_space_group_name_H-M "I 21 21 21"
_symmetry_group_IT_number 24
_symmetry_cell_setting 'orthorhombic'
loop_
_space_group_symop_operation_xyz
x,y,z
-x,1/2-y,z
x,-y,1/2-z
1/2-x,y,-z
1/2+x,1/2+y,1/2+z
1/2-x,-y,1/2+z
1/2+x,1/2-y,-z
-x,1/2+y,1/2-z
loop_
_atom_site_type_symbol
_atom_site_label
_atom_site_fract_x
_atom_site_fract_y
_atom_site_fract_z
Si Si1 0.670555 0.517865 0.448793
Si Si2 0.663436 0.987638 0.047484
Si Si3 0.032599 0.119119 0.781346
Si Si4 0.671458 0.256474 0.410386
Si Si5 0.234204 0.406555 0.850654
Si Si6 0.500000 0.750000 0.859157
Si Si7 0.207872 0.144190 0.146033
Si Si8 0.986802 0.985835 0.194869
O O1 0.750000 0.537931 0.500000
O O2 0.498646 0.538116 0.455111
O O3 0.684527 0.383565 0.432926
O O4 0.729027 0.593550 0.404046
O O5 0.659181 0.848532 0.051666
O O6 0.731862 0.029796 0.098044
O O7 0.750000 0.023198 0.000000
O O8 0.925293 0.111213 0.827837
O O9 0.000000 0.250000 0.759332
O O10 0.190562 0.120357 0.806720
O O11 0.018120 0.000000 0.750000
O O12 0.500000 0.250000 0.386436
O O13 0.836365 0.239405 0.385420
O O14 0.302537 0.280763 0.857147
O O15 0.317018 0.483624 0.810954
O O16 0.482363 0.860817 0.825467
O O17 0.062493 0.075638 0.158721
O O18 0.034096 0.000000 0.250000
#
# Coordination Sequence:
#
# PCOD9335799 Si02
#       8
#     8   8   8   8   8   4   8   8
#     4  11  24  42  68 101 139 180 233 287 353 424
#     4  11  24  42  68 101 139 180 233 287 353 424
#     4  10  22  46  70 100 136 179 230 290 355 422
#     4  10  23  45  68 106 144 188 232 298 359 426
#     4  11  24  45  67  95 140 181 223 288 350 416
#     4  12  24  44  82 102 146 188 232 298 354 420
#     4  11  24  45  67  95 140 181 223 288 350 416
#     4  12  27  46  70 102 138 177 239 287 354 422
#
# _framework density 20.683185999999999
#
# number of rings (size 3 to 8) (size 9 to 14) (size 15 to 20)
#    0.000    1.067    4.000    1.600    5.600    0.533 
#    4.800    0.000    0.000    0.000    0.000    0.000 
#    0.000    0.000    0.000    0.000    0.000    0.000 
#
# Total GULP energy -167192.847167 kJ/mol
# GULP energy per Si atom -5573.094906 kJ/mol
# Density = 2.063611 g / cm^3
# Si number density = 20.683186 Si / 1000 Ang^3
#
#
#
# Elastic Constant Matrix: (Units=GPa)
#
#
# Indices 1 2 3 4 5 6 
#
# 1 104.5987 13.9574 44.4451 0.0000 0.0000 0.0000
# 2 13.9574 104.0831 49.8887 0.0000 0.0000 0.0000
# 3 44.4451 49.8887 110.6581 0.0000 0.0000 0.0000
# 4 0.0000 0.0000 0.0000 16.6458 0.0000 0.0000
# 5 0.0000 0.0000 0.0000 0.0000 18.3278 0.0000
# 6 0.0000 0.0000 0.0000 0.0000 0.0000 20.9912
#
#
#
# Elastic Compliance Matrix: (Units=1/GPa)
#
#
# Indices 1 2 3 4 5 6 
#
# 1 0.011588 0.000864 -0.005044 0.000000 0.000000 0.000000
# 2 0.000864 0.012321 -0.005901 0.000000 0.000000 0.000000
# 3 -0.005044 -0.005901 0.013723 0.000000 0.000000 0.000000
# 4 0.000000 0.000000 0.000000 0.060075 0.000000 0.000000
# 5 0.000000 0.000000 0.000000 0.000000 0.054562 0.000000
# 6 0.000000 0.000000 0.000000 0.000000 0.000000 0.047639
#
#
# Mechanical properties :
#
#
# Convention : Reuss Voigt Hill
#
# Bulk Modulus (GPa) = 57.24453 59.54694 58.39573
# Shear Modulus (GPa) = 22.13429 25.26288 23.69858
#
# Velocity S-wave (km/s) = 3.27488 3.49867 3.38862
# Velocity P-wave (km/s) = 6.48357 6.72112 6.60341
#
# Compressibility (1/GPa) = 0.01746892
#
# Stress axis : x y z
#
# Youngs Moduli (GPa) = 86.29452 81.16537 72.86960
#
# Poissons Ratio (x) = -0.07009 0.36753
# Poissons Ratio (y) = -0.07452 0.43003
# Poissons Ratio (z) = 0.43524 0.47899
#
# Static dielectric constant tensor:
#      x y z
#    x 1.850620 0.000000 0.000000 
#    y 0.000000 1.734610 0.000000 
#    z 0.000000 0.000000 1.831480 
# 
# From -- ./inp_files/36926.got.cif
#   From: 2010.05.17/outbox.cif.g08.bks.cpg/sg24_19_cif.got.tgz:36926.got - 2010.06.04 00:33:39.
