data_PCOD9335174
_publ_section_title
;
Structure prediction by ZEFSAII (Michael W. Deem and Ramdas Pophale) SiO2 
 PCOD9335174
Probable space group: I 21 21 21
;
_chemical_formula_sum "Si O2"
_cell_formula_units_Z 32
_cell_length_a 25.061514
_cell_length_b 6.415931
_cell_length_c 9.643663
_cell_angle_alpha 90.000000
_cell_angle_beta 90.000000
_cell_angle_gamma 90.000000
_cell_volume 1550.632970
_symmetry_space_group_name_H-M "I 21 21 21"
_symmetry_group_IT_number 24
_symmetry_cell_setting 'orthorhombic'
loop_
_space_group_symop_operation_xyz
x,y,z
-x,1/2-y,z
x,-y,1/2-z
1/2-x,y,-z
1/2+x,1/2+y,1/2+z
1/2-x,-y,1/2+z
1/2+x,1/2-y,-z
-x,1/2+y,1/2-z
loop_
_atom_site_type_symbol
_atom_site_label
_atom_site_fract_x
_atom_site_fract_y
_atom_site_fract_z
Si Si1 0.854191 0.000000 0.750000
Si Si2 0.601930 0.609919 0.889892
Si Si3 0.157035 0.500000 0.250000
Si Si4 0.058250 0.188788 0.657320
Si Si5 0.309756 0.216161 0.999424
O O1 0.895659 0.860186 0.837435
O O2 0.823378 0.849677 0.639732
O O3 0.584802 0.500000 0.750000
O O4 0.623705 0.167825 0.661254
O O5 0.554665 0.622043 0.998985
O O6 0.647714 0.466562 0.964006
O O7 0.188521 0.629060 0.366665
O O8 0.000000 0.250000 0.711115
O O9 0.077893 0.000000 0.750000
O O10 0.250000 0.127037 0.000000
#
# Coordination Sequence:
#
# PCOD9335174 Si02
#       5
#     4   8   4   8   8
#     4  12  23  42  68  98 134 170 224 279 336 402
#     4  10  23  44  63  90 135 171 221 277 325 401
#     4  10  21  42  62  86 134 172 212 271 328 388
#     4  12  24  44  69  97 129 175 223 279 342 399
#     4  11  23  40  65  97 129 177 222 273 338 401
#
# _framework density 20.636735000000002
#
# number of rings (size 3 to 8) (size 9 to 14) (size 15 to 20)
#    0.000    1.000    6.250    0.750    0.000    1.000 
#   15.750    0.000    0.000    0.000    0.000    0.000 
#    0.000    0.000    0.000    0.000    0.000    0.000 
#
# Total GULP energy -89220.566383 kJ/mol
# GULP energy per Si atom -5576.285399 kJ/mol
# Density = 2.058976 g / cm^3
# Si number density = 20.636735 Si / 1000 Ang^3
#
#
#
# Elastic Constant Matrix: (Units=GPa)
#
#
# Indices 1 2 3 4 5 6 
#
# 1 43.4029 8.2487 12.8687 0.0000 0.0000 0.0000
# 2 8.2487 79.9590 22.4358 0.0000 0.0000 0.0000
# 3 12.8687 22.4358 119.8474 0.0000 0.0000 0.0000
# 4 0.0000 0.0000 0.0000 25.6173 0.0000 0.0000
# 5 0.0000 0.0000 0.0000 0.0000 -2.1542 0.0000
# 6 0.0000 0.0000 0.0000 0.0000 0.0000 15.5302
#
#
#
# Elastic Compliance Matrix: (Units=1/GPa)
#
#
# Indices 1 2 3 4 5 6 
#
# 1 0.024055 -0.001854 -0.002236 0.000000 0.000000 0.000000
# 2 -0.001854 0.013343 -0.002299 0.000000 0.000000 0.000000
# 3 -0.002236 -0.002299 0.009014 0.000000 0.000000 0.000000
# 4 0.000000 0.000000 0.000000 0.039036 0.000000 0.000000
# 5 0.000000 0.000000 0.000000 0.000000 -0.464204 0.000000
# 6 0.000000 0.000000 0.000000 0.000000 0.000000 0.064391
#
#
# Mechanical properties :
#
#
# Convention : Reuss Voigt Hill
#
# Bulk Modulus (GPa) = 29.73112 36.70174 33.21643
# Shear Modulus (GPa) = -17.21906 21.10907 1.94500
#
# Velocity S-wave (km/s) = -2.89171 3.20173 0.97188
# Velocity P-wave (km/s) = 1.81351 5.61172 4.17014
#
# Compressibility (1/GPa) = 0.03363479
#
# Stress axis : x y z
#
# Youngs Moduli (GPa) = 41.57098 74.94742 110.93431
#
# Poissons Ratio (x) = 0.13897 0.24803
# Poissons Ratio (y) = 0.07708 0.25500
# Poissons Ratio (z) = 0.09295 0.17228
#
# Static dielectric constant tensor:
#      x y z
#    x 1.702170 0.000000 0.000000 
#    y 0.000000 2.647580 0.000000 
#    z 0.000000 0.000000 1.772330 
# 
# From -- ./inp_files/16636.got.cif
#   From: 2010.05.17/outbox.cif.g08.bks.cpg/sg24_9_cif.got.tgz:16636.got - 2010.06.04 00:33:39.
