data_PCOD9335967
_publ_section_title
;
Structure prediction by ZEFSAII (Michael W. Deem and Ramdas Pophale) SiO2 
 PCOD9335967
Probable space group: I 21 21 21
;
_chemical_formula_sum "Si O2"
_cell_formula_units_Z 32
_cell_length_a 5.109749
_cell_length_b 23.922338
_cell_length_c 11.138192
_cell_angle_alpha 90.000000
_cell_angle_beta 90.000000
_cell_angle_gamma 90.000000
_cell_volume 1361.500765
_symmetry_space_group_name_H-M "I 21 21 21"
_symmetry_group_IT_number 24
_symmetry_cell_setting 'orthorhombic'
loop_
_space_group_symop_operation_xyz
x,y,z
-x,1/2-y,z
x,-y,1/2-z
1/2-x,y,-z
1/2+x,1/2+y,1/2+z
1/2-x,-y,1/2+z
1/2+x,1/2-y,-z
-x,1/2+y,1/2-z
loop_
_atom_site_type_symbol
_atom_site_label
_atom_site_fract_x
_atom_site_fract_y
_atom_site_fract_z
Si Si1 0.156362 0.349158 0.385164
Si Si2 0.871725 0.579371 0.838223
Si Si3 0.748057 0.210264 0.870037
Si Si4 0.021170 0.955096 0.575434
O O1 0.250000 0.310407 0.500000
O O2 0.386694 0.393504 0.403117
O O3 0.209601 0.320504 0.256424
O O4 0.881751 0.382412 0.364103
O O5 0.973664 0.576764 0.701240
O O6 0.862003 0.515951 0.885361
O O7 0.500000 0.250000 0.881924
O O8 0.000000 0.250000 0.860401
O O9 0.750000 0.177946 0.000000
O O10 0.250000 0.926869 0.500000
O O11 0.750000 0.959619 0.500000
#
# Coordination Sequence:
#
# PCOD9335967 Si02
#       4
#     8   8   8   8
#     4  12  24  40  65  95 129 168 211 269 336 402
#     4  11  24  39  59  92 129 168 218 275 329 389
#     4  10  23  44  67  92 125 165 210 268 335 405
#     4  11  22  39  61  85 124 176 225 271 324 388
#
# _framework density 23.503474000000001
#
# number of rings (size 3 to 8) (size 9 to 14) (size 15 to 20)
#    0.000    1.000    0.000    7.500    0.000    8.000 
#    0.000    0.000    0.000    0.000    0.000    0.000 
#    0.000    0.000    0.000    0.000    0.000    0.000 
#
# Total GULP energy -89133.291966 kJ/mol
# GULP energy per Si atom -5570.830748 kJ/mol
# Density = 2.344998 g / cm^3
# Si number density = 23.503474 Si / 1000 Ang^3
#
#
#
# Elastic Constant Matrix: (Units=GPa)
#
#
# Indices 1 2 3 4 5 6 
#
# 1 206.1278 40.3809 81.8890 0.0000 0.0000 0.0000
# 2 40.3809 35.6817 42.1928 0.0000 0.0000 0.0000
# 3 81.8890 42.1928 233.8637 0.0000 0.0000 0.0000
# 4 0.0000 0.0000 0.0000 9.7311 0.0000 0.0000
# 5 0.0000 0.0000 0.0000 0.0000 46.3995 0.0000
# 6 0.0000 0.0000 0.0000 0.0000 0.0000 25.3320
#
#
#
# Elastic Compliance Matrix: (Units=1/GPa)
#
#
# Indices 1 2 3 4 5 6 
#
# 1 0.006490 -0.005920 -0.001204 0.000000 0.000000 0.000000
# 2 -0.005920 0.041027 -0.005329 0.000000 0.000000 0.000000
# 3 -0.001204 -0.005329 0.005659 0.000000 0.000000 0.000000
# 4 0.000000 0.000000 0.000000 0.102764 0.000000 0.000000
# 5 0.000000 0.000000 0.000000 0.000000 0.021552 0.000000
# 6 0.000000 0.000000 0.000000 0.000000 0.000000 0.039476
#
#
# Mechanical properties :
#
#
# Convention : Reuss Voigt Hill
#
# Bulk Modulus (GPa) = 35.37486 89.39985 62.38736
# Shear Modulus (GPa) = 19.89684 37.03990 28.46837
#
# Velocity S-wave (km/s) = 2.91271 3.97411 3.48406
# Velocity P-wave (km/s) = 5.13765 7.69269 6.54114
#
# Compressibility (1/GPa) = 0.02826866
#
# Stress axis : x y z
#
# Youngs Moduli (GPa) = 154.09368 24.37437 176.70673
#
# Poissons Ratio (x) = 0.14430 0.21280
# Poissons Ratio (y) = 0.91226 0.94165
# Poissons Ratio (z) = 0.18557 0.12989
#
# Static dielectric constant tensor:
#      x y z
#    x 1.811950 0.000000 0.000000 
#    y 0.000000 1.976780 0.000000 
#    z 0.000000 0.000000 1.800150 
# 
# From -- ./inp_files/8238.got.cif
#   From: 2010.05.17/outbox.cif.g08.bks.cpg/sg24_5_cif.got.tgz:8238.got - 2010.06.04 00:33:39.
