data_PCOD9335447
_publ_section_title
;
Structure prediction by ZEFSAII (Michael W. Deem and Ramdas Pophale) SiO2 
 PCOD9335447
Probable space group: I 21 21 21
;
_chemical_formula_sum "Si O2"
_cell_formula_units_Z 32
_cell_length_a 15.066201
_cell_length_b 7.520608
_cell_length_c 13.064728
_cell_angle_alpha 90.000000
_cell_angle_beta 90.000000
_cell_angle_gamma 90.000000
_cell_volume 1480.325028
_symmetry_space_group_name_H-M "I 21 21 21"
_symmetry_group_IT_number 24
_symmetry_cell_setting 'orthorhombic'
loop_
_space_group_symop_operation_xyz
x,y,z
-x,1/2-y,z
x,-y,1/2-z
1/2-x,y,-z
1/2+x,1/2+y,1/2+z
1/2-x,-y,1/2+z
1/2+x,1/2-y,-z
-x,1/2+y,1/2-z
loop_
_atom_site_type_symbol
_atom_site_label
_atom_site_fract_x
_atom_site_fract_y
_atom_site_fract_z
Si Si1 0.330391 0.701462 0.122440
Si Si2 0.601057 0.067710 0.960404
Si Si3 0.814138 0.000000 0.250000
Si Si4 0.476140 0.500000 0.250000
Si Si5 0.913679 0.554155 0.552722
O O1 0.247358 0.648735 0.193741
O O2 0.413009 0.643705 0.194640
O O3 0.343899 0.898083 0.076362
O O4 0.342803 0.573233 0.025150
O O5 0.627644 0.075184 0.842595
O O6 0.497305 0.014300 0.976933
O O7 0.620430 0.257741 0.013042
O O8 0.537253 0.573708 0.339327
#
# Coordination Sequence:
#
# PCOD9335447 Si02
#       5
#     8   8   4   4   8
#     4  10  22  40  66  98 139 176 226 291 353 424
#     4  10  22  43  66 100 139 177 240 291 340 429
#     4  11  24  44  68  98 149 194 216 299 384 406
#     4   9  18  32  68 104 125 166 230 287 340 398
#     4  10  22  39  69 103 128 180 239 286 335 429
#
# _framework density 21.616873999999999
#
# number of rings (size 3 to 8) (size 9 to 14) (size 15 to 20)
#    0.000    2.000    0.000    3.750   17.500    0.000 
#    9.000    7.500    5.500    0.000    0.000    0.000 
#    0.000    0.000    0.000    0.000    0.000    0.000 
#
# Total GULP energy -89322.952150 kJ/mol
# GULP energy per Si atom -5582.684509 kJ/mol
# Density = 2.156767 g / cm^3
# Si number density = 21.616874 Si / 1000 Ang^3
#
#
#
# Elastic Constant Matrix: (Units=GPa)
#
#
# Indices 1 2 3 4 5 6 
#
# 1 41.7715 17.5766 33.4346 0.0000 0.0000 0.0000
# 2 17.5766 86.8648 31.7729 0.0000 0.0000 0.0000
# 3 33.4346 31.7729 163.7442 0.0000 0.0000 0.0000
# 4 0.0000 0.0000 0.0000 10.5099 0.0000 0.0000
# 5 0.0000 0.0000 0.0000 0.0000 32.2409 0.0000
# 6 0.0000 0.0000 0.0000 0.0000 0.0000 3.9509
#
#
#
# Elastic Compliance Matrix: (Units=1/GPa)
#
#
# Indices 1 2 3 4 5 6 
#
# 1 0.029922 -0.004112 -0.005312 0.000000 0.000000 0.000000
# 2 -0.004112 0.012957 -0.001675 0.000000 0.000000 0.000000
# 3 -0.005312 -0.001675 0.007517 0.000000 0.000000 0.000000
# 4 0.000000 0.000000 0.000000 0.095149 0.000000 0.000000
# 5 0.000000 0.000000 0.000000 0.000000 0.031017 0.000000
# 6 0.000000 0.000000 0.000000 0.000000 0.000000 0.253106
#
#
# Mechanical properties :
#
#
# Convention : Reuss Voigt Hill
#
# Bulk Modulus (GPa) = 35.46237 50.88319 43.17278
# Shear Modulus (GPa) = 10.83984 23.31342 17.07663
#
# Velocity S-wave (km/s) = 2.24174 3.28759 2.81369
# Velocity P-wave (km/s) = 4.81052 6.16447 5.52910
#
# Compressibility (1/GPa) = 0.02819891
#
# Stress axis : x y z
#
# Youngs Moduli (GPa) = 33.42075 77.18077 133.03836
#
# Poissons Ratio (x) = 0.31733 0.70668
# Poissons Ratio (y) = 0.13741 0.22278
# Poissons Ratio (z) = 0.17753 0.12924
#
# Static dielectric constant tensor:
#      x y z
#    x 1.863090 0.000000 0.000000 
#    y 0.000000 1.842710 0.000000 
#    z 0.000000 0.000000 1.746930 
# 
# From -- ./inp_files/12138.got.cif
#   From: 2010.05.17/outbox.cif.g08.bks.cpg/sg24_7_cif.got.tgz:12138.got - 2010.06.04 00:33:39.
