data_PCOD9335347
_publ_section_title
;
Structure prediction by ZEFSAII (Michael W. Deem and Ramdas Pophale) SiO2 
 PCOD9335347
Probable space group: I 21 21 21
;
_chemical_formula_sum "Si O2"
_cell_formula_units_Z 60
_cell_length_a 12.684607
_cell_length_b 13.674318
_cell_length_c 19.156729
_cell_angle_alpha 90.000000
_cell_angle_beta 90.000000
_cell_angle_gamma 90.000000
_cell_volume 3322.798817
_symmetry_space_group_name_H-M "I 21 21 21"
_symmetry_group_IT_number 24
_symmetry_cell_setting 'orthorhombic'
loop_
_space_group_symop_operation_xyz
x,y,z
-x,1/2-y,z
x,-y,1/2-z
1/2-x,y,-z
1/2+x,1/2+y,1/2+z
1/2-x,-y,1/2+z
1/2+x,1/2-y,-z
-x,1/2+y,1/2-z
loop_
_atom_site_type_symbol
_atom_site_label
_atom_site_fract_x
_atom_site_fract_y
_atom_site_fract_z
Si Si1 0.872046 0.465091 0.416815
Si Si2 0.530735 0.636713 0.191615
Si Si3 0.129041 0.005882 0.575457
Si Si4 0.852360 0.000000 0.750000
Si Si5 0.897652 0.681238 0.659644
Si Si6 0.386990 0.200769 0.692228
Si Si7 0.004142 0.419232 0.194853
Si Si8 0.218943 0.322656 0.201025
O O1 0.903847 0.463423 0.497661
O O2 0.754606 0.507281 0.418381
O O3 0.860945 0.363031 0.375057
O O4 0.952536 0.528804 0.371085
O O5 0.500000 0.750000 0.180959
O O6 0.593479 0.589787 0.128454
O O7 0.427950 0.569789 0.204451
O O8 0.597289 0.631737 0.263592
O O9 0.087729 0.901547 0.601903
O O10 0.781960 0.924124 0.706496
O O11 0.791564 0.746508 0.658690
O O12 0.000000 0.750000 0.657726
O O13 0.500000 0.250000 0.678076
O O14 0.412635 0.132618 0.759625
O O15 0.301856 0.277391 0.721245
O O16 0.047402 0.500000 0.250000
O O17 0.100160 0.347197 0.176090
#
# Coordination Sequence:
#
# PCOD9335347 Si02
#       8
#     8   8   8   4   8   8   8   8
#     4  10  22  37  55  82 116 154 192 229 282 343
#     4  11  21  36  59  87 113 147 191 242 288 341
#     4  11  22  38  57  80 119 155 189 237 283 339
#     4  12  20  34  58  92 116 140 188 242 296 342
#     4  11  20  36  57  85 110 150 193 240 292 339
#     4   9  19  34  57  84 110 146 189 236 287 338
#     4   9  18  35  56  87 116 148 188 238 288 339
#     4  11  19  32  60  89 115 146 187 245 294 342
#
# _framework density 18.057068000000001
#
# number of rings (size 3 to 8) (size 9 to 14) (size 15 to 20)
#    0.000    1.600    4.667    1.600    0.000    2.667 
#    0.000    4.667    0.000    2.400    0.000    0.000 
#    0.000    0.000    0.000    0.000    0.000    0.000 
#
# Total GULP energy -167264.130877 kJ/mol
# GULP energy per Si atom -5575.471029 kJ/mol
# Density = 1.801597 g / cm^3
# Si number density = 18.057068 Si / 1000 Ang^3
#
#
#
# Elastic Constant Matrix: (Units=GPa)
#
#
# Indices 1 2 3 4 5 6 
#
# 1 61.5462 23.1095 32.6340 0.0000 0.0000 0.0000
# 2 23.1095 96.9506 38.8296 0.0000 0.0000 0.0000
# 3 32.6340 38.8296 87.1111 0.0000 0.0000 0.0000
# 4 0.0000 0.0000 0.0000 5.6162 0.0000 0.0000
# 5 0.0000 0.0000 0.0000 0.0000 7.5606 0.0000
# 6 0.0000 0.0000 0.0000 0.0000 0.0000 34.0352
#
#
#
# Elastic Compliance Matrix: (Units=1/GPa)
#
#
# Indices 1 2 3 4 5 6 
#
# 1 0.020661 -0.002221 -0.006750 0.000000 0.000000 0.000000
# 2 -0.002221 0.012795 -0.004871 0.000000 0.000000 0.000000
# 3 -0.006750 -0.004871 0.016180 0.000000 0.000000 0.000000
# 4 0.000000 0.000000 0.000000 0.178058 0.000000 0.000000
# 5 0.000000 0.000000 0.000000 0.000000 0.132265 0.000000
# 6 0.000000 0.000000 0.000000 0.000000 0.000000 0.029381
#
#
# Mechanical properties :
#
#
# Convention : Reuss Voigt Hill
#
# Bulk Modulus (GPa) = 45.55678 48.30600 46.93139
# Shear Modulus (GPa) = 11.78296 19.51139 15.64718
#
# Velocity S-wave (km/s) = 2.55726 3.29072 2.94690
# Velocity P-wave (km/s) = 5.83125 6.42249 6.13400
#
# Compressibility (1/GPa) = 0.02195063
#
# Stress axis : x y z
#
# Youngs Moduli (GPa) = 48.40005 78.15575 61.80621
#
# Poissons Ratio (x) = 0.17362 0.41719
# Poissons Ratio (y) = 0.10752 0.30107
# Poissons Ratio (z) = 0.32670 0.38071
#
# Static dielectric constant tensor:
#      x y z
#    x 1.653570 0.000000 0.000000 
#    y 0.000000 1.676020 0.000000 
#    z 0.000000 0.000000 1.596670 
# 
# From -- ./inp_files/21679.got.cif
#   From: 2010.05.17/outbox.cif.g08.bks.cpg/sg24_11_cif.got.tgz:21679.got - 2010.06.04 00:33:39.
