data_PCOD9335084
_publ_section_title
;
Structure prediction by ZEFSAII (Michael W. Deem and Ramdas Pophale) SiO2 
 PCOD9335084
Probable space group: I 21 21 21
;
_chemical_formula_sum "Si O2"
_cell_formula_units_Z 32
_cell_length_a 5.237761
_cell_length_b 7.888067
_cell_length_c 37.666041
_cell_angle_alpha 90.000000
_cell_angle_beta 90.000000
_cell_angle_gamma 90.000000
_cell_volume 1556.202982
_symmetry_space_group_name_H-M "I 21 21 21"
_symmetry_group_IT_number 24
_symmetry_cell_setting 'orthorhombic'
loop_
_space_group_symop_operation_xyz
x,y,z
-x,1/2-y,z
x,-y,1/2-z
1/2-x,y,-z
1/2+x,1/2+y,1/2+z
1/2-x,-y,1/2+z
1/2+x,1/2-y,-z
-x,1/2+y,1/2-z
loop_
_atom_site_type_symbol
_atom_site_label
_atom_site_fract_x
_atom_site_fract_y
_atom_site_fract_z
Si Si1 0.748481 0.867191 0.361001
Si Si2 0.750000 0.849380 0.000000
Si Si3 0.500000 0.750000 0.525631
Si Si4 0.749670 0.133412 0.218468
Si Si5 0.875676 0.933991 0.070362
O O1 0.500000 0.750000 0.364820
O O2 0.744084 0.944387 0.321320
O O3 0.000000 0.750000 0.363085
O O4 0.763274 0.997545 0.393173
O O5 0.500000 0.750000 0.989354
O O6 0.670222 0.923857 0.038171
O O7 0.750000 0.764741 0.500000
O O8 0.539744 0.586348 0.551376
O O9 0.500000 0.250000 0.221614
O O10 0.000000 0.250000 0.220689
O O11 0.752916 0.000000 0.250000
O O12 0.000000 0.750000 0.078065
#
# Coordination Sequence:
#
# PCOD9335084 Si02
#       5
#     8   4   4   8   8
#     4  10  23  42  63  92 130 170 213 266 331 386
#     4  10  24  40  58  86 120 154 206 266 308 366
#     4  12  28  42  66  92 124 176 216 272 338 384
#     4  10  21  40  66  96 132 172 214 267 322 391
#     4  11  25  42  67  92 128 168 221 272 319 398
#
# _framework density 20.562871999999999
#
# number of rings (size 3 to 8) (size 9 to 14) (size 15 to 20)
#    0.000    1.500    2.500    0.750    8.750    5.000 
#    0.000    1.250    0.000    0.000    0.000    0.000 
#    0.000    0.000    0.000    0.000    0.000    0.000 
#
# Total GULP energy -89082.447449 kJ/mol
# GULP energy per Si atom -5567.652966 kJ/mol
# Density = 2.051607 g / cm^3
# Si number density = 20.562872 Si / 1000 Ang^3
#
#
#
# Elastic Constant Matrix: (Units=GPa)
#
#
# Indices 1 2 3 4 5 6 
#
# 1 122.2930 28.5174 47.4399 0.0000 0.0000 0.0000
# 2 28.5174 108.8928 89.8223 0.0000 0.0000 0.0000
# 3 47.4399 89.8223 261.3433 0.0000 0.0000 0.0000
# 4 0.0000 0.0000 0.0000 52.6334 0.0000 0.0000
# 5 0.0000 0.0000 0.0000 0.0000 22.7500 0.0000
# 6 0.0000 0.0000 0.0000 0.0000 0.0000 16.3192
#
#
#
# Elastic Compliance Matrix: (Units=1/GPa)
#
#
# Indices 1 2 3 4 5 6 
#
# 1 0.008947 -0.001400 -0.001143 0.000000 0.000000 0.000000
# 2 -0.001400 0.013036 -0.004226 0.000000 0.000000 0.000000
# 3 -0.001143 -0.004226 0.005486 0.000000 0.000000 0.000000
# 4 0.000000 0.000000 0.000000 0.018999 0.000000 0.000000
# 5 0.000000 0.000000 0.000000 0.000000 0.043956 0.000000
# 6 0.000000 0.000000 0.000000 0.000000 0.000000 0.061278
#
#
# Mechanical properties :
#
#
# Convention : Reuss Voigt Hill
#
# Bulk Modulus (GPa) = 71.78440 91.56535 81.67488
# Shear Modulus (GPa) = 29.43169 40.12382 34.77776
#
# Velocity S-wave (km/s) = 3.78736 4.42212 4.11699
# Velocity P-wave (km/s) = 7.35602 8.40831 7.89970
#
# Compressibility (1/GPa) = 0.01393060
#
# Stress axis : x y z
#
# Youngs Moduli (GPa) = 111.76992 76.70937 182.27004
#
# Poissons Ratio (x) = 0.10743 0.20829
# Poissons Ratio (y) = 0.15653 0.77032
# Poissons Ratio (z) = 0.12773 0.32419
#
# Static dielectric constant tensor:
#      x y z
#    x 1.736060 0.000000 0.000000 
#    y 0.000000 2.002810 0.000000 
#    z 0.000000 0.000000 1.746440 
# 
# From -- ./inp_files/37722.got.cif
#   From: 2010.05.17/outbox.cif.g08.bks.cpg/sg24_19_cif.got.tgz:37722.got - 2010.06.04 00:33:39.
