data_PCOD9335780
_publ_section_title
;
Structure prediction by ZEFSAII (Michael W. Deem and Ramdas Pophale) SiO2 
 PCOD9335780
Probable space group: I 21 21 21
;
_chemical_formula_sum "Si O2"
_cell_formula_units_Z 32
_cell_length_a 14.776278
_cell_length_b 14.554116
_cell_length_c 6.760642
_cell_angle_alpha 90.000000
_cell_angle_beta 90.000000
_cell_angle_gamma 90.000000
_cell_volume 1453.914355
_symmetry_space_group_name_H-M "I 21 21 21"
_symmetry_group_IT_number 24
_symmetry_cell_setting 'orthorhombic'
loop_
_space_group_symop_operation_xyz
x,y,z
-x,1/2-y,z
x,-y,1/2-z
1/2-x,y,-z
1/2+x,1/2+y,1/2+z
1/2-x,-y,1/2+z
1/2+x,1/2-y,-z
-x,1/2+y,1/2-z
loop_
_atom_site_type_symbol
_atom_site_label
_atom_site_fract_x
_atom_site_fract_y
_atom_site_fract_z
Si Si1 0.250000 0.957015 0.500000
Si Si2 0.750000 0.138484 0.000000
Si Si3 0.558301 0.931889 0.441703
Si Si4 0.587614 0.500000 0.750000
Si Si5 0.500000 0.250000 0.270892
Si Si6 0.693686 0.297913 0.304623
O O1 0.335136 0.015310 0.579688
O O2 0.209300 0.886240 0.663723
O O3 0.661005 0.075235 0.978211
O O4 0.728829 0.208645 0.180905
O O5 0.485238 0.946859 0.614490
O O6 0.535146 0.832082 0.361310
O O7 0.552212 0.000000 0.250000
O O8 0.589665 0.286503 0.374455
O O9 0.750000 0.302551 0.500000
#
# Coordination Sequence:
#
# PCOD9335780 Si02
#       6
#     4   4   8   4   4   8
#     4  11  26  42  66 108 141 186 250 303 356 450
#     4   9  24  48  70 108 149 180 260 299 358 450
#     4  11  26  47  74 108 148 196 243 309 364 451
#     4  12  28  44  72 100 150 194 242 304 372 426
#     4  10  22  48  70 106 146 182 256 294 350 454
#     4  10  22  45  73 100 142 197 236 304 369 425
#
# _framework density 22.009550000000001
#
# number of rings (size 3 to 8) (size 9 to 14) (size 15 to 20)
#    0.000    1.500    2.500    0.000    8.750    4.000 
#    2.250    1.250    0.000    0.000    0.000    0.000 
#    0.000    0.000    0.000    0.000    0.000    0.000 
#
# Total GULP energy -89074.074275 kJ/mol
# GULP energy per Si atom -5567.129642 kJ/mol
# Density = 2.195946 g / cm^3
# Si number density = 22.009550 Si / 1000 Ang^3
#
#
#
# Elastic Constant Matrix: (Units=GPa)
#
#
# Indices 1 2 3 4 5 6 
#
# 1 245.7253 42.8243 63.1762 0.0000 0.0000 0.0000
# 2 42.8243 79.5056 29.0942 0.0000 0.0000 0.0000
# 3 63.1762 29.0942 99.0163 0.0000 0.0000 0.0000
# 4 0.0000 0.0000 0.0000 -7.6555 0.0000 0.0000
# 5 0.0000 0.0000 0.0000 0.0000 55.4590 0.0000
# 6 0.0000 0.0000 0.0000 0.0000 0.0000 7.6988
#
#
#
# Elastic Compliance Matrix: (Units=1/GPa)
#
#
# Indices 1 2 3 4 5 6 
#
# 1 0.005073 -0.001735 -0.002727 0.000000 0.000000 0.000000
# 2 -0.001735 0.014686 -0.003209 0.000000 0.000000 0.000000
# 3 -0.002727 -0.003209 0.012782 0.000000 0.000000 0.000000
# 4 0.000000 0.000000 0.000000 -0.130626 0.000000 0.000000
# 5 0.000000 0.000000 0.000000 0.000000 0.018031 0.000000
# 6 0.000000 0.000000 0.000000 0.000000 0.000000 0.129890
#
#
# Mechanical properties :
#
#
# Convention : Reuss Voigt Hill
#
# Bulk Modulus (GPa) = 58.13661 77.15960 67.64811
# Shear Modulus (GPa) = 70.51121 30.37731 50.44426
#
# Velocity S-wave (km/s) = 5.66623 3.71912 4.79260
# Velocity P-wave (km/s) = 8.32345 7.31956 7.83759
#
# Compressibility (1/GPa) = 0.01720086
#
# Stress axis : x y z
#
# Youngs Moduli (GPa) = 197.12129 68.09135 78.23418
#
# Poissons Ratio (x) = 0.11811 0.21335
# Poissons Ratio (y) = 0.34191 0.25102
# Poissons Ratio (z) = 0.53757 0.21848
#
# Static dielectric constant tensor:
#      x y z
#    x 1.875100 0.000000 0.000000 
#    y 0.000000 1.825250 0.000000 
#    z 0.000000 0.000000 1.842680 
# 
# From -- ./inp_files/3146.got.cif
#   From: 2010.05.17/outbox.cif.g08.bks.cpg/sg24_2_cif.got.tgz:3146.got - 2010.06.04 00:33:39.
