data_PCOD9335745
_publ_section_title
;
Structure prediction by ZEFSAII (Michael W. Deem and Ramdas Pophale) SiO2 
 PCOD9335745
Probable space group: I 21 21 21
;
_chemical_formula_sum "Si O2"
_cell_formula_units_Z 60
_cell_length_a 19.524460
_cell_length_b 8.945004
_cell_length_c 16.031631
_cell_angle_alpha 90.000000
_cell_angle_beta 90.000000
_cell_angle_gamma 90.000000
_cell_volume 2799.866204
_symmetry_space_group_name_H-M "I 21 21 21"
_symmetry_group_IT_number 24
_symmetry_cell_setting 'orthorhombic'
loop_
_space_group_symop_operation_xyz
x,y,z
-x,1/2-y,z
x,-y,1/2-z
1/2-x,y,-z
1/2+x,1/2+y,1/2+z
1/2-x,-y,1/2+z
1/2+x,1/2-y,-z
-x,1/2+y,1/2-z
loop_
_atom_site_type_symbol
_atom_site_label
_atom_site_fract_x
_atom_site_fract_y
_atom_site_fract_z
Si Si1 0.439261 0.341205 0.840030
Si Si2 0.218851 0.259800 0.690663
Si Si3 0.214505 0.988108 0.085441
Si Si4 0.033376 0.411260 0.454013
Si Si5 0.685625 0.256754 0.119152
Si Si6 0.085485 0.894217 0.487578
Si Si7 0.676988 0.074938 0.456319
Si Si8 0.821013 0.000000 0.250000
O O1 0.500000 0.250000 0.795873
O O2 0.467369 0.503672 0.865719
O O3 0.425280 0.246079 0.925012
O O4 0.369121 0.378382 0.794449
O O5 0.260331 0.114502 0.660706
O O6 0.184093 0.244715 0.780686
O O7 0.167104 0.305805 0.617847
O O8 0.271393 0.399575 0.693833
O O9 0.243849 0.155737 0.098322
O O10 0.134515 0.996399 0.066524
O O11 0.250000 0.934010 0.000000
O O12 0.111779 0.411868 0.483698
O O13 0.000000 0.250000 0.452577
O O14 0.984359 0.520430 0.508234
O O15 0.681518 0.091300 0.082142
O O16 0.626964 0.347417 0.069844
O O17 0.750000 0.102266 0.500000
#
# Coordination Sequence:
#
# PCOD9335745 Si02
#       8
#     8   8   8   8   8   8   8   4
#     4  10  23  44  64  93 134 183 229 273 348 422
#     4  12  25  40  65 106 139 176 226 297 349 406
#     4  10  23  40  68 100 135 176 234 282 344 402
#     4  11  26  42  71 101 131 175 238 291 340 411
#     4  11  22  42  69 101 137 180 230 283 347 412
#     4  10  22  44  70  95 131 187 233 280 340 430
#     4  12  24  42  72  97 137 180 234 288 345 424
#     4  12  24  40  68  96 142 180 226 286 356 412
#
# _framework density 21.429594999999999
#
# number of rings (size 3 to 8) (size 9 to 14) (size 15 to 20)
#    0.000    1.067    2.667    3.600    7.467    0.533 
#    2.400    0.000    5.867    0.000    0.000    0.000 
#    0.000    0.000    0.000    0.000    0.000    0.000 
#
# Total GULP energy -167634.912822 kJ/mol
# GULP energy per Si atom -5587.830427 kJ/mol
# Density = 2.138082 g / cm^3
# Si number density = 21.429595 Si / 1000 Ang^3
#
#
#
# Elastic Constant Matrix: (Units=GPa)
#
#
# Indices 1 2 3 4 5 6 
#
# 1 103.5086 29.8684 4.1021 0.0000 0.0000 0.0000
# 2 29.8684 101.2105 20.2516 0.0000 0.0000 0.0000
# 3 4.1021 20.2516 48.0561 0.0000 0.0000 0.0000
# 4 0.0000 0.0000 0.0000 36.2315 0.0000 0.0000
# 5 0.0000 0.0000 0.0000 0.0000 25.5669 0.0000
# 6 0.0000 0.0000 0.0000 0.0000 0.0000 35.7226
#
#
#
# Elastic Compliance Matrix: (Units=1/GPa)
#
#
# Indices 1 2 3 4 5 6 
#
# 1 0.010569 -0.003209 0.000450 0.000000 0.000000 0.000000
# 2 -0.003209 0.011765 -0.004684 0.000000 0.000000 0.000000
# 3 0.000450 -0.004684 0.022744 0.000000 0.000000 0.000000
# 4 0.000000 0.000000 0.000000 0.027600 0.000000 0.000000
# 5 0.000000 0.000000 0.000000 0.000000 0.039113 0.000000
# 6 0.000000 0.000000 0.000000 0.000000 0.000000 0.027993
#
#
# Mechanical properties :
#
#
# Convention : Reuss Voigt Hill
#
# Bulk Modulus (GPa) = 33.12064 40.13547 36.62806
# Shear Modulus (GPa) = 30.35177 32.74109 31.54643
#
# Velocity S-wave (km/s) = 3.76752 3.91301 3.84095
# Velocity P-wave (km/s) = 5.86641 6.25980 6.06630
#
# Compressibility (1/GPa) = 0.03019265
#
# Stress axis : x y z
#
# Youngs Moduli (GPa) = 94.61423 85.00018 43.96676
#
# Poissons Ratio (x) = 0.27278 -0.01979
# Poissons Ratio (y) = 0.30363 0.20594
# Poissons Ratio (z) = -0.04260 0.39813
#
# Static dielectric constant tensor:
#      x y z
#    x 1.808410 0.000000 0.000000 
#    y 0.000000 1.831910 0.000000 
#    z 0.000000 0.000000 1.817480 
# 
# From -- ./inp_files/31217.got.cif
#   From: 2010.05.17/outbox.cif.g08.bks.cpg/sg24_16_cif.got.tgz:31217.got - 2010.06.04 00:33:39.
