data_PCOD9335518
_publ_section_title
;
Structure prediction by ZEFSAII (Michael W. Deem and Ramdas Pophale) SiO2 
 PCOD9335518
Probable space group: I 21 21 21
;
_chemical_formula_sum "Si O2"
_cell_formula_units_Z 40
_cell_length_a 16.345203
_cell_length_b 10.514336
_cell_length_c 11.746964
_cell_angle_alpha 90.000000
_cell_angle_beta 90.000000
_cell_angle_gamma 90.000000
_cell_volume 2018.820973
_symmetry_space_group_name_H-M "I 21 21 21"
_symmetry_group_IT_number 24
_symmetry_cell_setting 'orthorhombic'
loop_
_space_group_symop_operation_xyz
x,y,z
-x,1/2-y,z
x,-y,1/2-z
1/2-x,y,-z
1/2+x,1/2+y,1/2+z
1/2-x,-y,1/2+z
1/2+x,1/2-y,-z
-x,1/2+y,1/2-z
loop_
_atom_site_type_symbol
_atom_site_label
_atom_site_fract_x
_atom_site_fract_y
_atom_site_fract_z
Si Si1 0.500000 0.250000 0.615188
Si Si2 0.387858 0.573395 0.517968
Si Si3 0.457343 0.500000 0.750000
Si Si4 0.658448 0.802656 0.048403
Si Si5 0.250000 0.782291 0.500000
Si Si6 0.342247 0.145683 0.218865
Si Si7 0.500000 0.750000 0.405025
O O1 0.503572 0.375787 0.697064
O O2 0.581907 0.243650 0.533481
O O3 0.398572 0.534924 0.646889
O O4 0.360107 0.454096 0.442414
O O5 0.325991 0.689187 0.516407
O O6 0.474408 0.628522 0.478450
O O7 0.667290 0.727399 0.166418
O O8 0.750000 0.791807 0.000000
O O9 0.272761 0.851371 0.381058
O O10 0.423549 0.207517 0.167632
O O11 0.355429 0.000000 0.250000
#
# Coordination Sequence:
#
# PCOD9335518 Si02
#       7
#     4   8   4   8   4   8   4
#     4  10  24  44  72 104 140 189 237 296 362 424
#     4  10  22  42  70 102 137 176 234 286 353 417
#     4  10  22  40  68 100 142 182 230 284 352 424
#     4  11  25  46  72 103 136 190 237 290 351 430
#     4  10  24  44  66 102 130 178 230 292 354 408
#     4  11  27  44  69  97 141 181 231 292 352 424
#     4  10  24  42  70  98 134 179 229 288 350 414
#
# _framework density 19.813545000000001
#
# number of rings (size 3 to 8) (size 9 to 14) (size 15 to 20)
#    0.000    1.600    1.000    1.200   15.400    2.400 
#    1.800    0.000    0.000    0.000    0.000    0.000 
#    0.000    0.000    0.000    0.000    0.000    0.000 
#
# Total GULP energy -111374.668245 kJ/mol
# GULP energy per Si atom -5568.733412 kJ/mol
# Density = 1.976845 g / cm^3
# Si number density = 19.813545 Si / 1000 Ang^3
#
#
#
# Elastic Constant Matrix: (Units=GPa)
#
#
# Indices 1 2 3 4 5 6 
#
# 1 77.5372 20.8645 22.8703 0.0000 0.0000 0.0000
# 2 20.8645 86.1365 67.4177 0.0000 0.0000 0.0000
# 3 22.8703 67.4177 106.8808 0.0000 0.0000 0.0000
# 4 0.0000 0.0000 0.0000 25.9448 0.0000 0.0000
# 5 0.0000 0.0000 0.0000 0.0000 42.1059 0.0000
# 6 0.0000 0.0000 0.0000 0.0000 0.0000 32.2269
#
#
#
# Elastic Compliance Matrix: (Units=1/GPa)
#
#
# Indices 1 2 3 4 5 6 
#
# 1 0.013948 -0.002059 -0.001686 0.000000 0.000000 0.000000
# 2 -0.002059 0.023234 -0.014215 0.000000 0.000000 0.000000
# 3 -0.001686 -0.014215 0.018683 0.000000 0.000000 0.000000
# 4 0.000000 0.000000 0.000000 0.038543 0.000000 0.000000
# 5 0.000000 0.000000 0.000000 0.000000 0.023750 0.000000
# 6 0.000000 0.000000 0.000000 0.000000 0.000000 0.031030
#
#
# Mechanical properties :
#
#
# Convention : Reuss Voigt Hill
#
# Bulk Modulus (GPa) = 50.13516 54.76215 52.44866
# Shear Modulus (GPa) = 26.07471 30.68234 28.37852
#
# Velocity S-wave (km/s) = 3.63161 3.93944 3.78865
# Velocity P-wave (km/s) = 6.55311 6.95636 6.75774
#
# Compressibility (1/GPa) = 0.01994608
#
# Stress axis : x y z
#
# Youngs Moduli (GPa) = 71.69295 43.04044 53.52391
#
# Poissons Ratio (x) = 0.08863 0.09023
# Poissons Ratio (y) = 0.14763 0.76083
# Poissons Ratio (z) = 0.12086 0.61181
#
# Static dielectric constant tensor:
#      x y z
#    x 1.786320 0.000000 0.000000 
#    y 0.000000 1.709980 0.000000 
#    z 0.000000 0.000000 4.005100 
# 
# From -- ./inp_files/10814.got.cif
#   From: 2010.05.17/outbox.cif.g08.bks.cpg/sg24_6_cif.got.tgz:10814.got - 2010.06.04 00:33:39.
