data_PCOD9335371
_publ_section_title
;
Structure prediction by ZEFSAII (Michael W. Deem and Ramdas Pophale) SiO2 
 PCOD9335371
Probable space group: I 21 21 21
;
_chemical_formula_sum "Si O2"
_cell_formula_units_Z 32
_cell_length_a 24.120449
_cell_length_b 5.200345
_cell_length_c 12.314253
_cell_angle_alpha 90.000000
_cell_angle_beta 90.000000
_cell_angle_gamma 90.000000
_cell_volume 1544.634093
_symmetry_space_group_name_H-M "I 21 21 21"
_symmetry_group_IT_number 24
_symmetry_cell_setting 'orthorhombic'
loop_
_space_group_symop_operation_xyz
x,y,z
-x,1/2-y,z
x,-y,1/2-z
1/2-x,y,-z
1/2+x,1/2+y,1/2+z
1/2-x,-y,1/2+z
1/2+x,1/2-y,-z
-x,1/2+y,1/2-z
loop_
_atom_site_type_symbol
_atom_site_label
_atom_site_fract_x
_atom_site_fract_y
_atom_site_fract_z
Si Si1 0.862642 0.500000 0.250000
Si Si2 0.814884 0.494769 0.482094
Si Si3 0.380740 0.472403 0.043181
Si Si4 0.960714 0.000000 0.750000
Si Si5 0.549658 0.889488 0.855781
O O1 0.825781 0.565410 0.355160
O O2 0.902670 0.717797 0.199919
O O3 0.750000 0.456611 0.500000
O O4 0.848168 0.236992 0.516553
O O5 0.838974 0.734275 0.550196
O O6 0.420225 0.501042 0.146026
O O7 0.420540 0.421780 0.938873
O O8 0.000000 0.250000 0.751334
O O9 0.500000 0.750000 0.919064
O O10 0.519918 0.000000 0.750000
#
# Coordination Sequence:
#
# PCOD9335371 Si02
#       5
#     4   8   8   4   8
#     4  10  22  38  59  92 131 158 210 268 318 390
#     4  11  24  43  67  95 128 175 220 278 333 382
#     4  11  25  43  65  97 132 168 228 269 322 398
#     4  12  26  46  69  96 137 186 222 274 330 396
#     4  11  20  35  61  93 126 165 197 258 324 391
#
# _framework density 20.716881000000001
#
# number of rings (size 3 to 8) (size 9 to 14) (size 15 to 20)
#    0.000    1.000    3.750    3.000    0.000    5.000 
#    0.000    0.000    0.000    0.000    0.000    0.000 
#    0.000    0.000    0.000    0.000    0.000    0.000 
#
# Total GULP energy -89306.810652 kJ/mol
# GULP energy per Si atom -5581.675666 kJ/mol
# Density = 2.066973 g / cm^3
# Si number density = 20.716881 Si / 1000 Ang^3
#
#
#
# Elastic Constant Matrix: (Units=GPa)
#
#
# Indices 1 2 3 4 5 6 
#
# 1 133.8117 43.8839 67.5885 0.0000 0.0000 0.0000
# 2 43.8839 117.3458 27.5403 0.0000 0.0000 0.0000
# 3 67.5885 27.5403 122.5564 0.0000 0.0000 0.0000
# 4 0.0000 0.0000 0.0000 16.1627 0.0000 0.0000
# 5 0.0000 0.0000 0.0000 0.0000 13.2101 0.0000
# 6 0.0000 0.0000 0.0000 0.0000 0.0000 30.4720
#
#
#
# Elastic Compliance Matrix: (Units=1/GPa)
#
#
# Indices 1 2 3 4 5 6 
#
# 1 0.011220 -0.002896 -0.005537 0.000000 0.000000 0.000000
# 2 -0.002896 0.009744 -0.000592 0.000000 0.000000 0.000000
# 3 -0.005537 -0.000592 0.011346 0.000000 0.000000 0.000000
# 4 0.000000 0.000000 0.000000 0.061871 0.000000 0.000000
# 5 0.000000 0.000000 0.000000 0.000000 0.075700 0.000000
# 6 0.000000 0.000000 0.000000 0.000000 0.000000 0.032817
#
#
# Mechanical properties :
#
#
# Convention : Reuss Voigt Hill
#
# Bulk Modulus (GPa) = 70.13129 72.41547 71.27338
# Shear Modulus (GPa) = 22.17287 27.61571 24.89429
#
# Velocity S-wave (km/s) = 3.27506 3.65500 3.47023
# Velocity P-wave (km/s) = 6.94457 7.26930 7.10879
#
# Compressibility (1/GPa) = 0.01425897
#
# Stress axis : x y z
#
# Youngs Moduli (GPa) = 89.12949 102.62728 88.13680
#
# Poissons Ratio (x) = 0.29725 0.48798
# Poissons Ratio (y) = 0.25815 0.05220
# Poissons Ratio (z) = 0.49348 0.06079
#
# Static dielectric constant tensor:
#      x y z
#    x 1.702700 0.000000 0.000000 
#    y 0.000000 1.845990 0.000000 
#    z 0.000000 0.000000 1.743510 
# 
# From -- ./inp_files/1973.got.cif
#   From: 2010.05.17/outbox.cif.g08.bks.cpg/sg24_1_cif.got.tgz:1973.got - 2010.06.04 00:33:39.
