data_PCOD9335656
_publ_section_title
;
Structure prediction by ZEFSAII (Michael W. Deem and Ramdas Pophale) SiO2 
 PCOD9335656
Probable space group: I 21 21 21
;
_chemical_formula_sum "Si O2"
_cell_formula_units_Z 48
_cell_length_a 15.903320
_cell_length_b 14.265587
_cell_length_c 10.185559
_cell_angle_alpha 90.000000
_cell_angle_beta 90.000000
_cell_angle_gamma 90.000000
_cell_volume 2310.799757
_symmetry_space_group_name_H-M "I 21 21 21"
_symmetry_group_IT_number 24
_symmetry_cell_setting 'orthorhombic'
loop_
_space_group_symop_operation_xyz
x,y,z
-x,1/2-y,z
x,-y,1/2-z
1/2-x,y,-z
1/2+x,1/2+y,1/2+z
1/2-x,-y,1/2+z
1/2+x,1/2-y,-z
-x,1/2+y,1/2-z
loop_
_atom_site_type_symbol
_atom_site_label
_atom_site_fract_x
_atom_site_fract_y
_atom_site_fract_z
Si Si1 0.395002 0.107540 0.499335
Si Si2 0.952518 0.500000 0.750000
Si Si3 0.056465 0.000000 0.250000
Si Si4 0.583175 0.848940 0.662120
Si Si5 0.440745 0.669352 0.361342
Si Si6 0.000000 0.250000 0.380416
Si Si7 0.750000 0.235865 0.500000
Si Si8 0.234395 0.609408 0.744195
O O1 0.399257 0.051496 0.363662
O O2 0.483055 0.160996 0.528810
O O3 0.328211 0.191779 0.493926
O O4 0.389119 0.040874 0.628463
O O5 0.011732 0.573669 0.674555
O O6 0.991394 0.921955 0.304456
O O7 0.566681 0.815105 0.516477
O O8 0.574341 0.771521 0.776823
O O9 0.677183 0.888935 0.666989
O O10 0.500000 0.750000 0.302648
O O11 0.345409 0.663763 0.313567
O O12 0.751705 0.164426 0.378521
O O13 0.210439 0.500000 0.750000
#
# Coordination Sequence:
#
# PCOD9335656 Si02
#       8
#     8   4   4   8   8   4   4   8
#     4  11  25  45  72 104 144 195 249 292 370 440
#     4  12  26  44  72 106 144 198 232 300 369 441
#     4  10  22  42  76 102 136 198 242 292 347 449
#     4  11  21  43  68 104 135 180 239 296 356 421
#     4  12  26  44  69 104 147 183 236 297 371 441
#     4  10  22  42  72  96 144 190 238 288 360 446
#     4  12  28  48  68 102 148 196 242 308 368 438
#     4  12  27  42  70 104 141 182 235 301 368 430
#
# _framework density 20.772029
#
# number of rings (size 3 to 8) (size 9 to 14) (size 15 to 20)
#    0.000    0.667    5.833    1.500    5.833    0.667 
#    0.000    0.000    0.000    0.000    0.000    0.000 
#    0.000    0.000    0.000    0.000    0.000    0.000 
#
# Total GULP energy -133943.066209 kJ/mol
# GULP energy per Si atom -5580.961092 kJ/mol
# Density = 2.072475 g / cm^3
# Si number density = 20.772029 Si / 1000 Ang^3
#
#
#
# Elastic Constant Matrix: (Units=GPa)
#
#
# Indices 1 2 3 4 5 6 
#
# 1 75.1818 31.6477 34.9554 0.0000 0.0000 0.0000
# 2 31.6477 96.2974 50.8957 0.0000 0.0000 0.0000
# 3 34.9554 50.8957 130.4465 0.0000 0.0000 0.0000
# 4 0.0000 0.0000 0.0000 36.2296 0.0000 0.0000
# 5 0.0000 0.0000 0.0000 0.0000 22.6861 0.0000
# 6 0.0000 0.0000 0.0000 0.0000 0.0000 42.5138
#
#
#
# Elastic Compliance Matrix: (Units=1/GPa)
#
#
# Indices 1 2 3 4 5 6 
#
# 1 0.016241 -0.003826 -0.002859 0.000000 0.000000 0.000000
# 2 -0.003826 0.013984 -0.004431 0.000000 0.000000 0.000000
# 3 -0.002859 -0.004431 0.010161 0.000000 0.000000 0.000000
# 4 0.000000 0.000000 0.000000 0.027602 0.000000 0.000000
# 5 0.000000 0.000000 0.000000 0.000000 0.044080 0.000000
# 6 0.000000 0.000000 0.000000 0.000000 0.000000 0.023522
#
#
# Mechanical properties :
#
#
# Convention : Reuss Voigt Hill
#
# Bulk Modulus (GPa) = 55.08642 59.65814 57.37228
# Shear Modulus (GPa) = 30.51152 32.58104 31.54628
#
# Velocity S-wave (km/s) = 3.83675 3.96473 3.90127
# Velocity P-wave (km/s) = 6.79740 7.05277 6.92626
#
# Compressibility (1/GPa) = 0.01815329
#
# Stress axis : x y z
#
# Youngs Moduli (GPa) = 61.57189 71.51166 98.41737
#
# Poissons Ratio (x) = 0.27364 0.28139
# Poissons Ratio (y) = 0.23560 0.43605
# Poissons Ratio (z) = 0.17604 0.31684
#
# Static dielectric constant tensor:
#      x y z
#    x 1.789180 0.000000 0.000000 
#    y 0.000000 1.802970 0.000000 
#    z 0.000000 0.000000 1.753630 
# 
# From -- ./inp_files/20799.got.cif
#   From: 2010.05.17/outbox.cif.g08.bks.cpg/sg24_11_cif.got.tgz:20799.got - 2010.06.04 00:33:39.
