data_PCOD9335536
_publ_section_title
;
Structure prediction by ZEFSAII (Michael W. Deem and Ramdas Pophale) SiO2 
 PCOD9335536
Probable space group: I 21 21 21
;
_chemical_formula_sum "Si O2"
_cell_formula_units_Z 52
_cell_length_a 7.588956
_cell_length_b 12.218992
_cell_length_c 26.815281
_cell_angle_alpha 90.000000
_cell_angle_beta 90.000000
_cell_angle_gamma 90.000000
_cell_volume 2486.564721
_symmetry_space_group_name_H-M "I 21 21 21"
_symmetry_group_IT_number 24
_symmetry_cell_setting 'orthorhombic'
loop_
_space_group_symop_operation_xyz
x,y,z
-x,1/2-y,z
x,-y,1/2-z
1/2-x,y,-z
1/2+x,1/2+y,1/2+z
1/2-x,-y,1/2+z
1/2+x,1/2-y,-z
-x,1/2+y,1/2-z
loop_
_atom_site_type_symbol
_atom_site_label
_atom_site_fract_x
_atom_site_fract_y
_atom_site_fract_z
Si Si1 0.427304 0.371950 0.595428
Si Si2 0.688473 0.256642 0.858459
Si Si3 0.547483 0.140062 0.061653
Si Si4 0.394847 0.576702 0.170672
Si Si5 0.857976 0.841477 0.722372
Si Si6 0.769699 0.490146 0.877510
Si Si7 0.750000 0.958790 0.000000
O O1 0.500000 0.250000 0.604395
O O2 0.260673 0.403144 0.630875
O O3 0.590917 0.452281 0.606348
O O4 0.364400 0.387341 0.538297
O O5 0.500000 0.250000 0.884787
O O6 0.831466 0.191777 0.893279
O O7 0.682340 0.194235 0.805876
O O8 0.723934 0.383391 0.844806
O O9 0.500000 0.250000 0.031394
O O10 0.373116 0.077546 0.079950
O O11 0.645126 0.044162 0.033957
O O12 0.396104 0.457583 0.196939
O O13 0.360404 0.653166 0.218240
O O14 0.587930 0.575819 0.144917
O O15 0.000000 0.750000 0.707106
#
# Coordination Sequence:
#
# PCOD9335536 Si02
#       7
#     8   8   8   8   8   8   4
#     4  12  30  49  70 100 136 193 246 297 356 409
#     4  11  20  39  71 108 146 186 226 282 358 429
#     4  10  22  40  71 108 142 175 223 289 362 424
#     4  11  24  46  67 102 147 178 242 288 343 431
#     4  11  21  40  69 104 142 187 225 285 351 418
#     4  11  22  45  73  95 141 185 228 290 359 419
#     4  12  24  48  68 100 144 174 244 290 346 440
#
# _framework density 20.912386000000001
#
# number of rings (size 3 to 8) (size 9 to 14) (size 15 to 20)
#    0.000    0.923    4.615    2.308    2.154    5.538 
#    0.000    1.538    0.000    0.000    0.000    0.000 
#    0.000    0.000    0.000    0.000    0.000    0.000 
#
# Total GULP energy -144847.030814 kJ/mol
# GULP energy per Si atom -5571.039647 kJ/mol
# Density = 2.086479 g / cm^3
# Si number density = 20.912386 Si / 1000 Ang^3
#
#
#
# Elastic Constant Matrix: (Units=GPa)
#
#
# Indices 1 2 3 4 5 6 
#
# 1 120.6669 26.3224 45.0090 0.0000 0.0000 0.0000
# 2 26.3224 79.3774 35.3147 0.0000 0.0000 0.0000
# 3 45.0090 35.3147 86.9615 0.0000 0.0000 0.0000
# 4 0.0000 0.0000 0.0000 21.8493 0.0000 0.0000
# 5 0.0000 0.0000 0.0000 0.0000 20.6815 0.0000
# 6 0.0000 0.0000 0.0000 0.0000 0.0000 36.3679
#
#
#
# Elastic Compliance Matrix: (Units=1/GPa)
#
#
# Indices 1 2 3 4 5 6 
#
# 1 0.010376 -0.001283 -0.004849 0.000000 0.000000 0.000000
# 2 -0.001283 0.015535 -0.005644 0.000000 0.000000 0.000000
# 3 -0.004849 -0.005644 0.016301 0.000000 0.000000 0.000000
# 4 0.000000 0.000000 0.000000 0.045768 0.000000 0.000000
# 5 0.000000 0.000000 0.000000 0.000000 0.048353 0.000000
# 6 0.000000 0.000000 0.000000 0.000000 0.000000 0.027497
#
#
# Mechanical properties :
#
#
# Convention : Reuss Voigt Hill
#
# Bulk Modulus (GPa) = 53.59568 55.58867 54.59218
# Shear Modulus (GPa) = 25.82610 27.80371 26.81491
#
# Velocity S-wave (km/s) = 3.51802 3.65023 3.58474
# Velocity P-wave (km/s) = 6.49510 6.66371 6.57994
#
# Compressibility (1/GPa) = 0.01865822
#
# Stress axis : x y z
#
# Youngs Moduli (GPa) = 96.37640 64.37158 61.34490
#
# Poissons Ratio (x) = 0.08262 0.29747
# Poissons Ratio (y) = 0.12369 0.34625
# Poissons Ratio (z) = 0.46734 0.36334
#
# Static dielectric constant tensor:
#      x y z
#    x 1.915800 0.000000 0.000000 
#    y 0.000000 1.813150 0.000000 
#    z 0.000000 0.000000 1.837880 
# 
# From -- ./inp_files/36867.got.cif
#   From: 2010.05.17/outbox.cif.g08.bks.cpg/sg24_19_cif.got.tgz:36867.got - 2010.06.04 00:33:39.
