data_PCOD9335791
_publ_section_title
;
Structure prediction by ZEFSAII (Michael W. Deem and Ramdas Pophale) SiO2 
 PCOD9335791
Probable space group: I 21 21 21
;
_chemical_formula_sum "Si O2"
_cell_formula_units_Z 56
_cell_length_a 15.649131
_cell_length_b 11.776993
_cell_length_c 13.875714
_cell_angle_alpha 90.000000
_cell_angle_beta 90.000000
_cell_angle_gamma 90.000000
_cell_volume 2557.290014
_symmetry_space_group_name_H-M "I 21 21 21"
_symmetry_group_IT_number 24
_symmetry_cell_setting 'orthorhombic'
loop_
_space_group_symop_operation_xyz
x,y,z
-x,1/2-y,z
x,-y,1/2-z
1/2-x,y,-z
1/2+x,1/2+y,1/2+z
1/2-x,-y,1/2+z
1/2+x,1/2-y,-z
-x,1/2+y,1/2-z
loop_
_atom_site_type_symbol
_atom_site_label
_atom_site_fract_x
_atom_site_fract_y
_atom_site_fract_z
Si Si1 0.814231 0.000000 0.250000
Si Si2 0.371800 0.876068 0.224444
Si Si3 0.908080 0.220411 0.901295
Si Si4 0.400986 0.720624 0.820161
Si Si5 0.750000 0.649775 0.500000
Si Si6 0.183442 0.503426 0.912972
Si Si7 0.818145 0.397380 0.196675
Si Si8 0.603360 0.753496 0.037756
O O1 0.873113 0.091781 0.302485
O O2 0.745594 0.040956 0.171773
O O3 0.407708 0.777312 0.294350
O O4 0.272632 0.883228 0.251388
O O5 0.375947 0.845894 0.112614
O O6 0.410143 0.000000 0.250000
O O7 0.825835 0.276167 0.953194
O O8 0.893133 0.086523 0.910166
O O9 0.000000 0.250000 0.945468
O O10 0.500000 0.750000 0.824110
O O11 0.366374 0.784236 0.725579
O O12 0.365423 0.755575 0.926468
O O13 0.796257 0.582648 0.414126
O O14 0.143159 0.630295 0.916505
O O15 0.250000 0.498718 0.000000
O O16 0.865179 0.500000 0.250000
O O17 0.500000 0.750000 0.034443
#
# Coordination Sequence:
#
# PCOD9335791 Si02
#       8
#     4   8   8   8   4   8   8   8
#     4  12  24  46  74 100 144 192 252 308 376 456
#     4  10  23  42  70 100 141 185 233 303 379 453
#     4  11  24  42  69 105 142 187 247 308 379 449
#     4  11  26  44  70 103 142 190 246 310 371 445
#     4  10  22  46  64 100 142 182 242 300 362 452
#     4  12  24  45  74 106 140 196 247 309 375 441
#     4  10  23  42  65  95 131 182 229 289 363 436
#     4  11  25  45  71 106 146 184 247 308 371 458
#
# _framework density 21.898181000000001
#
# number of rings (size 3 to 8) (size 9 to 14) (size 15 to 20)
#    0.000    1.143    2.143    3.857    3.000    4.000 
#    2.571    0.000    0.000    0.000    0.000    0.000 
#    0.000    0.000    0.000    0.000    0.000    0.000 
#
# Total GULP energy -156164.856465 kJ/mol
# GULP energy per Si atom -5577.316302 kJ/mol
# Density = 2.184834 g / cm^3
# Si number density = 21.898181 Si / 1000 Ang^3
#
#
#
# Elastic Constant Matrix: (Units=GPa)
#
#
# Indices 1 2 3 4 5 6 
#
# 1 82.4613 20.2770 12.7842 0.0000 0.0000 0.0000
# 2 20.2770 92.0208 30.6249 0.0000 0.0000 0.0000
# 3 12.7842 30.6249 135.0000 0.0000 0.0000 0.0000
# 4 0.0000 0.0000 0.0000 27.0371 0.0000 0.0000
# 5 0.0000 0.0000 0.0000 0.0000 16.6513 0.0000
# 6 0.0000 0.0000 0.0000 0.0000 0.0000 34.9634
#
#
#
# Elastic Compliance Matrix: (Units=1/GPa)
#
#
# Indices 1 2 3 4 5 6 
#
# 1 0.012870 -0.002629 -0.000622 0.000000 0.000000 0.000000
# 2 -0.002629 0.012291 -0.002539 0.000000 0.000000 0.000000
# 3 -0.000622 -0.002539 0.008042 0.000000 0.000000 0.000000
# 4 0.000000 0.000000 0.000000 0.036986 0.000000 0.000000
# 5 0.000000 0.000000 0.000000 0.000000 0.060055 0.000000
# 6 0.000000 0.000000 0.000000 0.000000 0.000000 0.028601
#
#
# Mechanical properties :
#
#
# Convention : Reuss Voigt Hill
#
# Bulk Modulus (GPa) = 46.24792 48.53934 47.39363
# Shear Modulus (GPa) = 28.14755 32.11676 30.13215
#
# Velocity S-wave (km/s) = 3.58911 3.83383 3.71349
# Velocity P-wave (km/s) = 6.19201 6.46620 6.33059
#
# Compressibility (1/GPa) = 0.02162259
#
# Stress axis : x y z
#
# Youngs Moduli (GPa) = 77.70130 81.35721 124.34081
#
# Poissons Ratio (x) = 0.21387 0.07739
# Poissons Ratio (y) = 0.20426 0.31575
# Poissons Ratio (z) = 0.04836 0.20660
#
# Static dielectric constant tensor:
#      x y z
#    x 1.780980 0.000000 0.000000 
#    y 0.000000 1.904780 0.000000 
#    z 0.000000 0.000000 1.741020 
# 
# From -- ./inp_files/26566.got.cif
#   From: 2010.05.17/outbox.cif.g08.bks.cpg/sg24_14_cif.got.tgz:26566.got - 2010.06.04 00:33:39.
