data_PCOD9335392
_publ_section_title
;
Structure prediction by ZEFSAII (Michael W. Deem and Ramdas Pophale) SiO2 
 PCOD9335392
Probable space group: I 21 21 21
;
_chemical_formula_sum "Si O2"
_cell_formula_units_Z 44
_cell_length_a 5.426570
_cell_length_b 17.892621
_cell_length_c 17.987405
_cell_angle_alpha 90.000000
_cell_angle_beta 90.000000
_cell_angle_gamma 90.000000
_cell_volume 1746.497168
_symmetry_space_group_name_H-M "I 21 21 21"
_symmetry_group_IT_number 24
_symmetry_cell_setting 'orthorhombic'
loop_
_space_group_symop_operation_xyz
x,y,z
-x,1/2-y,z
x,-y,1/2-z
1/2-x,y,-z
1/2+x,1/2+y,1/2+z
1/2-x,-y,1/2+z
1/2+x,1/2-y,-z
-x,1/2+y,1/2-z
loop_
_atom_site_type_symbol
_atom_site_label
_atom_site_fract_x
_atom_site_fract_y
_atom_site_fract_z
Si Si1 0.896496 0.450025 0.091257
Si Si2 0.766202 0.916414 0.276507
Si Si3 0.136389 0.103461 0.582784
Si Si4 0.752678 0.286738 0.887689
Si Si5 0.762302 0.336932 0.730933
Si Si6 0.750000 0.967239 0.000000
O O1 0.755803 0.526086 0.116719
O O2 0.744518 0.374278 0.092459
O O3 0.134205 0.424358 0.139682
O O4 0.020458 0.479958 0.016622
O O5 0.499406 0.883515 0.259913
O O6 0.994227 0.874822 0.237007
O O7 0.758503 0.000000 0.250000
O O8 0.250000 0.118564 0.500000
O O9 0.183422 0.168196 0.642992
O O10 0.849015 0.084629 0.566752
O O11 0.500000 0.250000 0.914438
O O12 0.751021 0.276375 0.797096
O O13 0.000000 0.250000 0.915989
#
# Coordination Sequence:
#
# PCOD9335392 Si02
#       6
#     8   8   8   8   8   4
#     4  10  22  38  64  88 130 163 208 260 320 373
#     4  11  20  32  59  96 122 155 200 254 322 382
#     4  10  22  39  61 100 132 164 200 252 331 399
#     4  11  25  43  64  92 123 169 222 271 301 354
#     4  11  23  38  64  92 128 159 206 266 323 367
#     4  10  22  38  64  94 132 168 196 254 322 402
#
# _framework density 25.193286000000001
#
# number of rings (size 3 to 8) (size 9 to 14) (size 15 to 20)
#    0.000    1.455    1.818    3.818   12.727    0.000 
#    0.000    0.000    6.000    1.091    0.000    0.000 
#    0.000    0.000    0.000    0.000    0.000    0.000 
#
# Total GULP energy -122794.355847 kJ/mol
# GULP energy per Si atom -5581.561629 kJ/mol
# Density = 2.513594 g / cm^3
# Si number density = 25.193286 Si / 1000 Ang^3
#
#
#
# Elastic Constant Matrix: (Units=GPa)
#
#
# Indices 1 2 3 4 5 6 
#
# 1 157.8822 28.5756 13.0670 0.0000 0.0000 0.0000
# 2 28.5756 28.4100 9.1488 0.0000 0.0000 0.0000
# 3 13.0670 9.1488 136.4033 0.0000 0.0000 0.0000
# 4 0.0000 0.0000 0.0000 18.8087 0.0000 0.0000
# 5 0.0000 0.0000 0.0000 0.0000 24.8499 0.0000
# 6 0.0000 0.0000 0.0000 0.0000 0.0000 32.1628
#
#
#
# Elastic Compliance Matrix: (Units=1/GPa)
#
#
# Indices 1 2 3 4 5 6 
#
# 1 0.007750 -0.007723 -0.000224 0.000000 0.000000 0.000000
# 2 -0.007723 0.043672 -0.002189 0.000000 0.000000 0.000000
# 3 -0.000224 -0.002189 0.007500 0.000000 0.000000 0.000000
# 4 0.000000 0.000000 0.000000 0.053167 0.000000 0.000000
# 5 0.000000 0.000000 0.000000 0.000000 0.040242 0.000000
# 6 0.000000 0.000000 0.000000 0.000000 0.000000 0.031092
#
#
# Mechanical properties :
#
#
# Convention : Reuss Voigt Hill
#
# Bulk Modulus (GPa) = 25.87453 47.14205 36.50829
# Shear Modulus (GPa) = 23.08629 33.29121 28.18875
#
# Velocity S-wave (km/s) = 3.03044 3.63909 3.34862
# Velocity P-wave (km/s) = 4.74736 6.03408 5.42898
#
# Compressibility (1/GPa) = 0.03864805
#
# Stress axis : x y z
#
# Youngs Moduli (GPa) = 129.02804 22.89791 133.34144
#
# Poissons Ratio (x) = 0.17684 0.02993
# Poissons Ratio (y) = 0.99650 0.29193
# Poissons Ratio (z) = 0.02896 0.05013
#
# Static dielectric constant tensor:
#      x y z
#    x 2.011380 0.000000 0.000000 
#    y 0.000000 1.977930 0.000000 
#    z 0.000000 0.000000 2.142890 
# 
# From -- ./inp_files/28781.got.cif
#   From: 2010.05.17/outbox.cif.g08.bks.cpg/sg24_15_cif.got.tgz:28781.got - 2010.06.04 00:33:39.
