data_PCOD9335980
_publ_section_title
;
Structure prediction by ZEFSAII (Michael W. Deem and Ramdas Pophale) SiO2 
 PCOD9335980
Probable space group: I 21 21 21
;
_chemical_formula_sum "Si O2"
_cell_formula_units_Z 56
_cell_length_a 19.852589
_cell_length_b 8.337094
_cell_length_c 16.629986
_cell_angle_alpha 90.000000
_cell_angle_beta 90.000000
_cell_angle_gamma 90.000000
_cell_volume 2752.477220
_symmetry_space_group_name_H-M "I 21 21 21"
_symmetry_group_IT_number 24
_symmetry_cell_setting 'orthorhombic'
loop_
_space_group_symop_operation_xyz
x,y,z
-x,1/2-y,z
x,-y,1/2-z
1/2-x,y,-z
1/2+x,1/2+y,1/2+z
1/2-x,-y,1/2+z
1/2+x,1/2-y,-z
-x,1/2+y,1/2-z
loop_
_atom_site_type_symbol
_atom_site_label
_atom_site_fract_x
_atom_site_fract_y
_atom_site_fract_z
Si Si1 0.075812 0.810885 0.024332
Si Si2 0.615018 0.322394 0.221295
Si Si3 0.738485 0.003528 0.094842
Si Si4 0.533884 0.603431 0.432575
Si Si5 0.406475 0.406054 0.371072
Si Si6 0.810925 0.316502 0.346243
Si Si7 0.229453 0.170744 0.173623
O O1 0.123011 0.793397 0.100556
O O2 0.000000 0.750000 0.040242
O O3 0.102135 0.714101 0.946572
O O4 0.073740 0.992359 0.993229
O O5 0.595518 0.500000 0.250000
O O6 0.578663 0.314922 0.135840
O O7 0.593047 0.191211 0.287285
O O8 0.695314 0.324505 0.210826
O O9 0.660478 0.013897 0.122902
O O10 0.764957 0.837854 0.133676
O O11 0.775054 0.167945 0.121589
O O12 0.750000 0.988077 0.000000
O O13 0.500000 0.750000 0.478755
O O14 0.476767 0.493944 0.389632
O O15 0.819840 0.317109 0.250168
O O16 0.780482 0.494469 0.365502
#
# Coordination Sequence:
#
# PCOD9335980 Si02
#       7
#     8   8   8   8   8   8   8
#     4  10  23  44  69  89 130 176 223 277 347 401
#     4  12  22  38  60  94 136 181 219 267 328 400
#     4  12  24  42  70 101 135 179 221 282 340 399
#     4  11  26  38  60  94 136 178 225 275 321 410
#     4  11  23  42  61  94 136 181 221 263 336 401
#     4  11  23  45  70  91 133 179 217 285 344 383
#     4  11  25  42  68 102 133 170 232 277 331 409
#
# _framework density 20.345307999999999
#
# number of rings (size 3 to 8) (size 9 to 14) (size 15 to 20)
#    0.000    0.857    5.714    1.286    2.000    4.000 
#    0.000    0.000    6.286    0.000    0.000    0.000 
#    0.000    0.000    0.000    0.000    0.000    0.000 
#
# Total GULP energy -156425.608231 kJ/mol
# GULP energy per Si atom -5586.628865 kJ/mol
# Density = 2.029900 g / cm^3
# Si number density = 20.345308 Si / 1000 Ang^3
#
#
#
# Elastic Constant Matrix: (Units=GPa)
#
#
# Indices 1 2 3 4 5 6 
#
# 1 62.7751 8.5006 14.4693 0.0000 0.0000 0.0000
# 2 8.5006 126.6726 23.0941 0.0000 0.0000 0.0000
# 3 14.4693 23.0941 45.1942 0.0000 0.0000 0.0000
# 4 0.0000 0.0000 0.0000 -11.1214 0.0000 0.0000
# 5 0.0000 0.0000 0.0000 0.0000 22.8093 0.0000
# 6 0.0000 0.0000 0.0000 0.0000 0.0000 23.9412
#
#
#
# Elastic Compliance Matrix: (Units=1/GPa)
#
#
# Indices 1 2 3 4 5 6 
#
# 1 0.017202 -0.000166 -0.005423 0.000000 0.000000 0.000000
# 2 -0.000166 0.008707 -0.004396 0.000000 0.000000 0.000000
# 3 -0.005423 -0.004396 0.026109 0.000000 0.000000 0.000000
# 4 0.000000 0.000000 0.000000 -0.089916 0.000000 0.000000
# 5 0.000000 0.000000 0.000000 0.000000 0.043842 0.000000
# 6 0.000000 0.000000 0.000000 0.000000 0.000000 0.041769
#
#
# Mechanical properties :
#
#
# Convention : Reuss Voigt Hill
#
# Bulk Modulus (GPa) = 31.20205 36.30777 33.75491
# Shear Modulus (GPa) = 63.80382 19.69766 41.75074
#
# Velocity S-wave (km/s) = 5.60612 3.11491 4.53493
# Velocity P-wave (km/s) = 7.56798 5.55171 6.63686
#
# Compressibility (1/GPa) = 0.03204917
#
# Stress axis : x y z
#
# Youngs Moduli (GPa) = 58.13196 114.85049 38.30058
#
# Poissons Ratio (x) = 0.01904 0.20769
# Poissons Ratio (y) = 0.00964 0.16838
# Poissons Ratio (z) = 0.31523 0.50490
#
# Static dielectric constant tensor:
#      x y z
#    x 1.738170 0.000000 0.000000 
#    y 0.000000 2.089450 0.000000 
#    z 0.000000 0.000000 1.715690 
# 
# From -- ./inp_files/27530.got.cif
#   From: 2010.05.17/outbox.cif.g08.bks.cpg/sg24_14_cif.got.tgz:27530.got - 2010.06.04 00:33:39.
