data_PCOD9335894
_publ_section_title
;
Structure prediction by ZEFSAII (Michael W. Deem and Ramdas Pophale) SiO2 
 PCOD9335894
Probable space group: I 21 21 21
;
_chemical_formula_sum "Si O2"
_cell_formula_units_Z 40
_cell_length_a 25.781924
_cell_length_b 13.664778
_cell_length_c 4.900785
_cell_angle_alpha 90.000000
_cell_angle_beta 90.000000
_cell_angle_gamma 90.000000
_cell_volume 1726.567471
_symmetry_space_group_name_H-M "I 21 21 21"
_symmetry_group_IT_number 24
_symmetry_cell_setting 'orthorhombic'
loop_
_space_group_symop_operation_xyz
x,y,z
-x,1/2-y,z
x,-y,1/2-z
1/2-x,y,-z
1/2+x,1/2+y,1/2+z
1/2-x,-y,1/2+z
1/2+x,1/2-y,-z
-x,1/2+y,1/2-z
loop_
_atom_site_type_symbol
_atom_site_label
_atom_site_fract_x
_atom_site_fract_y
_atom_site_fract_z
Si Si1 0.372486 0.887806 0.729917
Si Si2 0.454507 0.610297 0.140973
Si Si3 0.154629 0.429801 0.484540
Si Si4 0.933269 0.322249 0.741028
Si Si5 0.717687 0.751210 0.763395
O O1 0.419988 0.878703 0.516878
O O2 0.326065 0.818550 0.636763
O O3 0.357082 0.000000 0.750000
O O4 0.389688 0.846600 0.021987
O O5 0.458273 0.500000 0.250000
O O6 0.405749 0.601662 0.935825
O O7 0.436290 0.706513 0.311588
O O8 0.513738 0.642121 0.093938
O O9 0.156103 0.500000 0.750000
O O10 0.190294 0.335685 0.445469
O O11 0.172910 0.500000 0.250000
O O12 0.750000 0.787399 0.500000
O O13 0.750000 0.696026 0.000000
#
# Coordination Sequence:
#
# PCOD9335894 Si02
#       5
#     8   8   8   8   8
#     4  12  26  47  72 100 141 182 236 293 356 413
#     4  10  23  41  72 106 145 187 229 275 344 428
#     4  11  25  44  73 104 146 186 227 284 352 420
#     4  11  25  44  69 106 145 186 227 282 347 420
#     4  12  27  47  74 102 141 181 244 302 353 411
#
# _framework density 23.167352999999999
#
# number of rings (size 3 to 8) (size 9 to 14) (size 15 to 20)
#    0.000    0.800    2.000    4.200    5.600    9.600 
#    0.000    0.000    0.000    0.000    0.000    0.000 
#    0.000    0.000    0.000    0.000    0.000    0.000 
#
# Total GULP energy -111522.144707 kJ/mol
# GULP energy per Si atom -5576.107235 kJ/mol
# Density = 2.311462 g / cm^3
# Si number density = 23.167353 Si / 1000 Ang^3
#
#
#
# Elastic Constant Matrix: (Units=GPa)
#
#
# Indices 1 2 3 4 5 6 
#
# 1 81.2968 41.5321 20.6944 0.0000 0.0000 0.0000
# 2 41.5321 140.1812 17.7655 0.0000 0.0000 0.0000
# 3 20.6944 17.7655 97.2267 0.0000 0.0001 0.0000
# 4 0.0000 0.0000 0.0000 16.5588 0.0000 0.0000
# 5 0.0000 0.0000 0.0001 0.0000 23.5392 0.0000
# 6 0.0000 0.0000 0.0000 0.0000 0.0000 10.6507
#
#
#
# Elastic Compliance Matrix: (Units=1/GPa)
#
#
# Indices 1 2 3 4 5 6 
#
# 1 0.015041 -0.004147 -0.002444 0.000000 0.000000 0.000000
# 2 -0.004147 0.008446 -0.000661 0.000000 0.000000 0.000000
# 3 -0.002444 -0.000661 0.010926 0.000000 0.000000 0.000000
# 4 0.000000 0.000000 0.000000 0.060391 0.000000 0.000000
# 5 0.000000 0.000000 0.000000 0.000000 0.042482 0.000000
# 6 0.000000 0.000000 0.000000 0.000000 0.000000 0.093891
#
#
# Mechanical properties :
#
#
# Convention : Reuss Voigt Hill
#
# Bulk Modulus (GPa) = 50.22346 53.18764 51.70555
# Shear Modulus (GPa) = 19.81642 26.06391 22.94016
#
# Velocity S-wave (km/s) = 2.92783 3.35778 3.15015
# Velocity P-wave (km/s) = 5.75805 6.16772 5.96640
#
# Compressibility (1/GPa) = 0.01991101
#
# Stress axis : x y z
#
# Youngs Moduli (GPa) = 66.48480 118.40095 91.52389
#
# Poissons Ratio (x) = 0.49096 0.22366
# Poissons Ratio (y) = 0.27568 0.06047
# Poissons Ratio (z) = 0.16247 0.07822
#
# Static dielectric constant tensor:
#      x y z
#    x 1.932540 0.000000 0.000000 
#    y 0.000000 1.819850 0.000000 
#    z 0.000000 0.000000 1.846970 
# 
# From -- ./inp_files/6897.got.cif
#   From: 2010.05.17/outbox.cif.g08.bks.cpg/sg24_4_cif.got.tgz:6897.got - 2010.06.04 00:33:39.
