data_PCOD9335676
_publ_section_title
;
Structure prediction by ZEFSAII (Michael W. Deem and Ramdas Pophale) SiO2 
 PCOD9335676
Probable space group: I 21 21 21
;
_chemical_formula_sum "Si O2"
_cell_formula_units_Z 48
_cell_length_a 14.549122
_cell_length_b 18.512662
_cell_length_c 8.913294
_cell_angle_alpha 90.000000
_cell_angle_beta 90.000000
_cell_angle_gamma 90.000000
_cell_volume 2400.733150
_symmetry_space_group_name_H-M "I 21 21 21"
_symmetry_group_IT_number 24
_symmetry_cell_setting 'orthorhombic'
loop_
_space_group_symop_operation_xyz
x,y,z
-x,1/2-y,z
x,-y,1/2-z
1/2-x,y,-z
1/2+x,1/2+y,1/2+z
1/2-x,-y,1/2+z
1/2+x,1/2-y,-z
-x,1/2+y,1/2-z
loop_
_atom_site_type_symbol
_atom_site_label
_atom_site_fract_x
_atom_site_fract_y
_atom_site_fract_z
Si Si1 0.661101 0.518641 0.919735
Si Si2 0.427247 0.158181 0.647944
Si Si3 0.944135 0.822985 0.421993
Si Si4 0.907133 0.709755 0.820161
Si Si5 0.956660 0.569207 0.643193
Si Si6 0.275642 0.231832 0.843816
O O1 0.686850 0.500000 0.750000
O O2 0.580721 0.576598 0.905166
O O3 0.750000 0.551238 0.000000
O O4 0.620381 0.456669 0.024750
O O5 0.515121 0.163996 0.754787
O O6 0.412448 0.205469 0.499818
O O7 0.341633 0.179385 0.751901
O O8 0.838705 0.799603 0.396658
O O9 0.000000 0.750000 0.467962
O O10 0.968455 0.887468 0.538301
O O11 0.913550 0.629647 0.751524
O O12 0.815732 0.746017 0.752527
O O13 0.000000 0.750000 0.776289
O O14 0.983423 0.500000 0.750000
O O15 0.250000 0.194886 0.000000
#
# Coordination Sequence:
#
# PCOD9335676 Si02
#       6
#     8   8   8   8   8   8
#     4  12  25  38  60  93 138 178 214 272 346 423
#     4  11  23  41  63  96 137 171 223 272 341 415
#     4  10  22  43  64  93 132 187 226 274 337 418
#     4  12  24  41  66 102 131 172 227 287 342 406
#     4  12  24  40  63  97 137 181 226 279 352 413
#     4  11  23  39  65  94 130 175 221 278 331 408
#
# _framework density 19.993893
#
# number of rings (size 3 to 8) (size 9 to 14) (size 15 to 20)
#    0.000    0.667    3.333    7.000    2.333    0.000 
#    0.000    0.000    0.000    0.000   26.000    0.000 
#    0.000    0.000    0.000    0.000    0.000    0.000 
#
# Total GULP energy -133940.176038 kJ/mol
# GULP energy per Si atom -5580.840668 kJ/mol
# Density = 1.994839 g / cm^3
# Si number density = 19.993893 Si / 1000 Ang^3
#
#
#
# Elastic Constant Matrix: (Units=GPa)
#
#
# Indices 1 2 3 4 5 6 
#
# 1 110.4462 37.9076 49.4404 0.0000 0.0000 0.0000
# 2 37.9076 79.6155 43.7635 0.0000 0.0000 0.0000
# 3 49.4404 43.7635 177.6765 0.0000 0.0000 0.0000
# 4 0.0000 0.0000 0.0000 38.1029 0.0000 0.0000
# 5 0.0000 0.0000 0.0000 0.0000 -36.8342 0.0000
# 6 0.0000 0.0000 0.0000 0.0000 0.0000 24.0671
#
#
#
# Elastic Compliance Matrix: (Units=1/GPa)
#
#
# Indices 1 2 3 4 5 6 
#
# 1 0.011485 -0.004293 -0.002138 0.000000 0.000000 0.000000
# 2 -0.004293 0.016132 -0.002779 0.000000 0.000000 0.000000
# 3 -0.002138 -0.002779 0.006908 0.000000 0.000000 0.000000
# 4 0.000000 0.000000 0.000000 0.026245 0.000000 0.000000
# 5 0.000000 0.000000 0.000000 0.000000 -0.027149 0.000000
# 6 0.000000 0.000000 0.000000 0.000000 0.000000 0.041551
#
#
# Mechanical properties :
#
#
# Convention : Reuss Voigt Hill
#
# Bulk Modulus (GPa) = 62.09611 69.99569 66.04590
# Shear Modulus (GPa) = 50.52576 20.84225 35.68401
#
# Velocity S-wave (km/s) = 5.03244 3.23217 4.22921
# Velocity P-wave (km/s) = 8.05557 7.00098 7.54672
#
# Compressibility (1/GPa) = 0.01610407
#
# Stress axis : x y z
#
# Youngs Moduli (GPa) = 87.07133 61.98910 144.76575
#
# Poissons Ratio (x) = 0.26611 0.30957
# Poissons Ratio (y) = 0.37379 0.40229
# Poissons Ratio (z) = 0.18619 0.17226
#
# Static dielectric constant tensor:
#      x y z
#    x 1.715370 0.000000 0.000000 
#    y 0.000000 1.803720 0.000000 
#    z 0.000000 0.000000 1.765160 
# 
# From -- ./inp_files/12789.got.cif
#   From: 2010.05.17/outbox.cif.g08.bks.cpg/sg24_7_cif.got.tgz:12789.got - 2010.06.04 00:33:39.
