data_PCOD9335227
_publ_section_title
;
Structure prediction by ZEFSAII (Michael W. Deem and Ramdas Pophale) SiO2 
 PCOD9335227
Probable space group: I 21 21 21
;
_chemical_formula_sum "Si O2"
_cell_formula_units_Z 36
_cell_length_a 6.313876
_cell_length_b 21.745479
_cell_length_c 10.546499
_cell_angle_alpha 90.000000
_cell_angle_beta 90.000000
_cell_angle_gamma 90.000000
_cell_volume 1448.015940
_symmetry_space_group_name_H-M "I 21 21 21"
_symmetry_group_IT_number 24
_symmetry_cell_setting 'orthorhombic'
loop_
_space_group_symop_operation_xyz
x,y,z
-x,1/2-y,z
x,-y,1/2-z
1/2-x,y,-z
1/2+x,1/2+y,1/2+z
1/2-x,-y,1/2+z
1/2+x,1/2-y,-z
-x,1/2+y,1/2-z
loop_
_atom_site_type_symbol
_atom_site_label
_atom_site_fract_x
_atom_site_fract_y
_atom_site_fract_z
Si Si1 0.969340 0.889194 0.295892
Si Si2 0.425080 0.315950 0.138516
Si Si3 0.345095 0.846706 0.124491
Si Si4 0.750000 0.593370 0.500000
Si Si5 0.635979 0.038912 0.371974
O O1 0.815246 0.840497 0.367718
O O2 0.822578 0.925728 0.200940
O O3 0.144328 0.854343 0.215659
O O4 0.098586 0.933842 0.392326
O O5 0.500000 0.250000 0.087657
O O6 0.477522 0.315446 0.289076
O O7 0.581257 0.366205 0.078068
O O8 0.453577 0.912530 0.089578
O O9 0.250000 0.816067 0.000000
O O10 0.750000 0.012563 0.500000
O O11 0.549020 0.000000 0.250000
#
# Coordination Sequence:
#
# PCOD9335227 Si02
#       5
#     8   8   8   4   8
#     4  10  22  42  65  91 135 173 214 271 332 388
#     4  10  23  38  62  98 129 171 221 271 322 390
#     4  10  21  43  64  89 129 174 211 267 331 391
#     4  10  22  36  66  94 132 178 214 268 336 394
#     4  11  24  42  70  98 132 173 225 280 336 401
#
# _framework density 24.861606999999999
#
# number of rings (size 3 to 8) (size 9 to 14) (size 15 to 20)
#    0.000    1.778    2.222    0.667    3.111    8.889 
#    4.000    0.000    2.444    0.000    0.000    0.000 
#    0.000    0.000    0.000    0.000    0.000    0.000 
#
# Total GULP energy -100359.677998 kJ/mol
# GULP energy per Si atom -5575.537667 kJ/mol
# Density = 2.480502 g / cm^3
# Si number density = 24.861607 Si / 1000 Ang^3
#
#
#
# Elastic Constant Matrix: (Units=GPa)
#
#
# Indices 1 2 3 4 5 6 
#
# 1 143.4398 15.2864 42.2254 0.0000 0.0000 0.0000
# 2 15.2864 31.3904 -1.1695 0.0000 0.0000 0.0000
# 3 42.2254 -1.1695 119.0055 -0.0001 0.0000 0.0001
# 4 0.0000 0.0000 -0.0001 19.0207 0.0000 0.0000
# 5 0.0000 0.0000 0.0000 0.0000 64.8816 0.0000
# 6 0.0000 0.0000 0.0001 0.0000 0.0000 -38.5217
#
#
#
# Elastic Compliance Matrix: (Units=1/GPa)
#
#
# Indices 1 2 3 4 5 6 
#
# 1 0.008292 -0.004149 -0.002983 0.000000 0.000000 0.000000
# 2 -0.004149 0.033945 0.001806 0.000000 0.000000 0.000000
# 3 -0.002983 0.001806 0.009479 0.000000 0.000000 0.000000
# 4 0.000000 0.000000 0.000000 0.052574 0.000000 0.000000
# 5 0.000000 0.000000 0.000000 0.000000 0.015413 0.000000
# 6 0.000000 0.000000 0.000000 0.000000 0.000000 -0.025959
#
#
# Mechanical properties :
#
#
# Convention : Reuss Voigt Hill
#
# Bulk Modulus (GPa) = 24.35271 45.16893 34.76082
# Shear Modulus (GPa) = 42.34301 24.90901 33.62601
#
# Velocity S-wave (km/s) = 4.13140 3.16873 3.68166
# Velocity P-wave (km/s) = 5.70741 5.62097 5.66436
#
# Compressibility (1/GPa) = 0.04106319
#
# Stress axis : x y z
#
# Youngs Moduli (GPa) = 120.60073 29.45972 105.49528
#
# Poissons Ratio (x) = 0.12223 0.31468
# Poissons Ratio (y) = 0.50038 -0.19050
# Poissons Ratio (z) = 0.35974 -0.05320
#
# Static dielectric constant tensor:
#      x y z
#    x 1.971690 0.000000 0.000000 
#    y 0.000000 2.051260 0.000000 
#    z 0.000000 0.000000 2.067980 
# 
# From -- ./inp_files/17540.got.cif
#   From: 2010.05.17/outbox.cif.g08.bks.cpg/sg24_9_cif.got.tgz:17540.got - 2010.06.04 00:33:39.
