data_PCOD9335939
_publ_section_title
;
Structure prediction by ZEFSAII (Michael W. Deem and Ramdas Pophale) SiO2 
 PCOD9335939
Probable space group: I 21 21 21
;
_chemical_formula_sum "Si O2"
_cell_formula_units_Z 40
_cell_length_a 24.356998
_cell_length_b 8.806529
_cell_length_c 8.449483
_cell_angle_alpha 90.000000
_cell_angle_beta 90.000000
_cell_angle_gamma 90.000000
_cell_volume 1812.419251
_symmetry_space_group_name_H-M "I 21 21 21"
_symmetry_group_IT_number 24
_symmetry_cell_setting 'orthorhombic'
loop_
_space_group_symop_operation_xyz
x,y,z
-x,1/2-y,z
x,-y,1/2-z
1/2-x,y,-z
1/2+x,1/2+y,1/2+z
1/2-x,-y,1/2+z
1/2+x,1/2-y,-z
-x,1/2+y,1/2-z
loop_
_atom_site_type_symbol
_atom_site_label
_atom_site_fract_x
_atom_site_fract_y
_atom_site_fract_z
Si Si1 0.883882 0.574645 0.080453
Si Si2 0.289770 0.119717 0.362578
Si Si3 0.707089 0.882461 0.369764
Si Si4 0.001139 0.067784 0.575289
Si Si5 0.615864 0.057837 0.573097
O O1 0.873691 0.500000 0.250000
O O2 0.879283 0.758849 0.080097
O O3 0.838531 0.531750 0.950715
O O4 0.944272 0.527718 0.022121
O O5 0.250000 0.180840 0.500000
O O6 0.311717 0.249833 0.247206
O O7 0.259094 0.000000 0.250000
O O8 0.750000 0.825980 0.500000
O O9 0.736420 0.000000 0.250000
O O10 0.658767 0.973818 0.457350
O O11 0.000000 0.250000 0.587871
O O12 0.945313 0.019872 0.488207
O O13 0.003442 0.000000 0.750000
O O14 0.623688 0.000000 0.750000
#
# Coordination Sequence:
#
# PCOD9335939 Si02
#       5
#     8   8   8   8   8
#     4  11  25  44  68  99 142 184 233 285 347 420
#     4  12  27  46  70 103 141 187 236 287 355 424
#     4  12  25  44  72 102 141 181 235 293 351 417
#     4  10  23  43  69 100 137 180 232 284 349 415
#     4  11  25  42  70 103 137 184 231 288 352 414
#
# _framework density 22.069949000000001
#
# number of rings (size 3 to 8) (size 9 to 14) (size 15 to 20)
#    0.000    0.800    2.000    4.200    8.400    1.600 
#    0.000    0.000    0.000    0.000    0.000    0.000 
#    0.000    0.000    0.000    0.000    0.000    0.000 
#
# Total GULP energy -111890.542183 kJ/mol
# GULP energy per Si atom -5594.527109 kJ/mol
# Density = 2.201972 g / cm^3
# Si number density = 22.069949 Si / 1000 Ang^3
#
#
#
# Elastic Constant Matrix: (Units=GPa)
#
#
# Indices 1 2 3 4 5 6 
#
# 1 143.6981 30.8607 74.2994 0.0000 0.0000 0.0000
# 2 30.8607 57.2498 62.6989 0.0000 0.0000 0.0000
# 3 74.2994 62.6989 187.2586 0.0000 0.0000 0.0000
# 4 0.0000 0.0000 0.0000 54.7092 0.0000 0.0000
# 5 0.0000 0.0000 0.0000 0.0000 41.9234 0.0000
# 6 0.0000 0.0000 0.0000 0.0000 0.0000 10.6122
#
#
#
# Elastic Compliance Matrix: (Units=1/GPa)
#
#
# Indices 1 2 3 4 5 6 
#
# 1 0.008832 -0.001457 -0.003016 0.000000 0.000000 0.000000
# 2 -0.001457 0.027822 -0.008737 0.000000 0.000000 0.000000
# 3 -0.003016 -0.008737 0.009462 0.000000 0.000000 0.000000
# 4 0.000000 0.000000 0.000000 0.018278 0.000000 0.000000
# 5 0.000000 0.000000 0.000000 0.000000 0.023853 0.000000
# 6 0.000000 0.000000 0.000000 0.000000 0.000000 0.094231
#
#
# Mechanical properties :
#
#
# Convention : Reuss Voigt Hill
#
# Bulk Modulus (GPa) = 50.77655 80.43605 65.60630
# Shear Modulus (GPa) = 23.20569 36.13881 29.67225
#
# Velocity S-wave (km/s) = 3.24614 4.05095 3.67067
# Velocity P-wave (km/s) = 6.09155 7.64234 6.91058
#
# Compressibility (1/GPa) = 0.01969413
#
# Stress axis : x y z
#
# Youngs Moduli (GPa) = 113.23059 35.94324 105.68217
#
# Poissons Ratio (x) = 0.05239 0.31875
# Poissons Ratio (y) = 0.16503 0.92336
# Poissons Ratio (z) = 0.34152 0.31404
#
# Static dielectric constant tensor:
#      x y z
#    x 1.798920 0.000000 0.000000 
#    y 0.000000 1.843510 0.000000 
#    z 0.000000 0.000000 1.779030 
# 
# From -- ./inp_files/15644.got.cif
#   From: 2010.05.17/outbox.cif.g08.bks.cpg/sg24_8_cif.got.tgz:15644.got - 2010.06.04 00:33:39.
