data_PCOD9335539
_publ_section_title
;
Structure prediction by ZEFSAII (Michael W. Deem and Ramdas Pophale) SiO2 
 PCOD9335539
Probable space group: I 21 21 21
;
_chemical_formula_sum "Si O2"
_cell_formula_units_Z 32
_cell_length_a 9.072959
_cell_length_b 12.789091
_cell_length_c 10.812543
_cell_angle_alpha 90.000000
_cell_angle_beta 90.000000
_cell_angle_gamma 90.000000
_cell_volume 1254.632327
_symmetry_space_group_name_H-M "I 21 21 21"
_symmetry_group_IT_number 24
_symmetry_cell_setting 'orthorhombic'
loop_
_space_group_symop_operation_xyz
x,y,z
-x,1/2-y,z
x,-y,1/2-z
1/2-x,y,-z
1/2+x,1/2+y,1/2+z
1/2-x,-y,1/2+z
1/2+x,1/2-y,-z
-x,1/2+y,1/2-z
loop_
_atom_site_type_symbol
_atom_site_label
_atom_site_fract_x
_atom_site_fract_y
_atom_site_fract_z
Si Si1 0.635247 0.626335 0.087511
Si Si2 0.418193 0.898729 0.506767
Si Si3 0.866861 0.299354 0.251117
Si Si4 0.625199 0.121445 0.228638
O O1 0.750975 0.614189 0.200490
O O2 0.482061 0.647878 0.155946
O O3 0.750000 0.691791 0.000000
O O4 0.596823 0.523135 0.009294
O O5 0.250000 0.857216 0.500000
O O6 0.457272 0.854949 0.640449
O O7 0.528933 0.868593 0.397050
O O8 0.755929 0.203642 0.225008
O O9 0.000000 0.250000 0.332891
O O10 0.669109 0.000000 0.250000
#
# Coordination Sequence:
#
# PCOD9335539 Si02
#       4
#     8   8   8   8
#     4  10  23  44  73 100 143 187 242 293 371 427
#     4  10  22  40  73 107 133 185 249 300 355 430
#     4  12  27  43  74 109 146 192 248 297 363 433
#     4  10  23  47  70 106 150 192 236 309 365 425
#
# _framework density 25.505479000000001
#
# number of rings (size 3 to 8) (size 9 to 14) (size 15 to 20)
#    0.000    1.500    2.500    0.750    7.000    2.000 
#    9.000    0.000    0.000    0.000    0.000    0.000 
#    0.000    0.000    0.000    0.000    0.000    0.000 
#
# Total GULP energy -89142.807586 kJ/mol
# GULP energy per Si atom -5571.425474 kJ/mol
# Density = 2.544743 g / cm^3
# Si number density = 25.505479 Si / 1000 Ang^3
#
#
#
# Elastic Constant Matrix: (Units=GPa)
#
#
# Indices 1 2 3 4 5 6 
#
# 1 148.1799 30.4774 39.7897 0.0000 0.0000 0.0000
# 2 30.4774 158.9818 34.0358 0.0001 0.0000 0.0000
# 3 39.7897 34.0358 84.5195 0.0001 0.0000 0.0000
# 4 0.0000 0.0001 0.0001 41.9461 0.0000 0.0000
# 5 0.0000 0.0000 0.0000 0.0000 21.7563 0.0000
# 6 0.0000 0.0000 0.0000 0.0000 0.0000 40.6284
#
#
#
# Elastic Compliance Matrix: (Units=1/GPa)
#
#
# Indices 1 2 3 4 5 6 
#
# 1 0.007812 -0.000777 -0.003365 0.000000 0.000000 0.000000
# 2 -0.000777 0.006961 -0.002437 0.000000 0.000000 0.000000
# 3 -0.003365 -0.002437 0.014397 0.000000 0.000000 0.000000
# 4 0.000000 0.000000 0.000000 0.023840 0.000000 0.000000
# 5 0.000000 0.000000 0.000000 0.000000 0.045964 0.000000
# 6 0.000000 0.000000 0.000000 0.000000 0.000000 0.024613
#
#
# Mechanical properties :
#
#
# Convention : Reuss Voigt Hill
#
# Bulk Modulus (GPa) = 62.45488 66.69855 64.57671
# Shear Modulus (GPa) = 35.19086 40.02470 37.60778
#
# Velocity S-wave (km/s) = 3.71851 3.96568 3.84409
# Velocity P-wave (km/s) = 6.55564 6.86850 6.71389
#
# Compressibility (1/GPa) = 0.01601156
#
# Stress axis : x y z
#
# Youngs Moduli (GPa) = 128.00983 143.66165 69.45871
#
# Poissons Ratio (x) = 0.11166 0.23370
# Poissons Ratio (y) = 0.09949 0.16928
# Poissons Ratio (z) = 0.43071 0.35013
#
# Static dielectric constant tensor:
#      x y z
#    x 1.847440 0.000000 0.000000 
#    y 0.000000 2.118090 0.000000 
#    z 0.000000 0.000000 2.389140 
# 
# From -- ./inp_files/18017.got.cif
#   From: 2010.05.17/outbox.cif.g08.bks.cpg/sg24_10_cif.got.tgz:18017.got - 2010.06.04 00:33:39.
