data_PCOD9335338
_publ_section_title
;
Structure prediction by ZEFSAII (Michael W. Deem and Ramdas Pophale) SiO2 
 PCOD9335338
Probable space group: I 21 21 21
;
_chemical_formula_sum "Si O2"
_cell_formula_units_Z 52
_cell_length_a 13.847580
_cell_length_b 12.803172
_cell_length_c 15.393700
_cell_angle_alpha 90.000000
_cell_angle_beta 90.000000
_cell_angle_gamma 90.000000
_cell_volume 2729.194462
_symmetry_space_group_name_H-M "I 21 21 21"
_symmetry_group_IT_number 24
_symmetry_cell_setting 'orthorhombic'
loop_
_space_group_symop_operation_xyz
x,y,z
-x,1/2-y,z
x,-y,1/2-z
1/2-x,y,-z
1/2+x,1/2+y,1/2+z
1/2-x,-y,1/2+z
1/2+x,1/2-y,-z
-x,1/2+y,1/2-z
loop_
_atom_site_type_symbol
_atom_site_label
_atom_site_fract_x
_atom_site_fract_y
_atom_site_fract_z
Si Si1 0.612592 0.724131 0.163031
Si Si2 0.410906 0.328371 0.877747
Si Si3 0.113456 0.009998 0.854443
Si Si4 0.281754 0.573957 0.100133
Si Si5 0.420001 0.610134 0.427977
Si Si6 0.860421 0.000000 0.250000
Si Si7 0.706455 0.287665 0.147888
O O1 0.500000 0.750000 0.181570
O O2 0.619722 0.610621 0.117282
O O3 0.657990 0.820306 0.111548
O O4 0.673899 0.719522 0.251885
O O5 0.500000 0.250000 0.877383
O O6 0.417938 0.410696 0.800082
O O7 0.308871 0.266643 0.870297
O O8 0.413933 0.390579 0.968314
O O9 0.201823 0.088892 0.873479
O O10 0.023021 0.071977 0.894170
O O11 0.099559 0.000000 0.750000
O O12 0.348379 0.473318 0.114022
O O13 0.202019 0.558603 0.175097
O O14 0.250000 0.569537 0.000000
O O15 0.376959 0.722325 0.401574
#
# Coordination Sequence:
#
# PCOD9335338 Si02
#       7
#     8   8   8   8   8   4   8
#     4  11  21  38  64  95 135 164 211 274 338 405
#     4  12  26  44  64  95 128 179 230 271 320 392
#     4  10  22  36  62 101 133 166 203 272 357 392
#     4  12  22  40  69  94 127 174 223 265 328 390
#     4  12  21  39  67  98 130 163 216 275 325 399
#     4  12  24  46  66  92 128 174 224 274 316 394
#     4  11  21  38  64  95 131 167 213 277 335 387
#
# _framework density 19.053239999999999
#
# number of rings (size 3 to 8) (size 9 to 14) (size 15 to 20)
#    0.000    0.615    6.154    3.692    1.077    0.000 
#    4.154    5.385    0.000    0.000    0.000    0.000 
#    0.000    0.000    0.000    0.000    0.000    0.000 
#
# Total GULP energy -145126.760365 kJ/mol
# GULP energy per Si atom -5581.798476 kJ/mol
# Density = 1.900987 g / cm^3
# Si number density = 19.053240 Si / 1000 Ang^3
#
#
#
# Elastic Constant Matrix: (Units=GPa)
#
#
# Indices 1 2 3 4 5 6 
#
# 1 33.5282 3.3309 0.7390 0.0000 0.0000 0.0000
# 2 3.3309 113.1972 10.6001 0.0000 0.0000 0.0000
# 3 0.7390 10.6001 56.1334 0.0000 0.0000 0.0000
# 4 0.0000 0.0000 0.0000 14.4685 0.0000 0.0000
# 5 0.0000 0.0000 0.0000 0.0000 5.7712 0.0000
# 6 0.0000 0.0000 0.0000 0.0000 0.0000 -0.6547
#
#
#
# Elastic Compliance Matrix: (Units=1/GPa)
#
#
# Indices 1 2 3 4 5 6 
#
# 1 0.029916 -0.000859 -0.000232 0.000000 0.000000 0.000000
# 2 -0.000859 0.009018 -0.001692 0.000000 0.000000 0.000000
# 3 -0.000232 -0.001692 0.018137 0.000000 0.000000 0.000000
# 4 0.000000 0.000000 0.000000 0.069116 0.000000 0.000000
# 5 0.000000 0.000000 0.000000 0.000000 0.173273 0.000000
# 6 0.000000 0.000000 0.000000 0.000000 0.000000 -1.527364
#
#
# Mechanical properties :
#
#
# Convention : Reuss Voigt Hill
#
# Bulk Modulus (GPa) = 19.41474 25.79985 22.60730
# Shear Modulus (GPa) = -4.14879 16.46292 6.15706
#
# Velocity S-wave (km/s) = -1.47723 2.94266 1.79959
# Velocity P-wave (km/s) = 2.70227 5.01158 4.02605
#
# Compressibility (1/GPa) = 0.05150725
#
# Stress axis : x y z
#
# Youngs Moduli (GPa) = 33.42690 110.89166 55.13528
#
# Poissons Ratio (x) = 0.09521 0.01277
# Poissons Ratio (y) = 0.02870 0.09327
# Poissons Ratio (z) = 0.00774 0.18758
#
# Static dielectric constant tensor:
#      x y z
#    x 1.656770 0.000000 0.000000 
#    y 0.000000 1.722100 0.000000 
#    z 0.000000 0.000000 1.655380 
# 
# From -- ./inp_files/26500.got.cif
#   From: 2010.05.17/outbox.cif.g08.bks.cpg/sg24_14_cif.got.tgz:26500.got - 2010.06.04 00:33:39.
