data_PCOD9335891
_publ_section_title
;
Structure prediction by ZEFSAII (Michael W. Deem and Ramdas Pophale) SiO2 
 PCOD9335891
Probable space group: I 21 21 21
;
_chemical_formula_sum "Si O2"
_cell_formula_units_Z 36
_cell_length_a 9.963717
_cell_length_b 19.523948
_cell_length_c 9.319324
_cell_angle_alpha 90.000000
_cell_angle_beta 90.000000
_cell_angle_gamma 90.000000
_cell_volume 1812.898280
_symmetry_space_group_name_H-M "I 21 21 21"
_symmetry_group_IT_number 24
_symmetry_cell_setting 'orthorhombic'
loop_
_space_group_symop_operation_xyz
x,y,z
-x,1/2-y,z
x,-y,1/2-z
1/2-x,y,-z
1/2+x,1/2+y,1/2+z
1/2-x,-y,1/2+z
1/2+x,1/2-y,-z
-x,1/2+y,1/2-z
loop_
_atom_site_type_symbol
_atom_site_label
_atom_site_fract_x
_atom_site_fract_y
_atom_site_fract_z
Si Si1 0.456236 0.612104 0.820133
Si Si2 0.250000 0.298893 0.500000
Si Si3 0.745615 0.333080 0.658547
Si Si4 0.598001 0.969462 0.543644
Si Si5 0.650154 0.440384 0.136735
O O1 0.362117 0.655023 0.926405
O O2 0.591200 0.655510 0.797657
O O3 0.398688 0.589179 0.665858
O O4 0.472917 0.538013 0.895045
O O5 0.209126 0.244210 0.623779
O O6 0.750000 0.367550 0.500000
O O7 0.832298 0.370608 0.775750
O O8 0.750000 0.985929 0.500000
O O9 0.502135 0.947356 0.415206
O O10 0.685474 0.500000 0.250000
O O11 0.750000 0.442124 0.000000
#
# Coordination Sequence:
#
# PCOD9335891 Si02
#       5
#     8   4   8   8   8
#     4  11  21  45  65  99 139 178 230 286 347 410
#     4  10  24  42  74  90 140 182 230 272 350 440
#     4  10  23  41  69 101 127 187 233 283 344 416
#     4  11  25  39  69 101 139 179 227 293 351 403
#     4  12  23  41  69 104 141 180 234 297 350 412
#
# _framework density 19.857704999999999
#
# number of rings (size 3 to 8) (size 9 to 14) (size 15 to 20)
#    0.667    0.444    3.333    4.000    3.111    1.778 
#    0.000    1.111    0.000    0.000    0.000    0.000 
#    0.000    0.000    0.000    0.000    0.000    0.000 
#
# Total GULP energy -100384.303194 kJ/mol
# GULP energy per Si atom -5576.905733 kJ/mol
# Density = 1.981251 g / cm^3
# Si number density = 19.857705 Si / 1000 Ang^3
#
#
#
# Elastic Constant Matrix: (Units=GPa)
#
#
# Indices 1 2 3 4 5 6 
#
# 1 56.4466 21.2133 25.1364 -0.0001 0.0000 -0.0173
# 2 21.2133 104.9040 45.7406 0.0002 0.0000 0.0236
# 3 25.1364 45.7406 83.2545 0.0004 0.0001 0.0625
# 4 -0.0001 0.0002 0.0004 14.4977 0.0000 0.0539
# 5 0.0000 0.0000 0.0001 0.0000 38.7509 -0.0056
# 6 -0.0173 0.0236 0.0625 0.0539 -0.0056 5347.4536
#
#
#
# Elastic Compliance Matrix: (Units=1/GPa)
#
#
# Indices 1 2 3 4 5 6 
#
# 1 0.020760 -0.001927 -0.005209 0.000000 0.000000 0.000000
# 2 -0.001927 0.012714 -0.006404 0.000000 0.000000 0.000000
# 3 -0.005209 -0.006404 0.017102 0.000000 0.000000 0.000000
# 4 0.000000 0.000000 0.000000 0.068976 0.000000 -0.000001
# 5 0.000000 0.000000 0.000000 0.000000 0.025806 0.000000
# 6 0.000000 0.000000 0.000000 -0.000001 0.000000 0.000187
#
#
# Mechanical properties :
#
#
# Convention : Reuss Voigt Hill
#
# Bulk Modulus (GPa) = 42.55820 47.64285 45.10053
# Shear Modulus (GPa) = 27.70743 1090.30810 559.00777
#
# Velocity S-wave (km/s) = 3.73942 23.45746 16.79636
# Velocity P-wave (km/s) = 6.33423 27.52661 19.97294
#
# Compressibility (1/GPa) = 0.02349724
#
# Stress axis : x y z
#
# Youngs Moduli (GPa) = 48.17034 78.65205 58.47145
#
# Poissons Ratio (x) = 0.15153 0.30460
# Poissons Ratio (y) = 0.09280 0.37443
# Poissons Ratio (z) = 0.25094 0.50366
#
# Static dielectric constant tensor:
#      x y z
#    x 1.721070 0.000000 0.000020 
#    y 0.000000 1.715820 -0.000030 
#    z 0.000020 -0.000030 -3.508630 
# 
# From -- ./inp_files/9082.got.cif
#   From: 2010.05.17/outbox.cif.g08.bks.cpg/sg24_5_cif.got.tgz:9082.got - 2010.06.04 00:33:39.
