data_PCOD9335463
_publ_section_title
;
Structure prediction by ZEFSAII (Michael W. Deem and Ramdas Pophale) SiO2 
 PCOD9335463
Probable space group: I 21 21 21
;
_chemical_formula_sum "Si O2"
_cell_formula_units_Z 48
_cell_length_a 20.911314
_cell_length_b 5.959436
_cell_length_c 17.369541
_cell_angle_alpha 90.000000
_cell_angle_beta 90.000000
_cell_angle_gamma 90.000000
_cell_volume 2164.585902
_symmetry_space_group_name_H-M "I 21 21 21"
_symmetry_group_IT_number 24
_symmetry_cell_setting 'orthorhombic'
loop_
_space_group_symop_operation_xyz
x,y,z
-x,1/2-y,z
x,-y,1/2-z
1/2-x,y,-z
1/2+x,1/2+y,1/2+z
1/2-x,-y,1/2+z
1/2+x,1/2-y,-z
-x,1/2+y,1/2-z
loop_
_atom_site_type_symbol
_atom_site_label
_atom_site_fract_x
_atom_site_fract_y
_atom_site_fract_z
Si Si1 0.853992 0.753863 0.230117
Si Si2 0.102314 0.026558 0.668155
Si Si3 0.929933 0.297354 0.986083
Si Si4 0.763331 0.273986 0.846678
Si Si5 0.159266 0.408749 0.577482
Si Si6 0.328198 0.903299 0.934665
O O1 0.881490 0.500000 0.250000
O O2 0.786211 0.750618 0.276711
O O3 0.843809 0.748218 0.138888
O O4 0.883763 0.000000 0.250000
O O5 0.124165 0.275799 0.645827
O O6 0.068758 0.000000 0.750000
O O7 0.064696 0.935712 0.594134
O O8 0.168291 0.882288 0.674194
O O9 0.000000 0.250000 0.016147
O O10 0.889797 0.078875 0.962646
O O11 0.888008 0.436693 0.045811
O O12 0.728871 0.436010 0.907573
O O13 0.781515 0.042887 0.887573
O O14 0.180121 0.236877 0.511930
#
# Coordination Sequence:
#
# PCOD9335463 Si02
#       6
#     8   8   8   8   8   8
#     4  10  23  40  62  97 139 182 219 270 347 427
#     4  10  22  40  60  94 134 175 225 275 346 416
#     4  10  24  45  63  93 125 171 244 291 343 410
#     4  10  23  38  59  99 137 174 216 277 342 440
#     4  10  24  40  65  91 137 176 220 283 346 414
#     4  10  23  41  62  98 129 181 229 279 353 430
#
# _framework density 22.175141
#
# number of rings (size 3 to 8) (size 9 to 14) (size 15 to 20)
#    0.000    2.000    0.000    1.500   11.667   12.000 
#    3.000    0.000    0.000    0.000   39.000    0.000 
#    0.000    0.000    0.000    0.000    0.000    0.000 
#
# Total GULP energy -134183.382389 kJ/mol
# GULP energy per Si atom -5590.974266 kJ/mol
# Density = 2.212467 g / cm^3
# Si number density = 22.175141 Si / 1000 Ang^3
#
#
#
# Elastic Constant Matrix: (Units=GPa)
#
#
# Indices 1 2 3 4 5 6 
#
# 1 39.0488 18.3842 11.0720 0.0000 0.0000 0.0000
# 2 18.3842 132.1309 42.8939 0.0000 0.0000 0.0000
# 3 11.0720 42.8939 100.6025 0.0000 0.0000 0.0000
# 4 0.0000 0.0000 0.0000 22.9559 0.0000 0.0000
# 5 0.0000 0.0000 0.0000 0.0000 11.5394 0.0000
# 6 0.0000 0.0000 0.0000 0.0000 0.0000 3.8531
#
#
#
# Elastic Compliance Matrix: (Units=1/GPa)
#
#
# Indices 1 2 3 4 5 6 
#
# 1 0.027632 -0.003316 -0.001627 0.000000 0.000000 0.000000
# 2 -0.003316 0.009182 -0.003550 0.000000 0.000000 0.000000
# 3 -0.001627 -0.003550 0.011633 0.000000 0.000000 0.000000
# 4 0.000000 0.000000 0.000000 0.043562 0.000000 0.000000
# 5 0.000000 0.000000 0.000000 0.000000 0.086660 0.000000
# 6 0.000000 0.000000 0.000000 0.000000 0.000000 0.259534
#
#
# Mechanical properties :
#
#
# Convention : Reuss Voigt Hill
#
# Bulk Modulus (GPa) = 31.78668 46.27583 39.03125
# Shear Modulus (GPa) = 10.73710 20.96515 15.85113
#
# Velocity S-wave (km/s) = 2.20283 3.07813 2.67650
# Velocity P-wave (km/s) = 4.56459 5.79196 5.21451
#
# Compressibility (1/GPa) = 0.03145972
#
# Stress axis : x y z
#
# Youngs Moduli (GPa) = 36.19041 108.90737 85.96390
#
# Poissons Ratio (x) = 0.36118 0.13987
# Poissons Ratio (y) = 0.12002 0.30517
# Poissons Ratio (z) = 0.05888 0.38662
#
# Static dielectric constant tensor:
#      x y z
#    x 1.772740 0.000000 0.000000 
#    y 0.000000 1.883680 0.000000 
#    z 0.000000 0.000000 1.808350 
# 
# From -- ./inp_files/31508.got.cif
#   From: 2010.05.17/outbox.cif.g08.bks.cpg/sg24_16_cif.got.tgz:31508.got - 2010.06.04 00:33:39.
