data_PCOD9335547
_publ_section_title
;
Structure prediction by ZEFSAII (Michael W. Deem and Ramdas Pophale) SiO2 
 PCOD9335547
Probable space group: I 21 21 21
;
_chemical_formula_sum "Si O2"
_cell_formula_units_Z 40
_cell_length_a 5.211817
_cell_length_b 15.654757
_cell_length_c 25.268886
_cell_angle_alpha 90.000000
_cell_angle_beta 90.000000
_cell_angle_gamma 90.000000
_cell_volume 2061.681552
_symmetry_space_group_name_H-M "I 21 21 21"
_symmetry_group_IT_number 24
_symmetry_cell_setting 'orthorhombic'
loop_
_space_group_symop_operation_xyz
x,y,z
-x,1/2-y,z
x,-y,1/2-z
1/2-x,y,-z
1/2+x,1/2+y,1/2+z
1/2-x,-y,1/2+z
1/2+x,1/2-y,-z
-x,1/2+y,1/2-z
loop_
_atom_site_type_symbol
_atom_site_label
_atom_site_fract_x
_atom_site_fract_y
_atom_site_fract_z
Si Si1 0.715482 0.966865 0.937476
Si Si2 0.251353 0.691673 0.861800
Si Si3 0.250207 0.808242 0.307266
Si Si4 0.717142 0.470182 0.118865
Si Si5 0.957189 0.580217 0.785217
O O1 0.722979 0.873269 0.910720
O O2 0.447030 0.007899 0.920259
O O3 0.750000 0.962591 0.000000
O O4 0.946718 0.020385 0.910936
O O5 0.500000 0.750000 0.856055
O O6 0.000000 0.750000 0.869085
O O7 0.188143 0.633787 0.810564
O O8 0.500000 0.750000 0.314909
O O9 0.241622 0.879805 0.352886
O O10 0.292552 0.859045 0.252415
O O11 0.000000 0.750000 0.306474
O O12 0.702374 0.540500 0.166113
O O13 0.049329 0.500000 0.750000
#
# Coordination Sequence:
#
# PCOD9335547 Si02
#       5
#     8   8   8   8   8
#     4  11  23  41  65  87 113 157 202 242 295 356
#     4  11  23  39  59  87 124 157 194 248 296 338
#     4  11  23  38  61  90 122 156 194 241 294 350
#     4  10  22  41  62  87 120 155 197 245 289 349
#     4   9  21  39  59  87 123 165 201 230 281 353
#
# _framework density 19.401637000000001
#
# number of rings (size 3 to 8) (size 9 to 14) (size 15 to 20)
#    0.000    1.600    0.000    4.800    0.000    8.800 
#    0.000   16.000    0.000   12.000    0.000    0.000 
#    0.000    0.000    0.000    0.000    0.000    0.000 
#
# Total GULP energy -111921.327896 kJ/mol
# GULP energy per Si atom -5596.066395 kJ/mol
# Density = 1.935748 g / cm^3
# Si number density = 19.401637 Si / 1000 Ang^3
#
#
#
# Elastic Constant Matrix: (Units=GPa)
#
#
# Indices 1 2 3 4 5 6 
#
# 1 127.5873 57.7558 30.1398 0.0000 0.0000 0.0000
# 2 57.7558 124.0448 51.7491 0.0000 0.0000 0.0000
# 3 30.1398 51.7491 113.9770 0.0000 0.0000 0.0000
# 4 0.0000 0.0000 0.0000 20.3173 0.0000 0.0000
# 5 0.0000 0.0000 0.0000 0.0000 20.9436 0.0000
# 6 0.0000 0.0000 0.0000 0.0000 0.0000 25.8293
#
#
#
# Elastic Compliance Matrix: (Units=1/GPa)
#
#
# Indices 1 2 3 4 5 6 
#
# 1 0.009970 -0.004370 -0.000652 0.000000 0.000000 0.000000
# 2 -0.004370 0.011861 -0.004230 0.000000 0.000000 0.000000
# 3 -0.000652 -0.004230 0.010867 0.000000 0.000000 0.000000
# 4 0.000000 0.000000 0.000000 0.049219 0.000000 0.000000
# 5 0.000000 0.000000 0.000000 0.000000 0.047747 0.000000
# 6 0.000000 0.000000 0.000000 0.000000 0.000000 0.038716
#
#
# Mechanical properties :
#
#
# Convention : Reuss Voigt Hill
#
# Bulk Modulus (GPa) = 70.45423 71.65538 71.05481
# Shear Modulus (GPa) = 26.09405 28.48232 27.28819
#
# Velocity S-wave (km/s) = 3.67132 3.83565 3.75439
# Velocity P-wave (km/s) = 7.37318 7.52523 7.44960
#
# Compressibility (1/GPa) = 0.01419361
#
# Stress axis : x y z
#
# Youngs Moduli (GPa) = 100.30037 84.31163 92.02533
#
# Poissons Ratio (x) = 0.36844 0.06003
# Poissons Ratio (y) = 0.43831 0.38923
# Poissons Ratio (z) = 0.06543 0.35660
#
# Static dielectric constant tensor:
#      x y z
#    x 1.660220 0.000000 0.000000 
#    y 0.000000 1.678170 0.000000 
#    z 0.000000 0.000000 1.655310 
# 
# From -- ./inp_files/34619.got.cif
#   From: 2010.05.17/outbox.cif.g08.bks.cpg/sg24_18_cif.got.tgz:34619.got - 2010.06.04 00:33:39.
