data_PCOD9335884
_publ_section_title
;
Structure prediction by ZEFSAII (Michael W. Deem and Ramdas Pophale) SiO2 
 PCOD9335884
Probable space group: I 21 21 21
;
_chemical_formula_sum "Si O2"
_cell_formula_units_Z 64
_cell_length_a 13.875173
_cell_length_b 24.329616
_cell_length_c 9.052393
_cell_angle_alpha 90.000000
_cell_angle_beta 90.000000
_cell_angle_gamma 90.000000
_cell_volume 3055.885384
_symmetry_space_group_name_H-M "I 21 21 21"
_symmetry_group_IT_number 24
_symmetry_cell_setting 'orthorhombic'
loop_
_space_group_symop_operation_xyz
x,y,z
-x,1/2-y,z
x,-y,1/2-z
1/2-x,y,-z
1/2+x,1/2+y,1/2+z
1/2-x,-y,1/2+z
1/2+x,1/2-y,-z
-x,1/2+y,1/2-z
loop_
_atom_site_type_symbol
_atom_site_label
_atom_site_fract_x
_atom_site_fract_y
_atom_site_fract_z
Si Si1 0.978114 0.403930 0.248366
Si Si2 0.737168 0.783219 0.676734
Si Si3 0.578964 0.704777 0.587789
Si Si4 0.859593 0.588532 0.967576
Si Si5 0.868407 0.535113 0.505882
Si Si6 0.583131 0.359180 0.184425
Si Si7 0.838065 0.124940 0.397034
Si Si8 0.074506 0.702332 0.849123
O O1 0.976359 0.347125 0.156848
O O2 0.912544 0.391352 0.388407
O O3 0.921572 0.448698 0.148198
O O4 0.083550 0.414818 0.318736
O O5 0.750000 0.792539 0.500000
O O6 0.658095 0.734786 0.687424
O O7 0.701625 0.837588 0.763395
O O8 0.834878 0.771205 0.765688
O O9 0.500000 0.750000 0.547209
O O10 0.626695 0.680041 0.440210
O O11 0.866228 0.632828 0.839706
O O12 0.750000 0.579324 0.000000
O O13 0.895867 0.526018 0.942186
O O14 0.750000 0.541108 0.500000
O O15 0.910151 0.580264 0.616458
O O16 0.478303 0.336789 0.228947
O O17 0.750000 0.102405 0.500000
O O18 0.893038 0.166001 0.511326
O O19 0.000000 0.750000 0.891650
#
# Coordination Sequence:
#
# PCOD9335884 Si02
#       8
#     8   8   8   8   8   8   8   8
#     4  11  22  40  69  94 128 177 220 267 330 392
#     4  11  23  39  62  85 121 175 216 268 318 373
#     4  11  23  40  61  90 133 170 223 264 309 384
#     4  11  23  41  63  98 132 166 212 263 335 411
#     4  10  23  41  66  96 134 170 213 268 333 407
#     4  11  22  38  61  90 128 172 207 266 313 390
#     4  10  23  42  61  90 123 172 222 273 325 390
#     4  11  24  39  58  90 129 167 218 261 325 388
#
# _framework density 20.943194999999999
#
# number of rings (size 3 to 8) (size 9 to 14) (size 15 to 20)
#    0.000    1.250    2.500    3.375    3.500    8.000 
#    0.000    0.625    0.000    0.000   13.000    0.000 
#    0.000    0.000    0.000    0.000    0.000    0.000 
#
# Total GULP energy -178538.009611 kJ/mol
# GULP energy per Si atom -5579.312800 kJ/mol
# Density = 2.089553 g / cm^3
# Si number density = 20.943195 Si / 1000 Ang^3
#
#
#
# Elastic Constant Matrix: (Units=GPa)
#
#
# Indices 1 2 3 4 5 6 
#
# 1 90.0809 18.9713 19.7935 -0.0015 0.0006 -0.0004
# 2 18.9713 65.7485 21.0170 -0.0049 -0.0007 0.0005
# 3 19.7935 21.0170 62.2024 -0.0167 0.0104 -0.0029
# 4 -0.0015 -0.0049 -0.0167 37.6764 -0.0004 -0.0003
# 5 0.0006 -0.0007 0.0104 -0.0004 11.4745 -0.0014
# 6 -0.0004 0.0005 -0.0029 -0.0003 -0.0014 24.2890
#
#
#
# Elastic Compliance Matrix: (Units=1/GPa)
#
#
# Indices 1 2 3 4 5 6 
#
# 1 0.012314 -0.002579 -0.003047 -0.000001 0.000002 0.000000
# 2 -0.002579 0.017591 -0.005123 0.000000 0.000006 -0.000001
# 3 -0.003047 -0.005123 0.018777 0.000008 -0.000017 0.000002
# 4 -0.000001 0.000000 0.000008 0.026542 0.000001 0.000000
# 5 0.000002 0.000006 -0.000017 0.000001 0.087150 0.000005
# 6 0.000000 -0.000001 0.000002 0.000000 0.000005 0.041171
#
#
# Mechanical properties :
#
#
# Convention : Reuss Voigt Hill
#
# Bulk Modulus (GPa) = 36.78641 37.51063 37.14852
# Shear Modulus (GPa) = 21.35803 25.23798 23.29800
#
# Velocity S-wave (km/s) = 3.19691 3.47518 3.33894
# Velocity P-wave (km/s) = 5.58838 5.83541 5.71323
#
# Compressibility (1/GPa) = 0.02718395
#
# Stress axis : x y z
#
# Youngs Moduli (GPa) = 81.20968 56.84638 53.25631
#
# Poissons Ratio (x) = 0.14661 0.16227
# Poissons Ratio (y) = 0.20945 0.27284
# Poissons Ratio (z) = 0.24744 0.29123
#
# Static dielectric constant tensor:
#      x y z
#    x 1.789700 0.000010 0.000000 
#    y 0.000010 1.910320 0.000020 
#    z 0.000000 0.000020 1.825400 
# 
# From -- ./inp_files/13372.got.cif
#   From: 2010.05.17/outbox.cif.g08.bks.cpg/sg24_7_cif.got.tgz:13372.got - 2010.06.04 00:33:39.
