data_PCOD9335322
_publ_section_title
;
Structure prediction by ZEFSAII (Michael W. Deem and Ramdas Pophale) SiO2 
 PCOD9335322
Probable space group: I 21 21 21
;
_chemical_formula_sum "Si O2"
_cell_formula_units_Z 48
_cell_length_a 8.833946
_cell_length_b 13.959884
_cell_length_c 16.540786
_cell_angle_alpha 90.000000
_cell_angle_beta 90.000000
_cell_angle_gamma 90.000000
_cell_volume 2039.823978
_symmetry_space_group_name_H-M "I 21 21 21"
_symmetry_group_IT_number 24
_symmetry_cell_setting 'orthorhombic'
loop_
_space_group_symop_operation_xyz
x,y,z
-x,1/2-y,z
x,-y,1/2-z
1/2-x,y,-z
1/2+x,1/2+y,1/2+z
1/2-x,-y,1/2+z
1/2+x,1/2-y,-z
-x,1/2+y,1/2-z
loop_
_atom_site_type_symbol
_atom_site_label
_atom_site_fract_x
_atom_site_fract_y
_atom_site_fract_z
Si Si1 0.875428 0.680558 0.248517
Si Si2 0.828902 0.716029 0.419372
Si Si3 0.049102 0.858808 0.781089
Si Si4 0.895429 0.032094 0.167572
Si Si5 0.392312 0.997025 0.537345
Si Si6 0.928566 0.961383 0.623931
O O1 0.795661 0.736673 0.324900
O O2 0.731066 0.635554 0.204870
O O3 0.000000 0.750000 0.207535
O O4 0.983344 0.603198 0.291474
O O5 0.750000 0.753657 0.500000
O O6 0.819969 0.600570 0.426588
O O7 0.000000 0.750000 0.427893
O O8 0.000000 0.750000 0.794934
O O9 0.962519 0.932585 0.839639
O O10 0.007885 0.891771 0.689513
O O11 0.749400 0.062693 0.116841
O O12 0.997735 0.966027 0.108715
O O13 0.815142 0.000000 0.250000
O O14 0.250000 0.054143 0.500000
O O15 0.496777 0.962542 0.463682
#
# Coordination Sequence:
#
# PCOD9335322 Si02
#       6
#     8   8   8   8   8   8
#     4  10  22  35  58  87 125 167 209 265 324 387
#     4   9  18  31  47  81 117 158 197 239 313 385
#     4  11  23  40  63  94 131 170 221 268 324 389
#     4  11  22  39  63  93 130 165 218 259 324 393
#     4  10  22  38  60  91 127 167 212 264 326 383
#     4  11  23  41  64  95 129 173 216 268 328 386
#
# _framework density 23.531441999999998
#
# number of rings (size 3 to 8) (size 9 to 14) (size 15 to 20)
#    0.000    1.667    1.667    4.500    4.667    6.667 
#    0.000    0.000    0.000    3.000    0.000    0.000 
#    0.000    0.000    0.000    0.000    0.000    0.000 
#
# Total GULP energy -133723.789528 kJ/mol
# GULP energy per Si atom -5571.824564 kJ/mol
# Density = 2.347788 g / cm^3
# Si number density = 23.531442 Si / 1000 Ang^3
#
#
#
# Elastic Constant Matrix: (Units=GPa)
#
#
# Indices 1 2 3 4 5 6 
#
# 1 151.2491 15.7141 10.3213 0.0000 0.0000 0.0000
# 2 15.7141 80.6622 -8.1236 0.0000 0.0000 0.0000
# 3 10.3213 -8.1236 69.5238 0.0000 0.0000 0.0000
# 4 0.0000 0.0000 0.0000 12.0070 0.0000 0.0000
# 5 0.0000 0.0000 0.0000 0.0000 38.8056 0.0000
# 6 0.0000 0.0000 0.0000 0.0000 0.0000 32.0953
#
#
#
# Elastic Compliance Matrix: (Units=1/GPa)
#
#
# Indices 1 2 3 4 5 6 
#
# 1 0.006843 -0.001453 -0.001186 0.000000 0.000000 0.000000
# 2 -0.001453 0.012853 0.001718 0.000000 0.000000 0.000000
# 3 -0.001186 0.001718 0.014760 0.000000 0.000000 0.000000
# 4 0.000000 0.000000 0.000000 0.083285 0.000000 0.000000
# 5 0.000000 0.000000 0.000000 0.000000 0.025769 0.000000
# 6 0.000000 0.000000 0.000000 0.000000 0.000000 0.031157
#
#
# Mechanical properties :
#
#
# Convention : Reuss Voigt Hill
#
# Bulk Modulus (GPa) = 30.66026 37.47317 34.06672
# Shear Modulus (GPa) = 26.68344 35.48313 31.08328
#
# Velocity S-wave (km/s) = 3.37107 3.88739 3.63840
# Velocity P-wave (km/s) = 5.31130 6.00902 5.67090
#
# Compressibility (1/GPa) = 0.03261551
#
# Stress axis : x y z
#
# Youngs Moduli (GPa) = 146.12529 77.80075 67.74945
#
# Poissons Ratio (x) = 0.11301 0.08033
# Poissons Ratio (y) = 0.21226 -0.11636
# Poissons Ratio (z) = 0.17326 -0.13362
#
# Static dielectric constant tensor:
#      x y z
#    x 1.975640 0.000000 0.000000 
#    y 0.000000 2.011010 0.000000 
#    z 0.000000 0.000000 1.986260 
# 
# From -- ./inp_files/29475.got.cif
#   From: 2010.05.17/outbox.cif.g08.bks.cpg/sg24_15_cif.got.tgz:29475.got - 2010.06.04 00:33:39.
