data_PCOD9335483
_publ_section_title
;
Structure prediction by ZEFSAII (Michael W. Deem and Ramdas Pophale) SiO2 
 PCOD9335483
Probable space group: I 21 21 21
;
_chemical_formula_sum "Si O2"
_cell_formula_units_Z 40
_cell_length_a 8.992172
_cell_length_b 26.614943
_cell_length_c 7.714964
_cell_angle_alpha 90.000000
_cell_angle_beta 90.000000
_cell_angle_gamma 90.000000
_cell_volume 1846.392595
_symmetry_space_group_name_H-M "I 21 21 21"
_symmetry_group_IT_number 24
_symmetry_cell_setting 'orthorhombic'
loop_
_space_group_symop_operation_xyz
x,y,z
-x,1/2-y,z
x,-y,1/2-z
1/2-x,y,-z
1/2+x,1/2+y,1/2+z
1/2-x,-y,1/2+z
1/2+x,1/2-y,-z
-x,1/2+y,1/2-z
loop_
_atom_site_type_symbol
_atom_site_label
_atom_site_fract_x
_atom_site_fract_y
_atom_site_fract_z
Si Si1 0.054894 0.595354 0.878960
Si Si2 0.425865 0.802958 0.962851
Si Si3 0.142831 0.443966 0.265751
Si Si4 0.575266 0.411800 0.038597
Si Si5 0.421347 0.199015 0.951546
O O1 0.218898 0.593999 0.790851
O O2 0.951246 0.571224 0.733798
O O3 0.058020 0.562383 0.052757
O O4 0.001761 0.650216 0.940638
O O5 0.500000 0.750000 0.013864
O O6 0.443306 0.808369 0.754836
O O7 0.250000 0.802611 0.000000
O O8 0.206070 0.500000 0.250000
O O9 0.032219 0.564975 0.393726
O O10 0.750000 0.415630 0.000000
O O11 0.530272 0.352650 0.039419
O O12 0.500000 0.250000 0.006651
O O13 0.250000 0.205026 0.000000
#
# Coordination Sequence:
#
# PCOD9335483 Si02
#       5
#     8   8   8   8   8
#     4  11  26  44  77 101 148 187 245 308 369 438
#     4  11  24  42  70 106 153 197 246 301 376 449
#     4  11  27  49  72 103 139 189 254 305 374 443
#     4  11  24  45  71 103 143 183 237 306 371 438
#     4  10  22  40  62  97 140 186 238 290 355 439
#
# _framework density 21.663864
#
# number of rings (size 3 to 8) (size 9 to 14) (size 15 to 20)
#    0.000    1.200    2.000    3.000    8.400    4.800 
#    3.600    0.000    0.000    0.000    0.000    0.000 
#    0.000    0.000    0.000    0.000    0.000    0.000 
#
# Total GULP energy -111798.955071 kJ/mol
# GULP energy per Si atom -5589.947754 kJ/mol
# Density = 2.161456 g / cm^3
# Si number density = 21.663864 Si / 1000 Ang^3
#
#
#
# Elastic Constant Matrix: (Units=GPa)
#
#
# Indices 1 2 3 4 5 6 
#
# 1 102.6984 67.0512 48.1758 -0.0106 -0.0020 0.0001
# 2 67.0512 90.4226 27.7701 0.0112 0.0050 -0.0002
# 3 48.1758 27.7701 122.8963 0.0035 0.0148 0.0014
# 4 -0.0106 0.0112 0.0035 16.3369 0.0026 0.0037
# 5 -0.0020 0.0050 0.0148 0.0026 27.1664 0.0013
# 6 0.0001 -0.0002 0.0014 0.0037 0.0013 21.4663
#
#
#
# Elastic Compliance Matrix: (Units=1/GPa)
#
#
# Indices 1 2 3 4 5 6 
#
# 1 0.021587 -0.014408 -0.005206 0.000025 0.000007 0.000000
# 2 -0.014408 0.021501 0.000790 -0.000024 -0.000005 0.000000
# 3 -0.005206 0.000790 0.009999 -0.000006 -0.000006 -0.000001
# 4 0.000025 -0.000024 -0.000006 0.061211 -0.000006 -0.000011
# 5 0.000007 -0.000005 -0.000006 -0.000006 0.036810 -0.000002
# 6 0.000000 0.000000 -0.000001 -0.000011 -0.000002 0.046585
#
#
# Mechanical properties :
#
#
# Convention : Reuss Voigt Hill
#
# Bulk Modulus (GPa) = 64.77891 66.89017 65.83454
# Shear Modulus (GPa) = 20.79106 24.52860 22.65983
#
# Velocity S-wave (km/s) = 3.10128 3.36852 3.23766
# Velocity P-wave (km/s) = 6.54146 6.78768 6.66571
#
# Compressibility (1/GPa) = 0.01543712
#
# Stress axis : x y z
#
# Youngs Moduli (GPa) = 46.32525 46.50999 100.00616
#
# Poissons Ratio (x) = 0.67012 0.52066
# Poissons Ratio (y) = 0.66746 -0.07897
# Poissons Ratio (z) = 0.24118 -0.03673
#
# Static dielectric constant tensor:
#      x y z
#    x 1.668440 -0.000010 0.000000 
#    y -0.000010 1.786520 -0.000010 
#    z 0.000000 -0.000010 1.826660 
# 
# From -- ./inp_files/9288.got.cif
#   From: 2010.05.17/outbox.cif.g08.bks.cpg/sg24_5_cif.got.tgz:9288.got - 2010.06.04 00:33:39.
