data_PCOD9335193
_publ_section_title
;
Structure prediction by ZEFSAII (Michael W. Deem and Ramdas Pophale) SiO2 
 PCOD9335193
Probable space group: I 21 21 21
;
_chemical_formula_sum "Si O2"
_cell_formula_units_Z 36
_cell_length_a 15.166527
_cell_length_b 19.064522
_cell_length_c 5.349282
_cell_angle_alpha 90.000000
_cell_angle_beta 90.000000
_cell_angle_gamma 90.000000
_cell_volume 1546.705240
_symmetry_space_group_name_H-M "I 21 21 21"
_symmetry_group_IT_number 24
_symmetry_cell_setting 'orthorhombic'
loop_
_space_group_symop_operation_xyz
x,y,z
-x,1/2-y,z
x,-y,1/2-z
1/2-x,y,-z
1/2+x,1/2+y,1/2+z
1/2-x,-y,1/2+z
1/2+x,1/2-y,-z
-x,1/2+y,1/2-z
loop_
_atom_site_type_symbol
_atom_site_label
_atom_site_fract_x
_atom_site_fract_y
_atom_site_fract_z
Si Si1 0.922456 0.378427 0.198484
Si Si2 0.223769 0.389725 0.743491
Si Si3 0.701596 0.735180 0.753568
Si Si4 0.750000 0.539822 0.500000
Si Si5 0.026388 0.416883 0.704192
O O1 0.894434 0.297936 0.247868
O O2 0.830928 0.419371 0.135564
O O3 0.974454 0.406296 0.442392
O O4 0.975259 0.387523 0.943573
O O5 0.250000 0.430949 0.500000
O O6 0.283465 0.318621 0.740481
O O7 0.120239 0.377515 0.715238
O O8 0.250000 0.423492 0.000000
O O9 0.750000 0.713039 0.500000
O O10 0.750000 0.706679 0.000000
O O11 0.711863 0.500000 0.250000
O O12 0.041347 0.500000 0.750000
#
# Coordination Sequence:
#
# PCOD9335193 Si02
#       5
#     8   8   8   4   8
#     4  12  24  42  67  99 138 176 224 285 337 400
#     4  10  23  46  71  96 132 181 229 277 338 404
#     4  10  21  42  66  92 131 175 227 269 327 407
#     4  12  24  38  64  96 136 188 230 266 338 418
#     4  12  26  44  67 105 141 173 226 284 341 402
#
# _framework density 23.275281
#
# number of rings (size 3 to 8) (size 9 to 14) (size 15 to 20)
#    0.000    0.889    1.111    6.667    1.556    0.889 
#    0.000   26.667    0.000    0.000    0.000    0.000 
#    0.000    0.000    0.000    0.000    0.000    0.000 
#
# Total GULP energy -100491.873320 kJ/mol
# GULP energy per Si atom -5582.881851 kJ/mol
# Density = 2.322231 g / cm^3
# Si number density = 23.275281 Si / 1000 Ang^3
#
#
#
# Elastic Constant Matrix: (Units=GPa)
#
#
# Indices 1 2 3 4 5 6 
#
# 1 120.7200 43.5673 65.6143 0.0000 0.0000 0.0000
# 2 43.5673 107.4907 27.8167 0.0000 0.0000 0.0000
# 3 65.6143 27.8167 250.3954 0.0000 0.0000 0.0000
# 4 0.0000 0.0000 0.0000 -46.1287 0.0000 0.0000
# 5 0.0000 0.0000 0.0000 0.0000 46.6765 0.0000
# 6 0.0000 0.0000 0.0000 0.0000 0.0000 161.0362
#
#
#
# Elastic Compliance Matrix: (Units=1/GPa)
#
#
# Indices 1 2 3 4 5 6 
#
# 1 0.010999 -0.003822 -0.002458 0.000000 0.000000 0.000000
# 2 -0.003822 0.010907 -0.000210 0.000000 0.000000 0.000000
# 3 -0.002458 -0.000210 0.004661 0.000000 0.000000 0.000000
# 4 0.000000 0.000000 0.000000 -0.021678 0.000000 0.000000
# 5 0.000000 0.000000 0.000000 0.000000 0.021424 0.000000
# 6 0.000000 0.000000 0.000000 0.000000 0.000000 0.006210
#
#
# Mechanical properties :
#
#
# Convention : Reuss Voigt Hill
#
# Bulk Modulus (GPa) = 73.59925 83.62250 78.61088
# Shear Modulus (GPa) = 99.94031 55.09065 77.51548
#
# Velocity S-wave (km/s) = 6.55985 4.87037 5.77720
# Velocity P-wave (km/s) = 9.43744 8.22393 8.85151
#
# Compressibility (1/GPa) = 0.01358710
#
# Stress axis : x y z
#
# Youngs Moduli (GPa) = 90.91993 91.68774 214.54596
#
# Poissons Ratio (x) = 0.35042 0.52726
# Poissons Ratio (y) = 0.34749 0.04508
# Poissons Ratio (z) = 0.22344 0.01926
#
# Static dielectric constant tensor:
#      x y z
#    x 1.918680 0.000000 0.000000 
#    y 0.000000 1.961730 0.000000 
#    z 0.000000 0.000000 1.842720 
# 
# From -- ./inp_files/3318.got.cif
#   From: 2010.05.17/outbox.cif.g08.bks.cpg/sg24_2_cif.got.tgz:3318.got - 2010.06.04 00:33:39.
