data_PCOD9335269
_publ_section_title
;
Structure prediction by ZEFSAII (Michael W. Deem and Ramdas Pophale) SiO2 
 PCOD9335269
Probable space group: I 21 21 21
;
_chemical_formula_sum "Si O2"
_cell_formula_units_Z 40
_cell_length_a 5.552530
_cell_length_b 18.632247
_cell_length_c 14.614623
_cell_angle_alpha 90.000000
_cell_angle_beta 90.000000
_cell_angle_gamma 90.000000
_cell_volume 1511.972051
_symmetry_space_group_name_H-M "I 21 21 21"
_symmetry_group_IT_number 24
_symmetry_cell_setting 'orthorhombic'
loop_
_space_group_symop_operation_xyz
x,y,z
-x,1/2-y,z
x,-y,1/2-z
1/2-x,y,-z
1/2+x,1/2+y,1/2+z
1/2-x,-y,1/2+z
1/2+x,1/2-y,-z
-x,1/2+y,1/2-z
loop_
_atom_site_type_symbol
_atom_site_label
_atom_site_fract_x
_atom_site_fract_y
_atom_site_fract_z
Si Si1 0.892444 0.670266 0.620459
Si Si2 0.000000 0.750000 0.946858
Si Si3 0.668052 0.847054 0.198895
Si Si4 0.489927 0.977484 0.413469
Si Si5 0.500000 0.250000 0.805562
Si Si6 0.016087 0.531669 0.115444
O O1 0.958344 0.604897 0.555392
O O2 0.610975 0.686852 0.633922
O O3 0.000000 0.750000 0.599133
O O4 0.994102 0.636452 0.715973
O O5 0.012297 0.677738 0.886585
O O6 0.250000 0.751190 0.000000
O O7 0.887759 0.896153 0.163303
O O8 0.792628 0.776462 0.239928
O O9 0.504176 0.027248 0.504404
O O10 0.747277 0.983468 0.363985
O O11 0.250078 0.003377 0.359963
#
# Coordination Sequence:
#
# PCOD9335269 Si02
#       6
#     8   4   8   8   4   8
#     4  10  23  44  77 106 144 192 251 316 369 438
#     4  12  27  42  70 102 145 188 250 298 355 450
#     4  11  24  46  67 105 145 194 237 304 370 427
#     4  10  24  48  69 107 142 194 245 297 368 451
#     4  10  21  44  72 102 143 184 252 310 367 434
#     4  10  25  46  71  98 154 189 237 301 370 454
#
# _framework density 26.455514999999998
#
# number of rings (size 3 to 8) (size 9 to 14) (size 15 to 20)
#    0.000    1.600    3.000    0.600   11.200    0.800 
#    3.600    4.000    0.000    0.000    0.000    0.000 
#    0.000    0.000    0.000    0.000    0.000    0.000 
#
# Total GULP energy -111614.921128 kJ/mol
# GULP energy per Si atom -5580.746056 kJ/mol
# Density = 2.639530 g / cm^3
# Si number density = 26.455515 Si / 1000 Ang^3
#
#
#
# Elastic Constant Matrix: (Units=GPa)
#
#
# Indices 1 2 3 4 5 6 
#
# 1 191.1095 30.7171 28.0583 0.0000 0.0000 0.0000
# 2 30.7171 97.0562 23.7483 0.0000 0.0000 0.0000
# 3 28.0583 23.7483 82.2775 -0.0001 0.0000 0.0000
# 4 0.0000 0.0000 -0.0001 24.9382 0.0000 0.0000
# 5 0.0000 0.0000 0.0000 0.0000 21.5747 0.0000
# 6 0.0000 0.0000 0.0000 0.0000 0.0000 47.1509
#
#
#
# Elastic Compliance Matrix: (Units=1/GPa)
#
#
# Indices 1 2 3 4 5 6 
#
# 1 0.005686 -0.001426 -0.001528 0.000000 0.000000 0.000000
# 2 -0.001426 0.011444 -0.002817 0.000000 0.000000 0.000000
# 3 -0.001528 -0.002817 0.013488 0.000000 0.000000 0.000000
# 4 0.000000 0.000000 0.000000 0.040099 0.000000 0.000000
# 5 0.000000 0.000000 0.000000 0.000000 0.046351 0.000000
# 6 0.000000 0.000000 0.000000 0.000000 0.000000 0.021209
#
#
# Mechanical properties :
#
#
# Convention : Reuss Voigt Hill
#
# Bulk Modulus (GPa) = 52.41800 59.49897 55.95849
# Shear Modulus (GPa) = 32.01523 37.92738 34.97130
#
# Velocity S-wave (km/s) = 3.48250 3.79044 3.63973
# Velocity P-wave (km/s) = 6.00225 6.45721 6.23388
#
# Compressibility (1/GPa) = 0.01907742
#
# Stress axis : x y z
#
# Youngs Moduli (GPa) = 175.86930 87.38353 74.14021
#
# Poissons Ratio (x) = 0.12459 0.11325
# Poissons Ratio (y) = 0.25075 0.20884
# Poissons Ratio (z) = 0.26864 0.24615
#
# Static dielectric constant tensor:
#      x y z
#    x 2.035280 0.000000 0.000000 
#    y 0.000000 2.134780 0.000000 
#    z 0.000000 0.000000 2.274490 
# 
# From -- ./inp_files/28618.got.cif
#   From: 2010.05.17/outbox.cif.g08.bks.cpg/sg24_15_cif.got.tgz:28618.got - 2010.06.04 00:33:39.
