data_PCOD9335563
_publ_section_title
;
Structure prediction by ZEFSAII (Michael W. Deem and Ramdas Pophale) SiO2 
 PCOD9335563
Probable space group: I 21 21 21
;
_chemical_formula_sum "Si O2"
_cell_formula_units_Z 48
_cell_length_a 35.638081
_cell_length_b 9.828940
_cell_length_c 7.423184
_cell_angle_alpha 90.000000
_cell_angle_beta 90.000000
_cell_angle_gamma 90.000000
_cell_volume 2600.226740
_symmetry_space_group_name_H-M "I 21 21 21"
_symmetry_group_IT_number 24
_symmetry_cell_setting 'orthorhombic'
loop_
_space_group_symop_operation_xyz
x,y,z
-x,1/2-y,z
x,-y,1/2-z
1/2-x,y,-z
1/2+x,1/2+y,1/2+z
1/2-x,-y,1/2+z
1/2+x,1/2-y,-z
-x,1/2+y,1/2-z
loop_
_atom_site_type_symbol
_atom_site_label
_atom_site_fract_x
_atom_site_fract_y
_atom_site_fract_z
Si Si1 0.650797 0.500000 0.250000
Si Si2 0.207771 0.406666 0.425539
Si Si3 0.463122 0.337936 0.945339
Si Si4 0.962981 0.158225 0.483505
Si Si5 0.207016 0.913942 0.069113
Si Si6 0.155317 0.500000 0.750000
Si Si7 0.597983 0.759685 0.278511
O O1 0.678204 0.467530 0.418039
O O2 0.622644 0.625392 0.272818
O O3 0.203358 0.500000 0.250000
O O4 0.250000 0.419714 0.500000
O O5 0.200627 0.246444 0.392993
O O6 0.180581 0.457883 0.581995
O O7 0.500000 0.250000 0.982101
O O8 0.455921 0.331842 0.731088
O O9 0.468089 0.494955 0.010315
O O10 0.429575 0.269371 0.052840
O O11 0.928481 0.211743 0.604223
O O12 0.000000 0.250000 0.523550
O O13 0.202500 0.000000 0.250000
O O14 0.250000 0.928678 0.000000
O O15 0.128127 0.377931 0.798354
#
# Coordination Sequence:
#
# PCOD9335563 Si02
#       7
#     4   8   8   8   8   4   8
#     4  12  28  44  61 104 130 178 224 274 333 402
#     4  11  25  43  70  99 127 168 222 278 334 398
#     4  10  22  41  67  95 127 175 216 265 326 387
#     4  10  22  41  66  96 129 171 220 264 321 394
#     4  11  25  45  69  94 130 174 220 272 334 403
#     4  12  24  44  65  98 134 172 218 278 335 394
#     4  12  25  42  63  92 138 170 217 269 330 390
#
# _framework density 18.45993
#
# number of rings (size 3 to 8) (size 9 to 14) (size 15 to 20)
#    0.000    1.000    5.000    0.500    4.667    3.333 
#    0.000    0.000    0.000    0.000    0.000    0.000 
#    0.000    0.000    0.000    0.000    0.000    0.000 
#
# Total GULP energy -134093.873287 kJ/mol
# GULP energy per Si atom -5587.244720 kJ/mol
# Density = 1.841791 g / cm^3
# Si number density = 18.459930 Si / 1000 Ang^3
#
#
#
# Elastic Constant Matrix: (Units=GPa)
#
#
# Indices 1 2 3 4 5 6 
#
# 1 157.6899 97.2410 82.0723 0.0000 0.0000 0.0000
# 2 97.2410 169.3889 82.7649 0.0000 0.0000 0.0000
# 3 82.0723 82.7649 131.0279 0.0000 -0.0001 0.0000
# 4 0.0000 0.0000 0.0000 28.5558 0.0000 0.0000
# 5 0.0000 0.0000 -0.0001 0.0000 250.4466 0.0000
# 6 0.0000 0.0000 0.0000 0.0000 0.0000 45.6449
#
#
#
# Elastic Compliance Matrix: (Units=1/GPa)
#
#
# Indices 1 2 3 4 5 6 
#
# 1 0.011276 -0.004371 -0.004302 0.000000 0.000000 0.000000
# 2 -0.004371 0.010234 -0.003726 0.000000 0.000000 0.000000
# 3 -0.004302 -0.003726 0.012680 0.000000 0.000000 0.000000
# 4 0.000000 0.000000 0.000000 0.035019 0.000000 0.000000
# 5 0.000000 0.000000 0.000000 0.000000 0.003993 0.000000
# 6 0.000000 0.000000 0.000000 0.000000 0.000000 0.021908
#
#
# Mechanical properties :
#
#
# Convention : Reuss Voigt Hill
#
# Bulk Modulus (GPa) = 106.48109 109.14037 107.81073
# Shear Modulus (GPa) = 40.63741 77.99803 59.31772
#
# Velocity S-wave (km/s) = 4.69698 6.50725 5.67477
# Velocity P-wave (km/s) = 9.33933 10.75687 10.07307
#
# Compressibility (1/GPa) = 0.00939134
#
# Stress axis : x y z
#
# Youngs Moduli (GPa) = 88.68233 97.71698 78.86353
#
# Poissons Ratio (x) = 0.42716 0.33926
# Poissons Ratio (y) = 0.38766 0.29385
# Poissons Ratio (z) = 0.38150 0.36410
#
# Static dielectric constant tensor:
#      x y z
#    x 1.636000 0.000000 0.000000 
#    y 0.000000 1.723570 0.000000 
#    z 0.000000 0.000000 1.626420 
# 
# From -- ./inp_files/16850.got.cif
#   From: 2010.05.17/outbox.cif.g08.bks.cpg/sg24_9_cif.got.tgz:16850.got - 2010.06.04 00:33:39.
