data_PCOD9335830
_publ_section_title
;
Structure prediction by ZEFSAII (Michael W. Deem and Ramdas Pophale) SiO2 
 PCOD9335830
Probable space group: I 21 21 21
;
_chemical_formula_sum "Si O2"
_cell_formula_units_Z 36
_cell_length_a 11.735402
_cell_length_b 5.683601
_cell_length_c 24.813263
_cell_angle_alpha 90.000000
_cell_angle_beta 90.000000
_cell_angle_gamma 90.000000
_cell_volume 1655.028328
_symmetry_space_group_name_H-M "I 21 21 21"
_symmetry_group_IT_number 24
_symmetry_cell_setting 'orthorhombic'
loop_
_space_group_symop_operation_xyz
x,y,z
-x,1/2-y,z
x,-y,1/2-z
1/2-x,y,-z
1/2+x,1/2+y,1/2+z
1/2-x,-y,1/2+z
1/2+x,1/2-y,-z
-x,1/2+y,1/2-z
loop_
_atom_site_type_symbol
_atom_site_label
_atom_site_fract_x
_atom_site_fract_y
_atom_site_fract_z
Si Si1 0.676564 0.441138 0.357197
Si Si2 0.556844 0.500000 0.250000
Si Si3 0.500000 0.750000 0.424376
Si Si4 0.429185 0.500000 0.750000
Si Si5 0.367963 0.699205 0.638071
Si Si6 0.293954 0.547281 0.055618
O O1 0.630363 0.396205 0.298466
O O2 0.586110 0.610770 0.386100
O O3 0.798734 0.562231 0.351254
O O4 0.677725 0.224046 0.396820
O O5 0.500000 0.250000 0.230416
O O6 0.410846 0.591489 0.457112
O O7 0.500000 0.750000 0.755149
O O8 0.362138 0.541221 0.693162
O O9 0.500000 0.750000 0.628584
O O10 0.306037 0.601366 0.584621
O O11 0.250000 0.655858 0.000000
#
# Coordination Sequence:
#
# PCOD9335830 Si02
#       6
#     8   4   4   4   8   8
#     4  11  25  44  72 106 146 191 246 307 371 445
#     4  12  26  44  80 114 152 196 248 312 384 454
#     4  10  22  50  64 102 142 186 242 310 372 430
#     4  10  24  44  72 108 152 194 238 306 364 444
#     4  10  26  45  72 106 150 192 243 302 375 448
#     4  11  26  45  75 103 143 196 250 307 372 446
#
# _framework density 21.751894
#
# number of rings (size 3 to 8) (size 9 to 14) (size 15 to 20)
#    0.000    1.333    1.111    2.000   14.000    4.444 
#    4.000    0.000    0.000    0.000    0.000    0.000 
#    0.000    0.000    0.000    0.000    0.000    0.000 
#
# Total GULP energy -100350.852522 kJ/mol
# GULP energy per Si atom -5575.047362 kJ/mol
# Density = 2.170239 g / cm^3
# Si number density = 21.751894 Si / 1000 Ang^3
#
#
#
# Elastic Constant Matrix: (Units=GPa)
#
#
# Indices 1 2 3 4 5 6 
#
# 1 129.6819 32.9990 20.9910 0.0000 0.0000 0.0000
# 2 32.9990 81.1111 24.4257 0.0000 0.0000 0.0000
# 3 20.9910 24.4257 112.8647 0.0000 0.0000 0.0000
# 4 0.0000 0.0000 0.0000 -0.6262 0.0000 0.0000
# 5 0.0000 0.0000 0.0000 0.0000 -84.6878 0.0000
# 6 0.0000 0.0000 0.0000 0.0000 0.0000 12.5421
#
#
#
# Elastic Compliance Matrix: (Units=1/GPa)
#
#
# Indices 1 2 3 4 5 6 
#
# 1 0.008688 -0.003261 -0.000910 0.000000 0.000000 0.000000
# 2 -0.003261 0.014412 -0.002513 0.000000 0.000000 0.000000
# 3 -0.000910 -0.002513 0.009573 0.000000 0.000000 0.000000
# 4 0.000000 0.000000 0.000000 -1.596963 0.000000 0.000000
# 5 0.000000 0.000000 0.000000 0.000000 -0.011808 0.000000
# 6 0.000000 0.000000 0.000000 0.000000 0.000000 0.079731
#
#
# Mechanical properties :
#
#
# Convention : Reuss Voigt Hill
#
# Bulk Modulus (GPa) = 51.79569 53.38767 52.59168
# Shear Modulus (GPa) = -3.38624 1.79509 -0.79557
#
# Velocity S-wave (km/s) = -1.24905 0.90942 -0.60543
# Velocity P-wave (km/s) = 4.66729 5.06951 4.87255
#
# Compressibility (1/GPa) = 0.01930663
#
# Stress axis : x y z
#
# Youngs Moduli (GPa) = 115.09864 69.38707 104.45817
#
# Poissons Ratio (x) = 0.22624 0.09508
# Poissons Ratio (y) = 0.37529 0.26246
# Poissons Ratio (z) = 0.10477 0.17434
#
# Static dielectric constant tensor:
#      x y z
#    x 1.836640 0.000000 0.000000 
#    y 0.000000 3.518910 0.000000 
#    z 0.000000 0.000000 1.816010 
# 
# From -- ./inp_files/2316.got.cif
#   From: 2010.05.17/outbox.cif.g08.bks.cpg/sg24_2_cif.got.tgz:2316.got - 2010.06.04 00:33:39.
