data_PCOD9335366
_publ_section_title
;
Structure prediction by ZEFSAII (Michael W. Deem and Ramdas Pophale) SiO2 
 PCOD9335366
Probable space group: I 21 21 21
;
_chemical_formula_sum "Si O2"
_cell_formula_units_Z 36
_cell_length_a 22.494607
_cell_length_b 14.232115
_cell_length_c 5.301117
_cell_angle_alpha 90.000000
_cell_angle_beta 90.000000
_cell_angle_gamma 90.000000
_cell_volume 1697.130522
_symmetry_space_group_name_H-M "I 21 21 21"
_symmetry_group_IT_number 24
_symmetry_cell_setting 'orthorhombic'
loop_
_space_group_symop_operation_xyz
x,y,z
-x,1/2-y,z
x,-y,1/2-z
1/2-x,y,-z
1/2+x,1/2+y,1/2+z
1/2-x,-y,1/2+z
1/2+x,1/2-y,-z
-x,1/2+y,1/2-z
loop_
_atom_site_type_symbol
_atom_site_label
_atom_site_fract_x
_atom_site_fract_y
_atom_site_fract_z
Si Si1 0.250000 0.092105 0.500000
Si Si2 0.876507 0.413470 0.494494
Si Si3 0.750000 0.721088 0.500000
Si Si4 0.000000 0.250000 0.741558
Si Si5 0.620654 0.286424 0.006394
Si Si6 0.994503 0.952827 0.997211
O O1 0.187876 0.037586 0.491652
O O2 0.251061 0.157698 0.747495
O O3 0.875256 0.354035 0.750425
O O4 0.934837 0.476469 0.497193
O O5 0.882168 0.343290 0.255877
O O6 0.684210 0.768750 0.497768
O O7 0.057240 0.259419 0.926433
O O8 0.995817 0.158512 0.560024
O O9 0.967409 0.000000 0.750000
O O10 0.969405 0.000000 0.250000
#
# Coordination Sequence:
#
# PCOD9335366 Si02
#       6
#     4   8   4   4   8   8
#     4   8  14  26  46  67  98 141 182 216 254 315
#     4   9  17  31  48  72 104 143 184 222 266 323
#     4   8  14  26  44  73 102 135 180 224 268 325
#     4  10  22  38  58  82 114 156 198 238 290 346
#     4   9  17  29  51  75 105 143 183 227 276 331
#     4  11  23  37  54  78 111 148 189 237 286 336
#
# _framework density 21.212274000000001
#
# number of rings (size 3 to 8) (size 9 to 14) (size 15 to 20)
#    0.000    2.667    0.000    2.667    0.000    8.000 
#    0.000    1.111    0.000    1.333    0.000    0.000 
#    0.000   28.444    0.000    7.111    0.000    2.444 
#
# Total GULP energy -100226.558196 kJ/mol
# GULP energy per Si atom -5568.142122 kJ/mol
# Density = 2.116399 g / cm^3
# Si number density = 21.212274 Si / 1000 Ang^3
#
#
#
# Elastic Constant Matrix: (Units=GPa)
#
#
# Indices 1 2 3 4 5 6 
#
# 1 132.0161 0.8873 11.6496 0.0000 0.0000 0.0000
# 2 0.8873 75.1144 42.3320 0.0000 0.0000 0.0000
# 3 11.6496 42.3320 184.3962 0.0000 0.0000 0.0000
# 4 0.0000 0.0000 0.0000 29.8279 0.0000 0.0000
# 5 0.0000 0.0000 0.0000 0.0000 19.9225 0.0000
# 6 0.0000 0.0000 0.0000 0.0000 0.0000 15.0230
#
#
#
# Elastic Compliance Matrix: (Units=1/GPa)
#
#
# Indices 1 2 3 4 5 6 
#
# 1 0.007620 0.000208 -0.000529 0.000000 0.000000 0.000000
# 2 0.000208 0.015297 -0.003525 0.000000 0.000000 0.000000
# 3 -0.000529 -0.003525 0.006266 0.000000 0.000000 0.000000
# 4 0.000000 0.000000 0.000000 0.033526 0.000000 0.000000
# 5 0.000000 0.000000 0.000000 0.000000 0.050194 0.000000
# 6 0.000000 0.000000 0.000000 0.000000 0.000000 0.066565
#
#
# Mechanical properties :
#
#
# Convention : Reuss Voigt Hill
#
# Bulk Modulus (GPa) = 46.53074 55.69607 51.11341
# Shear Modulus (GPa) = 25.73033 35.39853 30.56443
#
# Velocity S-wave (km/s) = 3.48658 4.08950 3.80002
# Velocity P-wave (km/s) = 6.17995 6.97224 6.58802
#
# Compressibility (1/GPa) = 0.02149117
#
# Stress axis : x y z
#
# Youngs Moduli (GPa) = 131.23127 65.37187 159.59756
#
# Poissons Ratio (x) = -0.01361 0.08446
# Poissons Ratio (y) = -0.02733 0.56257
# Poissons Ratio (z) = 0.06945 0.23043
#
# Static dielectric constant tensor:
#      x y z
#    x 1.906920 0.000000 0.000000 
#    y 0.000000 1.754270 0.000000 
#    z 0.000000 0.000000 1.827340 
# 
# From -- ./inp_files/6281.got.cif
#   From: 2010.05.17/outbox.cif.g08.bks.cpg/sg24_4_cif.got.tgz:6281.got - 2010.06.04 00:33:39.
