data_PCOD9335417
_publ_section_title
;
Structure prediction by ZEFSAII (Michael W. Deem and Ramdas Pophale) SiO2 
 PCOD9335417
Probable space group: I 21 21 21
;
_chemical_formula_sum "Si O2"
_cell_formula_units_Z 40
_cell_length_a 10.947139
_cell_length_b 24.647917
_cell_length_c 6.761834
_cell_angle_alpha 90.000000
_cell_angle_beta 90.000000
_cell_angle_gamma 90.000000
_cell_volume 1824.506270
_symmetry_space_group_name_H-M "I 21 21 21"
_symmetry_group_IT_number 24
_symmetry_cell_setting 'orthorhombic'
loop_
_space_group_symop_operation_xyz
x,y,z
-x,1/2-y,z
x,-y,1/2-z
1/2-x,y,-z
1/2+x,1/2+y,1/2+z
1/2-x,-y,1/2+z
1/2+x,1/2-y,-z
-x,1/2+y,1/2-z
loop_
_atom_site_type_symbol
_atom_site_label
_atom_site_fract_x
_atom_site_fract_y
_atom_site_fract_z
Si Si1 0.355515 0.913935 0.127176
Si Si2 0.250000 0.544179 0.000000
Si Si3 0.050410 0.500000 0.750000
Si Si4 0.750000 0.650368 0.500000
Si Si5 0.750000 0.233630 0.500000
Si Si6 0.569722 0.320175 0.681598
Si Si7 0.294083 0.354550 0.778431
O O1 0.300029 0.884632 0.317967
O O2 0.462584 0.949527 0.216522
O O3 0.250000 0.944934 0.000000
O O4 0.402379 0.870536 0.966202
O O5 0.360362 0.505576 0.063375
O O6 0.217792 0.586876 0.173808
O O7 0.642629 0.682262 0.609804
O O8 0.635517 0.271127 0.562136
O O9 0.788232 0.191374 0.671073
O O10 0.429865 0.330473 0.743565
O O11 0.250000 0.359364 0.000000
#
# Coordination Sequence:
#
# PCOD9335417 Si02
#       7
#     8   4   4   4   4   8   8
#     4  10  23  45  70 109 145 182 244 309 366 437
#     4  11  28  48  70 107 143 192 250 303 368 458
#     4  12  26  48  74  98 144 194 236 308 368 432
#     4  10  22  38  75 101 143 191 230 292 380 426
#     4  11  24  46  71 110 146 191 238 307 384 442
#     4  11  22  47  72 105 150 185 244 310 362 453
#     4  11  27  48  71 105 149 196 249 303 376 456
#
# _framework density 21.923741
#
# number of rings (size 3 to 8) (size 9 to 14) (size 15 to 20)
#    0.000    1.200    5.000    0.600    7.000    0.000 
#    3.600    0.000    0.000    0.000    0.000    0.000 
#    0.000    0.000    0.000    0.000    0.000    0.000 
#
# Total GULP energy -111526.142824 kJ/mol
# GULP energy per Si atom -5576.307141 kJ/mol
# Density = 2.187384 g / cm^3
# Si number density = 21.923741 Si / 1000 Ang^3
#
#
#
# Elastic Constant Matrix: (Units=GPa)
#
#
# Indices 1 2 3 4 5 6 
#
# 1 115.1641 40.0400 64.6316 0.0005 0.0000 0.0001
# 2 40.0400 88.3976 57.0833 0.0035 -0.0008 -0.0001
# 3 64.6316 57.0833 166.9208 0.0111 -0.0013 -0.0017
# 4 0.0005 0.0035 0.0111 21.3252 -0.0018 0.0014
# 5 0.0000 -0.0008 -0.0013 -0.0018 44.8823 0.0000
# 6 0.0001 -0.0001 -0.0017 0.0014 0.0000 31.2444
#
#
#
# Elastic Compliance Matrix: (Units=1/GPa)
#
#
# Indices 1 2 3 4 5 6 
#
# 1 0.011700 -0.003047 -0.003488 0.000002 0.000000 0.000000
# 2 -0.003047 0.015312 -0.004057 0.000000 0.000000 0.000000
# 3 -0.003488 -0.004057 0.008729 -0.000004 0.000000 0.000000
# 4 0.000002 0.000000 -0.000004 0.046893 0.000002 -0.000002
# 5 0.000000 0.000000 0.000000 0.000002 0.022281 0.000000
# 6 0.000000 0.000000 0.000000 -0.000002 0.000000 0.032006
#
#
# Mechanical properties :
#
#
# Convention : Reuss Voigt Hill
#
# Bulk Modulus (GPa) = 68.69380 77.11026 72.90203
# Shear Modulus (GPa) = 30.68288 33.40555 32.04421
#
# Velocity S-wave (km/s) = 3.74508 3.90771 3.82726
# Velocity P-wave (km/s) = 7.07827 7.45712 7.27017
#
# Compressibility (1/GPa) = 0.01455735
#
# Stress axis : x y z
#
# Youngs Moduli (GPa) = 85.46739 65.30680 114.56287
#
# Poissons Ratio (x) = 0.19900 0.39963
# Poissons Ratio (y) = 0.26043 0.46474
# Poissons Ratio (z) = 0.29814 0.26493
#
# Static dielectric constant tensor:
#      x y z
#    x 1.905800 0.000000 0.000000 
#    y 0.000000 1.834720 0.000000 
#    z 0.000000 0.000000 1.789350 
# 
# From -- ./inp_files/2573.got.cif
#   From: 2010.05.17/outbox.cif.g08.bks.cpg/sg24_2_cif.got.tgz:2573.got - 2010.06.04 00:33:39.
