data_PCOD9335564
_publ_section_title
;
Structure prediction by ZEFSAII (Michael W. Deem and Ramdas Pophale) SiO2 
 PCOD9335564
Probable space group: I 21 21 21
;
_chemical_formula_sum "Si O2"
_cell_formula_units_Z 56
_cell_length_a 8.975865
_cell_length_b 13.934836
_cell_length_c 21.329179
_cell_angle_alpha 90.000000
_cell_angle_beta 90.000000
_cell_angle_gamma 90.000000
_cell_volume 2667.794131
_symmetry_space_group_name_H-M "I 21 21 21"
_symmetry_group_IT_number 24
_symmetry_cell_setting 'orthorhombic'
loop_
_space_group_symop_operation_xyz
x,y,z
-x,1/2-y,z
x,-y,1/2-z
1/2-x,y,-z
1/2+x,1/2+y,1/2+z
1/2-x,-y,1/2+z
1/2+x,1/2-y,-z
-x,1/2+y,1/2-z
loop_
_atom_site_type_symbol
_atom_site_label
_atom_site_fract_x
_atom_site_fract_y
_atom_site_fract_z
Si Si1 0.752025 0.900357 0.932700
Si Si2 0.987962 0.465444 0.101008
Si Si3 0.754374 0.557896 0.187216
Si Si4 0.176256 0.271963 0.312213
Si Si5 0.010838 0.456140 0.884129
Si Si6 0.761528 0.320303 0.932807
Si Si7 0.279581 0.340082 0.827446
O O1 0.728773 0.832450 0.872478
O O2 0.615451 0.976366 0.934441
O O3 0.900109 0.963942 0.923125
O O4 0.750000 0.848668 0.000000
O O5 0.888325 0.540206 0.139056
O O6 0.870521 0.399140 0.064732
O O7 0.076017 0.396702 0.148603
O O8 0.791655 0.500000 0.250000
O O9 0.738902 0.670884 0.194551
O O10 0.608168 0.509678 0.158944
O O11 0.204247 0.323402 0.246042
O O12 0.000000 0.250000 0.317526
O O13 0.134345 0.402406 0.842949
O O14 0.916630 0.376623 0.922418
O O15 0.734956 0.253585 0.872200
O O16 0.750000 0.267105 0.000000
#
# Coordination Sequence:
#
# PCOD9335564 Si02
#       7
#     8   8   8   8   8   8   8
#     4  11  25  46  69  97 135 180 231 286 346 407
#     4  10  22  41  66  96 133 179 224 275 334 411
#     4  11  23  42  67  98 134 175 222 274 345 409
#     4  12  24  45  72 100 130 173 236 288 334 412
#     4  10  25  43  63 100 138 179 217 283 347 412
#     4  11  22  40  67 101 139 182 225 276 338 410
#     4  11  24  41  67 100 138 174 228 282 340 403
#
# _framework density 20.991125
#
# number of rings (size 3 to 8) (size 9 to 14) (size 15 to 20)
#    0.000    1.143    1.429    5.143    2.000    6.286 
#    2.571    0.714    0.000    0.000    0.000    0.000 
#    0.000    0.000    0.000    0.000    0.000    0.000 
#
# Total GULP energy -156535.249104 kJ/mol
# GULP energy per Si atom -5590.544611 kJ/mol
# Density = 2.094335 g / cm^3
# Si number density = 20.991125 Si / 1000 Ang^3
#
#
#
# Elastic Constant Matrix: (Units=GPa)
#
#
# Indices 1 2 3 4 5 6 
#
# 1 59.8950 -2.6772 -10.8208 0.0000 0.0000 0.0000
# 2 -2.6772 64.8865 29.3641 0.0000 0.0000 0.0000
# 3 -10.8208 29.3641 134.3770 0.0000 0.0000 0.0000
# 4 0.0000 0.0000 0.0000 23.6958 0.0000 0.0000
# 5 0.0000 0.0000 0.0000 0.0000 -4.5255 0.0000
# 6 0.0000 0.0000 0.0000 0.0000 0.0000 39.1488
#
#
#
# Elastic Compliance Matrix: (Units=1/GPa)
#
#
# Indices 1 2 3 4 5 6 
#
# 1 0.016943 0.000091 0.001345 0.000000 0.000000 0.000000
# 2 0.000091 0.017103 -0.003730 0.000000 0.000000 0.000000
# 3 0.001345 -0.003730 0.008365 0.000000 0.000000 0.000000
# 4 0.000000 0.000000 0.000000 0.042202 0.000000 0.000000
# 5 0.000000 0.000000 0.000000 0.000000 -0.220970 0.000000
# 6 0.000000 0.000000 0.000000 0.000000 0.000000 0.025544
#
#
# Mechanical properties :
#
#
# Convention : Reuss Voigt Hill
#
# Bulk Modulus (GPa) = 26.44015 32.32120 29.38067
# Shear Modulus (GPa) = -53.40957 27.88331 -12.76313
#
# Velocity S-wave (km/s) = -5.04967 3.64859 -2.46849
# Velocity P-wave (km/s) = 4.62338 5.76026 2.42951
#
# Compressibility (1/GPa) = 0.03782127
#
# Stress axis : x y z
#
# Youngs Moduli (GPa) = 59.02196 58.46820 119.54384
#
# Poissons Ratio (x) = -0.00530 -0.16073
# Poissons Ratio (y) = -0.00535 0.44591
# Poissons Ratio (z) = -0.07936 0.21809
#
# Static dielectric constant tensor:
#      x y z
#    x 1.740110 0.000000 0.000000 
#    y 0.000000 1.764810 0.000000 
#    z 0.000000 0.000000 1.765670 
# 
# From -- ./inp_files/32822.got.cif
#   From: 2010.05.17/outbox.cif.g08.bks.cpg/sg24_17_cif.got.tgz:32822.got - 2010.06.04 00:33:39.
