data_PCOD9335992
_publ_section_title
;
Structure prediction by ZEFSAII (Michael W. Deem and Ramdas Pophale) SiO2 
 PCOD9335992
Probable space group: I 21 21 21
;
_chemical_formula_sum "Si O2"
_cell_formula_units_Z 40
_cell_length_a 15.972892
_cell_length_b 7.678356
_cell_length_c 14.868631
_cell_angle_alpha 90.000000
_cell_angle_beta 90.000000
_cell_angle_gamma 90.000000
_cell_volume 1823.571443
_symmetry_space_group_name_H-M "I 21 21 21"
_symmetry_group_IT_number 24
_symmetry_cell_setting 'orthorhombic'
loop_
_space_group_symop_operation_xyz
x,y,z
-x,1/2-y,z
x,-y,1/2-z
1/2-x,y,-z
1/2+x,1/2+y,1/2+z
1/2-x,-y,1/2+z
1/2+x,1/2-y,-z
-x,1/2+y,1/2-z
loop_
_atom_site_type_symbol
_atom_site_label
_atom_site_fract_x
_atom_site_fract_y
_atom_site_fract_z
Si Si1 0.989989 0.043395 0.492313
Si Si2 0.245255 0.728038 0.391487
Si Si3 0.572104 0.360784 0.820874
Si Si4 0.618324 0.517529 0.150615
Si Si5 0.183228 0.379846 0.575463
O O1 0.049426 0.984432 0.574169
O O2 0.000000 0.250000 0.478311
O O3 0.894293 0.028788 0.523421
O O4 0.022486 0.946311 0.404429
O O5 0.250000 0.739863 0.500000
O O6 0.151663 0.758846 0.357728
O O7 0.275439 0.533930 0.367497
O O8 0.306743 0.878432 0.356010
O O9 0.500000 0.250000 0.772430
O O10 0.604646 0.500000 0.750000
O O11 0.581181 0.500000 0.250000
O O12 0.652080 0.712512 0.130131
O O13 0.250000 0.319606 0.500000
#
# Coordination Sequence:
#
# PCOD9335992 Si02
#       5
#     8   8   8   8   8
#     4  10  23  45  72 100 141 183 229 294 348 418
#     4  11  22  44  72  98 139 189 227 287 348 414
#     4  12  25  45  70 103 139 182 233 290 357 421
#     4  11  24  44  69 102 144 186 231 290 349 413
#     4  10  23  44  72 104 136 185 235 284 351 415
#
# _framework density 21.934978000000001
#
# number of rings (size 3 to 8) (size 9 to 14) (size 15 to 20)
#    0.000    1.200    2.000    4.200    2.800    0.800 
#   21.600    0.000    0.000    0.000    0.000    0.000 
#    0.000    0.000    0.000    0.000    0.000    0.000 
#
# Total GULP energy -111898.420128 kJ/mol
# GULP energy per Si atom -5594.921006 kJ/mol
# Density = 2.188505 g / cm^3
# Si number density = 21.934978 Si / 1000 Ang^3
#
#
#
# Elastic Constant Matrix: (Units=GPa)
#
#
# Indices 1 2 3 4 5 6 
#
# 1 114.6845 15.3483 18.5566 0.0000 0.0000 0.0000
# 2 15.3483 65.9715 31.5145 0.0000 0.0000 0.0000
# 3 18.5566 31.5145 85.1192 0.0000 0.0000 0.0000
# 4 0.0000 0.0000 0.0000 8.8009 0.0000 0.0000
# 5 0.0000 0.0000 0.0000 0.0000 -17.2125 0.0000
# 6 0.0000 0.0000 0.0000 0.0000 0.0000 37.2918
#
#
#
# Elastic Compliance Matrix: (Units=1/GPa)
#
#
# Indices 1 2 3 4 5 6 
#
# 1 0.009148 -0.001428 -0.001466 0.000000 0.000000 0.000000
# 2 -0.001428 0.018638 -0.006589 0.000000 0.000000 0.000000
# 3 -0.001466 -0.006589 0.014507 0.000000 0.000000 0.000000
# 4 0.000000 0.000000 0.000000 0.113625 0.000000 0.000000
# 5 0.000000 0.000000 0.000000 0.000000 -0.058097 0.000000
# 6 0.000000 0.000000 0.000000 0.000000 0.000000 0.026816
#
#
# Mechanical properties :
#
#
# Convention : Reuss Voigt Hill
#
# Bulk Modulus (GPa) = 42.86809 44.06822 43.46815
# Shear Modulus (GPa) = 33.02998 19.13310 26.08154
#
# Velocity S-wave (km/s) = 3.88469 2.95662 3.45199
# Velocity P-wave (km/s) = 6.30133 5.63821 5.97897
#
# Compressibility (1/GPa) = 0.02332738
#
# Stress axis : x y z
#
# Youngs Moduli (GPa) = 109.31548 53.65391 68.93081
#
# Poissons Ratio (x) = 0.07663 0.10102
# Poissons Ratio (y) = 0.15612 0.45420
# Poissons Ratio (z) = 0.16020 0.35353
#
# Static dielectric constant tensor:
#      x y z
#    x 1.789290 0.000000 0.000000 
#    y 0.000000 1.829170 0.000000 
#    z 0.000000 0.000000 1.778550 
# 
# From -- ./inp_files/12294.got.cif
#   From: 2010.05.17/outbox.cif.g08.bks.cpg/sg24_7_cif.got.tgz:12294.got - 2010.06.04 00:33:39.
