data_PCOD9335749
_publ_section_title
;
Structure prediction by ZEFSAII (Michael W. Deem and Ramdas Pophale) SiO2 
 PCOD9335749
Probable space group: I 21 21 21
;
_chemical_formula_sum "Si O2"
_cell_formula_units_Z 32
_cell_length_a 36.385041
_cell_length_b 5.046381
_cell_length_c 7.663994
_cell_angle_alpha 90.000000
_cell_angle_beta 90.000000
_cell_angle_gamma 90.000000
_cell_volume 1407.207241
_symmetry_space_group_name_H-M "I 21 21 21"
_symmetry_group_IT_number 24
_symmetry_cell_setting 'orthorhombic'
loop_
_space_group_symop_operation_xyz
x,y,z
-x,1/2-y,z
x,-y,1/2-z
1/2-x,y,-z
1/2+x,1/2+y,1/2+z
1/2-x,-y,1/2+z
1/2+x,1/2-y,-z
-x,1/2+y,1/2-z
loop_
_atom_site_type_symbol
_atom_site_label
_atom_site_fract_x
_atom_site_fract_y
_atom_site_fract_z
Si Si1 0.826497 0.148140 0.938527
Si Si2 0.402626 0.763684 0.363295
Si Si3 0.776101 0.000000 0.250000
Si Si4 0.722756 0.500000 0.250000
Si Si5 0.974784 0.495856 0.041020
O O1 0.869319 0.175697 0.988152
O O2 0.804772 0.422810 0.906395
O O3 0.826866 0.000000 0.750000
O O4 0.802300 0.008560 0.083061
O O5 0.413327 0.500000 0.250000
O O6 0.436533 0.920342 0.450026
O O7 0.384860 0.000000 0.250000
O O8 0.749395 0.749385 0.234167
O O9 0.968723 0.500000 0.250000
O O10 0.000000 0.250000 0.996734
O O11 0.000000 0.750000 0.993968
#
# Coordination Sequence:
#
# PCOD9335749 Si02
#       5
#     8   8   4   4   8
#     4  11  27  49  70 107 148 190 244 306 359 433
#     4  11  24  45  71 104 145 188 230 295 361 423
#     4  12  30  44  76 106 138 202 246 294 378 428
#     4  12  26  46  74 104 144 186 250 308 356 428
#     4  10  22  44  71 105 140 181 231 289 348 422
#
# _framework density 22.740075000000001
#
# number of rings (size 3 to 8) (size 9 to 14) (size 15 to 20)
#    0.000    1.000    2.500    2.250    7.000    2.000 
#   18.000    0.000    0.000    0.000    0.000    0.000 
#    0.000    0.000    0.000    0.000    0.000    0.000 
#
# Total GULP energy -89367.205157 kJ/mol
# GULP energy per Si atom -5585.450322 kJ/mol
# Density = 2.268832 g / cm^3
# Si number density = 22.740075 Si / 1000 Ang^3
#
#
#
# Elastic Constant Matrix: (Units=GPa)
#
#
# Indices 1 2 3 4 5 6 
#
# 1 210.6666 71.7632 56.7334 0.0000 0.0000 0.0000
# 2 71.7632 186.7418 31.7722 0.0000 0.0000 0.0000
# 3 56.7334 31.7722 60.2326 0.0000 0.0000 0.0000
# 4 0.0000 0.0000 0.0000 54.7954 0.0000 0.0000
# 5 0.0000 0.0000 0.0000 0.0000 182.7819 0.0000
# 6 0.0000 0.0000 0.0000 0.0000 0.0000 25.1405
#
#
#
# Elastic Compliance Matrix: (Units=1/GPa)
#
#
# Indices 1 2 3 4 5 6 
#
# 1 0.006806 -0.001675 -0.005527 0.000000 0.000000 0.000000
# 2 -0.001675 0.006295 -0.001743 0.000000 0.000000 0.000000
# 3 -0.005527 -0.001743 0.022727 0.000000 0.000000 0.000000
# 4 0.000000 0.000000 0.000000 0.018250 0.000000 0.000000
# 5 0.000000 0.000000 0.000000 0.000000 0.005471 0.000000
# 6 0.000000 0.000000 0.000000 0.000000 0.000000 0.039776
#
#
# Mechanical properties :
#
#
# Convention : Reuss Voigt Hill
#
# Bulk Modulus (GPa) = 55.74506 86.46429 71.10468
# Shear Modulus (GPa) = 40.58604 72.36838 56.47721
#
# Velocity S-wave (km/s) = 4.22925 5.64741 4.98898
# Velocity P-wave (km/s) = 6.95816 8.97941 8.03261
#
# Compressibility (1/GPa) = 0.01793881
#
# Stress axis : x y z
#
# Youngs Moduli (GPa) = 146.93214 158.84994 43.99965
#
# Poissons Ratio (x) = 0.26609 0.24318
# Poissons Ratio (y) = 0.24612 0.07669
# Poissons Ratio (z) = 0.81208 0.27686
#
# Static dielectric constant tensor:
#      x y z
#    x 1.555160 0.000000 0.000000 
#    y 0.000000 1.824000 0.000000 
#    z 0.000000 0.000000 1.966960 
# 
# From -- ./inp_files/16571.got.cif
#   From: 2010.05.17/outbox.cif.g08.bks.cpg/sg24_9_cif.got.tgz:16571.got - 2010.06.04 00:33:39.
