data_PCOD9335427
_publ_section_title
;
Structure prediction by ZEFSAII (Michael W. Deem and Ramdas Pophale) SiO2 
 PCOD9335427
Probable space group: I 21 21 21
;
_chemical_formula_sum "Si O2"
_cell_formula_units_Z 56
_cell_length_a 12.555764
_cell_length_b 17.436320
_cell_length_c 13.295555
_cell_angle_alpha 90.000000
_cell_angle_beta 90.000000
_cell_angle_gamma 90.000000
_cell_volume 2910.746915
_symmetry_space_group_name_H-M "I 21 21 21"
_symmetry_group_IT_number 24
_symmetry_cell_setting 'orthorhombic'
loop_
_space_group_symop_operation_xyz
x,y,z
-x,1/2-y,z
x,-y,1/2-z
1/2-x,y,-z
1/2+x,1/2+y,1/2+z
1/2-x,-y,1/2+z
1/2+x,1/2-y,-z
-x,1/2+y,1/2-z
loop_
_atom_site_type_symbol
_atom_site_label
_atom_site_fract_x
_atom_site_fract_y
_atom_site_fract_z
Si Si1 0.810684 0.152863 0.107485
Si Si2 0.450831 0.835702 0.154607
Si Si3 0.982316 0.928999 0.495777
Si Si4 0.849389 0.680528 0.425830
Si Si5 0.370908 0.923839 0.965030
Si Si6 0.236608 0.909165 0.239223
Si Si7 0.125909 0.581142 0.713603
O O1 0.865163 0.235182 0.119669
O O2 0.723234 0.138058 0.192020
O O3 0.750000 0.154998 0.000000
O O4 0.893926 0.084348 0.090324
O O5 0.500000 0.750000 0.160034
O O6 0.341318 0.857782 0.214254
O O7 0.541450 0.887988 0.206009
O O8 0.420778 0.860937 0.040683
O O9 0.053249 0.852575 0.488797
O O10 0.931623 0.931861 0.606229
O O11 0.055219 0.002109 0.476164
O O12 0.750000 0.684667 0.500000
O O13 0.817766 0.620705 0.339848
O O14 0.349317 0.900601 0.850435
O O15 0.250000 0.942769 0.000000
O O16 0.265662 0.000000 0.250000
O O17 0.168937 0.500000 0.750000
#
# Coordination Sequence:
#
# PCOD9335427 Si02
#       7
#     8   8   8   8   8   8   8
#     4   9  22  38  56  86 129 160 202 259 319 380
#     4  11  23  39  64  93 125 161 211 264 317 374
#     4  11  20  37  62  88 126 163 205 262 324 383
#     4  11  21  36  61  95 127 159 199 263 336 379
#     4  10  22  39  63  92 126 164 210 261 317 384
#     4  11  22  37  64  97 127 162 207 268 322 387
#     4  11  21  38  64  92 120 165 219 263 307 379
#
# _framework density 19.239049000000001
#
# number of rings (size 3 to 8) (size 9 to 14) (size 15 to 20)
#    0.000    1.429    2.857    3.000    4.000    2.286 
#    2.571    1.429    9.429    0.000    0.000    0.000 
#    0.000    0.000    0.000    0.000    0.000    0.000 
#
# Total GULP energy -156215.102943 kJ/mol
# GULP energy per Si atom -5579.110819 kJ/mol
# Density = 1.919526 g / cm^3
# Si number density = 19.239049 Si / 1000 Ang^3
#
#
#
# Elastic Constant Matrix: (Units=GPa)
#
#
# Indices 1 2 3 4 5 6 
#
# 1 57.4005 18.7968 15.4551 0.0000 0.0000 0.0000
# 2 18.7968 89.4581 17.1915 -0.0001 0.0000 0.0000
# 3 15.4551 17.1915 72.9693 -0.0002 0.0000 0.0000
# 4 0.0000 -0.0001 -0.0002 16.2101 0.0000 0.0000
# 5 0.0000 0.0000 0.0000 0.0000 26.1880 0.0000
# 6 0.0000 0.0000 0.0000 0.0000 0.0000 17.7978
#
#
#
# Elastic Compliance Matrix: (Units=1/GPa)
#
#
# Indices 1 2 3 4 5 6 
#
# 1 0.019441 -0.003450 -0.003305 0.000000 0.000000 0.000000
# 2 -0.003450 0.012321 -0.002172 0.000000 0.000000 0.000000
# 3 -0.003305 -0.002172 0.014916 0.000000 0.000000 0.000000
# 4 0.000000 0.000000 0.000000 0.061690 0.000000 0.000000
# 5 0.000000 0.000000 0.000000 0.000000 0.038185 0.000000
# 6 0.000000 0.000000 0.000000 0.000000 0.000000 0.056187
#
#
# Mechanical properties :
#
#
# Convention : Reuss Voigt Hill
#
# Bulk Modulus (GPa) = 34.69298 35.85721 35.27509
# Shear Modulus (GPa) = 21.72010 23.26481 22.49246
#
# Velocity S-wave (km/s) = 3.36364 3.48120 3.42293
# Velocity P-wave (km/s) = 5.75823 5.90225 5.83068
#
# Compressibility (1/GPa) = 0.02882428
#
# Stress axis : x y z
#
# Youngs Moduli (GPa) = 51.43771 81.16420 67.04156
#
# Poissons Ratio (x) = 0.28000 0.22157
# Poissons Ratio (y) = 0.17745 0.14562
# Poissons Ratio (z) = 0.17000 0.17629
#
# Static dielectric constant tensor:
#      x y z
#    x 1.684490 0.000000 0.000000 
#    y 0.000000 1.678390 0.000000 
#    z 0.000000 0.000000 1.680510 
# 
# From -- ./inp_files/25810.got.cif
#   From: 2010.05.17/outbox.cif.g08.bks.cpg/sg24_13_cif.got.tgz:25810.got - 2010.06.04 00:33:39.
