data_PCOD9335613
_publ_section_title
;
Structure prediction by ZEFSAII (Michael W. Deem and Ramdas Pophale) SiO2 
 PCOD9335613
Probable space group: I 21 21 21
;
_chemical_formula_sum "Si O2"
_cell_formula_units_Z 36
_cell_length_a 19.497364
_cell_length_b 14.565119
_cell_length_c 5.207572
_cell_angle_alpha 90.000000
_cell_angle_beta 90.000000
_cell_angle_gamma 90.000000
_cell_volume 1478.853727
_symmetry_space_group_name_H-M "I 21 21 21"
_symmetry_group_IT_number 24
_symmetry_cell_setting 'orthorhombic'
loop_
_space_group_symop_operation_xyz
x,y,z
-x,1/2-y,z
x,-y,1/2-z
1/2-x,y,-z
1/2+x,1/2+y,1/2+z
1/2-x,-y,1/2+z
1/2+x,1/2-y,-z
-x,1/2+y,1/2-z
loop_
_atom_site_type_symbol
_atom_site_label
_atom_site_fract_x
_atom_site_fract_y
_atom_site_fract_z
Si Si1 0.295787 0.500000 0.250000
Si Si2 0.892476 0.848188 0.987874
Si Si3 0.908188 0.406043 0.972788
Si Si4 0.475737 0.500000 0.750000
Si Si5 0.500000 0.750000 0.362522
Si Si6 0.669428 0.352252 0.544422
O O1 0.250000 0.520967 0.500000
O O2 0.342664 0.413811 0.325549
O O3 0.852293 0.755414 0.060672
O O4 0.956497 0.816505 0.817709
O O5 0.926313 0.913334 0.203382
O O6 0.970000 0.477390 0.024262
O O7 0.852048 0.403672 0.196188
O O8 0.947665 0.309719 0.021170
O O9 0.871865 0.396173 0.697156
O O10 0.750000 0.358796 0.500000
#
# Coordination Sequence:
#
# PCOD9335613 Si02
#       6
#     4   8   8   4   4   8
#     4  12  27  44  64 100 141 180 218 268 342 414
#     4  11  24  42  70 100 138 177 224 285 340 404
#     4  11  24  42  70  99 135 175 224 284 337 399
#     4  12  23  44  72 108 139 174 228 292 358 398
#     4  10  22  42  66 100 134 178 230 280 340 400
#     4  11  25  46  69  98 133 183 230 271 329 411
#
# _framework density 24.343178999999999
#
# number of rings (size 3 to 8) (size 9 to 14) (size 15 to 20)
#    0.000    0.889    0.000    7.333    0.000   12.444 
#    0.000    2.222    0.000    0.000    0.000    0.000 
#    0.000    0.000    0.000    0.000    0.000    0.000 
#
# Total GULP energy -100840.003860 kJ/mol
# GULP energy per Si atom -5602.222437 kJ/mol
# Density = 2.428777 g / cm^3
# Si number density = 24.343179 Si / 1000 Ang^3
#
#
#
# Elastic Constant Matrix: (Units=GPa)
#
#
# Indices 1 2 3 4 5 6 
#
# 1 149.4188 31.2859 48.0848 0.0000 0.0000 0.0000
# 2 31.2859 104.7458 12.9631 0.0000 0.0000 0.0000
# 3 48.0848 12.9631 113.3726 0.0000 0.0000 0.0000
# 4 0.0000 0.0000 0.0000 34.7432 0.0000 0.0000
# 5 0.0000 0.0000 0.0000 0.0000 54.2571 0.0000
# 6 0.0000 0.0000 0.0000 0.0000 0.0000 31.1956
#
#
#
# Elastic Compliance Matrix: (Units=1/GPa)
#
#
# Indices 1 2 3 4 5 6 
#
# 1 0.008158 -0.002037 -0.003227 0.000000 0.000000 0.000000
# 2 -0.002037 0.010193 -0.000301 0.000000 0.000000 0.000000
# 3 -0.003227 -0.000301 0.010224 0.000000 0.000000 0.000000
# 4 0.000000 0.000000 0.000000 0.028783 0.000000 0.000000
# 5 0.000000 0.000000 0.000000 0.000000 0.018431 0.000000
# 6 0.000000 0.000000 0.000000 0.000000 0.000000 0.032056
#
#
# Mechanical properties :
#
#
# Convention : Reuss Voigt Hill
#
# Bulk Modulus (GPa) = 57.33025 61.35609 59.34317
# Shear Modulus (GPa) = 40.06777 42.38606 41.22691
#
# Velocity S-wave (km/s) = 4.06144 4.17728 4.11977
# Velocity P-wave (km/s) = 6.75246 6.96603 6.86008
#
# Compressibility (1/GPa) = 0.01744280
#
# Stress axis : x y z
#
# Youngs Moduli (GPa) = 122.58452 98.10937 97.81290
#
# Poissons Ratio (x) = 0.19987 0.31564
# Poissons Ratio (y) = 0.24973 0.02948
# Poissons Ratio (z) = 0.39558 0.02957
#
# Static dielectric constant tensor:
#      x y z
#    x 1.869680 0.000000 0.000000 
#    y 0.000000 1.960470 0.000000 
#    z 0.000000 0.000000 1.996440 
# 
# From -- ./inp_files/5420.got.cif
#   From: 2010.05.17/outbox.cif.g08.bks.cpg/sg24_3_cif.got.tgz:5420.got - 2010.06.04 00:33:39.
