data_PCOD9335035
_publ_section_title
;
Structure prediction by ZEFSAII (Michael W. Deem and Ramdas Pophale) SiO2 
 PCOD9335035
Probable space group: I 21 21 21
;
_chemical_formula_sum "Si O2"
_cell_formula_units_Z 44
_cell_length_a 5.438909
_cell_length_b 21.456598
_cell_length_c 15.923214
_cell_angle_alpha 90.000000
_cell_angle_beta 90.000000
_cell_angle_gamma 90.000000
_cell_volume 1858.246780
_symmetry_space_group_name_H-M "I 21 21 21"
_symmetry_group_IT_number 24
_symmetry_cell_setting 'orthorhombic'
loop_
_space_group_symop_operation_xyz
x,y,z
-x,1/2-y,z
x,-y,1/2-z
1/2-x,y,-z
1/2+x,1/2+y,1/2+z
1/2-x,-y,1/2+z
1/2+x,1/2-y,-z
-x,1/2+y,1/2-z
loop_
_atom_site_type_symbol
_atom_site_label
_atom_site_fract_x
_atom_site_fract_y
_atom_site_fract_z
Si Si1 0.989232 0.618010 0.212260
Si Si2 0.500220 0.493510 0.452306
Si Si3 0.000000 0.750000 0.290248
Si Si4 0.994568 0.418026 0.802179
Si Si5 0.499582 0.142064 0.518839
Si Si6 0.622456 0.189057 0.079240
O O1 0.933029 0.690637 0.234046
O O2 0.752713 0.582007 0.247796
O O3 0.247487 0.596118 0.254328
O O4 0.006335 0.615057 0.112542
O O5 0.750000 0.514963 0.500000
O O6 0.486670 0.520788 0.359262
O O7 0.505860 0.418459 0.457757
O O8 0.250000 0.512041 0.500000
O O9 0.794465 0.778907 0.350991
O O10 0.964868 0.361294 0.870292
O O11 0.750000 0.176838 0.500000
O O12 0.250000 0.177288 0.500000
O O13 0.500000 0.250000 0.039287
O O14 0.750000 0.156563 0.000000
#
# Coordination Sequence:
#
# PCOD9335035 Si02
#       6
#     8   8   4   8   8   8
#     4  11  23  41  65  91 126 163 206 255 316 365
#     4  10  21  40  61  86 122 163 203 255 305 360
#     4  10  22  38  56  90 126 164 206 258 294 366
#     4  11  23  38  61  94 125 165 206 252 306 375
#     4  10  22  44  66  89 121 160 207 264 314 367
#     4  11  20  33  55  86 128 168 201 242 299 371
#
# _framework density 23.678234
#
# number of rings (size 3 to 8) (size 9 to 14) (size 15 to 20)
#    0.000    1.455    2.727    2.727    0.000    2.182 
#    0.000   22.727    0.000    0.000    0.000    0.000 
#    0.000    0.000    0.000    0.000    0.000    0.000 
#
# Total GULP energy -122980.299845 kJ/mol
# GULP energy per Si atom -5590.013629 kJ/mol
# Density = 2.362434 g / cm^3
# Si number density = 23.678234 Si / 1000 Ang^3
#
#
#
# Elastic Constant Matrix: (Units=GPa)
#
#
# Indices 1 2 3 4 5 6 
#
# 1 200.1331 14.9985 58.8050 0.0000 0.0000 0.0000
# 2 14.9985 108.2660 24.0498 0.0000 0.0000 0.0000
# 3 58.8050 24.0498 104.6381 0.0000 0.0000 0.0000
# 4 0.0000 0.0000 0.0000 26.1167 0.0000 0.0000
# 5 0.0000 0.0000 0.0000 0.0000 44.4892 0.0000
# 6 0.0000 0.0000 0.0000 0.0000 0.0000 8.0986
#
#
#
# Elastic Compliance Matrix: (Units=1/GPa)
#
#
# Indices 1 2 3 4 5 6 
#
# 1 0.005986 -0.000086 -0.003344 0.000000 0.000000 0.000000
# 2 -0.000086 0.009735 -0.002189 0.000000 0.000000 0.000000
# 3 -0.003344 -0.002189 0.011939 0.000000 0.000000 0.000000
# 4 0.000000 0.000000 0.000000 0.038290 0.000000 0.000000
# 5 0.000000 0.000000 0.000000 0.000000 0.022477 0.000000
# 6 0.000000 0.000000 0.000000 0.000000 0.000000 0.123477
#
#
# Mechanical properties :
#
#
# Convention : Reuss Voigt Hill
#
# Bulk Modulus (GPa) = 60.89761 67.63819 64.26790
# Shear Modulus (GPa) = 21.87071 36.75317 29.31194
#
# Velocity S-wave (km/s) = 3.04248 3.94406 3.52224
# Velocity P-wave (km/s) = 6.17389 7.02626 6.61382
#
# Compressibility (1/GPa) = 0.01642101
#
# Stress axis : x y z
#
# Youngs Moduli (GPa) = 167.06414 102.72530 83.75823
#
# Poissons Ratio (x) = 0.00888 0.28009
# Poissons Ratio (y) = 0.01443 0.18333
# Poissons Ratio (z) = 0.55867 0.22485
#
# Static dielectric constant tensor:
#      x y z
#    x 2.005440 0.000000 0.000000 
#    y 0.000000 1.893850 0.000000 
#    z 0.000000 0.000000 1.876710 
# 
# From -- ./inp_files/23857.got.cif
#   From: 2010.05.17/outbox.cif.g08.bks.cpg/sg24_12_cif.got.tgz:23857.got - 2010.06.04 00:33:39.
