data_PCOD9335087
_publ_section_title
;
Structure prediction by ZEFSAII (Michael W. Deem and Ramdas Pophale) SiO2 
 PCOD9335087
Probable space group: I 21 21 21
;
_chemical_formula_sum "Si O2"
_cell_formula_units_Z 40
_cell_length_a 18.991831
_cell_length_b 8.471005
_cell_length_c 11.298508
_cell_angle_alpha 90.000000
_cell_angle_beta 90.000000
_cell_angle_gamma 90.000000
_cell_volume 1817.702785
_symmetry_space_group_name_H-M "I 21 21 21"
_symmetry_group_IT_number 24
_symmetry_cell_setting 'orthorhombic'
loop_
_space_group_symop_operation_xyz
x,y,z
-x,1/2-y,z
x,-y,1/2-z
1/2-x,y,-z
1/2+x,1/2+y,1/2+z
1/2-x,-y,1/2+z
1/2+x,1/2-y,-z
-x,1/2+y,1/2-z
loop_
_atom_site_type_symbol
_atom_site_label
_atom_site_fract_x
_atom_site_fract_y
_atom_site_fract_z
Si Si1 0.929803 0.151668 0.396618
Si Si2 0.809541 0.837240 0.677301
Si Si3 0.572396 0.831452 0.179825
Si Si4 0.833606 0.324265 0.213509
Si Si5 0.424325 0.307541 0.970665
O O1 0.920933 0.166283 0.538864
O O2 0.865095 0.223655 0.323093
O O3 0.000000 0.250000 0.364078
O O4 0.936013 0.961997 0.388441
O O5 0.859777 0.743476 0.768232
O O6 0.734964 0.758496 0.658868
O O7 0.861227 0.847052 0.563364
O O8 0.794840 0.000000 0.750000
O O9 0.500000 0.750000 0.207900
O O10 0.569185 0.000000 0.250000
O O11 0.815858 0.500000 0.250000
O O12 0.893973 0.326921 0.114091
O O13 0.500000 0.250000 0.019851
#
# Coordination Sequence:
#
# PCOD9335087 Si02
#       5
#     8   8   8   8   8
#     4  11  23  44  73 104 134 184 228 285 345 409
#     4  11  23  46  69 102 138 183 224 279 353 414
#     4  10  21  40  67 102 140 174 229 279 342 409
#     4  12  28  48  66 101 143 185 236 286 343 410
#     4  12  24  46  75 103 140 180 230 286 346 414
#
# _framework density 22.005796
#
# number of rings (size 3 to 8) (size 9 to 14) (size 15 to 20)
#    0.000    0.800    4.000    4.800    0.000    1.600 
#   10.800    0.000    0.000    0.000    0.000    0.000 
#    0.000    0.000    0.000    0.000    0.000    0.000 
#
# Total GULP energy -111540.862358 kJ/mol
# GULP energy per Si atom -5577.043118 kJ/mol
# Density = 2.195571 g / cm^3
# Si number density = 22.005796 Si / 1000 Ang^3
#
#
#
# Elastic Constant Matrix: (Units=GPa)
#
#
# Indices 1 2 3 4 5 6 
#
# 1 159.4393 40.2079 50.8235 0.0000 0.0000 0.0000
# 2 40.2079 79.2139 23.8956 0.0000 0.0000 0.0000
# 3 50.8235 23.8956 93.5671 0.0000 0.0000 0.0000
# 4 0.0000 0.0000 0.0000 18.2297 0.0000 0.0000
# 5 0.0000 0.0000 0.0000 0.0000 41.6977 0.0000
# 6 0.0000 0.0000 0.0000 0.0000 0.0000 35.4606
#
#
#
# Elastic Compliance Matrix: (Units=1/GPa)
#
#
# Indices 1 2 3 4 5 6 
#
# 1 0.008217 -0.003060 -0.003682 0.000000 0.000000 0.000000
# 2 -0.003060 0.014818 -0.002122 0.000000 0.000000 0.000000
# 3 -0.003682 -0.002122 0.013229 0.000000 0.000000 0.000000
# 4 0.000000 0.000000 0.000000 0.054856 0.000000 0.000000
# 5 0.000000 0.000000 0.000000 0.000000 0.023982 0.000000
# 6 0.000000 0.000000 0.000000 0.000000 0.000000 0.028200
#
#
# Mechanical properties :
#
#
# Convention : Reuss Voigt Hill
#
# Bulk Modulus (GPa) = 53.94911 62.45270 58.20090
# Shear Modulus (GPa) = 29.90264 33.56381 31.73323
#
# Velocity S-wave (km/s) = 3.69026 3.90965 3.80154
# Velocity P-wave (km/s) = 6.53655 6.98729 6.76567
#
# Compressibility (1/GPa) = 0.01853599
#
# Stress axis : x y z
#
# Youngs Moduli (GPa) = 121.69265 67.48762 75.58943
#
# Poissons Ratio (x) = 0.20654 0.27832
# Poissons Ratio (y) = 0.37242 0.16039
# Poissons Ratio (z) = 0.44807 0.14320
#
# Static dielectric constant tensor:
#      x y z
#    x 1.813630 0.000000 0.000000 
#    y 0.000000 1.839330 0.000000 
#    z 0.000000 0.000000 1.864940 
# 
# From -- ./inp_files/22036.got.cif
#   From: 2010.05.17/outbox.cif.g08.bks.cpg/sg24_12_cif.got.tgz:22036.got - 2010.06.04 00:33:39.
