data_PCOD9335886
_publ_section_title
;
Structure prediction by ZEFSAII (Michael W. Deem and Ramdas Pophale) SiO2 
 PCOD9335886
Probable space group: I 21 21 21
;
_chemical_formula_sum "Si O2"
_cell_formula_units_Z 48
_cell_length_a 6.507544
_cell_length_b 15.204878
_cell_length_c 23.205316
_cell_angle_alpha 90.000000
_cell_angle_beta 90.000000
_cell_angle_gamma 90.000000
_cell_volume 2296.082771
_symmetry_space_group_name_H-M "I 21 21 21"
_symmetry_group_IT_number 24
_symmetry_cell_setting 'orthorhombic'
loop_
_space_group_symop_operation_xyz
x,y,z
-x,1/2-y,z
x,-y,1/2-z
1/2-x,y,-z
1/2+x,1/2+y,1/2+z
1/2-x,-y,1/2+z
1/2+x,1/2-y,-z
-x,1/2+y,1/2-z
loop_
_atom_site_type_symbol
_atom_site_label
_atom_site_fract_x
_atom_site_fract_y
_atom_site_fract_z
Si Si1 0.888401 0.992541 0.444888
Si Si2 0.214123 0.022929 0.686786
Si Si3 0.000000 0.250000 0.924576
Si Si4 0.461784 0.349984 0.622211
Si Si5 0.750000 0.611512 0.500000
Si Si6 0.140394 0.396136 0.847817
Si Si7 0.369550 0.340022 0.277072
O O1 0.750000 0.969721 0.500000
O O2 0.891376 0.096069 0.433618
O O3 0.785319 0.957327 0.386081
O O4 0.106721 0.948807 0.459670
O O5 0.362675 0.083483 0.647868
O O6 0.026626 0.086448 0.702272
O O7 0.309022 0.000000 0.750000
O O8 0.090461 0.939333 0.658751
O O9 0.889832 0.322865 0.962939
O O10 0.856142 0.194741 0.882629
O O11 0.500000 0.250000 0.604406
O O12 0.302820 0.335804 0.674598
O O13 0.214784 0.373966 0.783911
O O14 0.500000 0.250000 0.269796
#
# Coordination Sequence:
#
# PCOD9335886 Si02
#       7
#     8   8   4   8   4   8   8
#     4  12  27  49  70  98 138 189 241 292 352 415
#     4  10  23  41  67 100 139 182 221 286 354 423
#     4  12  22  42  70 100 134 182 222 286 356 404
#     4  12  26  44  70 102 136 186 239 290 352 415
#     4  12  26  48  70 102 144 180 240 294 342 428
#     4  11  23  44  70 102 140 181 226 286 362 428
#     4  11  22  44  68 103 146 177 227 288 352 432
#
# _framework density 20.905170999999999
#
# number of rings (size 3 to 8) (size 9 to 14) (size 15 to 20)
#    0.000    0.667    5.833    2.000    2.333    0.000 
#    4.500    0.000    0.000    0.000    0.000    0.000 
#    0.000    0.000    0.000    0.000    0.000    0.000 
#
# Total GULP energy -133922.598237 kJ/mol
# GULP energy per Si atom -5580.108260 kJ/mol
# Density = 2.085759 g / cm^3
# Si number density = 20.905171 Si / 1000 Ang^3
#
#
#
# Elastic Constant Matrix: (Units=GPa)
#
#
# Indices 1 2 3 4 5 6 
#
# 1 52.6489 25.3397 37.8089 0.0000 0.0000 0.0000
# 2 25.3397 128.8901 35.0651 0.0000 0.0000 0.0000
# 3 37.8089 35.0651 85.0706 0.0000 0.0000 0.0000
# 4 0.0000 0.0000 0.0000 44.1982 0.0000 0.0000
# 5 0.0000 0.0000 0.0000 0.0000 -345.9556 0.0000
# 6 0.0000 0.0000 0.0000 0.0000 0.0000 25.0747
#
#
#
# Elastic Compliance Matrix: (Units=1/GPa)
#
#
# Indices 1 2 3 4 5 6 
#
# 1 0.028560 -0.002435 -0.011690 0.000000 0.000000 0.000000
# 2 -0.002435 0.008946 -0.002605 0.000000 0.000000 0.000000
# 3 -0.011690 -0.002605 0.018024 0.000000 0.000000 0.000000
# 4 0.000000 0.000000 0.000000 0.022625 0.000000 0.000000
# 5 0.000000 0.000000 0.000000 0.000000 -0.002891 0.000000
# 6 0.000000 0.000000 0.000000 0.000000 0.000000 0.039881
#
#
# Mechanical properties :
#
#
# Convention : Reuss Voigt Hill
#
# Bulk Modulus (GPa) = 45.30853 51.44853 48.37853
# Shear Modulus (GPa) = 32.05883 -44.11014 -6.02565
#
# Velocity S-wave (km/s) = 3.92029 -4.59847 -1.69960
# Velocity P-wave (km/s) = 6.49707 1.87901 4.39780
#
# Compressibility (1/GPa) = 0.02207090
#
# Stress axis : x y z
#
# Youngs Moduli (GPa) = 35.01344 111.78177 55.48057
#
# Poissons Ratio (x) = 0.27215 0.64856
# Poissons Ratio (y) = 0.08525 0.14455
# Poissons Ratio (z) = 0.40930 0.29123
#
# Static dielectric constant tensor:
#      x y z
#    x 1.820670 0.000000 0.000000 
#    y 0.000000 2.971780 0.000000 
#    z 0.000000 0.000000 1.851010 
# 
# From -- ./inp_files/36489.got.cif
#   From: 2010.05.17/outbox.cif.g08.bks.cpg/sg24_19_cif.got.tgz:36489.got - 2010.06.04 00:33:39.
