data_PCOD9335965
_publ_section_title
;
Structure prediction by ZEFSAII (Michael W. Deem and Ramdas Pophale) SiO2 
 PCOD9335965
Probable space group: I 21 21 21
;
_chemical_formula_sum "Si O2"
_cell_formula_units_Z 40
_cell_length_a 21.676990
_cell_length_b 10.797176
_cell_length_c 7.746400
_cell_angle_alpha 90.000000
_cell_angle_beta 90.000000
_cell_angle_gamma 90.000000
_cell_volume 1813.047059
_symmetry_space_group_name_H-M "I 21 21 21"
_symmetry_group_IT_number 24
_symmetry_cell_setting 'orthorhombic'
loop_
_space_group_symop_operation_xyz
x,y,z
-x,1/2-y,z
x,-y,1/2-z
1/2-x,y,-z
1/2+x,1/2+y,1/2+z
1/2-x,-y,1/2+z
1/2+x,1/2-y,-z
-x,1/2+y,1/2-z
loop_
_atom_site_type_symbol
_atom_site_label
_atom_site_fract_x
_atom_site_fract_y
_atom_site_fract_z
Si Si1 0.693559 0.120575 0.867376
Si Si2 0.878667 0.627007 0.655343
Si Si3 0.083013 0.615341 0.632655
Si Si4 0.760169 0.634452 0.205503
Si Si5 0.025953 0.883284 0.376378
O O1 0.701542 0.245843 0.758971
O O2 0.695360 0.000000 0.750000
O O3 0.750000 0.114382 0.000000
O O4 0.631648 0.119978 0.977426
O O5 0.895713 0.500000 0.750000
O O6 0.909115 0.753114 0.728119
O O7 0.805093 0.639959 0.688247
O O8 0.905894 0.621217 0.461097
O O9 0.098242 0.500000 0.750000
O O10 0.017117 0.598838 0.544750
O O11 0.787436 0.500000 0.250000
O O12 0.750000 0.638016 0.000000
O O13 0.000000 0.750000 0.305527
O O14 0.019786 0.000000 0.250000
#
# Coordination Sequence:
#
# PCOD9335965 Si02
#       5
#     8   8   8   8   8
#     4  12  24  41  65  99 136 182 230 286 346 416
#     4  10  23  44  66  99 132 178 230 280 351 403
#     4  11  24  43  69  97 141 178 231 290 344 418
#     4  11  25  45  68  99 139 182 230 284 345 412
#     4  10  23  46  70 101 138 179 231 292 345 416
#
# _framework density 22.062307000000001
#
# number of rings (size 3 to 8) (size 9 to 14) (size 15 to 20)
#    0.000    1.200    2.000    3.000    5.600    1.600 
#   14.400    0.000    0.000    0.000    0.000    0.000 
#    0.000    0.000    0.000    0.000    0.000    0.000 
#
# Total GULP energy -111804.323409 kJ/mol
# GULP energy per Si atom -5590.216170 kJ/mol
# Density = 2.201209 g / cm^3
# Si number density = 22.062307 Si / 1000 Ang^3
#
#
#
# Elastic Constant Matrix: (Units=GPa)
#
#
# Indices 1 2 3 4 5 6 
#
# 1 70.3718 40.7339 35.0129 0.0000 0.0000 0.0000
# 2 40.7339 275.0856 97.6531 0.0000 0.0000 0.0000
# 3 35.0129 97.6531 84.0481 0.0000 0.0000 0.0000
# 4 0.0000 0.0000 0.0000 49.0552 0.0000 0.0000
# 5 0.0000 0.0000 0.0000 0.0000 21.2647 0.0000
# 6 0.0000 0.0000 0.0000 0.0000 0.0000 -26.1208
#
#
#
# Elastic Compliance Matrix: (Units=1/GPa)
#
#
# Indices 1 2 3 4 5 6 
#
# 1 0.017926 -0.000006 -0.007461 0.000000 0.000000 0.000000
# 2 -0.000006 0.006187 -0.007186 0.000000 0.000000 0.000000
# 3 -0.007461 -0.007186 0.023355 0.000000 0.000000 0.000000
# 4 0.000000 0.000000 0.000000 0.020385 0.000000 0.000000
# 5 0.000000 0.000000 0.000000 0.000000 0.047026 0.000000
# 6 0.000000 0.000000 0.000000 0.000000 0.000000 -0.038284
#
#
# Mechanical properties :
#
#
# Convention : Reuss Voigt Hill
#
# Bulk Modulus (GPa) = 55.05800 86.25613 70.65707
# Shear Modulus (GPa) = 44.66055 25.91353 35.28704
#
# Velocity S-wave (km/s) = 4.50409 3.43091 4.00362
# Velocity P-wave (km/s) = 7.21519 7.40785 7.31216
#
# Compressibility (1/GPa) = 0.01816266
#
# Stress axis : x y z
#
# Youngs Moduli (GPa) = 55.78608 161.62534 42.81681
#
# Poissons Ratio (x) = 0.00096 0.31944
# Poissons Ratio (y) = 0.00033 0.30769
# Poissons Ratio (z) = 0.41620 1.16147
#
# Static dielectric constant tensor:
#      x y z
#    x 1.872500 0.000000 0.000000 
#    y 0.000000 1.834300 0.000000 
#    z 0.000000 0.000000 1.775360 
# 
# From -- ./inp_files/15629.got.cif
#   From: 2010.05.17/outbox.cif.g08.bks.cpg/sg24_8_cif.got.tgz:15629.got - 2010.06.04 00:33:39.
