data_PCOD9335999
_publ_section_title
;
Structure prediction by ZEFSAII (Michael W. Deem and Ramdas Pophale) SiO2 
 PCOD9335999
Probable space group: I 21 21 21
;
_chemical_formula_sum "Si O2"
_cell_formula_units_Z 32
_cell_length_a 13.157723
_cell_length_b 18.605476
_cell_length_c 5.037126
_cell_angle_alpha 90.000000
_cell_angle_beta 90.000000
_cell_angle_gamma 90.000000
_cell_volume 1233.117154
_symmetry_space_group_name_H-M "I 21 21 21"
_symmetry_group_IT_number 24
_symmetry_cell_setting 'orthorhombic'
loop_
_space_group_symop_operation_xyz
x,y,z
-x,1/2-y,z
x,-y,1/2-z
1/2-x,y,-z
1/2+x,1/2+y,1/2+z
1/2-x,-y,1/2+z
1/2+x,1/2-y,-z
-x,1/2+y,1/2-z
loop_
_atom_site_type_symbol
_atom_site_label
_atom_site_fract_x
_atom_site_fract_y
_atom_site_fract_z
Si Si1 0.633224 0.444179 0.030335
Si Si2 0.994700 0.123843 0.373638
Si Si3 0.350377 0.363134 0.124886
Si Si4 0.105422 0.784897 0.759318
O O1 0.589922 0.500000 0.250000
O O2 0.635336 0.361441 0.140241
O O3 0.750000 0.465057 0.000000
O O4 0.572168 0.432493 0.757054
O O5 0.921587 0.107776 0.631114
O O6 0.919231 0.139182 0.135268
O O7 0.069129 0.189597 0.450777
O O8 0.321242 0.282801 0.229523
O O9 0.250000 0.400206 0.000000
O O10 0.000000 0.750000 0.652975
#
# Coordination Sequence:
#
# PCOD9335999 Si02
#       4
#     8   8   8   8
#     4  12  29  48  75 118 172 233 286 342 427 529
#     4  11  24  46  72 110 165 218 275 352 417 503
#     4  11  24  44  76 117 155 212 284 357 427 489
#     4  10  23  44  74 108 164 211 282 344 424 483
#
# _framework density 25.950495
#
# number of rings (size 3 to 8) (size 9 to 14) (size 15 to 20)
#    0.000    1.000    5.000    1.500   14.000    0.000 
#    9.000    0.000    0.000    0.000    6.500    0.000 
#    0.000    0.000    0.000    0.000    0.000    0.000 
#
# Total GULP energy -89140.711191 kJ/mol
# GULP energy per Si atom -5571.294449 kJ/mol
# Density = 2.589143 g / cm^3
# Si number density = 25.950495 Si / 1000 Ang^3
#
#
#
# Elastic Constant Matrix: (Units=GPa)
#
#
# Indices 1 2 3 4 5 6 
#
# 1 107.9489 35.6598 81.3825 0.0000 0.0000 0.0000
# 2 35.6598 97.7598 45.5702 0.0000 0.0000 0.0000
# 3 81.3825 45.5702 231.4771 0.0000 0.0000 0.0000
# 4 0.0000 0.0000 0.0000 52.0630 0.0000 0.0000
# 5 0.0000 0.0000 0.0000 0.0000 46.7558 0.0000
# 6 0.0000 0.0000 0.0000 0.0000 0.0000 26.7703
#
#
#
# Elastic Compliance Matrix: (Units=1/GPa)
#
#
# Indices 1 2 3 4 5 6 
#
# 1 0.013335 -0.002949 -0.004108 0.000000 0.000000 0.000000
# 2 -0.002949 0.011915 -0.001309 0.000000 0.000000 0.000000
# 3 -0.004108 -0.001309 0.006022 0.000000 0.000000 0.000000
# 4 0.000000 0.000000 0.000000 0.019208 0.000000 0.000000
# 5 0.000000 0.000000 0.000000 0.000000 0.021388 0.000000
# 6 0.000000 0.000000 0.000000 0.000000 0.000000 0.037355
#
#
# Mechanical properties :
#
#
# Convention : Reuss Voigt Hill
#
# Bulk Modulus (GPa) = 68.77471 84.71233 76.74352
# Shear Modulus (GPa) = 38.22643 43.42270 40.82457
#
# Velocity S-wave (km/s) = 3.84220 4.09502 3.97062
# Velocity P-wave (km/s) = 6.80023 7.42116 7.11747
#
# Compressibility (1/GPa) = 0.01454023
#
# Stress axis : x y z
#
# Youngs Moduli (GPa) = 74.99294 83.92741 166.06184
#
# Poissons Ratio (x) = 0.24753 0.68210
# Poissons Ratio (y) = 0.22118 0.21733
# Poissons Ratio (z) = 0.30804 0.10984
#
# Static dielectric constant tensor:
#      x y z
#    x 2.141970 0.000000 0.000000 
#    y 0.000000 2.211570 0.000000 
#    z 0.000000 0.000000 2.117110 
# 
# From -- ./inp_files/12444.got.cif
#   From: 2010.05.17/outbox.cif.g08.bks.cpg/sg24_7_cif.got.tgz:12444.got - 2010.06.04 00:33:39.
