data_PCOD9335461
_publ_section_title
;
Structure prediction by ZEFSAII (Michael W. Deem and Ramdas Pophale) SiO2 
 PCOD9335461
Probable space group: I 21 21 21
;
_chemical_formula_sum "Si O2"
_cell_formula_units_Z 48
_cell_length_a 13.973257
_cell_length_b 5.624913
_cell_length_c 28.370739
_cell_angle_alpha 90.000000
_cell_angle_beta 90.000000
_cell_angle_gamma 90.000000
_cell_volume 2229.893414
_symmetry_space_group_name_H-M "I 21 21 21"
_symmetry_group_IT_number 24
_symmetry_cell_setting 'orthorhombic'
loop_
_space_group_symop_operation_xyz
x,y,z
-x,1/2-y,z
x,-y,1/2-z
1/2-x,y,-z
1/2+x,1/2+y,1/2+z
1/2-x,-y,1/2+z
1/2+x,1/2-y,-z
-x,1/2+y,1/2-z
loop_
_atom_site_type_symbol
_atom_site_label
_atom_site_fract_x
_atom_site_fract_y
_atom_site_fract_z
Si Si1 0.700801 0.212621 0.170996
Si Si2 0.916957 0.892286 0.469128
Si Si3 0.500000 0.250000 0.220228
Si Si4 0.637267 0.176605 0.668903
Si Si5 0.707100 0.517037 0.588358
Si Si6 0.184203 0.000000 0.250000
Si Si7 0.750000 0.197632 0.500000
Si Si8 0.000000 0.250000 0.390552
O O1 0.592308 0.190347 0.187980
O O2 0.717221 0.363831 0.123555
O O3 0.751841 0.359586 0.212522
O O4 0.765007 0.973424 0.166523
O O5 0.850091 0.718896 0.438612
O O6 0.000000 0.750000 0.495785
O O7 0.844990 0.039886 0.501049
O O8 0.969897 0.057669 0.432182
O O9 0.516457 0.500000 0.250000
O O10 0.636944 0.355866 0.622046
O O11 0.631472 0.307335 0.718191
O O12 0.540684 0.058074 0.652933
O O13 0.747228 0.350810 0.547546
#
# Coordination Sequence:
#
# PCOD9335461 Si02
#       8
#     8   8   4   8   8   4   4   4
#     4  11  23  44  73 101 143 195 251 311 381 447
#     4  12  23  44  74 104 137 193 245 305 376 463
#     4  12  26  46  78 113 150 209 270 324 390 478
#     4  11  22  41  67 100 141 188 238 303 366 448
#     4  11  23  42  74  98 140 189 237 305 375 448
#     4  10  22  40  60 104 136 180 240 300 368 432
#     4  12  24  44  74 106 144 190 254 306 378 460
#     4  12  22  42  68 101 130 191 240 286 376 462
#
# _framework density 21.525694000000001
#
# number of rings (size 3 to 8) (size 9 to 14) (size 15 to 20)
#    0.000    0.667    5.833    2.000    2.333    0.000 
#    3.000    0.000   38.500    0.000    0.000    0.000 
#    0.000    0.000    0.000    0.000    0.000    0.000 
#
# Total GULP energy -133688.195069 kJ/mol
# GULP energy per Si atom -5570.341461 kJ/mol
# Density = 2.147670 g / cm^3
# Si number density = 21.525694 Si / 1000 Ang^3
#
#
#
# Elastic Constant Matrix: (Units=GPa)
#
#
# Indices 1 2 3 4 5 6 
#
# 1 145.6030 61.9885 69.2722 0.0000 0.0000 0.0000
# 2 61.9885 111.3950 55.5392 0.0000 0.0000 0.0000
# 3 69.2722 55.5392 122.2823 0.0000 0.0000 0.0000
# 4 0.0000 0.0000 0.0000 7.5344 0.0000 0.0000
# 5 0.0000 0.0000 0.0000 0.0000 77.4607 0.0000
# 6 0.0000 0.0000 0.0000 0.0000 0.0000 33.2055
#
#
#
# Elastic Compliance Matrix: (Units=1/GPa)
#
#
# Indices 1 2 3 4 5 6 
#
# 1 0.010466 -0.003708 -0.004245 0.000000 0.000000 0.000000
# 2 -0.003708 0.012918 -0.003767 0.000000 0.000000 0.000000
# 3 -0.004245 -0.003767 0.012294 0.000000 0.000000 0.000000
# 4 0.000000 0.000000 0.000000 0.132725 0.000000 0.000000
# 5 0.000000 0.000000 0.000000 0.000000 0.012910 0.000000
# 6 0.000000 0.000000 0.000000 0.000000 0.000000 0.030116
#
#
# Mechanical properties :
#
#
# Convention : Reuss Voigt Hill
#
# Bulk Modulus (GPa) = 81.70837 83.65336 82.68086
# Shear Modulus (GPa) = 20.92509 36.47211 28.69860
#
# Velocity S-wave (km/s) = 3.12123 4.12072 3.65530
# Velocity P-wave (km/s) = 7.14356 7.84773 7.50391
#
# Compressibility (1/GPa) = 0.01223865
#
# Stress axis : x y z
#
# Youngs Moduli (GPa) = 95.54676 77.40869 81.34362
#
# Poissons Ratio (x) = 0.28700 0.34530
# Poissons Ratio (y) = 0.35425 0.30643
# Poissons Ratio (z) = 0.40560 0.29160
#
# Static dielectric constant tensor:
#      x y z
#    x 6.554500 0.000000 0.000000 
#    y 0.000000 1.763780 0.000000 
#    z 0.000000 0.000000 1.746840 
# 
# From -- ./inp_files/36497.got.cif
#   From: 2010.05.17/outbox.cif.g08.bks.cpg/sg24_19_cif.got.tgz:36497.got - 2010.06.04 00:33:39.
