data_PCOD9335276
_publ_section_title
;
Structure prediction by ZEFSAII (Michael W. Deem and Ramdas Pophale) SiO2 
 PCOD9335276
Probable space group: I 21 21 21
;
_chemical_formula_sum "Si O2"
_cell_formula_units_Z 56
_cell_length_a 15.082511
_cell_length_b 12.810522
_cell_length_c 14.205118
_cell_angle_alpha 90.000000
_cell_angle_beta 90.000000
_cell_angle_gamma 90.000000
_cell_volume 2744.639587
_symmetry_space_group_name_H-M "I 21 21 21"
_symmetry_group_IT_number 24
_symmetry_cell_setting 'orthorhombic'
loop_
_space_group_symop_operation_xyz
x,y,z
-x,1/2-y,z
x,-y,1/2-z
1/2-x,y,-z
1/2+x,1/2+y,1/2+z
1/2-x,-y,1/2+z
1/2+x,1/2-y,-z
-x,1/2+y,1/2-z
loop_
_atom_site_type_symbol
_atom_site_label
_atom_site_fract_x
_atom_site_fract_y
_atom_site_fract_z
Si Si1 0.151874 0.686142 0.964665
Si Si2 0.570659 0.157829 0.127950
Si Si3 0.835802 0.841026 0.436960
Si Si4 0.257975 0.544978 0.845578
Si Si5 0.345451 0.197071 0.275108
Si Si6 0.154730 0.242640 0.263028
Si Si7 0.000000 0.750000 0.104487
Si Si8 0.028171 0.000000 0.750000
O O1 0.183562 0.576891 0.920319
O O2 0.127359 0.751850 0.873443
O O3 0.250000 0.727289 0.000000
O O4 0.068744 0.689181 0.035093
O O5 0.500000 0.250000 0.137683
O O6 0.645257 0.211699 0.195247
O O7 0.533110 0.050193 0.169175
O O8 0.592446 0.149562 0.018614
O O9 0.750000 0.807289 0.500000
O O10 0.859397 0.768018 0.347541
O O11 0.815373 0.953562 0.391142
O O12 0.219146 0.500000 0.750000
O O13 0.313986 0.647136 0.813290
O O14 0.241342 0.171099 0.274100
O O15 0.407070 0.097096 0.268378
O O16 0.070788 0.200106 0.321655
#
# Coordination Sequence:
#
# PCOD9335276 Si02
#       8
#     8   8   8   8   8   8   4   4
#     4  11  22  40  63  96 131 174 221 280 352 409
#     4  10  23  40  63 104 133 166 225 288 349 410
#     4  11  21  36  66  94 132 178 212 275 361 407
#     4   9  20  38  61  98 136 165 217 286 347 409
#     4  10  21  45  64  92 134 172 223 289 346 408
#     4  10  22  41  62  94 131 178 224 282 344 408
#     4  12  24  38  68  92 124 184 230 278 342 424
#     4  10  24  40  68  92 132 178 228 284 342 414
#
# _framework density 20.403407000000001
#
# number of rings (size 3 to 8) (size 9 to 14) (size 15 to 20)
#    0.000    1.714    4.286    0.429    4.000    4.571 
#    0.000    0.000   11.000    0.000    0.000    0.000 
#    0.000    0.000    0.000    0.000    0.000    0.000 
#
# Total GULP energy -155872.482028 kJ/mol
# GULP energy per Si atom -5566.874358 kJ/mol
# Density = 2.035697 g / cm^3
# Si number density = 20.403407 Si / 1000 Ang^3
#
#
#
# Elastic Constant Matrix: (Units=GPa)
#
#
# Indices 1 2 3 4 5 6 
#
# 1 97.1218 11.2520 43.7816 0.0000 0.0000 0.0000
# 2 11.2520 56.3242 27.8285 0.0000 0.0000 0.0000
# 3 43.7816 27.8285 151.5523 0.0000 0.0000 0.0000
# 4 0.0000 0.0000 0.0000 30.1496 0.0000 0.0000
# 5 0.0000 0.0000 0.0000 0.0000 46.0747 0.0000
# 6 0.0000 0.0000 0.0000 0.0000 0.0000 20.7788
#
#
#
# Elastic Compliance Matrix: (Units=1/GPa)
#
#
# Indices 1 2 3 4 5 6 
#
# 1 0.011866 -0.000744 -0.003291 0.000000 0.000000 0.000000
# 2 -0.000744 0.019573 -0.003379 0.000000 0.000000 0.000000
# 3 -0.003291 -0.003379 0.008170 0.000000 0.000000 0.000000
# 4 0.000000 0.000000 0.000000 0.033168 0.000000 0.000000
# 5 0.000000 0.000000 0.000000 0.000000 0.021704 0.000000
# 6 0.000000 0.000000 0.000000 0.000000 0.000000 0.048126
#
#
# Mechanical properties :
#
#
# Convention : Reuss Voigt Hill
#
# Bulk Modulus (GPa) = 40.35646 52.30251 46.32948
# Shear Modulus (GPa) = 30.17589 34.20970 32.19279
#
# Velocity S-wave (km/s) = 3.84990 4.09915 3.97648
# Velocity P-wave (km/s) = 6.29162 6.93498 6.62112
#
# Compressibility (1/GPa) = 0.02477918
#
# Stress axis : x y z
#
# Youngs Moduli (GPa) = 84.27226 51.09207 122.40410
#
# Poissons Ratio (x) = 0.03803 0.40287
# Poissons Ratio (y) = 0.06273 0.41359
# Poissons Ratio (z) = 0.27737 0.17264
#
# Static dielectric constant tensor:
#      x y z
#    x 1.822380 0.000000 0.000000 
#    y 0.000000 1.744770 0.000000 
#    z 0.000000 0.000000 1.809500 
# 
# From -- ./inp_files/26648.got.cif
#   From: 2010.05.17/outbox.cif.g08.bks.cpg/sg24_14_cif.got.tgz:26648.got - 2010.06.04 00:33:39.
