data_PCOD9335192
_publ_section_title
;
Structure prediction by ZEFSAII (Michael W. Deem and Ramdas Pophale) SiO2 
 PCOD9335192
Probable space group: I 21 21 21
;
_chemical_formula_sum "Si O2"
_cell_formula_units_Z 36
_cell_length_a 9.789155
_cell_length_b 12.176958
_cell_length_c 16.020316
_cell_angle_alpha 90.000000
_cell_angle_beta 90.000000
_cell_angle_gamma 90.000000
_cell_volume 1909.655779
_symmetry_space_group_name_H-M "I 21 21 21"
_symmetry_group_IT_number 24
_symmetry_cell_setting 'orthorhombic'
loop_
_space_group_symop_operation_xyz
x,y,z
-x,1/2-y,z
x,-y,1/2-z
1/2-x,y,-z
1/2+x,1/2+y,1/2+z
1/2-x,-y,1/2+z
1/2+x,1/2-y,-z
-x,1/2+y,1/2-z
loop_
_atom_site_type_symbol
_atom_site_label
_atom_site_fract_x
_atom_site_fract_y
_atom_site_fract_z
Si Si1 0.474144 0.624249 0.487577
Si Si2 0.257214 0.447364 0.876223
Si Si3 0.750000 0.505817 0.000000
Si Si4 0.826207 0.154313 0.300749
Si Si5 0.644808 0.595386 0.821787
O O1 0.500000 0.750000 0.509608
O O2 0.379034 0.570186 0.558249
O O3 0.379781 0.610759 0.406829
O O4 0.618267 0.566432 0.477851
O O5 0.235588 0.576961 0.860580
O O6 0.304595 0.390772 0.791699
O O7 0.796305 0.565149 0.086517
O O8 0.797442 0.283447 0.300726
O O9 0.982023 0.121603 0.324861
O O10 0.666330 0.500000 0.750000
#
# Coordination Sequence:
#
# PCOD9335192 Si02
#       5
#     8   8   4   8   8
#     4  11  24  38  65  97 131 168 219 275 328 387
#     4  10  21  43  66  93 125 177 220 263 329 396
#     4  12  24  44  62 102 132 166 220 268 332 386
#     4  10  21  42  66  91 130 175 218 266 330 391
#     4  11  23  40  69  97 128 173 221 272 325 398
#
# _framework density 18.851565999999998
#
# number of rings (size 3 to 8) (size 9 to 14) (size 15 to 20)
#    0.000    1.333    4.444    1.333    9.333    1.778 
#    4.000    0.000    0.000    0.000    0.000    0.000 
#    0.000    0.000    0.000    0.000    0.000    0.000 
#
# Total GULP energy -100308.288034 kJ/mol
# GULP energy per Si atom -5572.682669 kJ/mol
# Density = 1.880866 g / cm^3
# Si number density = 18.851566 Si / 1000 Ang^3
#
#
#
# Elastic Constant Matrix: (Units=GPa)
#
#
# Indices 1 2 3 4 5 6 
#
# 1 95.0348 16.6780 36.0041 0.0000 0.0000 0.0000
# 2 16.6780 138.7371 48.2161 0.0000 0.0000 0.0000
# 3 36.0041 48.2161 104.1068 0.0000 0.0000 0.0000
# 4 0.0000 0.0000 0.0000 8.2696 0.0000 0.0000
# 5 0.0000 0.0000 0.0000 0.0000 20.1282 0.0000
# 6 0.0000 0.0000 0.0000 0.0000 0.0000 -14.5018
#
#
#
# Elastic Compliance Matrix: (Units=1/GPa)
#
#
# Indices 1 2 3 4 5 6 
#
# 1 0.012109 0.000000 -0.004188 0.000000 0.000000 0.000000
# 2 0.000000 0.008591 -0.003979 0.000000 0.000000 0.000000
# 3 -0.004188 -0.003979 0.012896 0.000000 0.000000 0.000000
# 4 0.000000 0.000000 0.000000 0.120926 0.000000 0.000000
# 5 0.000000 0.000000 0.000000 0.000000 0.049681 0.000000
# 6 0.000000 0.000000 0.000000 0.000000 0.000000 -0.068957
#
#
# Mechanical properties :
#
#
# Convention : Reuss Voigt Hill
#
# Bulk Modulus (GPa) = 57.92721 59.96389 58.94555
# Shear Modulus (GPa) = 31.77968 18.57790 25.17879
#
# Velocity S-wave (km/s) = 4.11028 3.14265 3.65860
# Velocity P-wave (km/s) = 7.30210 6.71162 7.01308
#
# Compressibility (1/GPa) = 0.01726305
#
# Stress axis : x y z
#
# Youngs Moduli (GPa) = 82.58319 116.40625 77.54114
#
# Poissons Ratio (x) = 0.00004 0.32471
# Poissons Ratio (y) = 0.00003 0.30850
# Poissons Ratio (z) = 0.34583 0.46313
#
# Static dielectric constant tensor:
#      x y z
#    x 1.633450 0.000000 0.000000 
#    y 0.000000 1.687480 0.000000 
#    z 0.000000 0.000000 1.687140 
# 
# From -- ./inp_files/25539.got.cif
#   From: 2010.05.17/outbox.cif.g08.bks.cpg/sg24_13_cif.got.tgz:25539.got - 2010.06.04 00:33:39.
