data_PCOD9335985
_publ_section_title
;
Structure prediction by ZEFSAII (Michael W. Deem and Ramdas Pophale) SiO2 
 PCOD9335985
Probable space group: I 21 21 21
;
_chemical_formula_sum "Si O2"
_cell_formula_units_Z 40
_cell_length_a 5.287892
_cell_length_b 17.761900
_cell_length_c 19.250798
_cell_angle_alpha 90.000000
_cell_angle_beta 90.000000
_cell_angle_gamma 90.000000
_cell_volume 1808.092872
_symmetry_space_group_name_H-M "I 21 21 21"
_symmetry_group_IT_number 24
_symmetry_cell_setting 'orthorhombic'
loop_
_space_group_symop_operation_xyz
x,y,z
-x,1/2-y,z
x,-y,1/2-z
1/2-x,y,-z
1/2+x,1/2+y,1/2+z
1/2-x,-y,1/2+z
1/2+x,1/2-y,-z
-x,1/2+y,1/2-z
loop_
_atom_site_type_symbol
_atom_site_label
_atom_site_fract_x
_atom_site_fract_y
_atom_site_fract_z
Si Si1 0.358617 0.038344 0.421413
Si Si2 0.500000 0.250000 0.047172
Si Si3 0.511336 0.336770 0.624284
Si Si4 0.750000 0.104044 0.500000
Si Si5 0.838999 0.090084 0.240850
Si Si6 0.332564 0.881720 0.346209
O O1 0.250000 0.037802 0.500000
O O2 0.260847 0.110584 0.378946
O O3 0.649831 0.049728 0.439651
O O4 0.297628 0.961272 0.385010
O O5 0.401115 0.182620 0.097504
O O6 0.250000 0.270253 0.000000
O O7 0.500000 0.250000 0.642935
O O8 0.428028 0.342322 0.543995
O O9 0.342440 0.375237 0.682903
O O10 0.576571 0.108096 0.202835
O O11 0.074966 0.126488 0.198199
O O12 0.872861 0.000000 0.250000
#
# Coordination Sequence:
#
# PCOD9335985 Si02
#       6
#     8   4   8   4   8   8
#     4  10  23  44  70 104 134 190 240 303 362 442
#     4  12  28  50  78 114 154 200 256 330 394 444
#     4  11  26  43  70 101 145 187 242 299 373 434
#     4  10  24  42  70 100 138 178 244 292 368 432
#     4  12  26  48  72 107 147 200 247 304 371 461
#     4  12  27  46  77 105 152 190 255 304 380 451
#
# _framework density 22.122758999999999
#
# number of rings (size 3 to 8) (size 9 to 14) (size 15 to 20)
#    0.000    0.800    2.000    3.600   14.000    0.000 
#    0.000    0.000    0.000    0.000    0.000    0.000 
#    0.000    0.000    0.000    0.000    0.000    0.000 
#
# Total GULP energy -111565.584031 kJ/mol
# GULP energy per Si atom -5578.279202 kJ/mol
# Density = 2.207241 g / cm^3
# Si number density = 22.122759 Si / 1000 Ang^3
#
#
#
# Elastic Constant Matrix: (Units=GPa)
#
#
# Indices 1 2 3 4 5 6 
#
# 1 96.1275 6.9508 40.2087 0.0000 0.0000 0.0000
# 2 6.9508 107.4233 28.7561 0.0000 0.0000 0.0000
# 3 40.2087 28.7561 110.2985 0.0000 0.0000 0.0000
# 4 0.0000 0.0000 0.0000 -5.5751 0.0000 0.0000
# 5 0.0000 0.0000 0.0000 0.0000 55.9890 0.0000
# 6 0.0000 0.0000 0.0000 0.0000 0.0000 20.1561
#
#
#
# Elastic Compliance Matrix: (Units=1/GPa)
#
#
# Indices 1 2 3 4 5 6 
#
# 1 0.012293 0.000435 -0.004595 0.000000 0.000000 0.000000
# 2 0.000435 0.010023 -0.002771 0.000000 0.000000 0.000000
# 3 -0.004595 -0.002771 0.011464 0.000000 0.000000 0.000000
# 4 0.000000 0.000000 0.000000 -0.179370 0.000000 0.000000
# 5 0.000000 0.000000 0.000000 0.000000 0.017861 0.000000
# 6 0.000000 0.000000 0.000000 0.000000 0.000000 0.049613
#
#
# Mechanical properties :
#
#
# Convention : Reuss Voigt Hill
#
# Bulk Modulus (GPa) = 50.20940 51.74227 50.97583
# Shear Modulus (GPa) = -86.78395 29.97625 -28.40385
#
# Velocity S-wave (km/s) = -6.27005 3.68502 -3.58707
# Velocity P-wave (km/s) = 5.44729 6.44557 2.43643
#
# Compressibility (1/GPa) = 0.01991659
#
# Stress axis : x y z
#
# Youngs Moduli (GPa) = 81.34474 99.77308 87.23066
#
# Poissons Ratio (x) = -0.04336 0.40080
# Poissons Ratio (y) = -0.03535 0.24176
# Poissons Ratio (z) = 0.37376 0.27652
#
# Static dielectric constant tensor:
#      x y z
#    x 2.165760 0.000000 0.000000 
#    y 0.000000 1.457630 0.000000 
#    z 0.000000 0.000000 1.821200 
# 
# From -- ./inp_files/4522.got.cif
#   From: 2010.05.17/outbox.cif.g08.bks.cpg/sg24_3_cif.got.tgz:4522.got - 2010.06.04 00:33:39.
