data_PCOD9335954
_publ_section_title
;
Structure prediction by ZEFSAII (Michael W. Deem and Ramdas Pophale) SiO2 
 PCOD9335954
Probable space group: I 21 21 21
;
_chemical_formula_sum "Si O2"
_cell_formula_units_Z 60
_cell_length_a 14.096357
_cell_length_b 11.620924
_cell_length_c 17.108167
_cell_angle_alpha 90.000000
_cell_angle_beta 90.000000
_cell_angle_gamma 90.000000
_cell_volume 2802.534915
_symmetry_space_group_name_H-M "I 21 21 21"
_symmetry_group_IT_number 24
_symmetry_cell_setting 'orthorhombic'
loop_
_space_group_symop_operation_xyz
x,y,z
-x,1/2-y,z
x,-y,1/2-z
1/2-x,y,-z
1/2+x,1/2+y,1/2+z
1/2-x,-y,1/2+z
1/2+x,1/2-y,-z
-x,1/2+y,1/2-z
loop_
_atom_site_type_symbol
_atom_site_label
_atom_site_fract_x
_atom_site_fract_y
_atom_site_fract_z
Si Si1 0.941384 0.632265 0.447418
Si Si2 0.283970 0.356721 0.583232
Si Si3 0.421743 0.983967 0.096480
Si Si4 0.220911 0.293513 0.083642
Si Si5 0.900060 0.108162 0.688775
Si Si6 0.580286 0.022032 0.841278
Si Si7 0.898997 0.710927 0.678577
Si Si8 0.250000 0.135075 0.500000
O O1 0.960901 0.561410 0.525330
O O2 0.834458 0.674884 0.435648
O O3 0.000000 0.750000 0.451558
O O4 0.979277 0.560262 0.374405
O O5 0.250000 0.404787 0.500000
O O6 0.197931 0.387481 0.641188
O O7 0.379451 0.411392 0.614521
O O8 0.296959 0.222202 0.563210
O O9 0.392452 0.074303 0.164962
O O10 0.507863 0.908541 0.132680
O O11 0.331143 0.926944 0.052176
O O12 0.153268 0.376922 0.133009
O O13 0.314535 0.267613 0.131236
O O14 0.250000 0.343236 0.000000
O O15 0.899017 0.227841 0.737128
O O16 0.900411 0.000000 0.750000
O O17 0.581009 0.000000 0.750000
O O18 0.000000 0.750000 0.644914
#
# Coordination Sequence:
#
# PCOD9335954 Si02
#       8
#     8   8   8   8   8   8   8   4
#     4  10  23  43  73 103 133 185 242 301 357 431
#     4  10  23  45  67  97 141 184 247 288 368 440
#     4  12  24  45  68  96 146 184 246 286 364 450
#     4  11  22  40  72 103 140 176 245 303 363 433
#     4  12  26  41  70 110 151 184 231 311 386 441
#     4  11  23  42  70 104 139 184 238 313 363 429
#     4  12  25  40  69 109 141 191 226 301 376 443
#     4  10  28  44  66  94 134 200 238 294 352 434
#
# _framework density 21.409189000000001
#
# number of rings (size 3 to 8) (size 9 to 14) (size 15 to 20)
#    0.400    0.533    2.667    4.400    3.733    0.000 
#    0.000    5.333    2.933    0.000    0.000    0.000 
#    0.000    0.000    0.000    0.000    0.000    0.000 
#
# Total GULP energy -167482.598797 kJ/mol
# GULP energy per Si atom -5582.753293 kJ/mol
# Density = 2.136046 g / cm^3
# Si number density = 21.409189 Si / 1000 Ang^3
#
#
#
# Elastic Constant Matrix: (Units=GPa)
#
#
# Indices 1 2 3 4 5 6 
#
# 1 94.7904 37.8844 39.1152 0.0000 0.0000 0.0000
# 2 37.8844 92.4259 49.1850 0.0000 0.0000 0.0000
# 3 39.1152 49.1850 139.3979 0.0000 0.0000 0.0000
# 4 0.0000 0.0000 0.0000 7.7284 0.0000 0.0000
# 5 0.0000 0.0000 0.0000 0.0000 -3.9098 0.0000
# 6 0.0000 0.0000 0.0000 0.0000 0.0000 19.2521
#
#
#
# Elastic Compliance Matrix: (Units=1/GPa)
#
#
# Indices 1 2 3 4 5 6 
#
# 1 0.013143 -0.004216 -0.002200 0.000000 0.000000 0.000000
# 2 -0.004216 0.014673 -0.003994 0.000000 0.000000 0.000000
# 3 -0.002200 -0.003994 0.009200 0.000000 0.000000 0.000000
# 4 0.000000 0.000000 0.000000 0.129393 0.000000 0.000000
# 5 0.000000 0.000000 0.000000 0.000000 -0.255771 0.000000
# 6 0.000000 0.000000 0.000000 0.000000 0.000000 0.051942
#
#
# Mechanical properties :
#
#
# Convention : Reuss Voigt Hill
#
# Bulk Modulus (GPa) = 61.74737 64.33148 63.03942
# Shear Modulus (GPa) = -446.42868 17.97613 -214.22628
#
# Velocity S-wave (km/s) = -14.45596 2.90081 -10.01399
# Velocity P-wave (km/s) = 15.80281 6.42910 10.20773
#
# Compressibility (1/GPa) = 0.01619502
#
# Stress axis : x y z
#
# Youngs Moduli (GPa) = 76.08881 68.15161 108.69100
#
# Poissons Ratio (x) = 0.28734 0.23914
# Poissons Ratio (y) = 0.32080 0.43413
# Poissons Ratio (z) = 0.16741 0.27221
#
# Static dielectric constant tensor:
#      x y z
#    x 1.812100 0.000000 0.000000 
#    y 0.000000 1.848850 0.000000 
#    z 0.000000 0.000000 1.773340 
# 
# From -- ./inp_files/30873.got.cif
#   From: 2010.05.17/outbox.cif.g08.bks.cpg/sg24_16_cif.got.tgz:30873.got - 2010.06.04 00:33:39.
