data_PCOD9335015
_publ_section_title
;
Structure prediction by ZEFSAII (Michael W. Deem and Ramdas Pophale) SiO2 
 PCOD9335015
Probable space group: I 21 21 21
;
_chemical_formula_sum "Si O2"
_cell_formula_units_Z 40
_cell_length_a 27.937050
_cell_length_b 8.468844
_cell_length_c 7.629048
_cell_angle_alpha 90.000000
_cell_angle_beta 90.000000
_cell_angle_gamma 90.000000
_cell_volume 1804.990936
_symmetry_space_group_name_H-M "I 21 21 21"
_symmetry_group_IT_number 24
_symmetry_cell_setting 'orthorhombic'
loop_
_space_group_symop_operation_xyz
x,y,z
-x,1/2-y,z
x,-y,1/2-z
1/2-x,y,-z
1/2+x,1/2+y,1/2+z
1/2-x,-y,1/2+z
1/2+x,1/2-y,-z
-x,1/2+y,1/2-z
loop_
_atom_site_type_symbol
_atom_site_label
_atom_site_fract_x
_atom_site_fract_y
_atom_site_fract_z
Si Si1 0.432072 0.000000 0.250000
Si Si2 0.628161 0.500000 0.750000
Si Si3 0.124659 0.531477 0.455668
Si Si4 0.653229 0.686481 0.072364
Si Si5 0.449566 0.219749 0.941197
Si Si6 0.787781 0.831785 0.651484
O O1 0.394536 0.887807 0.152366
O O2 0.459225 0.893174 0.391648
O O3 0.660027 0.413947 0.603746
O O4 0.591642 0.369139 0.829982
O O5 0.130487 0.500000 0.250000
O O6 0.137168 0.364865 0.538483
O O7 0.073845 0.612426 0.489438
O O8 0.163278 0.646315 0.542636
O O9 0.698594 0.703107 0.201126
O O10 0.500000 0.250000 0.847070
O O11 0.750000 0.794939 0.500000
O O12 0.775339 0.000000 0.750000
#
# Coordination Sequence:
#
# PCOD9335015 Si02
#       6
#     4   4   8   8   8   8
#     4  10  22  42  60  95 132 182 217 280 346 402
#     4  10  22  40  62  97 136 190 223 282 352 408
#     4  11  21  39  64  96 131 176 223 279 343 407
#     4  10  21  39  67  93 134 178 223 281 344 419
#     4  11  24  39  63  97 135 181 234 283 338 409
#     4  10  21  39  67 102 132 168 229 290 350 407
#
# _framework density 22.160777
#
# number of rings (size 3 to 8) (size 9 to 14) (size 15 to 20)
#    0.000    1.600    4.000    0.600    1.400    1.600 
#    0.000    4.000    0.000    8.400    0.000    0.000 
#    0.000    0.000    0.000    0.000    0.000    0.000 
#
# Total GULP energy -111645.885612 kJ/mol
# GULP energy per Si atom -5582.294281 kJ/mol
# Density = 2.211034 g / cm^3
# Si number density = 22.160777 Si / 1000 Ang^3
#
#
#
# Elastic Constant Matrix: (Units=GPa)
#
#
# Indices 1 2 3 4 5 6 
#
# 1 84.0596 29.6288 50.2625 0.0000 0.0000 0.0000
# 2 29.6288 67.1157 44.2998 0.0000 0.0000 0.0000
# 3 50.2625 44.2998 121.3194 0.0000 0.0000 0.0000
# 4 0.0000 0.0000 0.0000 34.1178 0.0000 0.0000
# 5 0.0000 0.0000 0.0000 0.0000 18.4359 0.0000
# 6 0.0000 0.0000 0.0000 0.0000 0.0000 11.7687
#
#
#
# Elastic Compliance Matrix: (Units=1/GPa)
#
#
# Indices 1 2 3 4 5 6 
#
# 1 0.016464 -0.003644 -0.005490 0.000000 0.000000 0.000000
# 2 -0.003644 0.020438 -0.005953 0.000000 0.000000 0.000000
# 3 -0.005490 -0.005953 0.012691 0.000000 0.000000 0.000000
# 4 0.000000 0.000000 0.000000 0.029310 0.000000 0.000000
# 5 0.000000 0.000000 0.000000 0.000000 0.054242 0.000000
# 6 0.000000 0.000000 0.000000 0.000000 0.000000 0.084971
#
#
# Mechanical properties :
#
#
# Convention : Reuss Voigt Hill
#
# Bulk Modulus (GPa) = 51.49988 57.87519 54.68754
# Shear Modulus (GPa) = 19.62610 22.75139 21.18875
#
# Velocity S-wave (km/s) = 2.97917 3.20762 3.09550
# Velocity P-wave (km/s) = 5.92652 6.31594 6.12433
#
# Compressibility (1/GPa) = 0.01941752
#
# Stress axis : x y z
#
# Youngs Moduli (GPa) = 60.74009 48.92909 78.79575
#
# Poissons Ratio (x) = 0.17831 0.43260
# Poissons Ratio (y) = 0.22135 0.46908
# Poissons Ratio (z) = 0.33347 0.29128
#
# Static dielectric constant tensor:
#      x y z
#    x 1.761590 0.000000 0.000000 
#    y 0.000000 1.817100 0.000000 
#    z 0.000000 0.000000 1.892740 
# 
# From -- ./inp_files/16278.got.cif
#   From: 2010.05.17/outbox.cif.g08.bks.cpg/sg24_9_cif.got.tgz:16278.got - 2010.06.04 00:33:39.
