data_PCOD9335278
_publ_section_title
;
Structure prediction by ZEFSAII (Michael W. Deem and Ramdas Pophale) SiO2 
 PCOD9335278
Probable space group: I 21 21 21
;
_chemical_formula_sum "Si O2"
_cell_formula_units_Z 32
_cell_length_a 14.794934
_cell_length_b 7.449413
_cell_length_c 15.111277
_cell_angle_alpha 90.000000
_cell_angle_beta 90.000000
_cell_angle_gamma 90.000000
_cell_volume 1665.467841
_symmetry_space_group_name_H-M "I 21 21 21"
_symmetry_group_IT_number 24
_symmetry_cell_setting 'orthorhombic'
loop_
_space_group_symop_operation_xyz
x,y,z
-x,1/2-y,z
x,-y,1/2-z
1/2-x,y,-z
1/2+x,1/2+y,1/2+z
1/2-x,-y,1/2+z
1/2+x,1/2-y,-z
-x,1/2+y,1/2-z
loop_
_atom_site_type_symbol
_atom_site_label
_atom_site_fract_x
_atom_site_fract_y
_atom_site_fract_z
Si Si1 0.150562 0.446858 0.015739
Si Si2 0.206405 0.329098 0.316644
Si Si3 0.589037 0.871655 0.164961
Si Si4 0.913877 0.500000 0.250000
Si Si5 0.500000 0.250000 0.886335
O O1 0.169783 0.602885 0.088322
O O2 0.085965 0.299033 0.056290
O O3 0.250000 0.368688 0.000000
O O4 0.106282 0.519848 0.925933
O O5 0.200257 0.500000 0.250000
O O6 0.312726 0.277561 0.321613
O O7 0.147313 0.164820 0.282319
O O8 0.500000 0.750000 0.157018
O O9 0.576704 0.000000 0.250000
O O10 0.976695 0.579361 0.326364
#
# Coordination Sequence:
#
# PCOD9335278 Si02
#       5
#     8   8   8   4   4
#     4  10  23  45  64  93 137 169 212 276 323 382
#     4  10  21  45  67  96 136 169 210 275 330 382
#     4  10  24  42  66  91 131 177 224 270 316 388
#     4  12  24  40  72 100 130 166 216 270 336 392
#     4  12  24  40  70 100 128 170 218 266 332 400
#
# _framework density 19.213822
#
# number of rings (size 3 to 8) (size 9 to 14) (size 15 to 20)
#    0.000    1.500    2.500    1.500    7.000    0.000 
#    4.500    0.000    0.000    0.000    0.000    0.000 
#    0.000    0.000    0.000    0.000    0.000    0.000 
#
# Total GULP energy -89364.360019 kJ/mol
# GULP energy per Si atom -5585.272501 kJ/mol
# Density = 1.917009 g / cm^3
# Si number density = 19.213822 Si / 1000 Ang^3
#
#
#
# Elastic Constant Matrix: (Units=GPa)
#
#
# Indices 1 2 3 4 5 6 
#
# 1 154.4988 60.4072 66.6897 0.0000 0.0000 0.0000
# 2 60.4072 63.3565 35.8058 0.0000 0.0000 0.0000
# 3 66.6897 35.8058 135.6287 0.0000 0.0000 0.0000
# 4 0.0000 0.0000 0.0000 23.7641 0.0000 0.0000
# 5 0.0000 0.0000 0.0000 0.0000 -46.4651 0.0000
# 6 0.0000 0.0000 0.0000 0.0000 0.0000 23.4165
#
#
#
# Elastic Compliance Matrix: (Units=1/GPa)
#
#
# Indices 1 2 3 4 5 6 
#
# 1 0.011400 -0.009052 -0.003216 0.000000 0.000000 0.000000
# 2 -0.009052 0.025739 -0.002344 0.000000 0.000000 0.000000
# 3 -0.003216 -0.002344 0.009573 0.000000 0.000000 0.000000
# 4 0.000000 0.000000 0.000000 0.042080 0.000000 0.000000
# 5 0.000000 0.000000 0.000000 0.000000 -0.021522 0.000000
# 6 0.000000 0.000000 0.000000 0.000000 0.000000 0.042705
#
#
# Mechanical properties :
#
#
# Convention : Reuss Voigt Hill
#
# Bulk Modulus (GPa) = 57.18057 75.47661 66.32859
# Shear Modulus (GPa) = 34.47605 12.84852 23.66229
#
# Velocity S-wave (km/s) = 4.24056 2.58875 3.51312
# Velocity P-wave (km/s) = 7.33493 6.95005 7.14508
#
# Compressibility (1/GPa) = 0.01748846
#
# Stress axis : x y z
#
# Youngs Moduli (GPa) = 87.72155 38.85173 104.45916
#
# Poissons Ratio (x) = 0.35167 0.33591
# Poissons Ratio (y) = 0.79403 0.24488
# Poissons Ratio (z) = 0.28208 0.09108
#
# Static dielectric constant tensor:
#      x y z
#    x 1.672680 0.000000 0.000000 
#    y 0.000000 1.649520 0.000000 
#    z 0.000000 0.000000 1.687840 
# 
# From -- ./inp_files/12110.got.cif
#   From: 2010.05.17/outbox.cif.g08.bks.cpg/sg24_7_cif.got.tgz:12110.got - 2010.06.04 00:33:39.
