data_PCOD9335853
_publ_section_title
;
Structure prediction by ZEFSAII (Michael W. Deem and Ramdas Pophale) SiO2 
 PCOD9335853
Probable space group: I 21 21 21
;
_chemical_formula_sum "Si O2"
_cell_formula_units_Z 48
_cell_length_a 7.666806
_cell_length_b 8.981989
_cell_length_c 29.492577
_cell_angle_alpha 90.000000
_cell_angle_beta 90.000000
_cell_angle_gamma 90.000000
_cell_volume 2030.952260
_symmetry_space_group_name_H-M "I 21 21 21"
_symmetry_group_IT_number 24
_symmetry_cell_setting 'orthorhombic'
loop_
_space_group_symop_operation_xyz
x,y,z
-x,1/2-y,z
x,-y,1/2-z
1/2-x,y,-z
1/2+x,1/2+y,1/2+z
1/2-x,-y,1/2+z
1/2+x,1/2-y,-z
-x,1/2+y,1/2-z
loop_
_atom_site_type_symbol
_atom_site_label
_atom_site_fract_x
_atom_site_fract_y
_atom_site_fract_z
Si Si1 0.086921 0.479030 0.362813
Si Si2 0.729022 0.532081 0.163254
Si Si3 0.500000 0.250000 0.928128
Si Si4 0.316605 0.295861 0.188428
Si Si5 0.750000 0.369978 0.000000
Si Si6 0.000000 0.250000 0.429907
Si Si7 0.641825 0.615699 0.059671
Si Si8 0.000000 0.750000 0.776766
O O1 0.230641 0.560219 0.333104
O O2 0.127225 0.352562 0.398923
O O3 0.926319 0.408940 0.335420
O O4 0.016537 0.609588 0.395512
O O5 0.770439 0.364163 0.180747
O O6 0.659307 0.556017 0.111831
O O7 0.596071 0.623125 0.194549
O O8 0.661816 0.272791 0.961145
O O9 0.500000 0.250000 0.165256
O O10 0.360048 0.316767 0.241192
O O11 0.889335 0.473332 0.972612
O O12 0.156170 0.161521 0.453732
O O13 0.500000 0.750000 0.056189
#
# Coordination Sequence:
#
# PCOD9335853 Si02
#       8
#     8   8   4   8   4   4   8   4
#     4  11  22  46  77 102 143 208 242 314 393 459
#     4  11  20  46  72  99 150 195 255 305 388 454
#     4  12  24  48  71 105 156 180 255 309 388 474
#     4  10  23  38  72 105 148 191 252 318 372 453
#     4  12  26  46  68 120 142 192 254 320 378 470
#     4  10  24  44  73 111 144 192 262 304 370 482
#     4  11  25  43  75 103 149 199 242 312 382 453
#     4  10  24  38  76 112 146 196 257 323 362 464
#
# _framework density 23.634233999999999
#
# number of rings (size 3 to 8) (size 9 to 14) (size 15 to 20)
#    0.500    0.667    5.833    0.500    3.500    1.333 
#    3.000    0.000   44.000    0.000    0.000    0.000 
#    0.000    0.000    0.000    0.000    0.000    0.000 
#
# Total GULP energy -133756.498076 kJ/mol
# GULP energy per Si atom -5573.187420 kJ/mol
# Density = 2.358044 g / cm^3
# Si number density = 23.634234 Si / 1000 Ang^3
#
#
#
# Elastic Constant Matrix: (Units=GPa)
#
#
# Indices 1 2 3 4 5 6 
#
# 1 77.3473 21.4862 48.2270 0.0000 0.0000 0.0000
# 2 21.4862 83.4526 30.8273 0.0001 0.0000 0.0000
# 3 48.2270 30.8273 109.7540 0.0000 0.0000 0.0000
# 4 0.0000 0.0001 0.0000 -158.6265 0.0001 0.0000
# 5 0.0000 0.0000 0.0000 0.0001 107.8478 0.0000
# 6 0.0000 0.0000 0.0000 0.0000 0.0000 56.1957
#
#
#
# Elastic Compliance Matrix: (Units=1/GPa)
#
#
# Indices 1 2 3 4 5 6 
#
# 1 0.018079 -0.001919 -0.007405 0.000000 0.000000 0.000000
# 2 -0.001919 0.013574 -0.002969 0.000000 0.000000 0.000000
# 3 -0.007405 -0.002969 0.013199 0.000000 0.000000 0.000000
# 4 0.000000 0.000000 0.000000 -0.006304 0.000000 0.000000
# 5 0.000000 0.000000 0.000000 0.000000 0.009272 0.000000
# 6 0.000000 0.000000 0.000000 0.000000 0.000000 0.017795
#
#
# Mechanical properties :
#
#
# Convention : Reuss Voigt Hill
#
# Bulk Modulus (GPa) = 49.34645 52.40385 50.87515
# Shear Modulus (GPa) = 51.56925 12.41763 31.99344
#
# Velocity S-wave (km/s) = 4.67623 2.29467 3.68324
# Velocity P-wave (km/s) = 7.07677 5.40755 6.29771
#
# Compressibility (1/GPa) = 0.02026488
#
# Stress axis : x y z
#
# Youngs Moduli (GPa) = 55.31290 73.67116 75.76285
#
# Poissons Ratio (x) = 0.14140 0.56102
# Poissons Ratio (y) = 0.10616 0.22496
# Poissons Ratio (z) = 0.40959 0.21874
#
# Static dielectric constant tensor:
#      x y z
#    x 31.266390 -0.000010 0.000000 
#    y -0.000010 -1.573940 0.000000 
#    z 0.000000 0.000000 1.897290 
# 
# From -- ./inp_files/38328.got.cif
#   From: 2010.05.17/outbox.cif.g08.bks.cpg/sg24_20_cif.got.tgz:38328.got - 2010.06.04 00:33:39.
