data_PCOD9335755
_publ_section_title
;
Structure prediction by ZEFSAII (Michael W. Deem and Ramdas Pophale) SiO2 
 PCOD9335755
Probable space group: I 21 21 21
;
_chemical_formula_sum "Si O2"
_cell_formula_units_Z 60
_cell_length_a 8.306742
_cell_length_b 29.153931
_cell_length_c 11.500700
_cell_angle_alpha 90.000000
_cell_angle_beta 90.000000
_cell_angle_gamma 90.000000
_cell_volume 2785.172628
_symmetry_space_group_name_H-M "I 21 21 21"
_symmetry_group_IT_number 24
_symmetry_cell_setting 'orthorhombic'
loop_
_space_group_symop_operation_xyz
x,y,z
-x,1/2-y,z
x,-y,1/2-z
1/2-x,y,-z
1/2+x,1/2+y,1/2+z
1/2-x,-y,1/2+z
1/2+x,1/2-y,-z
-x,1/2+y,1/2-z
loop_
_atom_site_type_symbol
_atom_site_label
_atom_site_fract_x
_atom_site_fract_y
_atom_site_fract_z
Si Si1 0.405936 0.797507 0.215597
Si Si2 0.560824 0.975170 0.996335
Si Si3 0.576070 0.647547 0.440704
Si Si4 0.521124 0.701174 0.835034
Si Si5 0.611574 0.794277 0.591316
Si Si6 0.440354 0.873098 0.021531
Si Si7 0.105862 0.000000 0.250000
Si Si8 0.356871 0.050135 0.116737
O O1 0.500000 0.750000 0.190947
O O2 0.444978 0.812888 0.346257
O O3 0.209277 0.797176 0.206517
O O4 0.458497 0.838637 0.130040
O O5 0.492312 0.987561 0.866734
O O6 0.750000 0.983188 0.000000
O O7 0.521779 0.922485 0.026599
O O8 0.474397 0.007955 0.090782
O O9 0.750000 0.650807 0.500000
O O10 0.456851 0.657456 0.545482
O O11 0.557035 0.598893 0.378117
O O12 0.500000 0.750000 0.899447
O O13 0.391421 0.700788 0.730457
O O14 0.498314 0.657038 0.913360
O O15 0.500000 0.750000 0.577182
O O16 0.750000 0.784449 0.500000
O O17 0.250000 0.880787 0.000000
O O18 0.229372 0.041183 0.218535
O O19 0.250000 0.052434 0.000000
#
# Coordination Sequence:
#
# PCOD9335755 Si02
#       8
#     8   8   8   8   8   8   4   8
#     4  11  24  40  66  98 133 176 226 278 337 399
#     4  11  25  45  69 107 139 172 223 290 346 393
#     4  11  22  39  64  98 130 169 221 279 333 404
#     4  10  23  40  63  94 130 177 222 280 333 399
#     4  11  24  40  62  90 129 173 220 277 340 407
#     4  10  23  44  70  96 133 182 234 269 331 423
#     4  10  22  44  72  96 138 180 222 274 334 420
#     4   9  22  40  68  94 129 176 223 264 331 414
#
# _framework density 21.542649999999998
#
# number of rings (size 3 to 8) (size 9 to 14) (size 15 to 20)
#    0.000    1.600    1.333    2.400   11.200    3.200 
#    0.000    0.000    0.000    0.000    0.000    0.000 
#    0.000    0.000    0.000    0.000    0.000    0.000 
#
# Total GULP energy -167436.126447 kJ/mol
# GULP energy per Si atom -5581.204215 kJ/mol
# Density = 2.149362 g / cm^3
# Si number density = 21.542650 Si / 1000 Ang^3
#
#
#
# Elastic Constant Matrix: (Units=GPa)
#
#
# Indices 1 2 3 4 5 6 
#
# 1 48.7545 23.2794 31.5983 0.0001 0.0000 0.0000
# 2 23.2794 113.4873 31.3080 0.0001 0.0000 -0.0001
# 3 31.5983 31.3080 89.9367 0.0000 -0.0001 0.0004
# 4 0.0001 0.0001 0.0000 24.5127 0.0000 0.0001
# 5 0.0000 0.0000 -0.0001 0.0000 26.3677 0.0000
# 6 0.0000 -0.0001 0.0004 0.0001 0.0000 25.4495
#
#
#
# Elastic Compliance Matrix: (Units=1/GPa)
#
#
# Indices 1 2 3 4 5 6 
#
# 1 0.027637 -0.003308 -0.008558 0.000000 0.000000 0.000000
# 2 -0.003308 0.010144 -0.002369 0.000000 0.000000 0.000000
# 3 -0.008558 -0.002369 0.014950 0.000000 0.000000 0.000000
# 4 0.000000 0.000000 0.000000 0.040795 0.000000 0.000000
# 5 0.000000 0.000000 0.000000 0.000000 0.037925 0.000000
# 6 0.000000 0.000000 0.000000 0.000000 0.000000 0.039293
#
#
# Mechanical properties :
#
#
# Convention : Reuss Voigt Hill
#
# Bulk Modulus (GPa) = 41.21914 47.17219 44.19566
# Shear Modulus (GPa) = 24.11926 26.33216 25.22571
#
# Velocity S-wave (km/s) = 3.34968 3.49997 3.42565
# Velocity P-wave (km/s) = 5.84258 6.18690 6.01720
#
# Compressibility (1/GPa) = 0.02426057
#
# Stress axis : x y z
#
# Youngs Moduli (GPa) = 36.18291 98.58382 66.88749
#
# Poissons Ratio (x) = 0.32613 0.57245
# Poissons Ratio (y) = 0.11970 0.15845
# Poissons Ratio (z) = 0.30967 0.23353
#
# Static dielectric constant tensor:
#      x y z
#    x 1.831590 0.000000 0.000000 
#    y 0.000000 1.789550 0.000000 
#    z 0.000000 0.000000 1.804850 
# 
# From -- ./inp_files/18798.got.cif
#   From: 2010.05.17/outbox.cif.g08.bks.cpg/sg24_10_cif.got.tgz:18798.got - 2010.06.04 00:33:39.
