data_PCOD9335408
_publ_section_title
;
Structure prediction by ZEFSAII (Michael W. Deem and Ramdas Pophale) SiO2 
 PCOD9335408
Probable space group: I 21 21 21
;
_chemical_formula_sum "Si O2"
_cell_formula_units_Z 40
_cell_length_a 7.230570
_cell_length_b 17.173979
_cell_length_c 15.320960
_cell_angle_alpha 90.000000
_cell_angle_beta 90.000000
_cell_angle_gamma 90.000000
_cell_volume 1902.520921
_symmetry_space_group_name_H-M "I 21 21 21"
_symmetry_group_IT_number 24
_symmetry_cell_setting 'orthorhombic'
loop_
_space_group_symop_operation_xyz
x,y,z
-x,1/2-y,z
x,-y,1/2-z
1/2-x,y,-z
1/2+x,1/2+y,1/2+z
1/2-x,-y,1/2+z
1/2+x,1/2-y,-z
-x,1/2+y,1/2-z
loop_
_atom_site_type_symbol
_atom_site_label
_atom_site_fract_x
_atom_site_fract_y
_atom_site_fract_z
Si Si1 0.767495 0.906771 0.594763
Si Si2 0.503006 0.972290 0.840407
Si Si3 0.874539 0.510164 0.913304
Si Si4 0.096575 0.328414 0.571786
Si Si5 0.858708 0.180399 0.270920
O O1 0.750000 0.866508 0.500000
O O2 0.710051 0.854408 0.677847
O O3 0.622626 0.979744 0.590446
O O4 0.968888 0.945960 0.604016
O O5 0.289932 0.993466 0.843803
O O6 0.528023 0.881006 0.831718
O O7 0.592142 0.000000 0.750000
O O8 0.967414 0.595758 0.916635
O O9 0.750000 0.499109 0.000000
O O10 0.250000 0.349501 0.500000
O O11 0.186144 0.305117 0.665137
O O12 0.000000 0.250000 0.538011
O O13 0.000000 0.250000 0.254382
#
# Coordination Sequence:
#
# PCOD9335408 Si02
#       5
#     8   8   8   8   8
#     4  11  23  45  68 100 138 184 236 295 341 421
#     4  10  22  38  66  96 133 172 228 288 344 404
#     4  12  22  37  67 101 133 176 235 285 349 423
#     4  12  24  40  64  98 143 179 225 288 362 434
#     4  11  24  45  68  99 143 187 233 293 358 421
#
# _framework density 21.024736999999998
#
# number of rings (size 3 to 8) (size 9 to 14) (size 15 to 20)
#    0.000    0.800    4.000    4.200    2.800    0.000 
#    0.000    1.000    0.000    0.000    0.000    0.000 
#    0.000    0.000    0.000    0.000    0.000    0.000 
#
# Total GULP energy -111540.937859 kJ/mol
# GULP energy per Si atom -5577.046893 kJ/mol
# Density = 2.097688 g / cm^3
# Si number density = 21.024737 Si / 1000 Ang^3
#
#
#
# Elastic Constant Matrix: (Units=GPa)
#
#
# Indices 1 2 3 4 5 6 
#
# 1 129.1102 33.8096 36.0755 0.0000 0.0000 0.0000
# 2 33.8096 65.6694 25.9165 0.0000 0.0000 0.0000
# 3 36.0755 25.9165 128.8953 0.0000 0.0000 0.0000
# 4 0.0000 0.0000 0.0000 18.6277 0.0000 0.0000
# 5 0.0000 0.0000 0.0000 0.0000 37.0858 0.0000
# 6 0.0000 0.0000 0.0000 0.0000 0.0000 39.3474
#
#
#
# Elastic Compliance Matrix: (Units=1/GPa)
#
#
# Indices 1 2 3 4 5 6 
#
# 1 0.009315 -0.004092 -0.001785 0.000000 0.000000 0.000000
# 2 -0.004092 0.018338 -0.002542 0.000000 0.000000 0.000000
# 3 -0.001785 -0.002542 0.008769 0.000000 0.000000 0.000000
# 4 0.000000 0.000000 0.000000 0.053683 0.000000 0.000000
# 5 0.000000 0.000000 0.000000 0.000000 0.026964 0.000000
# 6 0.000000 0.000000 0.000000 0.000000 0.000000 0.025415
#
#
# Mechanical properties :
#
#
# Convention : Reuss Voigt Hill
#
# Bulk Modulus (GPa) = 51.05811 57.25312 54.15562
# Shear Modulus (GPa) = 30.14790 34.20374 32.17582
#
# Velocity S-wave (km/s) = 3.79083 4.03778 3.91625
# Velocity P-wave (km/s) = 6.59530 7.00204 6.80171
#
# Compressibility (1/GPa) = 0.01958553
#
# Stress axis : x y z
#
# Youngs Moduli (GPa) = 107.34880 54.53288 114.04104
#
# Poissons Ratio (x) = 0.22313 0.20351
# Poissons Ratio (y) = 0.43924 0.28988
# Poissons Ratio (z) = 0.19156 0.13862
#
# Static dielectric constant tensor:
#      x y z
#    x 1.789360 0.000000 0.000000 
#    y 0.000000 1.803070 0.000000 
#    z 0.000000 0.000000 1.872670 
# 
# From -- ./inp_files/28609.got.cif
#   From: 2010.05.17/outbox.cif.g08.bks.cpg/sg24_15_cif.got.tgz:28609.got - 2010.06.04 00:33:39.
