data_PCOD9335818
_publ_section_title
;
Structure prediction by ZEFSAII (Michael W. Deem and Ramdas Pophale) SiO2 
 PCOD9335818
Probable space group: I 21 21 21
;
_chemical_formula_sum "Si O2"
_cell_formula_units_Z 28
_cell_length_a 7.781602
_cell_length_b 5.555989
_cell_length_c 26.750021
_cell_angle_alpha 90.000000
_cell_angle_beta 90.000000
_cell_angle_gamma 90.000000
_cell_volume 1156.523652
_symmetry_space_group_name_H-M "I 21 21 21"
_symmetry_group_IT_number 24
_symmetry_cell_setting 'orthorhombic'
loop_
_space_group_symop_operation_xyz
x,y,z
-x,1/2-y,z
x,-y,1/2-z
1/2-x,y,-z
1/2+x,1/2+y,1/2+z
1/2-x,-y,1/2+z
1/2+x,1/2-y,-z
-x,1/2+y,1/2-z
loop_
_atom_site_type_symbol
_atom_site_label
_atom_site_fract_x
_atom_site_fract_y
_atom_site_fract_z
Si Si1 0.815354 0.655921 0.198283
Si Si2 0.207565 0.504252 0.941565
Si Si3 0.094841 0.500000 0.750000
Si Si4 0.309630 0.992869 0.402242
O O1 0.832130 0.500000 0.250000
O O2 0.709078 0.509774 0.157310
O O3 0.000000 0.750000 0.182388
O O4 0.713109 0.904735 0.205948
O O5 0.273682 0.759381 0.921505
O O6 0.004605 0.498281 0.924576
O O7 0.276174 0.253905 0.919688
O O8 0.250000 0.499694 0.000000
O O9 0.000000 0.750000 0.737881
#
# Coordination Sequence:
#
# PCOD9335818 Si02
#       4
#     8   8   4   8
#     4  12  28  51  80 117 173 221 275 335 415 497
#     4  10  22  47  74 107 157 194 262 340 408 471
#     4  12  28  44  80 114 158 218 276 338 396 472
#     4  10  25  43  77 112 148 207 268 320 407 492
#
# _framework density 24.210484999999998
#
# number of rings (size 3 to 8) (size 9 to 14) (size 15 to 20)
#    0.000    1.143    2.857    0.857    8.000    2.286 
#   15.429    0.000    0.000    0.000    0.000    0.000 
#    0.000    0.000    0.000    0.000    0.000    0.000 
#
# Total GULP energy -78148.507524 kJ/mol
# GULP energy per Si atom -5582.036252 kJ/mol
# Density = 2.415538 g / cm^3
# Si number density = 24.210485 Si / 1000 Ang^3
#
#
#
# Elastic Constant Matrix: (Units=GPa)
#
#
# Indices 1 2 3 4 5 6 
#
# 1 118.9492 30.5508 40.4038 0.0000 0.0000 0.0000
# 2 30.5508 257.2635 63.7771 -0.0002 0.0000 0.0000
# 3 40.4038 63.7771 164.5675 -0.0001 0.0000 0.0000
# 4 0.0000 -0.0002 -0.0001 181.8888 0.0000 -0.0001
# 5 0.0000 0.0000 0.0000 0.0000 58.6748 0.0000
# 6 0.0000 0.0000 0.0000 -0.0001 0.0000 3.0329
#
#
#
# Elastic Compliance Matrix: (Units=1/GPa)
#
#
# Indices 1 2 3 4 5 6 
#
# 1 0.009253 -0.000593 -0.002042 0.000000 0.000000 0.000000
# 2 -0.000593 0.004338 -0.001536 0.000000 0.000000 0.000000
# 3 -0.002042 -0.001536 0.007173 0.000000 0.000000 0.000000
# 4 0.000000 0.000000 0.000000 0.005498 0.000000 0.000000
# 5 0.000000 0.000000 0.000000 0.000000 0.017043 0.000000
# 6 0.000000 0.000000 0.000000 0.000000 0.000000 0.329717
#
#
# Mechanical properties :
#
#
# Convention : Reuss Voigt Hill
#
# Bulk Modulus (GPa) = 80.49406 90.02706 85.26056
# Shear Modulus (GPa) = 12.97003 75.78918 44.37960
#
# Velocity S-wave (km/s) = 2.31707 5.60109 4.28609
# Velocity P-wave (km/s) = 6.36225 8.89357 7.73220
#
# Compressibility (1/GPa) = 0.01242328
#
# Stress axis : x y z
#
# Youngs Moduli (GPa) = 108.07567 230.51286 139.41055
#
# Poissons Ratio (x) = 0.13659 0.28468
# Poissons Ratio (y) = 0.06404 0.21410
# Poissons Ratio (z) = 0.22070 0.35401
#
# Static dielectric constant tensor:
#      x y z
#    x -0.549130 0.000000 0.000000 
#    y 0.000000 1.912360 0.000000 
#    z 0.000000 0.000000 2.008060 
# 
# From -- ./inp_files/36680.got.cif
#   From: 2010.05.17/outbox.cif.g08.bks.cpg/sg24_19_cif.got.tgz:36680.got - 2010.06.04 00:33:39.
