data_PCOD9335424
_publ_section_title
;
Structure prediction by ZEFSAII (Michael W. Deem and Ramdas Pophale) SiO2 
 PCOD9335424
Probable space group: I 21 21 21
;
_chemical_formula_sum "Si O2"
_cell_formula_units_Z 48
_cell_length_a 13.212387
_cell_length_b 14.168648
_cell_length_c 13.667544
_cell_angle_alpha 90.000000
_cell_angle_beta 90.000000
_cell_angle_gamma 90.000000
_cell_volume 2558.586934
_symmetry_space_group_name_H-M "I 21 21 21"
_symmetry_group_IT_number 24
_symmetry_cell_setting 'orthorhombic'
loop_
_space_group_symop_operation_xyz
x,y,z
-x,1/2-y,z
x,-y,1/2-z
1/2-x,y,-z
1/2+x,1/2+y,1/2+z
1/2-x,-y,1/2+z
1/2+x,1/2-y,-z
-x,1/2+y,1/2-z
loop_
_atom_site_type_symbol
_atom_site_label
_atom_site_fract_x
_atom_site_fract_y
_atom_site_fract_z
Si Si1 0.900532 0.352967 0.847154
Si Si2 0.568536 0.333417 0.375123
Si Si3 0.250000 0.591527 0.500000
Si Si4 0.118060 0.239395 0.055421
Si Si5 0.582275 0.011526 0.138402
Si Si6 0.804729 0.451211 0.151212
Si Si7 0.750000 0.404957 0.500000
O O1 0.904407 0.310539 0.738507
O O2 0.816175 0.434759 0.840725
O O3 0.010116 0.396823 0.867400
O O4 0.871731 0.290649 0.940758
O O5 0.500000 0.250000 0.416332
O O6 0.495609 0.425105 0.378939
O O7 0.673379 0.347838 0.431895
O O8 0.180807 0.663754 0.435385
O O9 0.174109 0.528415 0.564553
O O10 0.154757 0.151236 0.120921
O O11 0.000000 0.250000 0.075601
O O12 0.619065 0.000000 0.250000
O O13 0.842321 0.500000 0.250000
O O14 0.819273 0.525610 0.064920
#
# Coordination Sequence:
#
# PCOD9335424 Si02
#       7
#     8   8   4   8   8   8   4
#     4  11  18  39  67  97 118 148 218 276 306 352
#     4  11  24  38  65  93 124 167 213 261 311 377
#     4  12  23  37  64  94 132 160 204 273 323 380
#     4  12  23  37  65  98 126 160 213 263 319 373
#     4  10  22  39  61  93 126 162 207 263 326 367
#     4  12  21  38  65  94 125 160 208 265 314 375
#     4  12  21  39  62  90 124 162 208 257 317 372
#
# _framework density 18.760355000000001
#
# number of rings (size 3 to 8) (size 9 to 14) (size 15 to 20)
#    0.000    0.667    8.333    1.000    2.333    0.667 
#    0.000    1.667    0.000    0.000    0.000    0.000 
#    0.000    0.000    0.000    0.000    0.000    0.000 
#
# Total GULP energy -133949.076713 kJ/mol
# GULP energy per Si atom -5581.211530 kJ/mol
# Density = 1.871766 g / cm^3
# Si number density = 18.760355 Si / 1000 Ang^3
#
#
#
# Elastic Constant Matrix: (Units=GPa)
#
#
# Indices 1 2 3 4 5 6 
#
# 1 97.2283 21.3100 36.5227 0.0000 0.0000 0.0000
# 2 21.3100 57.0592 34.8285 0.0000 0.0000 0.0000
# 3 36.5227 34.8285 99.3906 0.0000 0.0000 0.0000
# 4 0.0000 0.0000 0.0000 27.4903 0.0000 0.0000
# 5 0.0000 0.0000 0.0000 0.0000 33.7264 0.0000
# 6 0.0000 0.0000 0.0000 0.0000 0.0000 29.9411
#
#
#
# Elastic Compliance Matrix: (Units=1/GPa)
#
#
# Indices 1 2 3 4 5 6 
#
# 1 0.012167 -0.002309 -0.003662 0.000000 0.000000 0.000000
# 2 -0.002309 0.022732 -0.007118 0.000000 0.000000 0.000000
# 3 -0.003662 -0.007118 0.013901 0.000000 0.000000 0.000000
# 4 0.000000 0.000000 0.000000 0.036376 0.000000 0.000000
# 5 0.000000 0.000000 0.000000 0.000000 0.029650 0.000000
# 6 0.000000 0.000000 0.000000 0.000000 0.000000 0.033399
#
#
# Mechanical properties :
#
#
# Convention : Reuss Voigt Hill
#
# Bulk Modulus (GPa) = 44.20103 48.77785 46.48944
# Shear Modulus (GPa) = 27.48110 28.96600 28.22355
#
# Velocity S-wave (km/s) = 3.83149 3.93364 3.88290
# Velocity P-wave (km/s) = 6.57159 6.83288 6.70351
#
# Compressibility (1/GPa) = 0.02262391
#
# Stress axis : x y z
#
# Youngs Moduli (GPa) = 82.19219 43.99008 71.93712
#
# Poissons Ratio (x) = 0.10156 0.26342
# Poissons Ratio (y) = 0.18976 0.51201
# Poissons Ratio (z) = 0.30097 0.31310
#
# Static dielectric constant tensor:
#      x y z
#    x 1.660260 0.000000 0.000000 
#    y 0.000000 1.700620 0.000000 
#    z 0.000000 0.000000 1.682000 
# 
# From -- ./inp_files/20791.got.cif
#   From: 2010.05.17/outbox.cif.g08.bks.cpg/sg24_11_cif.got.tgz:20791.got - 2010.06.04 00:33:39.
