data_PCOD9335810
_publ_section_title
;
Structure prediction by ZEFSAII (Michael W. Deem and Ramdas Pophale) SiO2 
 PCOD9335810
Probable space group: I 21 21 21
;
_chemical_formula_sum "Si O2"
_cell_formula_units_Z 40
_cell_length_a 10.772023
_cell_length_b 8.761684
_cell_length_c 16.113864
_cell_angle_alpha 90.000000
_cell_angle_beta 90.000000
_cell_angle_gamma 90.000000
_cell_volume 1520.843590
_symmetry_space_group_name_H-M "I 21 21 21"
_symmetry_group_IT_number 24
_symmetry_cell_setting 'orthorhombic'
loop_
_space_group_symop_operation_xyz
x,y,z
-x,1/2-y,z
x,-y,1/2-z
1/2-x,y,-z
1/2+x,1/2+y,1/2+z
1/2-x,-y,1/2+z
1/2+x,1/2-y,-z
-x,1/2+y,1/2-z
loop_
_atom_site_type_symbol
_atom_site_label
_atom_site_fract_x
_atom_site_fract_y
_atom_site_fract_z
Si Si1 0.370731 0.310581 0.057652
Si Si2 0.153428 0.340003 0.270700
Si Si3 0.711741 0.586376 0.662295
Si Si4 0.872736 0.694028 0.054668
Si Si5 0.430363 0.406822 0.323074
O O1 0.500000 0.250000 0.018826
O O2 0.327039 0.171939 0.118414
O O3 0.399262 0.469880 0.105303
O O4 0.250000 0.334221 0.000000
O O5 0.094347 0.500000 0.250000
O O6 0.129855 0.224029 0.197206
O O7 0.121802 0.295216 0.362979
O O8 0.301897 0.355438 0.279914
O O9 0.736477 0.500000 0.750000
O O10 0.649316 0.474574 0.594469
O O11 0.000000 0.750000 0.011911
O O12 0.750000 0.723362 0.000000
O O13 0.500000 0.250000 0.342627
O O14 0.498171 0.500000 0.250000
#
# Coordination Sequence:
#
# PCOD9335810 Si02
#       5
#     8   8   8   8   8
#     4  12  28  52  81 123 174 224 276 346 419 503
#     4  10  22  46  77 118 167 208 281 345 424 491
#     4  10  23  50  85 120 162 213 276 350 415 494
#     4  11  27  52  78 119 170 227 279 345 418 497
#     4  11  24  44  82 123 163 213 282 352 421 490
#
# _framework density 26.301192
#
# number of rings (size 3 to 8) (size 9 to 14) (size 15 to 20)
#    0.000    1.200    4.000    1.200    5.600    4.000 
#   10.800    6.000    0.000    0.000    0.000    0.000 
#    0.000    0.000    0.000    0.000    0.000    0.000 
#
# Total GULP energy -111847.229653 kJ/mol
# GULP energy per Si atom -5592.361483 kJ/mol
# Density = 2.624133 g / cm^3
# Si number density = 26.301192 Si / 1000 Ang^3
#
#
#
# Elastic Constant Matrix: (Units=GPa)
#
#
# Indices 1 2 3 4 5 6 
#
# 1 210.5854 84.1888 72.3405 0.0000 0.0000 0.0000
# 2 84.1888 205.3883 80.0425 0.0000 0.0000 0.0000
# 3 72.3405 80.0425 142.7431 0.0000 0.0000 0.0000
# 4 0.0000 0.0000 0.0000 -137.9728 0.0000 0.0000
# 5 0.0000 0.0000 0.0000 0.0000 -42.1695 0.0000
# 6 0.0000 0.0000 0.0000 0.0000 0.0000 37.2373
#
#
#
# Elastic Compliance Matrix: (Units=1/GPa)
#
#
# Indices 1 2 3 4 5 6 
#
# 1 0.006170 -0.001677 -0.002187 0.000000 0.000000 0.000000
# 2 -0.001677 0.006686 -0.002899 0.000000 0.000000 0.000000
# 3 -0.002187 -0.002899 0.009740 0.000000 0.000000 0.000000
# 4 0.000000 0.000000 0.000000 -0.007248 0.000000 0.000000
# 5 0.000000 0.000000 0.000000 0.000000 -0.023714 0.000000
# 6 0.000000 0.000000 0.000000 0.000000 0.000000 0.026855
#
#
# Mechanical properties :
#
#
# Convention : Reuss Voigt Hill
#
# Bulk Modulus (GPa) = 110.25393 114.65115 112.45254
# Shear Modulus (GPa) = 142.70077 -7.10464 67.79807
#
# Velocity S-wave (km/s) = 7.37388 -1.64533 5.08267
# Velocity P-wave (km/s) = 10.70092 6.33062 8.79165
#
# Compressibility (1/GPa) = 0.00906997
#
# Stress axis : x y z
#
# Youngs Moduli (GPa) = 162.06736 149.56288 102.67443
#
# Poissons Ratio (x) = 0.25082 0.22451
# Poissons Ratio (y) = 0.27179 0.29769
# Poissons Ratio (z) = 0.35438 0.43363
#
# Static dielectric constant tensor:
#      x y z
#    x 2.407450 0.000000 0.000000 
#    y 0.000000 2.283910 0.000000 
#    z 0.000000 0.000000 2.110310 
# 
# From -- ./inp_files/30058.got.cif
#   From: 2010.05.17/outbox.cif.g08.bks.cpg/sg24_16_cif.got.tgz:30058.got - 2010.06.04 00:33:39.
