data_PCOD9335119
_publ_section_title
;
Structure prediction by ZEFSAII (Michael W. Deem and Ramdas Pophale) SiO2 
 PCOD9335119
Probable space group: I 21 21 21
;
_chemical_formula_sum "Si O2"
_cell_formula_units_Z 40
_cell_length_a 25.278526
_cell_length_b 8.781566
_cell_length_c 8.544136
_cell_angle_alpha 90.000000
_cell_angle_beta 90.000000
_cell_angle_gamma 90.000000
_cell_volume 1896.670410
_symmetry_space_group_name_H-M "I 21 21 21"
_symmetry_group_IT_number 24
_symmetry_cell_setting 'orthorhombic'
loop_
_space_group_symop_operation_xyz
x,y,z
-x,1/2-y,z
x,-y,1/2-z
1/2-x,y,-z
1/2+x,1/2+y,1/2+z
1/2-x,-y,1/2+z
1/2+x,1/2-y,-z
-x,1/2+y,1/2-z
loop_
_atom_site_type_symbol
_atom_site_label
_atom_site_fract_x
_atom_site_fract_y
_atom_site_fract_z
Si Si1 0.946328 0.325130 0.456101
Si Si2 0.740082 0.180908 0.241245
Si Si3 0.837826 0.390461 0.595505
Si Si4 0.172312 0.199512 0.050440
Si Si5 0.945384 0.312489 0.092292
O O1 0.892674 0.306264 0.554504
O O2 0.941754 0.269351 0.276468
O O3 0.950002 0.507125 0.434797
O O4 0.000000 0.250000 0.521654
O O5 0.708309 0.269680 0.375357
O O6 0.798868 0.243644 0.206848
O O7 0.741465 0.000000 0.250000
O O8 0.704966 0.227057 0.090397
O O9 0.844052 0.500000 0.750000
O O10 0.824580 0.516245 0.463510
O O11 0.111000 0.240058 0.028524
O O12 0.000000 0.250000 0.026268
#
# Coordination Sequence:
#
# PCOD9335119 Si02
#       5
#     8   8   8   8   8
#     4   9  18  35  56  87 112 142 196 233 286 353
#     4  10  21  41  57  87 122 150 197 249 295 344
#     4   9  19  40  60  80 116 158 195 235 287 365
#     4   9  20  42  57  84 118 150 198 238 288 365
#     4   9  18  36  59  82 114 146 184 244 290 341
#
# _framework density 21.089590999999999
#
# number of rings (size 3 to 8) (size 9 to 14) (size 15 to 20)
#    0.000    2.800    0.000    0.000    0.000    1.600 
#   54.000   10.000    0.000    0.000    0.000    0.000 
#    0.000    0.000    0.000    0.000    0.000    0.000 
#
# Total GULP energy -111543.530269 kJ/mol
# GULP energy per Si atom -5577.176513 kJ/mol
# Density = 2.104159 g / cm^3
# Si number density = 21.089591 Si / 1000 Ang^3
#
#
#
# Elastic Constant Matrix: (Units=GPa)
#
#
# Indices 1 2 3 4 5 6 
#
# 1 192.8170 73.1918 38.6912 0.0000 0.0000 0.0000
# 2 73.1918 77.8345 21.3703 0.0000 0.0000 0.0000
# 3 38.6912 21.3703 29.8259 0.0000 0.0000 0.0000
# 4 0.0000 0.0000 0.0000 13.8699 0.0000 0.0000
# 5 0.0000 0.0000 0.0000 0.0000 34.9224 0.0000
# 6 0.0000 0.0000 0.0000 0.0000 0.0000 40.8107
#
#
#
# Elastic Compliance Matrix: (Units=1/GPa)
#
#
# Indices 1 2 3 4 5 6 
#
# 1 0.009128 -0.006638 -0.007085 0.000000 0.000000 0.000000
# 2 -0.006638 0.020822 -0.006308 0.000000 0.000000 0.000000
# 3 -0.007085 -0.006308 0.047238 0.000000 0.000000 0.000000
# 4 0.000000 0.000000 0.000000 0.072099 0.000000 0.000000
# 5 0.000000 0.000000 0.000000 0.000000 0.028635 0.000000
# 6 0.000000 0.000000 0.000000 0.000000 0.000000 0.024503
#
#
# Mechanical properties :
#
#
# Convention : Reuss Voigt Hill
#
# Bulk Modulus (GPa) = 26.93490 62.99821 44.96656
# Shear Modulus (GPa) = 19.61862 29.06888 24.34375
#
# Velocity S-wave (km/s) = 3.05331 3.71664 3.40119
# Velocity P-wave (km/s) = 5.02291 6.95374 6.06565
#
# Compressibility (1/GPa) = 0.03712655
#
# Stress axis : x y z
#
# Youngs Moduli (GPa) = 109.55780 48.02679 21.16951
#
# Poissons Ratio (x) = 0.31880 0.14998
# Poissons Ratio (y) = 0.72725 0.13353
# Poissons Ratio (z) = 0.77616 0.30294
#
# Static dielectric constant tensor:
#      x y z
#    x 1.791420 0.000000 0.000000 
#    y 0.000000 1.727320 0.000000 
#    z 0.000000 0.000000 1.884260 
# 
# From -- ./inp_files/16257.got.cif
#   From: 2010.05.17/outbox.cif.g08.bks.cpg/sg24_9_cif.got.tgz:16257.got - 2010.06.04 00:33:39.
