data_PCOD9335712
_publ_section_title
;
Structure prediction by ZEFSAII (Michael W. Deem and Ramdas Pophale) SiO2 
 PCOD9335712
Probable space group: I 21 21 21
;
_chemical_formula_sum "Si O2"
_cell_formula_units_Z 40
_cell_length_a 19.068441
_cell_length_b 16.669728
_cell_length_c 5.681067
_cell_angle_alpha 90.000000
_cell_angle_beta 90.000000
_cell_angle_gamma 90.000000
_cell_volume 1805.816480
_symmetry_space_group_name_H-M "I 21 21 21"
_symmetry_group_IT_number 24
_symmetry_cell_setting 'orthorhombic'
loop_
_space_group_symop_operation_xyz
x,y,z
-x,1/2-y,z
x,-y,1/2-z
1/2-x,y,-z
1/2+x,1/2+y,1/2+z
1/2-x,-y,1/2+z
1/2+x,1/2-y,-z
-x,1/2+y,1/2-z
loop_
_atom_site_type_symbol
_atom_site_label
_atom_site_fract_x
_atom_site_fract_y
_atom_site_fract_z
Si Si1 0.778981 0.281361 0.248400
Si Si2 0.521173 0.900523 0.923329
Si Si3 0.500000 0.750000 0.212130
Si Si4 0.415883 0.000000 0.250000
Si Si5 0.750000 0.879539 0.500000
Si Si6 0.646249 0.000000 0.750000
Si Si7 0.911028 0.645303 0.451577
O O1 0.750000 0.308174 0.500000
O O2 0.859633 0.309510 0.228438
O O3 0.750000 0.316860 0.000000
O O4 0.756968 0.187255 0.211007
O O5 0.593760 0.945115 0.898307
O O6 0.481264 0.885486 0.678417
O O7 0.532976 0.817289 0.050147
O O8 0.466058 0.949970 0.077928
O O9 0.561347 0.711028 0.366056
O O10 0.379282 0.931884 0.410624
O O11 0.689425 0.942220 0.574712
#
# Coordination Sequence:
#
# PCOD9335712 Si02
#       7
#     8   8   4   4   4   4   8
#     4  10  27  50  75 107 149 202 257 308 379 466
#     4  11  24  44  71 106 149 185 253 319 377 450
#     4  10  26  36  70 112 138 200 236 330 372 446
#     4  10  22  43  72 111 142 184 234 336 382 448
#     4  10  30  44  70 104 154 206 250 302 372 480
#     4  12  26  49  66 107 152 202 248 308 388 452
#     4  11  23  44  72 110 144 191 258 316 383 450
#
# _framework density 22.150645000000001
#
# number of rings (size 3 to 8) (size 9 to 14) (size 15 to 20)
#    0.600    0.800    2.000    0.600   12.600    2.400 
#    0.000    0.000    4.400    0.000    0.000    0.000 
#    0.000    0.000    0.000    0.000    0.000    0.000 
#
# Total GULP energy -111491.972170 kJ/mol
# GULP energy per Si atom -5574.598608 kJ/mol
# Density = 2.210023 g / cm^3
# Si number density = 22.150645 Si / 1000 Ang^3
#
#
#
# Elastic Constant Matrix: (Units=GPa)
#
#
# Indices 1 2 3 4 5 6 
#
# 1 68.5100 35.3443 28.6716 0.0000 0.0000 0.0000
# 2 35.3443 124.1013 57.6426 0.0000 0.0000 0.0000
# 3 28.6716 57.6426 106.0700 0.0000 0.0000 0.0000
# 4 0.0000 0.0000 0.0000 30.9439 0.0000 0.0000
# 5 0.0000 0.0000 0.0000 0.0000 -56.9453 0.0000
# 6 0.0000 0.0000 0.0000 0.0000 0.0000 30.4963
#
#
#
# Elastic Compliance Matrix: (Units=1/GPa)
#
#
# Indices 1 2 3 4 5 6 
#
# 1 0.017683 -0.003767 -0.002733 0.000000 0.000000 0.000000
# 2 -0.003767 0.011581 -0.005275 0.000000 0.000000 0.000000
# 3 -0.002733 -0.005275 0.013033 0.000000 0.000000 0.000000
# 4 0.000000 0.000000 0.000000 0.032317 0.000000 0.000000
# 5 0.000000 0.000000 0.000000 0.000000 -0.017561 0.000000
# 6 0.000000 0.000000 0.000000 0.000000 0.000000 0.032791
#
#
# Mechanical properties :
#
#
# Convention : Reuss Voigt Hill
#
# Bulk Modulus (GPa) = 53.34051 60.22203 56.78127
# Shear Modulus (GPa) = 41.79061 12.70051 27.24556
#
# Velocity S-wave (km/s) = 4.34828 2.39711 3.51096
# Velocity P-wave (km/s) = 7.02446 5.90830 6.49042
#
# Compressibility (1/GPa) = 0.01874748
#
# Stress axis : x y z
#
# Youngs Moduli (GPa) = 56.54994 86.34781 76.72645
#
# Poissons Ratio (x) = 0.32526 0.20969
# Poissons Ratio (y) = 0.21302 0.40476
# Poissons Ratio (z) = 0.15455 0.45552
#
# Static dielectric constant tensor:
#      x y z
#    x 1.847470 0.000000 0.000000 
#    y 0.000000 2.458360 0.000000 
#    z 0.000000 0.000000 1.838990 
# 
# From -- ./inp_files/4571.got.cif
#   From: 2010.05.17/outbox.cif.g08.bks.cpg/sg24_3_cif.got.tgz:4571.got - 2010.06.04 00:33:39.
