data_PCOD9335211
_publ_section_title
;
Structure prediction by ZEFSAII (Michael W. Deem and Ramdas Pophale) SiO2 
 PCOD9335211
Probable space group: I 21 21 21
;
_chemical_formula_sum "Si O2"
_cell_formula_units_Z 36
_cell_length_a 10.467636
_cell_length_b 7.686290
_cell_length_c 19.133654
_cell_angle_alpha 90.000000
_cell_angle_beta 90.000000
_cell_angle_gamma 90.000000
_cell_volume 1539.441870
_symmetry_space_group_name_H-M "I 21 21 21"
_symmetry_group_IT_number 24
_symmetry_cell_setting 'orthorhombic'
loop_
_space_group_symop_operation_xyz
x,y,z
-x,1/2-y,z
x,-y,1/2-z
1/2-x,y,-z
1/2+x,1/2+y,1/2+z
1/2-x,-y,1/2+z
1/2+x,1/2-y,-z
-x,1/2+y,1/2-z
loop_
_atom_site_type_symbol
_atom_site_label
_atom_site_fract_x
_atom_site_fract_y
_atom_site_fract_z
Si Si1 0.647438 0.781109 0.804693
Si Si2 0.000000 0.750000 0.438570
Si Si3 0.802605 0.360246 0.573589
Si Si4 0.062953 0.486242 0.933249
Si Si5 0.223883 0.325222 0.157261
O O1 0.500000 0.750000 0.787749
O O2 0.696330 0.663772 0.867962
O O3 0.730963 0.749523 0.735106
O O4 0.665747 0.980973 0.828871
O O5 0.039509 0.595158 0.490750
O O6 0.122511 0.777429 0.389733
O O7 0.750000 0.427614 0.500000
O O8 0.924077 0.471231 0.597690
O O9 0.860766 0.167094 0.559804
O O10 0.147089 0.360332 0.885168
#
# Coordination Sequence:
#
# PCOD9335211 Si02
#       5
#     8   4   8   8   8
#     4  10  21  42  69  97 130 171 226 280 321 393
#     4  12  22  40  64  96 136 172 212 270 346 388
#     4  10  22  40  70  99 126 175 227 272 323 395
#     4  10  23  42  64  95 134 177 217 274 331 394
#     4  10  22  42  66  95 134 170 215 281 338 386
#
# _framework density 23.385096999999998
#
# number of rings (size 3 to 8) (size 9 to 14) (size 15 to 20)
#    0.000    1.778    1.111    3.333    6.222    1.778 
#    0.000    8.889    0.000    0.000    0.000    0.000 
#    0.000    0.000    0.000    0.000    0.000    0.000 
#
# Total GULP energy -100794.786369 kJ/mol
# GULP energy per Si atom -5599.710354 kJ/mol
# Density = 2.333187 g / cm^3
# Si number density = 23.385097 Si / 1000 Ang^3
#
#
#
# Elastic Constant Matrix: (Units=GPa)
#
#
# Indices 1 2 3 4 5 6 
#
# 1 118.3338 21.2262 57.4823 0.0000 0.0000 0.0000
# 2 21.2262 85.2208 32.1856 0.0000 0.0000 0.0000
# 3 57.4823 32.1856 159.3430 0.0000 0.0000 0.0000
# 4 0.0000 0.0000 0.0000 16.7803 0.0000 0.0000
# 5 0.0000 0.0000 0.0000 0.0000 2.8346 0.0000
# 6 0.0000 0.0000 0.0000 0.0000 0.0000 30.8027
#
#
#
# Elastic Compliance Matrix: (Units=1/GPa)
#
#
# Indices 1 2 3 4 5 6 
#
# 1 0.010371 -0.001267 -0.003485 0.000000 0.000000 0.000000
# 2 -0.001267 0.012858 -0.002140 0.000000 0.000000 0.000000
# 3 -0.003485 -0.002140 0.007965 0.000000 0.000000 0.000000
# 4 0.000000 0.000000 0.000000 0.059594 0.000000 0.000000
# 5 0.000000 0.000000 0.000000 0.000000 0.352789 0.000000
# 6 0.000000 0.000000 0.000000 0.000000 0.000000 0.032465
#
#
# Mechanical properties :
#
#
# Convention : Reuss Voigt Hill
#
# Bulk Modulus (GPa) = 57.43943 64.96509 61.20226
# Shear Modulus (GPa) = 10.08818 26.88375 18.48597
#
# Velocity S-wave (km/s) = 2.07926 3.39427 2.81464
# Velocity P-wave (km/s) = 5.51182 6.57284 6.06558
#
# Compressibility (1/GPa) = 0.01740964
#
# Stress axis : x y z
#
# Youngs Moduli (GPa) = 96.42288 77.77234 125.54274
#
# Poissons Ratio (x) = 0.09852 0.43757
# Poissons Ratio (y) = 0.12215 0.26869
# Poissons Ratio (z) = 0.33607 0.16645
#
# Static dielectric constant tensor:
#      x y z
#    x 1.846350 0.000000 0.000000 
#    y 0.000000 1.958750 0.000000 
#    z 0.000000 0.000000 1.830400 
# 
# From -- ./inp_files/9042.got.cif
#   From: 2010.05.17/outbox.cif.g08.bks.cpg/sg24_5_cif.got.tgz:9042.got - 2010.06.04 00:33:39.
