data_PCOD9335112
_publ_section_title
;
Structure prediction by ZEFSAII (Michael W. Deem and Ramdas Pophale) SiO2 
 PCOD9335112
Probable space group: I 21 21 21
;
_chemical_formula_sum "Si O2"
_cell_formula_units_Z 48
_cell_length_a 18.094432
_cell_length_b 9.462706
_cell_length_c 13.998339
_cell_angle_alpha 90.000000
_cell_angle_beta 90.000000
_cell_angle_gamma 90.000000
_cell_volume 2396.827663
_symmetry_space_group_name_H-M "I 21 21 21"
_symmetry_group_IT_number 24
_symmetry_cell_setting 'orthorhombic'
loop_
_space_group_symop_operation_xyz
x,y,z
-x,1/2-y,z
x,-y,1/2-z
1/2-x,y,-z
1/2+x,1/2+y,1/2+z
1/2-x,-y,1/2+z
1/2+x,1/2-y,-z
-x,1/2+y,1/2-z
loop_
_atom_site_type_symbol
_atom_site_label
_atom_site_fract_x
_atom_site_fract_y
_atom_site_fract_z
Si Si1 0.948683 0.113736 0.828865
Si Si2 0.172241 0.150640 0.215861
Si Si3 0.835529 0.539216 0.491872
Si Si4 0.937954 0.855078 0.195883
Si Si5 0.842493 0.352025 0.796687
Si Si6 0.497283 0.904663 0.012666
O O1 0.876900 0.195999 0.787655
O O2 0.000000 0.250000 0.838500
O O3 0.969683 0.000000 0.750000
O O4 0.960997 0.024903 0.926291
O O5 0.162827 0.140533 0.101179
O O6 0.136110 0.274219 0.276285
O O7 0.258711 0.153500 0.238076
O O8 0.140737 0.000000 0.250000
O O9 0.750000 0.477360 0.500000
O O10 0.844047 0.622681 0.590057
O O11 0.910569 0.443268 0.490708
O O12 0.000000 0.750000 0.235599
O O13 0.940376 0.000000 0.250000
O O14 0.958275 0.882508 0.086019
O O15 0.872748 0.500000 0.750000
O O16 0.500000 0.750000 0.062662
#
# Coordination Sequence:
#
# PCOD9335112 Si02
#       6
#     8   8   8   8   8   8
#     4  12  25  41  67  92 128 169 219 285 338 407
#     4  10  21  42  67  96 134 178 225 273 335 413
#     4  10  21  40  70  96 132 178 228 275 334 416
#     4  11  23  38  65  97 137 176 221 279 332 400
#     4  10  23  42  68  98 129 175 226 276 341 406
#     4  11  24  40  65 100 132 170 227 277 335 404
#
# _framework density 20.02647
#
# number of rings (size 3 to 8) (size 9 to 14) (size 15 to 20)
#    0.000    1.333    1.667    4.500    4.667    1.333 
#    0.000    0.000    7.333    0.000    0.000    0.000 
#    0.000    0.000    0.000    0.000    0.000    0.000 
#
# Total GULP energy -133601.676305 kJ/mol
# GULP energy per Si atom -5566.736513 kJ/mol
# Density = 1.998089 g / cm^3
# Si number density = 20.026470 Si / 1000 Ang^3
#
#
#
# Elastic Constant Matrix: (Units=GPa)
#
#
# Indices 1 2 3 4 5 6 
#
# 1 120.5836 57.9542 29.0315 0.0000 0.0000 0.0000
# 2 57.9542 164.9496 54.8441 0.0000 0.0000 0.0000
# 3 29.0315 54.8441 97.5230 0.0000 0.0000 0.0000
# 4 0.0000 0.0000 0.0000 33.7450 0.0000 0.0000
# 5 0.0000 0.0000 0.0000 0.0000 12.1095 0.0000
# 6 0.0000 0.0000 0.0000 0.0000 0.0000 -230.3121
#
#
#
# Elastic Compliance Matrix: (Units=1/GPa)
#
#
# Indices 1 2 3 4 5 6 
#
# 1 0.010099 -0.003135 -0.001243 0.000000 0.000000 0.000000
# 2 -0.003135 0.008430 -0.003807 0.000000 0.000000 0.000000
# 3 -0.001243 -0.003807 0.012765 0.000000 0.000000 0.000000
# 4 0.000000 0.000000 0.000000 0.029634 0.000000 0.000000
# 5 0.000000 0.000000 0.000000 0.000000 0.082580 0.000000
# 6 0.000000 0.000000 0.000000 0.000000 0.000000 -0.004342
#
#
# Mechanical properties :
#
#
# Convention : Reuss Voigt Hill
#
# Bulk Modulus (GPa) = 67.01189 74.07952 70.54570
# Shear Modulus (GPa) = 31.15040 -20.80975 5.17032
#
# Velocity S-wave (km/s) = 3.94821 -3.22702 1.60852
# Velocity P-wave (km/s) = 7.37013 4.81521 6.22515
#
# Compressibility (1/GPa) = 0.01492273
#
# Stress axis : x y z
#
# Youngs Moduli (GPa) = 99.01975 118.62676 78.33702
#
# Poissons Ratio (x) = 0.37187 0.09741
# Poissons Ratio (y) = 0.31041 0.29827
# Poissons Ratio (z) = 0.12313 0.45167
#
# Static dielectric constant tensor:
#      x y z
#    x 1.874450 0.000000 0.000000 
#    y 0.000000 1.727270 0.000000 
#    z 0.000000 0.000000 2.248540 
# 
# From -- ./inp_files/12780.got.cif
#   From: 2010.05.17/outbox.cif.g08.bks.cpg/sg24_7_cif.got.tgz:12780.got - 2010.06.04 00:33:39.
