data_PCOD9335402
_publ_section_title
;
Structure prediction by ZEFSAII (Michael W. Deem and Ramdas Pophale) SiO2 
 PCOD9335402
Probable space group: I 21 21 21
;
_chemical_formula_sum "Si O2"
_cell_formula_units_Z 44
_cell_length_a 13.362253
_cell_length_b 17.994435
_cell_length_c 9.467299
_cell_angle_alpha 90.000000
_cell_angle_beta 90.000000
_cell_angle_gamma 90.000000
_cell_volume 2276.376003
_symmetry_space_group_name_H-M "I 21 21 21"
_symmetry_group_IT_number 24
_symmetry_cell_setting 'orthorhombic'
loop_
_space_group_symop_operation_xyz
x,y,z
-x,1/2-y,z
x,-y,1/2-z
1/2-x,y,-z
1/2+x,1/2+y,1/2+z
1/2-x,-y,1/2+z
1/2+x,1/2-y,-z
-x,1/2+y,1/2-z
loop_
_atom_site_type_symbol
_atom_site_label
_atom_site_fract_x
_atom_site_fract_y
_atom_site_fract_z
Si Si1 0.000000 0.750000 0.212620
Si Si2 0.962710 0.365886 0.040726
Si Si3 0.870131 0.827916 0.996382
Si Si4 0.944706 0.985836 0.089366
Si Si5 0.369977 0.687033 0.330656
Si Si6 0.750000 0.308252 0.000000
Si Si7 0.250000 0.566873 0.500000
O O1 0.997470 0.678162 0.316767
O O2 0.906433 0.765408 0.107999
O O3 0.987205 0.452416 0.014004
O O4 0.844518 0.355358 0.046613
O O5 0.028515 0.325059 0.920054
O O6 0.891906 0.808988 0.833919
O O7 0.750000 0.840390 0.000000
O O8 0.933875 0.901859 0.037191
O O9 0.975271 0.000000 0.250000
O O10 0.833541 0.017931 0.072059
O O11 0.301222 0.755139 0.383104
O O12 0.301685 0.617156 0.379858
#
# Coordination Sequence:
#
# PCOD9335402 Si02
#       7
#     4   8   8   8   8   4   4
#     4  12  24  42  62 100 132 162 210 262 326 394
#     4  11  23  40  65  91 122 170 216 258 319 388
#     4  12  25  40  67  97 132 165 214 269 334 376
#     4  11  21  38  61  90 129 164 203 266 329 383
#     4  10  22  38  65  96 122 164 214 271 316 383
#     4  11  20  40  68  86 127 168 224 252 323 390
#     4   9  20  32  60  92 125 154 208 254 327 384
#
# _framework density 19.328970000000002
#
# number of rings (size 3 to 8) (size 9 to 14) (size 15 to 20)
#    0.000    1.091    4.545    2.182    5.091    2.182 
#    0.000    0.000    6.000    0.000    0.000    0.000 
#    0.000    0.000    0.000    0.000    0.000    0.000 
#
# Total GULP energy -122575.094984 kJ/mol
# GULP energy per Si atom -5571.595227 kJ/mol
# Density = 1.928498 g / cm^3
# Si number density = 19.328970 Si / 1000 Ang^3
#
#
#
# Elastic Constant Matrix: (Units=GPa)
#
#
# Indices 1 2 3 4 5 6 
#
# 1 103.0424 10.5591 26.7094 0.0000 0.0000 0.0000
# 2 10.5591 56.5530 6.3824 0.0000 0.0000 0.0000
# 3 26.7094 6.3824 112.3971 0.0000 0.0000 0.0000
# 4 0.0000 0.0000 0.0000 6.9400 0.0000 0.0000
# 5 0.0000 0.0000 0.0000 0.0000 16.8677 0.0000
# 6 0.0000 0.0000 0.0000 0.0000 0.0000 27.0162
#
#
#
# Elastic Compliance Matrix: (Units=1/GPa)
#
#
# Indices 1 2 3 4 5 6 
#
# 1 0.010500 -0.001690 -0.002399 0.000000 0.000000 0.000000
# 2 -0.001690 0.018068 -0.000624 0.000000 0.000000 0.000000
# 3 -0.002399 -0.000624 0.009503 0.000000 0.000000 0.000000
# 4 0.000000 0.000000 0.000000 0.144093 0.000000 0.000000
# 5 0.000000 0.000000 0.000000 0.000000 0.059285 0.000000
# 6 0.000000 0.000000 0.000000 0.000000 0.000000 0.037015
#
#
# Mechanical properties :
#
#
# Convention : Reuss Voigt Hill
#
# Bulk Modulus (GPa) = 34.91104 39.92160 37.41632
# Shear Modulus (GPa) = 16.81023 25.38756 21.09889
#
# Velocity S-wave (km/s) = 2.95225 3.62808 3.30747
# Velocity P-wave (km/s) = 5.45177 6.18460 5.82971
#
# Compressibility (1/GPa) = 0.02864424
#
# Stress axis : x y z
#
# Youngs Moduli (GPa) = 95.24019 55.34500 105.23427
#
# Poissons Ratio (x) = 0.09351 0.25247
# Poissons Ratio (y) = 0.16092 0.06572
# Poissons Ratio (z) = 0.22850 0.03456
#
# Static dielectric constant tensor:
#      x y z
#    x 1.670390 0.000000 0.000000 
#    y 0.000000 1.737260 0.000000 
#    z 0.000000 0.000000 1.727350 
# 
# From -- ./inp_files/12721.got.cif
#   From: 2010.05.17/outbox.cif.g08.bks.cpg/sg24_7_cif.got.tgz:12721.got - 2010.06.04 00:33:39.
