data_PCOD9335752
_publ_section_title
;
Structure prediction by ZEFSAII (Michael W. Deem and Ramdas Pophale) SiO2 
 PCOD9335752
Probable space group: I 21 21 21
;
_chemical_formula_sum "Si O2"
_cell_formula_units_Z 28
_cell_length_a 5.037107
_cell_length_b 14.831711
_cell_length_c 16.377730
_cell_angle_alpha 90.000000
_cell_angle_beta 90.000000
_cell_angle_gamma 90.000000
_cell_volume 1223.562443
_symmetry_space_group_name_H-M "I 21 21 21"
_symmetry_group_IT_number 24
_symmetry_cell_setting 'orthorhombic'
loop_
_space_group_symop_operation_xyz
x,y,z
-x,1/2-y,z
x,-y,1/2-z
1/2-x,y,-z
1/2+x,1/2+y,1/2+z
1/2-x,-y,1/2+z
1/2+x,1/2-y,-z
-x,1/2+y,1/2-z
loop_
_atom_site_type_symbol
_atom_site_label
_atom_site_fract_x
_atom_site_fract_y
_atom_site_fract_z
Si Si1 0.689065 0.086674 0.121796
Si Si2 0.200419 0.971805 0.086572
Si Si3 0.000000 0.750000 0.356987
Si Si4 0.392513 0.844606 0.230508
O O1 0.415193 0.053066 0.083540
O O2 0.807892 0.182762 0.095260
O O3 0.617930 0.103952 0.217249
O O4 0.910179 0.012010 0.102616
O O5 0.277111 0.908533 0.161894
O O6 0.250000 0.923911 0.000000
O O7 0.822141 0.686955 0.297868
O O8 0.500000 0.750000 0.195802
#
# Coordination Sequence:
#
# PCOD9335752 Si02
#       4
#     8   8   4   8
#     4  11  24  44  73  99 133 184 235 279 331 403
#     4  12  27  45  68 107 145 179 217 285 356 412
#     4  10  22  44  72 104 126 176 246 286 320 392
#     4  10  24  43  75 103 132 180 239 282 333 404
#
# _framework density 22.883997999999998
#
# number of rings (size 3 to 8) (size 9 to 14) (size 15 to 20)
#    0.000    1.143    2.857    1.714   12.000    0.000 
#    2.571    2.857    3.143    0.000    0.000    0.000 
#    0.000    0.000    0.000    0.000    0.000    0.000 
#
# Total GULP energy -78295.633651 kJ/mol
# GULP energy per Si atom -5592.545261 kJ/mol
# Density = 2.283191 g / cm^3
# Si number density = 22.883998 Si / 1000 Ang^3
#
#
#
# Elastic Constant Matrix: (Units=GPa)
#
#
# Indices 1 2 3 4 5 6 
#
# 1 123.3961 22.7247 24.0701 0.0000 0.0000 0.0000
# 2 22.7247 51.9144 35.7761 0.0000 0.0000 0.0000
# 3 24.0701 35.7761 108.5889 0.0000 0.0000 0.0000
# 4 0.0000 0.0000 0.0000 -21.1469 0.0000 0.0000
# 5 0.0000 0.0000 0.0000 0.0000 12.1817 0.0000
# 6 0.0000 0.0000 0.0000 0.0000 0.0000 37.1225
#
#
#
# Elastic Compliance Matrix: (Units=1/GPa)
#
#
# Indices 1 2 3 4 5 6 
#
# 1 0.008881 -0.003274 -0.000890 0.000000 0.000000 0.000000
# 2 -0.003274 0.026128 -0.007882 0.000000 0.000000 0.000000
# 3 -0.000890 -0.007882 0.012003 0.000000 0.000000 0.000000
# 4 0.000000 0.000000 0.000000 -0.047288 0.000000 0.000000
# 5 0.000000 0.000000 0.000000 0.000000 0.082091 0.000000
# 6 0.000000 0.000000 0.000000 0.000000 0.000000 0.026938
#
#
# Mechanical properties :
#
#
# Convention : Reuss Voigt Hill
#
# Bulk Modulus (GPa) = 43.63213 49.89347 46.76280
# Shear Modulus (GPa) = 35.59129 19.05336 27.32232
#
# Velocity S-wave (km/s) = 3.94800 2.88862 3.45911
# Velocity P-wave (km/s) = 6.31588 5.74244 6.03597
#
# Compressibility (1/GPa) = 0.02291889
#
# Stress axis : x y z
#
# Youngs Moduli (GPa) = 112.60612 38.27353 83.31084
#
# Poissons Ratio (x) = 0.12531 0.07413
# Poissons Ratio (y) = 0.36869 0.65669
# Poissons Ratio (z) = 0.10019 0.30169
#
# Static dielectric constant tensor:
#      x y z
#    x 1.885690 0.000000 0.000000 
#    y 0.000000 1.872330 0.000000 
#    z 0.000000 0.000000 1.883320 
# 
# From -- ./inp_files/4280.got.cif
#   From: 2010.05.17/outbox.cif.g08.bks.cpg/sg24_3_cif.got.tgz:4280.got - 2010.06.04 00:33:39.
