data_PCOD9335029
_publ_section_title
;
Structure prediction by ZEFSAII (Michael W. Deem and Ramdas Pophale) SiO2 
 PCOD9335029
Probable space group: I 21 21 21
;
_chemical_formula_sum "Si O2"
_cell_formula_units_Z 32
_cell_length_a 31.263261
_cell_length_b 5.184227
_cell_length_c 8.010184
_cell_angle_alpha 90.000000
_cell_angle_beta 90.000000
_cell_angle_gamma 90.000000
_cell_volume 1298.257315
_symmetry_space_group_name_H-M "I 21 21 21"
_symmetry_group_IT_number 24
_symmetry_cell_setting 'orthorhombic'
loop_
_space_group_symop_operation_xyz
x,y,z
-x,1/2-y,z
x,-y,1/2-z
1/2-x,y,-z
1/2+x,1/2+y,1/2+z
1/2-x,-y,1/2+z
1/2+x,1/2-y,-z
-x,1/2+y,1/2-z
loop_
_atom_site_type_symbol
_atom_site_label
_atom_site_fract_x
_atom_site_fract_y
_atom_site_fract_z
Si Si1 0.250000 0.954157 0.000000
Si Si2 0.872037 0.000000 0.250000
Si Si3 0.020906 0.002095 0.944130
Si Si4 0.183414 0.000000 0.250000
Si Si5 0.682897 0.500000 0.250000
Si Si6 0.603887 0.798800 0.399002
O O1 0.283708 0.105035 0.888222
O O2 0.215482 0.836371 0.869116
O O3 0.844789 0.255421 0.295035
O O4 0.895849 0.936428 0.421904
O O5 0.071107 0.061144 0.928310
O O6 0.000000 0.250000 0.027263
O O7 0.006191 0.000000 0.750000
O O8 0.000000 0.750000 0.020749
O O9 0.650147 0.682699 0.350894
O O10 0.591890 0.000000 0.250000
#
# Coordination Sequence:
#
# PCOD9335029 Si02
#       6
#     4   4   8   4   4   8
#     4  10  22  44  70 102 156 204 270 334 396 470
#     4  12  28  46  74 115 155 203 270 333 394 482
#     4  10  21  39  72 112 147 191 250 314 385 471
#     4  11  24  46  66 103 148 204 264 329 396 460
#     4  11  22  44  70 110 155 217 270 332 408 474
#     4  12  25  45  78 114 159 208 268 327 408 480
#
# _framework density 24.648426000000001
#
# number of rings (size 3 to 8) (size 9 to 14) (size 15 to 20)
#    0.000    1.000    3.750    3.750    0.000    1.000 
#    9.000    0.000    0.000   12.000    0.000    0.000 
#    0.000    0.000    0.000    0.000    0.000    0.000 
#
# Total GULP energy -89149.175255 kJ/mol
# GULP energy per Si atom -5571.823453 kJ/mol
# Density = 2.459232 g / cm^3
# Si number density = 24.648426 Si / 1000 Ang^3
#
#
#
# Elastic Constant Matrix: (Units=GPa)
#
#
# Indices 1 2 3 4 5 6 
#
# 1 174.6080 67.8341 51.4040 0.0000 0.0000 0.0000
# 2 67.8341 158.0369 34.7877 0.0000 0.0000 0.0000
# 3 51.4040 34.7877 126.5068 0.0000 0.0000 0.0000
# 4 0.0000 0.0000 0.0000 26.5379 0.0000 0.0000
# 5 0.0000 0.0000 0.0000 0.0000 -121.8094 0.0000
# 6 0.0000 0.0000 0.0000 0.0000 0.0000 30.8233
#
#
#
# Elastic Compliance Matrix: (Units=1/GPa)
#
#
# Indices 1 2 3 4 5 6 
#
# 1 0.007446 -0.002693 -0.002285 0.000000 0.000000 0.000000
# 2 -0.002693 0.007709 -0.001026 0.000000 0.000000 0.000000
# 3 -0.002285 -0.001026 0.009115 0.000000 0.000000 0.000000
# 4 0.000000 0.000000 0.000000 0.037682 0.000000 0.000000
# 5 0.000000 0.000000 0.000000 0.000000 -0.008210 0.000000
# 6 0.000000 0.000000 0.000000 0.000000 0.000000 0.032443
#
#
# Mechanical properties :
#
#
# Convention : Reuss Voigt Hill
#
# Bulk Modulus (GPa) = 81.54550 85.24481 83.39515
# Shear Modulus (GPa) = 48.88476 7.45209 28.16843
#
# Velocity S-wave (km/s) = 4.45824 1.74067 3.38421
# Velocity P-wave (km/s) = 7.72376 6.22087 7.01269
#
# Compressibility (1/GPa) = 0.01226309
#
# Stress axis : x y z
#
# Youngs Moduli (GPa) = 134.29912 129.71236 109.70635
#
# Poissons Ratio (x) = 0.34933 0.25068
# Poissons Ratio (y) = 0.36168 0.11252
# Poissons Ratio (z) = 0.30688 0.13304
#
# Static dielectric constant tensor:
#      x y z
#    x 1.951970 0.000000 0.000000 
#    y 0.000000 2.336730 0.000000 
#    z 0.000000 0.000000 2.068610 
# 
# From -- ./inp_files/1341.got.cif
#   From: 2010.05.17/outbox.cif.g08.bks.cpg/sg24_1_cif.got.tgz:1341.got - 2010.06.04 00:33:39.
