data_PCOD9335162
_publ_section_title
;
Structure prediction by ZEFSAII (Michael W. Deem and Ramdas Pophale) SiO2 
 PCOD9335162
Probable space group: I 21 21 21
;
_chemical_formula_sum "Si O2"
_cell_formula_units_Z 60
_cell_length_a 28.433107
_cell_length_b 7.821597
_cell_length_c 12.520493
_cell_angle_alpha 90.000000
_cell_angle_beta 90.000000
_cell_angle_gamma 90.000000
_cell_volume 2784.461291
_symmetry_space_group_name_H-M "I 21 21 21"
_symmetry_group_IT_number 24
_symmetry_cell_setting 'orthorhombic'
loop_
_space_group_symop_operation_xyz
x,y,z
-x,1/2-y,z
x,-y,1/2-z
1/2-x,y,-z
1/2+x,1/2+y,1/2+z
1/2-x,-y,1/2+z
1/2+x,1/2-y,-z
-x,1/2+y,1/2-z
loop_
_atom_site_type_symbol
_atom_site_label
_atom_site_fract_x
_atom_site_fract_y
_atom_site_fract_z
Si Si1 0.809909 0.500000 0.250000
Si Si2 0.146308 0.351927 0.170954
Si Si3 0.554714 0.734266 0.737465
Si Si4 0.659323 0.337000 0.032871
Si Si5 0.925505 0.448701 0.435676
Si Si6 0.452359 0.849327 0.163845
Si Si7 0.355344 0.699756 0.232734
Si Si8 0.271586 0.125722 0.401336
O O1 0.840398 0.337097 0.215865
O O2 0.773919 0.426623 0.335700
O O3 0.165380 0.500000 0.250000
O O4 0.089453 0.363999 0.175774
O O5 0.163154 0.324417 0.048330
O O6 0.500000 0.750000 0.762485
O O7 0.553947 0.583263 0.648898
O O8 0.579021 0.709039 0.854148
O O9 0.641882 0.281065 0.149232
O O10 0.704983 0.450653 0.055197
O O11 0.622315 0.469552 0.980598
O O12 0.955244 0.412831 0.541346
O O13 0.500000 0.750000 0.189997
O O14 0.404602 0.738307 0.173783
O O15 0.447289 0.000000 0.250000
O O16 0.347772 0.500000 0.250000
O O17 0.311721 0.782278 0.168117
O O18 0.250000 0.230995 0.500000
#
# Coordination Sequence:
#
# PCOD9335162 Si02
#       8
#     4   8   8   8   8   8   8   8
#     4  12  24  46  74 106 144 194 242 306 392 444
#     4  11  26  44  72 110 151 185 249 321 373 449
#     4  10  23  42  68 102 145 192 249 302 375 448
#     4  11  21  47  72 102 142 198 238 310 377 458
#     4  10  21  41  71  94 138 196 242 293 371 450
#     4  12  24  44  70 104 146 191 246 302 373 453
#     4  12  26  46  71 110 151 192 254 312 378 466
#     4  12  24  44  80 101 139 204 248 300 394 467
#
# _framework density 21.548152999999999
#
# number of rings (size 3 to 8) (size 9 to 14) (size 15 to 20)
#    0.000    0.800    5.333    2.400    1.867    3.200 
#    4.800    0.667    0.000    0.000    0.000    0.000 
#    0.000    0.000    0.000    0.000    0.000    0.000 
#
# Total GULP energy -167271.529118 kJ/mol
# GULP energy per Si atom -5575.717637 kJ/mol
# Density = 2.149911 g / cm^3
# Si number density = 21.548153 Si / 1000 Ang^3
#
#
#
# Elastic Constant Matrix: (Units=GPa)
#
#
# Indices 1 2 3 4 5 6 
#
# 1 108.6858 25.4958 38.8604 0.0000 0.0000 0.0000
# 2 25.4958 76.4348 32.7124 0.0000 0.0000 0.0000
# 3 38.8604 32.7124 152.4251 0.0000 0.0000 0.0000
# 4 0.0000 0.0000 0.0000 32.9598 0.0000 0.0000
# 5 0.0000 0.0000 0.0000 0.0000 26.9070 0.0000
# 6 0.0000 0.0000 0.0000 0.0000 0.0000 -0.4843
#
#
#
# Elastic Compliance Matrix: (Units=1/GPa)
#
#
# Indices 1 2 3 4 5 6 
#
# 1 0.010578 -0.002614 -0.002136 0.000000 0.000000 0.000000
# 2 -0.002614 0.015052 -0.002564 0.000000 0.000000 0.000000
# 3 -0.002136 -0.002564 0.007655 0.000000 0.000000 0.000000
# 4 0.000000 0.000000 0.000000 0.030340 0.000000 0.000000
# 5 0.000000 0.000000 0.000000 0.000000 0.037165 0.000000
# 6 0.000000 0.000000 0.000000 0.000000 0.000000 -2.064776
#
#
# Mechanical properties :
#
#
# Convention : Reuss Voigt Hill
#
# Bulk Modulus (GPa) = 53.59749 59.07588 56.33668
# Shear Modulus (GPa) = -2.57316 27.90830 12.66757
#
# Velocity S-wave (km/s) = -1.09395 3.60274 2.42724
# Velocity P-wave (km/s) = 4.83029 6.69190 5.83581
#
# Compressibility (1/GPa) = 0.01865759
#
# Stress axis : x y z
#
# Youngs Moduli (GPa) = 94.53831 66.43468 130.62777
#
# Poissons Ratio (x) = 0.17368 0.27898
# Poissons Ratio (y) = 0.24715 0.33492
# Poissons Ratio (z) = 0.20191 0.17033
#
# Static dielectric constant tensor:
#      x y z
#    x 1.807260 0.000000 0.000000 
#    y 0.000000 2.009880 0.000000 
#    z 0.000000 0.000000 2.043080 
# 
# From -- ./inp_files/22967.got.cif
#   From: 2010.05.17/outbox.cif.g08.bks.cpg/sg24_12_cif.got.tgz:22967.got - 2010.06.04 00:33:39.
