data_PCOD9335321
_publ_section_title
;
Structure prediction by ZEFSAII (Michael W. Deem and Ramdas Pophale) SiO2 
 PCOD9335321
Probable space group: I 21 21 21
;
_chemical_formula_sum "Si O2"
_cell_formula_units_Z 52
_cell_length_a 11.579544
_cell_length_b 8.673577
_cell_length_c 24.516720
_cell_angle_alpha 90.000000
_cell_angle_beta 90.000000
_cell_angle_gamma 90.000000
_cell_volume 2462.362920
_symmetry_space_group_name_H-M "I 21 21 21"
_symmetry_group_IT_number 24
_symmetry_cell_setting 'orthorhombic'
loop_
_space_group_symop_operation_xyz
x,y,z
-x,1/2-y,z
x,-y,1/2-z
1/2-x,y,-z
1/2+x,1/2+y,1/2+z
1/2-x,-y,1/2+z
1/2+x,1/2-y,-z
-x,1/2+y,1/2-z
loop_
_atom_site_type_symbol
_atom_site_label
_atom_site_fract_x
_atom_site_fract_y
_atom_site_fract_z
Si Si1 0.429693 0.594181 0.131546
Si Si2 0.557612 0.515022 0.470232
Si Si3 0.225428 0.199625 0.895064
Si Si4 0.465923 0.079254 0.905017
Si Si5 0.250000 0.763324 0.000000
Si Si6 0.580320 0.621503 0.292146
Si Si7 0.808813 0.049247 0.399183
O O1 0.500000 0.750000 0.136450
O O2 0.454980 0.534755 0.069840
O O3 0.489860 0.473110 0.170904
O O4 0.293237 0.608991 0.140043
O O5 0.630695 0.646762 0.439131
O O6 0.517749 0.566312 0.529670
O O7 0.646723 0.373018 0.478549
O O8 0.329002 0.074106 0.896201
O O9 0.169612 0.193508 0.835083
O O10 0.273481 0.369170 0.908881
O O11 0.500000 0.250000 0.885564
O O12 0.558058 0.960191 0.880504
O O13 0.298756 0.656495 0.951994
O O14 0.500000 0.750000 0.264074
O O15 0.632777 0.500000 0.250000
#
# Coordination Sequence:
#
# PCOD9335321 Si02
#       7
#     8   8   8   8   4   8   8
#     4  11  22  38  57  87 128 160 204 263 314 368
#     4  11  22  35  51  81 126 167 215 254 299 355
#     4  10  22  41  59  84 121 163 209 263 314 382
#     4  10  22  35  57  84 119 174 214 244 297 380
#     4  12  22  34  52  84 128 174 216 262 290 362
#     4  11  23  42  69  94 115 149 200 271 336 392
#     4  11  23  35  56  86 121 170 210 253 303 372
#
# _framework density 21.117927000000002
#
# number of rings (size 3 to 8) (size 9 to 14) (size 15 to 20)
#    0.000    1.231    4.615    1.385    6.462    0.000 
#    0.000    0.000    0.000    0.923    4.000    0.000 
#    0.000    0.000    0.000    0.000    0.000    0.000 
#
# Total GULP energy -145245.797922 kJ/mol
# GULP energy per Si atom -5586.376843 kJ/mol
# Density = 2.106986 g / cm^3
# Si number density = 21.117927 Si / 1000 Ang^3
#
#
#
# Elastic Constant Matrix: (Units=GPa)
#
#
# Indices 1 2 3 4 5 6 
#
# 1 92.8527 9.2028 -3.0370 0.0000 0.0000 0.0000
# 2 9.2028 78.8989 5.7563 0.0000 0.0000 0.0000
# 3 -3.0370 5.7563 41.3043 0.0000 0.0000 0.0000
# 4 0.0000 0.0000 0.0000 18.5029 0.0000 0.0000
# 5 0.0000 0.0000 0.0000 0.0000 6.3081 0.0000
# 6 0.0000 0.0000 0.0000 0.0000 0.0000 38.6199
#
#
#
# Elastic Compliance Matrix: (Units=1/GPa)
#
#
# Indices 1 2 3 4 5 6 
#
# 1 0.010936 -0.001348 0.000992 0.000000 0.000000 0.000000
# 2 -0.001348 0.012971 -0.001907 0.000000 0.000000 0.000000
# 3 0.000992 -0.001907 0.024549 0.000000 0.000000 0.000000
# 4 0.000000 0.000000 0.000000 0.054045 0.000000 0.000000
# 5 0.000000 0.000000 0.000000 0.000000 0.158525 0.000000
# 6 0.000000 0.000000 0.000000 0.000000 0.000000 0.025893
#
#
# Mechanical properties :
#
#
# Convention : Reuss Voigt Hill
#
# Bulk Modulus (GPa) = 22.76334 26.32223 24.54278
# Shear Modulus (GPa) = 16.33513 26.09512 21.21512
#
# Velocity S-wave (km/s) = 2.78424 3.51905 3.17299
# Velocity P-wave (km/s) = 4.59767 5.38545 5.00707
#
# Compressibility (1/GPa) = 0.04393029
#
# Stress axis : x y z
#
# Youngs Moduli (GPa) = 91.44290 77.09632 40.73449
#
# Poissons Ratio (x) = 0.10392 -0.04041
# Poissons Ratio (y) = 0.12326 0.07767
# Poissons Ratio (z) = -0.09071 0.14701
#
# Static dielectric constant tensor:
#      x y z
#    x 1.809870 0.000000 0.000000 
#    y 0.000000 1.849370 0.000000 
#    z 0.000000 0.000000 1.729260 
# 
# From -- ./inp_files/11457.got.cif
#   From: 2010.05.17/outbox.cif.g08.bks.cpg/sg24_6_cif.got.tgz:11457.got - 2010.06.04 00:33:39.
