data_PCOD9335869
_publ_section_title
;
Structure prediction by ZEFSAII (Michael W. Deem and Ramdas Pophale) SiO2 
 PCOD9335869
Probable space group: I 21 21 21
;
_chemical_formula_sum "Si O2"
_cell_formula_units_Z 56
_cell_length_a 13.202020
_cell_length_b 14.152849
_cell_length_c 14.251703
_cell_angle_alpha 90.000000
_cell_angle_beta 90.000000
_cell_angle_gamma 90.000000
_cell_volume 2662.876486
_symmetry_space_group_name_H-M "I 21 21 21"
_symmetry_group_IT_number 24
_symmetry_cell_setting 'orthorhombic'
loop_
_space_group_symop_operation_xyz
x,y,z
-x,1/2-y,z
x,-y,1/2-z
1/2-x,y,-z
1/2+x,1/2+y,1/2+z
1/2-x,-y,1/2+z
1/2+x,1/2-y,-z
-x,1/2+y,1/2-z
loop_
_atom_site_type_symbol
_atom_site_label
_atom_site_fract_x
_atom_site_fract_y
_atom_site_fract_z
Si Si1 0.744829 0.371630 0.394344
Si Si2 0.008654 0.862199 0.860506
Si Si3 0.886144 0.275023 0.234270
Si Si4 0.545646 0.144808 0.150556
Si Si5 0.608676 0.469689 0.856270
Si Si6 0.938191 0.004215 0.004575
Si Si7 0.276719 0.361379 0.903380
O O1 0.750000 0.331723 0.500000
O O2 0.627153 0.382628 0.372170
O O3 0.809917 0.310752 0.317395
O O4 0.792567 0.476577 0.392336
O O5 0.000000 0.750000 0.871637
O O6 0.982674 0.888220 0.753984
O O7 0.936315 0.915214 0.934908
O O8 0.889598 0.357373 0.154582
O O9 0.844355 0.186527 0.175838
O O10 0.000000 0.250000 0.268019
O O11 0.500000 0.250000 0.141360
O O12 0.510261 0.083727 0.062221
O O13 0.666620 0.129934 0.142681
O O14 0.594193 0.500000 0.750000
O O15 0.517408 0.513221 0.914191
O O16 0.839060 0.048978 0.054098
O O17 0.250000 0.304724 0.000000
#
# Coordination Sequence:
#
# PCOD9335869 Si02
#       7
#     8   8   8   8   8   8   8
#     4  11  24  45  66 102 141 184 251 293 362 446
#     4  11  24  46  72 101 146 197 245 305 370 446
#     4  11  22  40  70 102 142 189 230 303 372 429
#     4  10  23  41  70 107 146 184 236 297 368 444
#     4  10  23  41  64  99 140 181 233 298 358 424
#     4  11  22  42  70  97 145 184 238 304 359 440
#     4  10  23  40  66 106 142 179 240 291 362 441
#
# _framework density 21.029890000000002
#
# number of rings (size 3 to 8) (size 9 to 14) (size 15 to 20)
#    0.000    1.429    2.857    2.143    4.000    5.714 
#    0.000    6.429    0.000    0.000    0.000    0.000 
#    0.000    0.000    0.000    0.000    0.000    0.000 
#
# Total GULP energy -156046.406799 kJ/mol
# GULP energy per Si atom -5573.085957 kJ/mol
# Density = 2.098203 g / cm^3
# Si number density = 21.029890 Si / 1000 Ang^3
#
#
#
# Elastic Constant Matrix: (Units=GPa)
#
#
# Indices 1 2 3 4 5 6 
#
# 1 125.6988 23.6055 42.2062 0.0000 0.0000 0.0000
# 2 23.6055 65.0586 -5.2152 0.0000 0.0000 0.0000
# 3 42.2062 -5.2152 92.5610 0.0000 0.0000 0.0000
# 4 0.0000 0.0000 0.0000 21.8359 0.0000 0.0000
# 5 0.0000 0.0000 0.0000 0.0000 41.3592 0.0000
# 6 0.0000 0.0000 0.0000 0.0000 0.0000 14.5917
#
#
#
# Elastic Compliance Matrix: (Units=1/GPa)
#
#
# Indices 1 2 3 4 5 6 
#
# 1 0.010414 -0.004178 -0.004984 0.000000 0.000000 0.000000
# 2 -0.004178 0.017117 0.002869 0.000000 0.000000 0.000000
# 3 -0.004984 0.002869 0.013238 0.000000 0.000000 0.000000
# 4 0.000000 0.000000 0.000000 0.045796 0.000000 0.000000
# 5 0.000000 0.000000 0.000000 0.000000 0.024178 0.000000
# 6 0.000000 0.000000 0.000000 0.000000 0.000000 0.068532
#
#
# Mechanical properties :
#
#
# Convention : Reuss Voigt Hill
#
# Bulk Modulus (GPa) = 35.48156 44.94568 40.21362
# Shear Modulus (GPa) = 24.84425 30.40550 27.62487
#
# Velocity S-wave (km/s) = 3.44085 3.80652 3.62829
# Velocity P-wave (km/s) = 5.71791 6.38265 6.05940
#
# Compressibility (1/GPa) = 0.02818365
#
# Stress axis : x y z
#
# Youngs Moduli (GPa) = 96.02895 58.42259 75.54077
#
# Poissons Ratio (x) = 0.24408 0.37648
# Poissons Ratio (y) = 0.40120 -0.21676
# Poissons Ratio (z) = 0.47859 -0.16764
#
# Static dielectric constant tensor:
#      x y z
#    x 1.783290 0.000000 0.000000 
#    y 0.000000 1.898960 0.000000 
#    z 0.000000 0.000000 1.766930 
# 
# From -- ./inp_files/25807.got.cif
#   From: 2010.05.17/outbox.cif.g08.bks.cpg/sg24_13_cif.got.tgz:25807.got - 2010.06.04 00:33:39.
