data_PCOD9335223
_publ_section_title
;
Structure prediction by ZEFSAII (Michael W. Deem and Ramdas Pophale) SiO2 
 PCOD9335223
Probable space group: I 21 21 21
;
_chemical_formula_sum "Si O2"
_cell_formula_units_Z 60
_cell_length_a 17.828975
_cell_length_b 5.296807
_cell_length_c 27.384002
_cell_angle_alpha 90.000000
_cell_angle_beta 90.000000
_cell_angle_gamma 90.000000
_cell_volume 2586.053127
_symmetry_space_group_name_H-M "I 21 21 21"
_symmetry_group_IT_number 24
_symmetry_cell_setting 'orthorhombic'
loop_
_space_group_symop_operation_xyz
x,y,z
-x,1/2-y,z
x,-y,1/2-z
1/2-x,y,-z
1/2+x,1/2+y,1/2+z
1/2-x,-y,1/2+z
1/2+x,1/2-y,-z
-x,1/2+y,1/2-z
loop_
_atom_site_type_symbol
_atom_site_label
_atom_site_fract_x
_atom_site_fract_y
_atom_site_fract_z
Si Si1 0.920263 0.084020 0.694323
Si Si2 0.000000 0.250000 0.874104
Si Si3 0.085081 0.656282 0.442576
Si Si4 0.808216 0.880093 0.888086
Si Si5 0.909978 0.746750 0.219273
Si Si6 0.434627 0.123974 0.451642
Si Si7 0.359336 0.823838 0.890161
Si Si8 0.322902 0.280133 0.026793
O O1 0.844824 0.172277 0.665613
O O2 0.000000 0.250000 0.691881
O O3 0.909264 0.000000 0.750000
O O4 0.935512 0.835067 0.662006
O O5 0.980462 0.477428 0.909354
O O6 0.087989 0.406548 0.408847
O O7 0.138481 0.537033 0.486735
O O8 0.000000 0.750000 0.453257
O O9 0.121597 0.900755 0.413626
O O10 0.873254 0.777907 0.923114
O O11 0.728626 0.750741 0.897354
O O12 0.804922 0.152299 0.916948
O O13 0.891641 0.500000 0.250000
O O14 0.870822 0.698671 0.167846
O O15 0.000000 0.750000 0.211529
O O16 0.890023 0.000000 0.250000
O O17 0.500000 0.250000 0.481869
O O18 0.388002 0.920369 0.478828
O O19 0.250000 0.185539 0.000000
#
# Coordination Sequence:
#
# PCOD9335223 Si02
#       8
#     8   4   8   8   8   8   8   8
#     4  12  24  42  70 107 144 193 250 309 374 452
#     4  12  20  44  66 100 136 186 242 306 368 436
#     4  12  28  48  76 109 148 200 254 315 378 452
#     4  12  26  45  72 103 145 199 244 312 381 452
#     4  10  21  42  76 108 139 188 242 299 370 454
#     4  12  24  42  74 101 135 188 254 306 359 448
#     4  12  27  50  73 112 157 195 245 320 388 452
#     4  12  27  47  70 104 147 199 246 309 382 453
#
# _framework density 23.201378999999999
#
# number of rings (size 3 to 8) (size 9 to 14) (size 15 to 20)
#    0.000    0.267    6.000    2.800    4.667    2.133 
#    0.000    2.000    0.000    0.000    0.000    0.000 
#    0.000    0.000    0.000    0.000    0.000    0.000 
#
# Total GULP energy -167117.432472 kJ/mol
# GULP energy per Si atom -5570.581082 kJ/mol
# Density = 2.314857 g / cm^3
# Si number density = 23.201379 Si / 1000 Ang^3
#
#
#
# Elastic Constant Matrix: (Units=GPa)
#
#
# Indices 1 2 3 4 5 6 
#
# 1 352.9235 24.0917 -14.5982 0.0000 0.0000 0.0000
# 2 24.0917 92.2214 27.6283 0.0000 0.0000 0.0000
# 3 -14.5982 27.6283 157.5437 0.0000 0.0000 0.0000
# 4 0.0000 0.0000 0.0000 21.6230 0.0000 0.0000
# 5 0.0000 0.0000 0.0000 0.0000 81.0354 0.0000
# 6 0.0000 0.0000 0.0000 0.0000 0.0000 34.7696
#
#
#
# Elastic Compliance Matrix: (Units=1/GPa)
#
#
# Indices 1 2 3 4 5 6 
#
# 1 0.002912 -0.000888 0.000426 0.000000 0.000000 0.000000
# 2 -0.000888 0.011716 -0.002137 0.000000 0.000000 0.000000
# 3 0.000426 -0.002137 0.006762 0.000000 0.000000 0.000000
# 4 0.000000 0.000000 0.000000 0.046247 0.000000 0.000000
# 5 0.000000 0.000000 0.000000 0.000000 0.012340 0.000000
# 6 0.000000 0.000000 0.000000 0.000000 0.000000 0.028761
#
#
# Mechanical properties :
#
#
# Convention : Reuss Voigt Hill
#
# Bulk Modulus (GPa) = 61.76617 75.21468 68.49043
# Shear Modulus (GPa) = 41.89969 65.19006 53.54487
#
# Velocity S-wave (km/s) = 4.25421 5.30646 4.80920
# Velocity P-wave (km/s) = 7.12816 8.36859 7.77316
#
# Compressibility (1/GPa) = 0.01619009
#
# Stress axis : x y z
#
# Youngs Moduli (GPa) = 343.44146 85.35590 147.89367
#
# Poissons Ratio (x) = 0.07581 -0.06294
# Poissons Ratio (y) = 0.30502 0.31603
# Poissons Ratio (z) = -0.14615 0.18239
#
# Static dielectric constant tensor:
#      x y z
#    x 1.950310 0.000000 0.000000 
#    y 0.000000 2.285710 0.000000 
#    z 0.000000 0.000000 1.793570 
# 
# From -- ./inp_files/37550.got.cif
#   From: 2010.05.17/outbox.cif.g08.bks.cpg/sg24_19_cif.got.tgz:37550.got - 2010.06.04 00:33:39.
