data_PCOD9335287
_publ_section_title
;
Structure prediction by ZEFSAII (Michael W. Deem and Ramdas Pophale) SiO2 
 PCOD9335287
Probable space group: I 21 21 21
;
_chemical_formula_sum "Si O2"
_cell_formula_units_Z 36
_cell_length_a 5.224606
_cell_length_b 11.292869
_cell_length_c 25.782838
_cell_angle_alpha 90.000000
_cell_angle_beta 90.000000
_cell_angle_gamma 90.000000
_cell_volume 1521.207840
_symmetry_space_group_name_H-M "I 21 21 21"
_symmetry_group_IT_number 24
_symmetry_cell_setting 'orthorhombic'
loop_
_space_group_symop_operation_xyz
x,y,z
-x,1/2-y,z
x,-y,1/2-z
1/2-x,y,-z
1/2+x,1/2+y,1/2+z
1/2-x,-y,1/2+z
1/2+x,1/2-y,-z
-x,1/2+y,1/2-z
loop_
_atom_site_type_symbol
_atom_site_label
_atom_site_fract_x
_atom_site_fract_y
_atom_site_fract_z
Si Si1 0.814320 0.556602 0.098854
Si Si2 0.500000 0.750000 0.965881
Si Si3 0.000000 0.750000 0.844393
Si Si4 0.815562 0.969352 0.190906
Si Si5 0.888730 0.119624 0.897049
Si Si6 0.000000 0.250000 0.035967
O O1 0.025295 0.622754 0.063853
O O2 0.660545 0.671182 0.117017
O O3 0.603219 0.465304 0.077282
O O4 0.938766 0.520607 0.153797
O O5 0.750000 0.733819 0.000000
O O6 0.817875 0.840155 0.812996
O O7 0.864346 0.000000 0.250000
O O8 0.641436 0.063164 0.159785
O O9 0.620004 0.144115 0.927911
O O10 0.000000 0.250000 0.892333
O O11 0.250000 0.223294 0.000000
#
# Coordination Sequence:
#
# PCOD9335287 Si02
#       6
#     8   4   4   8   8   4
#     4  11  24  50  77 110 159 203 266 345 392 489
#     4  12  27  50  81 122 157 212 276 333 414 478
#     4  10  21  46  73 102 158 195 268 323 404 464
#     4  11  25  44  79 111 157 214 262 334 409 485
#     4  11  26  51  76 118 165 204 269 331 403 497
#     4  12  26  54  80 110 163 219 268 330 404 486
#
# _framework density 23.665406999999998
#
# number of rings (size 3 to 8) (size 9 to 14) (size 15 to 20)
#    0.000    0.889    3.333    2.000    4.667    3.556 
#   16.000    0.000    0.000    0.000    0.000    0.000 
#    0.000    0.000    0.000    0.000    0.000    0.000 
#
# Total GULP energy -100442.130404 kJ/mol
# GULP energy per Si atom -5580.118356 kJ/mol
# Density = 2.361154 g / cm^3
# Si number density = 23.665407 Si / 1000 Ang^3
#
#
#
# Elastic Constant Matrix: (Units=GPa)
#
#
# Indices 1 2 3 4 5 6 
#
# 1 126.3475 38.4628 35.8532 0.0000 0.0000 0.0000
# 2 38.4628 145.8565 43.2548 0.0000 0.0000 0.0000
# 3 35.8532 43.2548 129.7106 0.0000 0.0000 0.0000
# 4 0.0000 0.0000 0.0000 23.8723 0.0000 0.0000
# 5 0.0000 0.0000 0.0000 0.0000 23.5665 0.0000
# 6 0.0000 0.0000 0.0000 0.0000 0.0000 52.2424
#
#
#
# Elastic Compliance Matrix: (Units=1/GPa)
#
#
# Indices 1 2 3 4 5 6 
#
# 1 0.009002 -0.001815 -0.001883 0.000000 0.000000 0.000000
# 2 -0.001815 0.007975 -0.002158 0.000000 0.000000 0.000000
# 3 -0.001883 -0.002158 0.008949 0.000000 0.000000 0.000000
# 4 0.000000 0.000000 0.000000 0.041889 0.000000 0.000000
# 5 0.000000 0.000000 0.000000 0.000000 0.042433 0.000000
# 6 0.000000 0.000000 0.000000 0.000000 0.000000 0.019142
#
#
# Mechanical properties :
#
#
# Convention : Reuss Voigt Hill
#
# Bulk Modulus (GPa) = 70.35202 70.78403 70.56803
# Shear Modulus (GPa) = 34.28436 38.89249 36.58842
#
# Velocity S-wave (km/s) = 3.81032 4.05832 3.93628
# Velocity P-wave (km/s) = 7.01074 7.20661 7.10935
#
# Compressibility (1/GPa) = 0.01421423
#
# Stress axis : x y z
#
# Youngs Moduli (GPa) = 111.09150 125.39803 111.74002
#
# Poissons Ratio (x) = 0.22765 0.21038
# Poissons Ratio (y) = 0.20168 0.24108
# Poissons Ratio (z) = 0.20916 0.27055
#
# Static dielectric constant tensor:
#      x y z
#    x 0.167980 0.000000 0.000000 
#    y 0.000000 2.096490 0.000000 
#    z 0.000000 0.000000 1.872700 
# 
# From -- ./inp_files/34569.got.cif
#   From: 2010.05.17/outbox.cif.g08.bks.cpg/sg24_18_cif.got.tgz:34569.got - 2010.06.04 00:33:39.
