data_PCOD9335908
_publ_section_title
;
Structure prediction by ZEFSAII (Michael W. Deem and Ramdas Pophale) SiO2 
 PCOD9335908
Probable space group: I 21 21 21
;
_chemical_formula_sum "Si O2"
_cell_formula_units_Z 32
_cell_length_a 18.309026
_cell_length_b 6.723324
_cell_length_c 11.372419
_cell_angle_alpha 90.000000
_cell_angle_beta 90.000000
_cell_angle_gamma 90.000000
_cell_volume 1399.916506
_symmetry_space_group_name_H-M "I 21 21 21"
_symmetry_group_IT_number 24
_symmetry_cell_setting 'orthorhombic'
loop_
_space_group_symop_operation_xyz
x,y,z
-x,1/2-y,z
x,-y,1/2-z
1/2-x,y,-z
1/2+x,1/2+y,1/2+z
1/2-x,-y,1/2+z
1/2+x,1/2-y,-z
-x,1/2+y,1/2-z
loop_
_atom_site_type_symbol
_atom_site_label
_atom_site_fract_x
_atom_site_fract_y
_atom_site_fract_z
Si Si1 0.168505 0.090162 0.008674
Si Si2 0.072861 0.617402 0.629645
Si Si3 0.078045 0.285851 0.426242
Si Si4 0.712448 0.029440 0.871441
O O1 0.139234 0.232168 0.903346
O O2 0.250000 0.000493 0.000000
O O3 0.180533 0.249034 0.112737
O O4 0.108988 0.922586 0.027260
O O5 0.080588 0.500000 0.750000
O O6 0.066264 0.447729 0.529671
O O7 0.000000 0.750000 0.631974
O O8 0.144960 0.379890 0.356927
O O9 0.000000 0.250000 0.366032
O O10 0.756178 0.000000 0.750000
O O11 0.750000 0.988835 0.000000
#
# Coordination Sequence:
#
# PCOD9335908 Si02
#       4
#     8   8   8   8
#     4  10  23  42  67 100 144 194 250 308 376 449
#     4  11  23  40  69 109 150 196 256 314 383 456
#     4  11  22  42  66  97 146 193 248 308 378 449
#     4  10  24  46  71 106 146 194 249 311 377 446
#
# _framework density 22.858505999999998
#
# number of rings (size 3 to 8) (size 9 to 14) (size 15 to 20)
#    0.000    1.500    2.500    1.500    0.000   11.000 
#    4.500    5.000    0.000    0.000    0.000    0.000 
#    0.000    0.000    0.000    0.000    0.000    0.000 
#
# Total GULP energy -89288.405510 kJ/mol
# GULP energy per Si atom -5580.525344 kJ/mol
# Density = 2.280648 g / cm^3
# Si number density = 22.858506 Si / 1000 Ang^3
#
#
#
# Elastic Constant Matrix: (Units=GPa)
#
#
# Indices 1 2 3 4 5 6 
#
# 1 159.0080 46.0663 33.8317 0.0000 0.0000 0.0000
# 2 46.0663 134.2429 31.4048 0.0000 0.0000 0.0000
# 3 33.8317 31.4048 122.2051 0.0000 0.0000 0.0000
# 4 0.0000 0.0000 0.0000 15.4261 0.0000 0.0000
# 5 0.0000 0.0000 0.0000 0.0000 16.8998 0.0000
# 6 0.0000 0.0000 0.0000 0.0000 0.0000 48.0227
#
#
#
# Elastic Compliance Matrix: (Units=1/GPa)
#
#
# Indices 1 2 3 4 5 6 
#
# 1 0.007216 -0.002138 -0.001449 0.000000 0.000000 0.000000
# 2 -0.002138 0.008559 -0.001608 0.000000 0.000000 0.000000
# 3 -0.001449 -0.001608 0.008997 0.000000 0.000000 0.000000
# 4 0.000000 0.000000 0.000000 0.064825 0.000000 0.000000
# 5 0.000000 0.000000 0.000000 0.000000 0.059172 0.000000
# 6 0.000000 0.000000 0.000000 0.000000 0.000000 0.020824
#
#
# Mechanical properties :
#
#
# Convention : Reuss Voigt Hill
#
# Bulk Modulus (GPa) = 69.51743 70.89574 70.20659
# Shear Modulus (GPa) = 27.05986 36.34661 31.70323
#
# Velocity S-wave (km/s) = 3.44437 3.99189 3.72820
# Velocity P-wave (km/s) = 6.80414 7.23390 7.02231
#
# Compressibility (1/GPa) = 0.01438488
#
# Stress axis : x y z
#
# Youngs Moduli (GPa) = 138.57237 116.83891 111.14648
#
# Poissons Ratio (x) = 0.24974 0.16100
# Poissons Ratio (y) = 0.29620 0.17869
# Poissons Ratio (z) = 0.20073 0.18784
#
# Static dielectric constant tensor:
#      x y z
#    x 1.927980 0.000000 0.000000 
#    y 0.000000 1.836080 0.000000 
#    z 0.000000 0.000000 1.886320 
# 
# From -- ./inp_files/5258.got.cif
#   From: 2010.05.17/outbox.cif.g08.bks.cpg/sg24_3_cif.got.tgz:5258.got - 2010.06.04 00:33:39.
