data_PCOD9335146
_publ_section_title
;
Structure prediction by ZEFSAII (Michael W. Deem and Ramdas Pophale) SiO2 
 PCOD9335146
Probable space group: I 21 21 21
;
_chemical_formula_sum "Si O2"
_cell_formula_units_Z 56
_cell_length_a 15.036824
_cell_length_b 11.545659
_cell_length_c 14.287685
_cell_angle_alpha 90.000000
_cell_angle_beta 90.000000
_cell_angle_gamma 90.000000
_cell_volume 2480.485598
_symmetry_space_group_name_H-M "I 21 21 21"
_symmetry_group_IT_number 24
_symmetry_cell_setting 'orthorhombic'
loop_
_space_group_symop_operation_xyz
x,y,z
-x,1/2-y,z
x,-y,1/2-z
1/2-x,y,-z
1/2+x,1/2+y,1/2+z
1/2-x,-y,1/2+z
1/2+x,1/2-y,-z
-x,1/2+y,1/2-z
loop_
_atom_site_type_symbol
_atom_site_label
_atom_site_fract_x
_atom_site_fract_y
_atom_site_fract_z
Si Si1 0.014540 0.417466 0.340402
Si Si2 0.192572 0.065395 0.349836
Si Si3 0.183447 0.695824 0.217033
Si Si4 0.201624 0.538339 0.900718
Si Si5 0.709236 0.771141 0.397992
Si Si6 0.475575 0.614605 0.042276
Si Si7 0.371696 0.964097 0.359713
O O1 0.019897 0.500000 0.250000
O O2 0.078601 0.314283 0.302702
O O3 0.055709 0.440815 0.442937
O O4 0.911198 0.423021 0.373396
O O5 0.222340 0.197683 0.341454
O O6 0.188853 0.000000 0.250000
O O7 0.274188 0.001923 0.398252
O O8 0.230392 0.582427 0.177541
O O9 0.210304 0.727282 0.322330
O O10 0.176068 0.403344 0.894238
O O11 0.111140 0.610234 0.893009
O O12 0.250000 0.557256 0.000000
O O13 0.750000 0.749532 0.500000
O O14 0.635641 0.674902 0.371633
O O15 0.500000 0.750000 0.026211
O O16 0.552856 0.535513 0.086340
O O17 0.377793 0.000000 0.250000
#
# Coordination Sequence:
#
# PCOD9335146 Si02
#       7
#     8   8   8   8   8   8   8
#     4  11  25  41  71 110 145 189 247 312 376 448
#     4  10  21  41  67 105 140 186 243 294 373 439
#     4  12  21  45  76 100 147 193 238 310 372 449
#     4  11  25  46  71 108 145 187 252 312 377 454
#     4  11  26  44  74 109 145 200 249 301 392 456
#     4  12  27  47  73 113 143 196 259 309 380 459
#     4  11  25  50  73 103 150 197 250 311 382 458
#
# _framework density 22.576225999999998
#
# number of rings (size 3 to 8) (size 9 to 14) (size 15 to 20)
#    0.000    0.857    4.286    3.429    4.000    1.714 
#    0.000    0.000    0.000    0.000    0.000    0.000 
#    0.000    0.000    0.000    0.000    0.000    0.000 
#
# Total GULP energy -156039.472990 kJ/mol
# GULP energy per Si atom -5572.838321 kJ/mol
# Density = 2.252484 g / cm^3
# Si number density = 22.576226 Si / 1000 Ang^3
#
#
#
# Elastic Constant Matrix: (Units=GPa)
#
#
# Indices 1 2 3 4 5 6 
#
# 1 138.8202 28.5562 35.4933 0.0000 0.0000 0.0000
# 2 28.5562 124.0429 33.7859 0.0000 0.0000 0.0000
# 3 35.4933 33.7859 120.9988 0.0000 0.0000 0.0000
# 4 0.0000 0.0000 0.0000 13.6101 0.0000 0.0000
# 5 0.0000 0.0000 0.0000 0.0000 25.8944 0.0000
# 6 0.0000 0.0000 0.0000 0.0000 0.0000 24.1844
#
#
#
# Elastic Compliance Matrix: (Units=1/GPa)
#
#
# Indices 1 2 3 4 5 6 
#
# 1 0.007976 -0.001298 -0.001977 0.000000 0.000000 0.000000
# 2 -0.001298 0.008936 -0.002115 0.000000 0.000000 0.000000
# 3 -0.001977 -0.002115 0.009435 0.000000 0.000000 0.000000
# 4 0.000000 0.000000 0.000000 0.073475 0.000000 0.000000
# 5 0.000000 0.000000 0.000000 0.000000 0.038618 0.000000
# 6 0.000000 0.000000 0.000000 0.000000 0.000000 0.041349
#
#
# Mechanical properties :
#
#
# Convention : Reuss Voigt Hill
#
# Bulk Modulus (GPa) = 64.23297 64.39253 64.31275
# Shear Modulus (GPa) = 25.54171 31.80621 28.67396
#
# Velocity S-wave (km/s) = 3.36721 3.75752 3.56771
# Velocity P-wave (km/s) = 6.60536 6.88545 6.74686
#
# Compressibility (1/GPa) = 0.01556833
#
# Stress axis : x y z
#
# Youngs Moduli (GPa) = 125.37528 111.90161 105.98797
#
# Poissons Ratio (x) = 0.14520 0.20957
# Poissons Ratio (y) = 0.16269 0.22413
# Poissons Ratio (z) = 0.24791 0.23663
#
# Static dielectric constant tensor:
#      x y z
#    x 1.848000 0.000000 0.000000 
#    y 0.000000 1.912130 0.000000 
#    z 0.000000 0.000000 1.851490 
# 
# From -- ./inp_files/26526.got.cif
#   From: 2010.05.17/outbox.cif.g08.bks.cpg/sg24_14_cif.got.tgz:26526.got - 2010.06.04 00:33:39.
