data_PCOD9335466
_publ_section_title
;
Structure prediction by ZEFSAII (Michael W. Deem and Ramdas Pophale) SiO2 
 PCOD9335466
Probable space group: I 21 21 21
;
_chemical_formula_sum "Si O2"
_cell_formula_units_Z 48
_cell_length_a 5.107749
_cell_length_b 16.621765
_cell_length_c 28.449203
_cell_angle_alpha 90.000000
_cell_angle_beta 90.000000
_cell_angle_gamma 90.000000
_cell_volume 2415.331746
_symmetry_space_group_name_H-M "I 21 21 21"
_symmetry_group_IT_number 24
_symmetry_cell_setting 'orthorhombic'
loop_
_space_group_symop_operation_xyz
x,y,z
-x,1/2-y,z
x,-y,1/2-z
1/2-x,y,-z
1/2+x,1/2+y,1/2+z
1/2-x,-y,1/2+z
1/2+x,1/2-y,-z
-x,1/2+y,1/2-z
loop_
_atom_site_type_symbol
_atom_site_label
_atom_site_fract_x
_atom_site_fract_y
_atom_site_fract_z
Si Si1 0.751353 0.693282 0.945429
Si Si2 0.336871 0.945656 0.129813
Si Si3 0.498611 0.656393 0.533118
Si Si4 0.585935 0.841279 0.714713
Si Si5 0.569346 0.408282 0.264755
Si Si6 0.844826 0.054754 0.123486
O O1 0.500000 0.750000 0.936877
O O2 0.782188 0.618484 0.910901
O O3 0.000000 0.750000 0.939071
O O4 0.750000 0.666218 0.000000
O O5 0.408892 0.904873 0.179206
O O6 0.569872 0.008280 0.117027
O O7 0.066586 0.991905 0.138325
O O8 0.500000 0.750000 0.549085
O O9 0.750000 0.641399 0.500000
O O10 0.454803 0.598277 0.577022
O O11 0.250000 0.646737 0.500000
O O12 0.500000 0.750000 0.707695
O O13 0.340318 0.886536 0.738794
O O14 0.669489 0.881369 0.665547
O O15 0.838174 0.850756 0.747580
O O16 0.499016 0.500000 0.250000
#
# Coordination Sequence:
#
# PCOD9335466 Si02
#       6
#     8   8   8   8   8   8
#     4  10  23  45  67  92 129 167 212 275 331 385
#     4  12  25  39  70  95 126 172 214 260 337 391
#     4  10  22  40  61  88 127 171 212 264 318 371
#     4  12  25  42  67  96 128 174 220 261 321 391
#     4  12  23  44  64  92 136 175 210 275 330 379
#     4  12  23  41  63  96 128 168 209 268 319 387
#
# _framework density 19.873047
#
# number of rings (size 3 to 8) (size 9 to 14) (size 15 to 20)
#    0.000    0.667    3.333    4.500    0.000    4.000 
#    0.000    5.000    0.000    0.000    0.000    0.000 
#    0.000    0.000    0.000    0.000    0.000    0.000 
#
# Total GULP energy -134247.319388 kJ/mol
# GULP energy per Si atom -5593.638308 kJ/mol
# Density = 1.982781 g / cm^3
# Si number density = 19.873047 Si / 1000 Ang^3
#
#
#
# Elastic Constant Matrix: (Units=GPa)
#
#
# Indices 1 2 3 4 5 6 
#
# 1 111.9246 27.6775 14.2686 0.0000 0.0000 0.0000
# 2 27.6775 95.1792 68.4900 0.0000 0.0000 0.0000
# 3 14.2686 68.4900 100.4607 0.0000 0.0000 0.0000
# 4 0.0000 0.0000 0.0000 26.7906 0.0000 0.0000
# 5 0.0000 0.0000 0.0000 0.0000 0.1644 0.0000
# 6 0.0000 0.0000 0.0000 0.0000 0.0000 26.9241
#
#
#
# Elastic Compliance Matrix: (Units=1/GPa)
#
#
# Indices 1 2 3 4 5 6 
#
# 1 0.009685 -0.003585 0.001069 0.000000 0.000000 0.000000
# 2 -0.003585 0.021952 -0.014457 0.000000 0.000000 0.000000
# 3 0.001069 -0.014457 0.019658 0.000000 0.000000 0.000000
# 4 0.000000 0.000000 0.000000 0.037327 0.000000 0.000000
# 5 0.000000 0.000000 0.000000 0.000000 6.082909 0.000000
# 6 0.000000 0.000000 0.000000 0.000000 0.000000 0.037141
#
#
# Mechanical properties :
#
#
# Convention : Reuss Voigt Hill
#
# Bulk Modulus (GPa) = 57.64145 58.71521 58.17833
# Shear Modulus (GPa) = 0.80020 23.91770 12.35895
#
# Velocity S-wave (km/s) = 0.63524 3.47295 2.49649
# Velocity P-wave (km/s) = 5.44113 6.75952 6.13584
#
# Compressibility (1/GPa) = 0.01734863
#
# Stress axis : x y z
#
# Youngs Moduli (GPa) = 103.25280 45.55380 50.86894
#
# Poissons Ratio (x) = 0.16333 -0.05437
# Poissons Ratio (y) = 0.37021 0.73540
# Poissons Ratio (z) = -0.11036 0.65856
#
# Static dielectric constant tensor:
#      x y z
#    x 1.671820 0.000000 0.000000 
#    y 0.000000 1.713750 0.000000 
#    z 0.000000 0.000000 1.708800 
# 
# From -- ./inp_files/23916.got.cif
#   From: 2010.05.17/outbox.cif.g08.bks.cpg/sg24_12_cif.got.tgz:23916.got - 2010.06.04 00:33:39.
