data_PCOD9335222
_publ_section_title
;
Structure prediction by ZEFSAII (Michael W. Deem and Ramdas Pophale) SiO2 
 PCOD9335222
Probable space group: I 21 21 21
;
_chemical_formula_sum "Si O2"
_cell_formula_units_Z 48
_cell_length_a 5.895574
_cell_length_b 14.226229
_cell_length_c 24.709496
_cell_angle_alpha 90.000000
_cell_angle_beta 90.000000
_cell_angle_gamma 90.000000
_cell_volume 2072.429556
_symmetry_space_group_name_H-M "I 21 21 21"
_symmetry_group_IT_number 24
_symmetry_cell_setting 'orthorhombic'
loop_
_space_group_symop_operation_xyz
x,y,z
-x,1/2-y,z
x,-y,1/2-z
1/2-x,y,-z
1/2+x,1/2+y,1/2+z
1/2-x,-y,1/2+z
1/2+x,1/2-y,-z
-x,1/2+y,1/2-z
loop_
_atom_site_type_symbol
_atom_site_label
_atom_site_fract_x
_atom_site_fract_y
_atom_site_fract_z
Si Si1 0.102757 0.952123 0.570286
Si Si2 0.750000 0.702365 0.500000
Si Si3 0.750000 0.934446 0.000000
Si Si4 0.263894 0.578022 0.656899
Si Si5 0.480285 0.903919 0.894644
Si Si6 0.993079 0.500000 0.750000
Si Si7 0.793717 0.679606 0.801919
Si Si8 0.500000 0.750000 0.702591
O O1 0.259376 0.868250 0.550382
O O2 0.938420 0.908373 0.614968
O O3 0.259189 0.038373 0.586987
O O4 0.939600 0.996550 0.524754
O O5 0.500000 0.750000 0.496737
O O6 0.869550 0.880474 0.051169
O O7 0.373304 0.479643 0.639055
O O8 0.152067 0.566028 0.714986
O O9 0.433129 0.663518 0.664474
O O10 0.380204 0.830052 0.851870
O O11 0.859476 0.571046 0.788735
O O12 0.692163 0.717268 0.745286
O O13 0.000000 0.750000 0.816539
#
# Coordination Sequence:
#
# PCOD9335222 Si02
#       8
#     8   4   4   8   8   4   8   4
#     4  11  23  45  68 103 134 204 248 307 392 474
#     4  12  27  44  68 104 159 194 258 332 401 480
#     4  10  21  42  76 102 137 182 260 316 387 482
#     4  11  25  41  71 101 152 198 253 302 386 464
#     4  11  23  43  74 107 139 199 253 312 394 476
#     4  12  22  50  66 102 150 198 238 310 372 454
#     4  12  26  44  74 109 149 198 256 315 388 470
#     4  12  26  46  64 110 154 200 248 320 372 474
#
# _framework density 23.161221000000001
#
# number of rings (size 3 to 8) (size 9 to 14) (size 15 to 20)
#    0.000    0.667    5.000    2.500    2.333    1.333 
#    0.000    0.000    0.000    0.000   21.667    0.000 
#    0.000    0.000    0.000    0.000    0.000    0.000 
#
# Total GULP energy -134092.791273 kJ/mol
# GULP energy per Si atom -5587.199636 kJ/mol
# Density = 2.310851 g / cm^3
# Si number density = 23.161221 Si / 1000 Ang^3
#
#
#
# Elastic Constant Matrix: (Units=GPa)
#
#
# Indices 1 2 3 4 5 6 
#
# 1 97.0312 47.9833 50.8176 0.0000 0.0000 0.0000
# 2 47.9833 98.9139 31.0946 0.0000 0.0000 0.0000
# 3 50.8176 31.0946 112.5259 0.0000 0.0000 0.0000
# 4 0.0000 0.0000 0.0000 83.8605 0.0000 0.0000
# 5 0.0000 0.0000 0.0000 0.0000 123.6693 0.0000
# 6 0.0000 0.0000 0.0000 0.0000 0.0000 93.5415
#
#
#
# Elastic Compliance Matrix: (Units=1/GPa)
#
#
# Indices 1 2 3 4 5 6 
#
# 1 0.016306 -0.006127 -0.005671 0.000000 0.000000 0.000000
# 2 -0.006127 0.013374 -0.000929 0.000000 0.000000 0.000000
# 3 -0.005671 -0.000929 0.011704 0.000000 0.000000 0.000000
# 4 0.000000 0.000000 0.000000 0.011925 0.000000 0.000000
# 5 0.000000 0.000000 0.000000 0.000000 0.008086 0.000000
# 6 0.000000 0.000000 0.000000 0.000000 0.000000 0.010690
#
#
# Mechanical properties :
#
#
# Convention : Reuss Voigt Hill
#
# Bulk Modulus (GPa) = 62.77001 63.14021 62.95511
# Shear Modulus (GPa) = 48.61493 72.11931 60.36712
#
# Velocity S-wave (km/s) = 4.58643 5.58619 5.11082
# Velocity P-wave (km/s) = 7.43016 8.30227 7.87830
#
# Compressibility (1/GPa) = 0.01593118
#
# Stress axis : x y z
#
# Youngs Moduli (GPa) = 61.32738 74.77142 85.43827
#
# Poissons Ratio (x) = 0.45815 0.48449
# Poissons Ratio (y) = 0.37578 0.07933
# Poissons Ratio (z) = 0.34777 0.06943
#
# Static dielectric constant tensor:
#      x y z
#    x 1.805550 0.000000 0.000000 
#    y 0.000000 1.878520 0.000000 
#    z 0.000000 0.000000 0.305450 
# 
# From -- ./inp_files/28073.got.cif
#   From: 2010.05.17/outbox.cif.g08.bks.cpg/sg24_15_cif.got.tgz:28073.got - 2010.06.04 00:33:39.
