data_PCOD9335502
_publ_section_title
;
Structure prediction by ZEFSAII (Michael W. Deem and Ramdas Pophale) SiO2 
 PCOD9335502
Probable space group: I 21 21 21
;
_chemical_formula_sum "Si O2"
_cell_formula_units_Z 56
_cell_length_a 9.586319
_cell_length_b 20.259777
_cell_length_c 14.459711
_cell_angle_alpha 90.000000
_cell_angle_beta 90.000000
_cell_angle_gamma 90.000000
_cell_volume 2808.317139
_symmetry_space_group_name_H-M "I 21 21 21"
_symmetry_group_IT_number 24
_symmetry_cell_setting 'orthorhombic'
loop_
_space_group_symop_operation_xyz
x,y,z
-x,1/2-y,z
x,-y,1/2-z
1/2-x,y,-z
1/2+x,1/2+y,1/2+z
1/2-x,-y,1/2+z
1/2+x,1/2-y,-z
-x,1/2+y,1/2-z
loop_
_atom_site_type_symbol
_atom_site_label
_atom_site_fract_x
_atom_site_fract_y
_atom_site_fract_z
Si Si1 0.000000 0.750000 0.134285
Si Si2 0.354519 0.117106 0.918326
Si Si3 0.500000 0.750000 0.174373
Si Si4 0.276845 0.470339 0.148369
Si Si5 0.080743 0.151214 0.513964
Si Si6 0.522105 0.995388 0.982360
Si Si7 0.729955 0.284016 0.783383
Si Si8 0.166534 0.335606 0.093659
O O1 0.875614 0.731342 0.201323
O O2 0.006952 0.687726 0.066520
O O3 0.284165 0.141685 0.822585
O O4 0.503584 0.153144 0.921700
O O5 0.403016 0.041965 0.937589
O O6 0.250000 0.135631 0.000000
O O7 0.524341 0.687376 0.106238
O O8 0.372661 0.757744 0.243344
O O9 0.302429 0.500000 0.250000
O O10 0.148479 0.505910 0.093024
O O11 0.225049 0.394567 0.158224
O O12 0.406994 0.475322 0.076558
O O13 0.250000 0.161619 0.500000
O O14 0.042437 0.074824 0.507963
O O15 0.691634 0.235955 0.866826
O O16 0.250000 0.344709 0.000000
#
# Coordination Sequence:
#
# PCOD9335502 Si02
#       8
#     4   8   4   8   8   8   8   8
#     4  11  24  44  67  94 136 170 231 278 338 425
#     4  11  23  43  65  97 137 178 224 278 351 420
#     4  11  28  44  67 106 134 174 243 288 338 431
#     4  10  22  40  65 104 134 179 237 278 347 421
#     4  11  24  46  68  95 139 182 225 289 359 407
#     4  10  23  43  69  98 139 182 228 289 354 429
#     4  12  25  41  69 100 132 178 228 284 344 411
#     4  11  22  42  66  96 138 179 220 286 346 414
#
# _framework density 19.940769
#
# number of rings (size 3 to 8) (size 9 to 14) (size 15 to 20)
#    0.000    1.143    5.714    0.857    6.000    1.143 
#    0.000    0.000    0.000    0.000    0.000    0.000 
#    0.000    0.000    0.000    0.000    0.000    0.000 
#
# Total GULP energy -156114.066782 kJ/mol
# GULP energy per Si atom -5575.502385 kJ/mol
# Density = 1.989538 g / cm^3
# Si number density = 19.940769 Si / 1000 Ang^3
#
#
#
# Elastic Constant Matrix: (Units=GPa)
#
#
# Indices 1 2 3 4 5 6 
#
# 1 34.5251 29.3076 3.1303 0.0000 0.0000 0.0000
# 2 29.3076 130.0465 28.4418 0.0000 0.0000 0.0000
# 3 3.1303 28.4418 48.0241 0.0000 0.0000 0.0000
# 4 0.0000 0.0000 0.0000 5.8405 0.0000 0.0000
# 5 0.0000 0.0000 0.0000 0.0000 36.0831 0.0000
# 6 0.0000 0.0000 0.0000 0.0000 0.0000 13.0296
#
#
#
# Elastic Compliance Matrix: (Units=1/GPa)
#
#
# Indices 1 2 3 4 5 6 
#
# 1 0.036149 -0.008767 0.002836 0.000000 0.000000 0.000000
# 2 -0.008767 0.010960 -0.005919 0.000000 0.000000 0.000000
# 3 0.002836 -0.005919 0.024144 0.000000 0.000000 0.000000
# 4 0.000000 0.000000 0.000000 0.171217 0.000000 0.000000
# 5 0.000000 0.000000 0.000000 0.000000 0.027714 0.000000
# 6 0.000000 0.000000 0.000000 0.000000 0.000000 0.076748
#
#
# Mechanical properties :
#
#
# Convention : Reuss Voigt Hill
#
# Bulk Modulus (GPa) = 21.02963 37.15056 29.09009
# Shear Modulus (GPa) = 12.93715 21.10506 17.02110
#
# Velocity S-wave (km/s) = 2.54988 3.25682 2.92478
# Velocity P-wave (km/s) = 4.38613 5.72830 5.10154
#
# Compressibility (1/GPa) = 0.04755195
#
# Stress axis : x y z
#
# Youngs Moduli (GPa) = 27.66300 91.24171 41.41859
#
# Poissons Ratio (x) = 0.79991 -0.11746
# Poissons Ratio (y) = 0.24252 0.24517
# Poissons Ratio (z) = -0.07845 0.54010
#
# Static dielectric constant tensor:
#      x y z
#    x 1.712860 0.000000 0.000000 
#    y 0.000000 1.758770 0.000000 
#    z 0.000000 0.000000 1.720770 
# 
# From -- ./inp_files/25112.got.cif
#   From: 2010.05.17/outbox.cif.g08.bks.cpg/sg24_13_cif.got.tgz:25112.got - 2010.06.04 00:33:39.
