data_PCOD9335190
_publ_section_title
;
Structure prediction by ZEFSAII (Michael W. Deem and Ramdas Pophale) SiO2 
 PCOD9335190
Probable space group: I 21 21 21
;
_chemical_formula_sum "Si O2"
_cell_formula_units_Z 20
_cell_length_a 18.130624
_cell_length_b 5.401136
_cell_length_c 7.014320
_cell_angle_alpha 90.000000
_cell_angle_beta 90.000000
_cell_angle_gamma 90.000000
_cell_volume 686.884062
_symmetry_space_group_name_H-M "I 21 21 21"
_symmetry_group_IT_number 24
_symmetry_cell_setting 'orthorhombic'
loop_
_space_group_symop_operation_xyz
x,y,z
-x,1/2-y,z
x,-y,1/2-z
1/2-x,y,-z
1/2+x,1/2+y,1/2+z
1/2-x,-y,1/2+z
1/2+x,1/2-y,-z
-x,1/2+y,1/2-z
loop_
_atom_site_type_symbol
_atom_site_label
_atom_site_fract_x
_atom_site_fract_y
_atom_site_fract_z
Si Si1 0.730126 0.754380 0.280204
Si Si2 0.460979 0.000000 0.250000
Si Si3 0.395590 0.246535 0.635683
O O1 0.690736 0.500000 0.250000
O O2 0.750000 0.755432 0.500000
O O3 0.804895 0.759450 0.154129
O O4 0.684697 0.000000 0.250000
O O5 0.500000 0.750000 0.345321
O O6 0.426025 0.164008 0.429530
O O7 0.417447 0.500000 0.750000
O O8 0.413938 0.000000 0.750000
#
# Coordination Sequence:
#
# PCOD9335190 Si02
#       3
#     8   4   8
#     4  10  21  42  66 104 147 195 243 298 369 456
#     4  12  26  46  78 112 144 202 268 320 398 468
#     4  10  23  46  70 107 153 195 246 324 383 455
#
# _framework density 29.116997999999999
#
# number of rings (size 3 to 8) (size 9 to 14) (size 15 to 20)
#    0.000    1.600    0.000    3.600    0.000    3.200 
#   43.200    0.000    0.000    0.000    0.000    0.000 
#    0.000    0.000    0.000    0.000    0.000    0.000 
#
# Total GULP energy -55731.063623 kJ/mol
# GULP energy per Si atom -5573.106362 kJ/mol
# Density = 2.905073 g / cm^3
# Si number density = 29.116998 Si / 1000 Ang^3
#
#
#
# Elastic Constant Matrix: (Units=GPa)
#
#
# Indices 1 2 3 4 5 6 
#
# 1 121.5388 52.7805 61.5019 0.0000 0.0000 0.0000
# 2 52.7805 418.6340 121.5927 0.0000 0.0000 0.0000
# 3 61.5019 121.5927 184.4207 0.0000 0.0000 0.0000
# 4 0.0000 0.0000 0.0000 65.7984 0.0000 0.0000
# 5 0.0000 0.0000 0.0000 0.0000 18.2891 0.0000
# 6 0.0000 0.0000 0.0000 0.0000 0.0000 25.1795
#
#
#
# Elastic Compliance Matrix: (Units=1/GPa)
#
#
# Indices 1 2 3 4 5 6 
#
# 1 0.009942 -0.000359 -0.003079 0.000000 0.000000 0.000000
# 2 -0.000359 0.002967 -0.001837 0.000000 0.000000 0.000000
# 3 -0.003079 -0.001837 0.007660 0.000000 0.000000 0.000000
# 4 0.000000 0.000000 0.000000 0.015198 0.000000 0.000000
# 5 0.000000 0.000000 0.000000 0.000000 0.054677 0.000000
# 6 0.000000 0.000000 0.000000 0.000000 0.000000 0.039715
#
#
# Mechanical properties :
#
#
# Convention : Reuss Voigt Hill
#
# Bulk Modulus (GPa) = 99.79911 132.92708 116.36310
# Shear Modulus (GPa) = 34.71056 54.43464 44.57260
#
# Velocity S-wave (km/s) = 3.45644 4.32848 3.91680
# Velocity P-wave (km/s) = 7.09076 8.41028 7.77855
#
# Compressibility (1/GPa) = 0.01002013
#
# Stress axis : x y z
#
# Youngs Moduli (GPa) = 100.58675 336.98447 130.54769
#
# Poissons Ratio (x) = 0.12106 0.40190
# Poissons Ratio (y) = 0.03614 0.23978
# Poissons Ratio (z) = 0.30966 0.61895
#
# Static dielectric constant tensor:
#      x y z
#    x 2.523480 0.000000 0.000000 
#    y 0.000000 2.253360 0.000000 
#    z 0.000000 0.000000 2.330330 
# 
# From -- ./inp_files/317.got.cif
#   From: 2010.05.17/outbox.cif.g08.bks.cpg/sg24_1_cif.got.tgz:317.got - 2010.06.04 00:33:39.
