data_PCOD9335872
_publ_section_title
;
Structure prediction by ZEFSAII (Michael W. Deem and Ramdas Pophale) SiO2 
 PCOD9335872
Probable space group: I 21 21 21
;
_chemical_formula_sum "Si O2"
_cell_formula_units_Z 28
_cell_length_a 18.278650
_cell_length_b 10.921457
_cell_length_c 5.922166
_cell_angle_alpha 90.000000
_cell_angle_beta 90.000000
_cell_angle_gamma 90.000000
_cell_volume 1182.238978
_symmetry_space_group_name_H-M "I 21 21 21"
_symmetry_group_IT_number 24
_symmetry_cell_setting 'orthorhombic'
loop_
_space_group_symop_operation_xyz
x,y,z
-x,1/2-y,z
x,-y,1/2-z
1/2-x,y,-z
1/2+x,1/2+y,1/2+z
1/2-x,-y,1/2+z
1/2+x,1/2-y,-z
-x,1/2+y,1/2-z
loop_
_atom_site_type_symbol
_atom_site_label
_atom_site_fract_x
_atom_site_fract_y
_atom_site_fract_z
Si Si1 0.166977 0.831083 0.058148
Si Si2 0.163841 0.542536 0.998326
Si Si3 0.457576 0.868591 0.647020
Si Si4 0.066505 0.000000 0.750000
O O1 0.129201 0.845559 0.305508
O O2 0.250000 0.864591 0.000000
O O3 0.158943 0.689206 0.996786
O O4 0.116864 0.921014 0.914357
O O5 0.135134 0.500000 0.750000
O O6 0.136490 0.500000 0.250000
O O7 0.250000 0.504821 0.000000
O O8 0.500000 0.750000 0.733758
O O9 0.477854 0.000000 0.750000
O O10 0.475337 0.896294 0.388192
#
# Coordination Sequence:
#
# PCOD9335872 Si02
#       4
#     8   8   8   4
#     4  10  23  40  68 101 140 186 236 300 367 432
#     4   9  19  36  58  91 135 179 227 284 352 428
#     4  10  24  47  69 101 141 188 245 301 360 442
#     4  10  24  40  68 102 138 184 240 294 368 434
#
# _framework density 23.683876000000001
#
# number of rings (size 3 to 8) (size 9 to 14) (size 15 to 20)
#    0.000    2.286    0.000    0.000   10.000    5.714 
#    0.000    0.000    0.000    0.000    0.000    0.000 
#    0.000    0.000    0.000    0.000    0.000    0.000 
#
# Total GULP energy -77957.887869 kJ/mol
# GULP energy per Si atom -5568.420562 kJ/mol
# Density = 2.362997 g / cm^3
# Si number density = 23.683876 Si / 1000 Ang^3
#
#
#
# Elastic Constant Matrix: (Units=GPa)
#
#
# Indices 1 2 3 4 5 6 
#
# 1 108.5905 21.8651 24.5337 0.0000 0.0000 0.0000
# 2 21.8651 115.3245 33.5870 0.0000 0.0000 0.0000
# 3 24.5337 33.5870 125.1627 0.0000 0.0000 0.0000
# 4 0.0000 0.0000 0.0000 38.6096 0.0000 0.0000
# 5 0.0000 0.0000 0.0000 0.0000 -20.5927 0.0000
# 6 0.0000 0.0000 0.0000 0.0000 0.0000 -54.4197
#
#
#
# Elastic Compliance Matrix: (Units=1/GPa)
#
#
# Indices 1 2 3 4 5 6 
#
# 1 0.009844 -0.001415 -0.001550 0.000000 0.000000 0.000000
# 2 -0.001415 0.009610 -0.002301 0.000000 0.000000 0.000000
# 3 -0.001550 -0.002301 0.008911 0.000000 0.000000 0.000000
# 4 0.000000 0.000000 0.000000 0.025900 0.000000 0.000000
# 5 0.000000 0.000000 0.000000 0.000000 -0.048561 0.000000
# 6 0.000000 0.000000 0.000000 0.000000 0.000000 -0.018376
#
#
# Mechanical properties :
#
#
# Convention : Reuss Voigt Hill
#
# Bulk Modulus (GPa) = 56.07837 56.56105 56.31971
# Shear Modulus (GPa) = 1314.11500 10.65889 662.38695
#
# Velocity S-wave (km/s) = 23.58094 2.12374 16.74173
# Velocity P-wave (km/s) = 27.66123 5.47240 19.93854
#
# Compressibility (1/GPa) = 0.01783219
#
# Stress axis : x y z
#
# Youngs Moduli (GPa) = 101.58491 104.06136 112.22136
#
# Poissons Ratio (x) = 0.14725 0.17393
# Poissons Ratio (y) = 0.14374 0.25826
# Poissons Ratio (z) = 0.15744 0.23948
#
# Static dielectric constant tensor:
#      x y z
#    x 1.933660 0.000000 0.000000 
#    y 0.000000 1.845680 0.000000 
#    z 0.000000 0.000000 2.324580 
# 
# From -- ./inp_files/1883.got.cif
#   From: 2010.05.17/outbox.cif.g08.bks.cpg/sg24_1_cif.got.tgz:1883.got - 2010.06.04 00:33:39.
