data_PCOD9335324
_publ_section_title
;
Structure prediction by ZEFSAII (Michael W. Deem and Ramdas Pophale) SiO2 
 PCOD9335324
Probable space group: I 21 21 21
;
_chemical_formula_sum "Si O2"
_cell_formula_units_Z 60
_cell_length_a 9.583056
_cell_length_b 16.521753
_cell_length_c 19.436491
_cell_angle_alpha 90.000000
_cell_angle_beta 90.000000
_cell_angle_gamma 90.000000
_cell_volume 3077.357933
_symmetry_space_group_name_H-M "I 21 21 21"
_symmetry_group_IT_number 24
_symmetry_cell_setting 'orthorhombic'
loop_
_space_group_symop_operation_xyz
x,y,z
-x,1/2-y,z
x,-y,1/2-z
1/2-x,y,-z
1/2+x,1/2+y,1/2+z
1/2-x,-y,1/2+z
1/2+x,1/2-y,-z
-x,1/2+y,1/2-z
loop_
_atom_site_type_symbol
_atom_site_label
_atom_site_fract_x
_atom_site_fract_y
_atom_site_fract_z
Si Si1 0.153035 0.291249 0.752103
Si Si2 0.250000 0.053906 0.500000
Si Si3 0.564473 0.136680 0.919695
Si Si4 0.684677 0.946447 0.349397
Si Si5 0.714627 0.873940 0.116419
Si Si6 0.196006 0.797519 0.369979
Si Si7 0.473298 0.345903 0.517740
Si Si8 0.415795 0.912713 0.438520
O O1 0.171383 0.378639 0.789997
O O2 0.190857 0.303621 0.672405
O O3 0.255971 0.235090 0.796585
O O4 0.000000 0.250000 0.758293
O O5 0.379514 0.107892 0.525196
O O6 0.317769 0.990994 0.446264
O O7 0.682178 0.075099 0.896680
O O8 0.644758 0.222600 0.917464
O O9 0.439040 0.145557 0.865104
O O10 0.486312 0.113227 0.989475
O O11 0.542958 0.932924 0.390220
O O12 0.699068 0.042381 0.341437
O O13 0.863064 0.867308 0.077750
O O14 0.600569 0.869677 0.054835
O O15 0.322417 0.841466 0.407726
O O16 0.500000 0.250000 0.517436
#
# Coordination Sequence:
#
# PCOD9335324 Si02
#       8
#     8   4   8   8   8   8   8   8
#     4  11  23  42  66  93 131 180 228 265 325 401
#     4  12  22  40  70 104 136 156 204 286 348 392
#     4  10  22  35  59  94 138 177 216 265 322 384
#     4  11  23  40  65  97 133 175 222 268 327 404
#     4  11  24  44  70  94 128 169 223 277 335 389
#     4  10  22  38  56  92 136 179 221 261 308 395
#     4  11  25  46  72 100 124 161 221 286 343 390
#     4  12  21  37  62 102 136 173 215 265 331 388
#
# _framework density 19.497243999999998
#
# number of rings (size 3 to 8) (size 9 to 14) (size 15 to 20)
#    0.000    1.067    4.000    2.800    1.867    7.467 
#    4.800    0.000    0.000    0.000    0.000    0.000 
#    0.000    0.000    0.000    0.000    0.000    0.000 
#
# Total GULP energy -167413.937404 kJ/mol
# GULP energy per Si atom -5580.464580 kJ/mol
# Density = 1.945287 g / cm^3
# Si number density = 19.497244 Si / 1000 Ang^3
#
#
#
# Elastic Constant Matrix: (Units=GPa)
#
#
# Indices 1 2 3 4 5 6 
#
# 1 143.6044 42.0267 36.9166 0.0000 0.0000 0.0000
# 2 42.0267 73.5576 16.4160 0.0000 0.0000 0.0000
# 3 36.9166 16.4160 41.1835 0.0000 0.0000 0.0000
# 4 0.0000 0.0000 0.0000 23.7179 0.0000 0.0000
# 5 0.0000 0.0000 0.0000 0.0000 8.9598 0.0000
# 6 0.0000 0.0000 0.0000 0.0000 0.0000 38.2003
#
#
#
# Elastic Compliance Matrix: (Units=1/GPa)
#
#
# Indices 1 2 3 4 5 6 
#
# 1 0.010062 -0.004101 -0.007385 0.000000 0.000000 0.000000
# 2 -0.004101 0.016594 -0.002938 0.000000 0.000000 0.000000
# 3 -0.007385 -0.002938 0.032073 0.000000 0.000000 0.000000
# 4 0.000000 0.000000 0.000000 0.042162 0.000000 0.000000
# 5 0.000000 0.000000 0.000000 0.000000 0.111610 0.000000
# 6 0.000000 0.000000 0.000000 0.000000 0.000000 0.026178
#
#
# Mechanical properties :
#
#
# Convention : Reuss Voigt Hill
#
# Bulk Modulus (GPa) = 33.46720 49.89602 41.68161
# Shear Modulus (GPa) = 18.01887 25.04136 21.53011
#
# Velocity S-wave (km/s) = 3.04332 3.58768 3.32665
# Velocity P-wave (km/s) = 5.43612 6.54284 6.01499
#
# Compressibility (1/GPa) = 0.02988000
#
# Stress axis : x y z
#
# Youngs Moduli (GPa) = 99.38182 60.26445 31.17920
#
# Poissons Ratio (x) = 0.24714 0.23026
# Poissons Ratio (y) = 0.40755 0.09161
# Poissons Ratio (z) = 0.73394 0.17707
#
# Static dielectric constant tensor:
#      x y z
#    x 1.666090 0.000000 0.000000 
#    y 0.000000 1.741400 0.000000 
#    z 0.000000 0.000000 1.733200 
# 
# From -- ./inp_files/29680.got.cif
#   From: 2010.05.17/outbox.cif.g08.bks.cpg/sg24_15_cif.got.tgz:29680.got - 2010.06.04 00:33:39.
