data_PCOD9335265
_publ_section_title
;
Structure prediction by ZEFSAII (Michael W. Deem and Ramdas Pophale) SiO2 
 PCOD9335265
Probable space group: I 21 21 21
;
_chemical_formula_sum "Si O2"
_cell_formula_units_Z 40
_cell_length_a 11.769828
_cell_length_b 8.870066
_cell_length_c 18.402533
_cell_angle_alpha 90.000000
_cell_angle_beta 90.000000
_cell_angle_gamma 90.000000
_cell_volume 1921.208825
_symmetry_space_group_name_H-M "I 21 21 21"
_symmetry_group_IT_number 24
_symmetry_cell_setting 'orthorhombic'
loop_
_space_group_symop_operation_xyz
x,y,z
-x,1/2-y,z
x,-y,1/2-z
1/2-x,y,-z
1/2+x,1/2+y,1/2+z
1/2-x,-y,1/2+z
1/2+x,1/2-y,-z
-x,1/2+y,1/2-z
loop_
_atom_site_type_symbol
_atom_site_label
_atom_site_fract_x
_atom_site_fract_y
_atom_site_fract_z
Si Si1 0.225361 0.166492 0.081913
Si Si2 0.943573 0.406131 0.822983
Si Si3 0.829968 0.022744 0.410042
Si Si4 0.586549 0.110454 0.430674
Si Si5 0.529126 0.576140 0.679880
O O1 0.327201 0.123908 0.134883
O O2 0.208605 0.347678 0.082850
O O3 0.112742 0.087666 0.111797
O O4 0.250000 0.119253 0.000000
O O5 0.927119 0.500000 0.750000
O O6 0.000000 0.250000 0.800542
O O7 0.027630 0.484456 0.880943
O O8 0.717004 0.124491 0.401763
O O9 0.892706 0.065287 0.485234
O O10 0.918591 0.018888 0.344050
O O11 0.500000 0.250000 0.426808
O O12 0.500000 0.750000 0.696695
O O13 0.583006 0.500000 0.750000
#
# Coordination Sequence:
#
# PCOD9335265 Si02
#       5
#     8   8   8   8   8
#     4  11  20  42  73 100 132 181 236 289 342 422
#     4  12  24  42  67 103 144 186 233 290 354 427
#     4  10  21  44  70  93 137 181 228 289 355 409
#     4  11  23  44  67 102 135 182 238 287 353 415
#     4  10  23  42  65  99 135 184 226 278 350 420
#
# _framework density 20.820226999999999
#
# number of rings (size 3 to 8) (size 9 to 14) (size 15 to 20)
#    0.000    1.200    4.000    2.400    0.000    3.200 
#   21.600    0.000    0.000    0.000    0.000    0.000 
#    0.000    0.000    0.000    0.000    0.000    0.000 
#
# Total GULP energy -111764.017531 kJ/mol
# GULP energy per Si atom -5588.200877 kJ/mol
# Density = 2.077284 g / cm^3
# Si number density = 20.820227 Si / 1000 Ang^3
#
#
#
# Elastic Constant Matrix: (Units=GPa)
#
#
# Indices 1 2 3 4 5 6 
#
# 1 109.8216 55.3086 36.2874 0.0000 0.0000 0.0000
# 2 55.3086 79.3125 56.0228 0.0000 0.0000 0.0000
# 3 36.2874 56.0228 76.6273 0.0000 0.0000 0.0000
# 4 0.0000 0.0000 0.0000 32.3021 0.0000 0.0000
# 5 0.0000 0.0000 0.0000 0.0000 -49.9272 0.0000
# 6 0.0000 0.0000 0.0000 0.0000 0.0000 34.4676
#
#
#
# Elastic Compliance Matrix: (Units=1/GPa)
#
#
# Indices 1 2 3 4 5 6 
#
# 1 0.014076 -0.010562 0.001056 0.000000 0.000000 0.000000
# 2 -0.010562 0.033998 -0.019855 0.000000 0.000000 0.000000
# 3 0.001056 -0.019855 0.027066 0.000000 0.000000 0.000000
# 4 0.000000 0.000000 0.000000 0.030958 0.000000 0.000000
# 5 0.000000 0.000000 0.000000 0.000000 -0.020029 0.000000
# 6 0.000000 0.000000 0.000000 0.000000 0.000000 0.029013
#
#
# Mechanical properties :
#
#
# Convention : Reuss Voigt Hill
#
# Bulk Modulus (GPa) = 60.90437 62.33322 61.61880
# Shear Modulus (GPa) = 27.89017 11.24468 19.56743
#
# Velocity S-wave (km/s) = 3.66399 2.32649 3.06899
# Velocity P-wave (km/s) = 6.87137 6.10086 6.49755
#
# Compressibility (1/GPa) = 0.01641918
#
# Stress axis : x y z
#
# Youngs Moduli (GPa) = 71.04361 29.41353 36.94685
#
# Poissons Ratio (x) = 0.31066 -0.03902
# Poissons Ratio (y) = 0.75034 0.73356
# Poissons Ratio (z) = -0.07502 0.58399
#
# Static dielectric constant tensor:
#      x y z
#    x 1.768330 0.000000 0.000000 
#    y 0.000000 1.746300 0.000000 
#    z 0.000000 0.000000 1.699400 
# 
# From -- ./inp_files/10711.got.cif
#   From: 2010.05.17/outbox.cif.g08.bks.cpg/sg24_6_cif.got.tgz:10711.got - 2010.06.04 00:33:39.
