data_PCOD9335786
_publ_section_title
;
Structure prediction by ZEFSAII (Michael W. Deem and Ramdas Pophale) SiO2 
 PCOD9335786
Probable space group: I 21 21 21
;
_chemical_formula_sum "Si O2"
_cell_formula_units_Z 64
_cell_length_a 30.140366
_cell_length_b 8.958470
_cell_length_c 10.679360
_cell_angle_alpha 90.000000
_cell_angle_beta 90.000000
_cell_angle_gamma 90.000000
_cell_volume 2883.550703
_symmetry_space_group_name_H-M "I 21 21 21"
_symmetry_group_IT_number 24
_symmetry_cell_setting 'orthorhombic'
loop_
_space_group_symop_operation_xyz
x,y,z
-x,1/2-y,z
x,-y,1/2-z
1/2-x,y,-z
1/2+x,1/2+y,1/2+z
1/2-x,-y,1/2+z
1/2+x,1/2-y,-z
-x,1/2+y,1/2-z
loop_
_atom_site_type_symbol
_atom_site_label
_atom_site_fract_x
_atom_site_fract_y
_atom_site_fract_z
Si Si1 0.408014 0.273577 0.493157
Si Si2 0.737664 0.826604 0.790224
Si Si3 0.061711 0.555814 0.609774
Si Si4 0.906149 0.681789 0.480176
Si Si5 0.690595 0.699367 0.023865
Si Si6 0.452518 0.679052 0.756321
Si Si7 0.535956 0.456554 0.394749
Si Si8 0.312802 0.095047 0.875273
O O1 0.406409 0.450311 0.469229
O O2 0.361510 0.206821 0.451628
O O3 0.418524 0.262456 0.639199
O O4 0.451094 0.215840 0.415214
O O5 0.702322 0.805748 0.904579
O O6 0.721368 0.720078 0.676066
O O7 0.742175 0.000000 0.750000
O O8 0.781299 0.756359 0.857386
O O9 0.062188 0.500000 0.750000
O O10 0.081659 0.719530 0.600600
O O11 0.011003 0.528089 0.565175
O O12 0.935446 0.758756 0.374104
O O13 0.926807 0.523493 0.513355
O O14 0.856003 0.671486 0.435268
O O15 0.701885 0.532312 0.974548
O O16 0.500000 0.750000 0.787033
O O17 0.455134 0.500000 0.750000
O O18 0.541580 0.500000 0.250000
O O19 0.325218 0.000000 0.750000
#
# Coordination Sequence:
#
# PCOD9335786 Si02
#       8
#     8   8   8   8   8   8   8   8
#     4  12  24  42  68  97 144 184 235 297 352 415
#     4  10  23  45  79 106 136 174 224 298 366 437
#     4  11  24  42  65  96 140 194 244 297 343 404
#     4  12  24  40  70 103 138 188 242 293 350 421
#     4  10  23  46  72 104 139 177 229 279 360 452
#     4  12  26  39  62  99 141 190 240 295 351 412
#     4  11  24  44  66  96 138 196 248 288 343 409
#     4  10  22  45  76 103 142 187 226 289 368 447
#
# _framework density 22.194859000000001
#
# number of rings (size 3 to 8) (size 9 to 14) (size 15 to 20)
#    0.000    1.000    2.500    4.500    3.500    3.500 
#    0.000   10.625    2.750    0.000    0.000    0.000 
#    0.000    0.000    0.000    0.000    0.000    0.000 
#
# Total GULP energy -178739.356967 kJ/mol
# GULP energy per Si atom -5585.604905 kJ/mol
# Density = 2.214434 g / cm^3
# Si number density = 22.194859 Si / 1000 Ang^3
#
#
#
# Elastic Constant Matrix: (Units=GPa)
#
#
# Indices 1 2 3 4 5 6 
#
# 1 143.4190 52.6579 40.1934 0.0000 0.0000 0.0000
# 2 52.6579 114.6405 35.9477 0.0000 0.0000 0.0000
# 3 40.1934 35.9477 66.1695 0.0000 0.0000 0.0000
# 4 0.0000 0.0000 0.0000 35.0115 0.0000 0.0000
# 5 0.0000 0.0000 0.0000 0.0000 26.1594 0.0000
# 6 0.0000 0.0000 0.0000 0.0000 0.0000 23.8130
#
#
#
# Elastic Compliance Matrix: (Units=1/GPa)
#
#
# Indices 1 2 3 4 5 6 
#
# 1 0.009173 -0.002973 -0.003957 0.000000 0.000000 0.000000
# 2 -0.002973 0.011477 -0.004430 0.000000 0.000000 0.000000
# 3 -0.003957 -0.004430 0.019923 0.000000 0.000000 0.000000
# 4 0.000000 0.000000 0.000000 0.028562 0.000000 0.000000
# 5 0.000000 0.000000 0.000000 0.000000 0.038227 0.000000
# 6 0.000000 0.000000 0.000000 0.000000 0.000000 0.041994
#
#
# Mechanical properties :
#
#
# Convention : Reuss Voigt Hill
#
# Bulk Modulus (GPa) = 56.00799 64.64746 60.32772
# Shear Modulus (GPa) = 28.08576 30.02545 29.05561
#
# Velocity S-wave (km/s) = 3.56113 3.68205 3.62209
# Velocity P-wave (km/s) = 6.49602 6.87511 6.68825
#
# Compressibility (1/GPa) = 0.01785460
#
# Stress axis : x y z
#
# Youngs Moduli (GPa) = 109.01596 87.12833 50.19386
#
# Poissons Ratio (x) = 0.25900 0.19862
# Poissons Ratio (y) = 0.32406 0.22234
# Poissons Ratio (z) = 0.43138 0.38594
#
# Static dielectric constant tensor:
#      x y z
#    x 1.792080 0.000000 0.000000 
#    y 0.000000 1.858290 0.000000 
#    z 0.000000 0.000000 1.969270 
# 
# From -- ./inp_files/23183.got.cif
#   From: 2010.05.17/outbox.cif.g08.bks.cpg/sg24_12_cif.got.tgz:23183.got - 2010.06.04 00:33:39.
