data_PCOD9335373
_publ_section_title
;
Structure prediction by ZEFSAII (Michael W. Deem and Ramdas Pophale) SiO2 
 PCOD9335373
Probable space group: I 21 21 21
;
_chemical_formula_sum "Si O2"
_cell_formula_units_Z 48
_cell_length_a 28.945365
_cell_length_b 5.823269
_cell_length_c 13.999285
_cell_angle_alpha 90.000000
_cell_angle_beta 90.000000
_cell_angle_gamma 90.000000
_cell_volume 2359.672536
_symmetry_space_group_name_H-M "I 21 21 21"
_symmetry_group_IT_number 24
_symmetry_cell_setting 'orthorhombic'
loop_
_space_group_symop_operation_xyz
x,y,z
-x,1/2-y,z
x,-y,1/2-z
1/2-x,y,-z
1/2+x,1/2+y,1/2+z
1/2-x,-y,1/2+z
1/2+x,1/2-y,-z
-x,1/2+y,1/2-z
loop_
_atom_site_type_symbol
_atom_site_label
_atom_site_fract_x
_atom_site_fract_y
_atom_site_fract_z
Si Si1 0.525833 0.998967 0.861006
Si Si2 0.611544 0.871372 0.519516
Si Si3 0.738674 0.139266 0.108224
Si Si4 0.144199 0.887786 0.651073
Si Si5 0.324640 0.904806 0.647774
Si Si6 0.812356 0.246406 0.515197
O O1 0.500000 0.750000 0.873183
O O2 0.500000 0.250000 0.872671
O O3 0.542014 0.000000 0.750000
O O4 0.566901 0.010173 0.937756
O O5 0.609640 0.767479 0.412326
O O6 0.629516 0.680617 0.593985
O O7 0.655197 0.040326 0.518130
O O8 0.693263 0.249390 0.156399
O O9 0.784870 0.211259 0.162159
O O10 0.725494 0.877400 0.083258
O O11 0.750000 0.229664 0.000000
O O12 0.128933 0.000000 0.750000
O O13 0.157522 0.098241 0.584245
O O14 0.336981 0.000000 0.750000
O O15 0.303364 0.096664 0.576991
#
# Coordination Sequence:
#
# PCOD9335373 Si02
#       6
#     8   8   8   8   8   8
#     4  10  24  43  70 105 140 178 216 264 345 437
#     4  10  23  39  62  97 125 165 217 267 337 403
#     4  11  20  38  50  82 118 169 225 262 326 371
#     4  10  22  40  62  88 121 172 225 274 326 381
#     4  11  24  37  56  88 123 171 219 275 337 394
#     4  10  22  38  60  78 126 164 209 282 314 393
#
# _framework density 20.341804
#
# number of rings (size 3 to 8) (size 9 to 14) (size 15 to 20)
#    0.000    1.667    5.000    0.500    9.333    3.333 
#    3.000    0.000    0.000    0.000    4.333    0.000 
#    0.000    0.000    0.000    0.000    0.000    0.000 
#
# Total GULP energy -133650.960588 kJ/mol
# GULP energy per Si atom -5568.790024 kJ/mol
# Density = 2.029551 g / cm^3
# Si number density = 20.341804 Si / 1000 Ang^3
#
#
#
# Elastic Constant Matrix: (Units=GPa)
#
#
# Indices 1 2 3 4 5 6 
#
# 1 55.6236 22.2067 40.1042 0.0000 0.0000 0.0000
# 2 22.2067 95.7744 48.3959 0.0000 0.0000 0.0000
# 3 40.1042 48.3959 113.3250 0.0000 0.0000 0.0000
# 4 0.0000 0.0000 0.0000 -33.0837 0.0000 0.0000
# 5 0.0000 0.0000 0.0000 0.0000 -2.8800 0.0000
# 6 0.0000 0.0000 0.0000 0.0000 0.0000 33.0605
#
#
#
# Elastic Compliance Matrix: (Units=1/GPa)
#
#
# Indices 1 2 3 4 5 6 
#
# 1 0.024338 -0.001646 -0.007910 0.000000 0.000000 0.000000
# 2 -0.001646 0.013426 -0.005151 0.000000 0.000000 0.000000
# 3 -0.007910 -0.005151 0.013823 0.000000 0.000000 0.000000
# 4 0.000000 0.000000 0.000000 -0.030226 0.000000 0.000000
# 5 0.000000 0.000000 0.000000 0.000000 -0.347221 0.000000
# 6 0.000000 0.000000 0.000000 0.000000 0.000000 0.030248
#
#
# Mechanical properties :
#
#
# Convention : Reuss Voigt Hill
#
# Bulk Modulus (GPa) = 45.10012 54.01519 49.55765
# Shear Modulus (GPa) = -19.31937 9.68711 -4.81613
#
# Velocity S-wave (km/s) = -3.08512 2.18461 -1.54037
# Velocity P-wave (km/s) = 3.08685 5.74237 4.60996
#
# Compressibility (1/GPa) = 0.02217289
#
# Stress axis : x y z
#
# Youngs Moduli (GPa) = 41.08768 74.48381 72.34245
#
# Poissons Ratio (x) = 0.12261 0.57222
# Poissons Ratio (y) = 0.06764 0.37263
# Poissons Ratio (z) = 0.32500 0.38366
#
# Static dielectric constant tensor:
#      x y z
#    x 1.749060 0.000000 0.000000 
#    y 0.000000 1.946040 0.000000 
#    z 0.000000 0.000000 1.687020 
# 
# From -- ./inp_files/28176.got.cif
#   From: 2010.05.17/outbox.cif.g08.bks.cpg/sg24_15_cif.got.tgz:28176.got - 2010.06.04 00:33:39.
