data_PCOD9335901
_publ_section_title
;
Structure prediction by ZEFSAII (Michael W. Deem and Ramdas Pophale) SiO2 
 PCOD9335901
Probable space group: I 21 21 21
;
_chemical_formula_sum "Si O2"
_cell_formula_units_Z 32
_cell_length_a 19.267164
_cell_length_b 9.832072
_cell_length_c 7.646120
_cell_angle_alpha 90.000000
_cell_angle_beta 90.000000
_cell_angle_gamma 90.000000
_cell_volume 1448.451487
_symmetry_space_group_name_H-M "I 21 21 21"
_symmetry_group_IT_number 24
_symmetry_cell_setting 'orthorhombic'
loop_
_space_group_symop_operation_xyz
x,y,z
-x,1/2-y,z
x,-y,1/2-z
1/2-x,y,-z
1/2+x,1/2+y,1/2+z
1/2-x,-y,1/2+z
1/2+x,1/2-y,-z
-x,1/2+y,1/2-z
loop_
_atom_site_type_symbol
_atom_site_label
_atom_site_fract_x
_atom_site_fract_y
_atom_site_fract_z
Si Si1 0.173614 0.201750 0.572640
Si Si2 0.431685 0.412487 0.482530
Si Si3 0.081162 0.019223 0.056504
Si Si4 0.601408 0.802955 0.381716
O O1 0.250000 0.194737 0.500000
O O2 0.123353 0.300266 0.455557
O O3 0.169153 0.260885 0.769776
O O4 0.133412 0.060083 0.568776
O O5 0.507022 0.441696 0.558983
O O6 0.393364 0.558112 0.488178
O O7 0.444848 0.356098 0.283936
O O8 0.110741 0.000000 0.250000
O O9 0.074868 0.174226 0.990429
#
# Coordination Sequence:
#
# PCOD9335901 Si02
#       4
#     8   8   8   8
#     4  10  23  42  65  93 131 180 229 268 334 412
#     4   9  22  40  71  98 124 181 226 277 342 403
#     4  12  25  39  66 107 137 168 225 290 342 399
#     4   9  22  41  72  94 130 177 224 273 344 409
#
# _framework density 22.092559000000001
#
# number of rings (size 3 to 8) (size 9 to 14) (size 15 to 20)
#    1.500    0.500    0.000    2.250   10.500    6.000 
#    0.000    8.750    0.000    0.000    0.000    0.000 
#    0.000    0.000    0.000    0.000    0.000    0.000 
#
# Total GULP energy -89079.658179 kJ/mol
# GULP energy per Si atom -5567.478636 kJ/mol
# Density = 2.204228 g / cm^3
# Si number density = 22.092559 Si / 1000 Ang^3
#
#
#
# Elastic Constant Matrix: (Units=GPa)
#
#
# Indices 1 2 3 4 5 6 
#
# 1 95.3020 61.2934 25.8244 0.0000 0.0000 0.0000
# 2 61.2934 167.9593 18.3099 0.0000 0.0000 0.0000
# 3 25.8244 18.3099 42.2707 0.0000 0.0000 0.0000
# 4 0.0000 0.0000 0.0000 22.5903 0.0000 0.0000
# 5 0.0000 0.0000 0.0000 0.0000 24.6970 0.0000
# 6 0.0000 0.0000 0.0000 0.0000 0.0000 -8.6661
#
#
#
# Elastic Compliance Matrix: (Units=1/GPa)
#
#
# Indices 1 2 3 4 5 6 
#
# 1 0.015665 -0.004905 -0.007446 0.000000 0.000000 0.000000
# 2 -0.004905 0.007785 -0.000375 0.000000 0.000000 0.000000
# 3 -0.007446 -0.000375 0.028368 0.000000 0.000000 0.000000
# 4 0.000000 0.000000 0.000000 0.044267 0.000000 0.000000
# 5 0.000000 0.000000 0.000000 0.000000 0.040491 0.000000
# 6 0.000000 0.000000 0.000000 0.000000 0.000000 -0.115393
#
#
# Mechanical properties :
#
#
# Convention : Reuss Voigt Hill
#
# Bulk Modulus (GPa) = 37.92742 57.37639 47.65190
# Shear Modulus (GPa) = 90.21303 21.06453 55.63878
#
# Velocity S-wave (km/s) = 6.39709 3.09118 5.02385
# Velocity P-wave (km/s) = 8.47163 6.22638 7.43425
#
# Compressibility (1/GPa) = 0.02636615
#
# Stress axis : x y z
#
# Youngs Moduli (GPa) = 63.83571 128.45648 35.25045
#
# Poissons Ratio (x) = 0.63008 0.26246
# Poissons Ratio (y) = 0.31312 0.01323
# Poissons Ratio (z) = 0.47530 0.04822
#
# Static dielectric constant tensor:
#      x y z
#    x 1.790700 0.000000 0.000000 
#    y 0.000000 1.853910 0.000000 
#    z 0.000000 0.000000 1.879910 
# 
# From -- ./inp_files/14769.got.cif
#   From: 2010.05.17/outbox.cif.g08.bks.cpg/sg24_8_cif.got.tgz:14769.got - 2010.06.04 00:33:39.
