data_PCOD9335972
_publ_section_title
;
Structure prediction by ZEFSAII (Michael W. Deem and Ramdas Pophale) SiO2 
 PCOD9335972
Probable space group: I 21 21 21
;
_chemical_formula_sum "Si O2"
_cell_formula_units_Z 48
_cell_length_a 9.736057
_cell_length_b 30.558153
_cell_length_c 7.291662
_cell_angle_alpha 90.000000
_cell_angle_beta 90.000000
_cell_angle_gamma 90.000000
_cell_volume 2169.385524
_symmetry_space_group_name_H-M "I 21 21 21"
_symmetry_group_IT_number 24
_symmetry_cell_setting 'orthorhombic'
loop_
_space_group_symop_operation_xyz
x,y,z
-x,1/2-y,z
x,-y,1/2-z
1/2-x,y,-z
1/2+x,1/2+y,1/2+z
1/2-x,-y,1/2+z
1/2+x,1/2-y,-z
-x,1/2+y,1/2-z
loop_
_atom_site_type_symbol
_atom_site_label
_atom_site_fract_x
_atom_site_fract_y
_atom_site_fract_z
Si Si1 0.594304 0.192106 0.973479
Si Si2 0.363409 0.261066 0.615322
Si Si3 0.673112 0.312809 0.191901
Si Si4 0.597386 0.088482 0.021366
Si Si5 0.123719 0.052149 0.260254
Si Si6 0.099152 0.906576 0.836543
O O1 0.566392 0.209904 0.772164
O O2 0.600581 0.140007 0.975572
O O3 0.750000 0.209193 0.000000
O O4 0.473661 0.203823 0.113918
O O5 0.500000 0.250000 0.500023
O O6 0.250000 0.287242 0.500000
O O7 0.269847 0.221731 0.700720
O O8 0.640168 0.355310 0.316328
O O9 0.750000 0.325756 0.000000
O O10 0.487659 0.068313 0.883858
O O11 0.750000 0.070234 0.000000
O O12 0.540492 0.085400 0.227033
O O13 0.092114 0.073785 0.459781
O O14 0.278729 0.068596 0.229252
O O15 0.123676 0.000000 0.250000
#
# Coordination Sequence:
#
# PCOD9335972 Si02
#       6
#     8   8   8   8   8   8
#     4  10  23  44  68  94 132 189 232 289 356 424
#     4  12  28  41  64 102 141 184 241 309 360 430
#     4  11  22  45  72  96 139 193 244 292 366 428
#     4  10  23  47  69  99 143 188 234 285 363 430
#     4  11  25  43  71 108 139 181 231 300 362 429
#     4  10  24  42  75 105 137 184 236 295 353 441
#
# _framework density 22.126080999999999
#
# number of rings (size 3 to 8) (size 9 to 14) (size 15 to 20)
#    0.000    1.333    1.667    3.000    9.333    0.667 
#    9.000    0.000    0.000    0.000    0.000    0.000 
#    0.000    0.000    0.000    0.000    0.000    0.000 
#
# Total GULP energy -134059.201141 kJ/mol
# GULP energy per Si atom -5585.800048 kJ/mol
# Density = 2.207572 g / cm^3
# Si number density = 22.126081 Si / 1000 Ang^3
#
#
#
# Elastic Constant Matrix: (Units=GPa)
#
#
# Indices 1 2 3 4 5 6 
#
# 1 158.9532 26.5516 31.5295 -0.0015 0.0005 -0.0032
# 2 26.5516 90.8378 39.2045 0.0036 0.0003 0.0010
# 3 31.5295 39.2045 88.4415 -0.0271 -0.0131 -0.0140
# 4 -0.0015 0.0036 -0.0271 28.2934 -0.0071 -0.0014
# 5 0.0005 0.0003 -0.0131 -0.0071 18.2304 0.0001
# 6 -0.0032 0.0010 -0.0140 -0.0014 0.0001 6.7382
#
#
#
# Elastic Compliance Matrix: (Units=1/GPa)
#
#
# Indices 1 2 3 4 5 6 
#
# 1 0.006870 -0.001176 -0.001928 -0.000001 -0.000002 -0.000001
# 2 -0.001176 0.013814 -0.005704 -0.000007 -0.000004 -0.000014
# 3 -0.001928 -0.005704 0.014523 0.000015 0.000011 0.000030
# 4 -0.000001 -0.000007 0.000015 0.035344 0.000014 0.000007
# 5 -0.000002 -0.000004 0.000011 0.000014 0.054854 -0.000001
# 6 -0.000001 -0.000014 0.000030 0.000007 -0.000001 0.148407
#
#
# Mechanical properties :
#
#
# Convention : Reuss Voigt Hill
#
# Bulk Modulus (GPa) = 56.84842 59.20040 58.02441
# Shear Modulus (GPa) = 16.81849 26.71551 21.76700
#
# Velocity S-wave (km/s) = 2.76002 3.47857 3.13992
# Velocity P-wave (km/s) = 5.99213 6.55347 6.27908
#
# Compressibility (1/GPa) = 0.01759064
#
# Stress axis : x y z
#
# Youngs Moduli (GPa) = 145.56023 72.38852 68.85698
#
# Poissons Ratio (x) = 0.08513 0.13275
# Poissons Ratio (y) = 0.17119 0.39279
# Poissons Ratio (z) = 0.28062 0.41293
#
# Static dielectric constant tensor:
#      x y z
#    x 1.860190 0.000000 -0.000010 
#    y 0.000000 1.791800 0.000000 
#    z -0.000010 0.000000 1.912710 
# 
# From -- ./inp_files/9711.got.cif
#   From: 2010.05.17/outbox.cif.g08.bks.cpg/sg24_5_cif.got.tgz:9711.got - 2010.06.04 00:33:39.
