data_PCOD9335425
_publ_section_title
;
Structure prediction by ZEFSAII (Michael W. Deem and Ramdas Pophale) SiO2 
 PCOD9335425
Probable space group: I 21 21 21
;
_chemical_formula_sum "Si O2"
_cell_formula_units_Z 32
_cell_length_a 5.123369
_cell_length_b 21.670299
_cell_length_c 12.509586
_cell_angle_alpha 90.000000
_cell_angle_beta 90.000000
_cell_angle_gamma 90.000000
_cell_volume 1388.876012
_symmetry_space_group_name_H-M "I 21 21 21"
_symmetry_group_IT_number 24
_symmetry_cell_setting 'orthorhombic'
loop_
_space_group_symop_operation_xyz
x,y,z
-x,1/2-y,z
x,-y,1/2-z
1/2-x,y,-z
1/2+x,1/2+y,1/2+z
1/2-x,-y,1/2+z
1/2+x,1/2-y,-z
-x,1/2+y,1/2-z
loop_
_atom_site_type_symbol
_atom_site_label
_atom_site_fract_x
_atom_site_fract_y
_atom_site_fract_z
Si Si1 0.941663 0.098404 0.754634
Si Si2 0.007770 0.176414 0.566618
Si Si3 0.999936 0.003593 0.926593
Si Si4 0.755561 0.792643 0.373184
O O1 0.069505 0.151142 0.683461
O O2 0.726428 0.141886 0.811377
O O3 0.074130 0.061760 0.851252
O O4 0.902541 0.047948 0.659839
O O5 0.750000 0.156708 0.500000
O O6 0.000000 0.250000 0.571491
O O7 0.250000 0.154800 0.500000
O O8 0.250000 0.987540 0.000000
O O9 0.750000 0.017334 0.000000
O O10 0.500000 0.750000 0.353262
O O11 0.750000 0.806255 0.500000
O O12 0.000000 0.750000 0.346506
#
# Coordination Sequence:
#
# PCOD9335425 Si02
#       4
#     8   8   8   8
#     4  11  24  43  71  94 131 181 223 274 342 407
#     4  10  22  39  61  93 129 165 213 271 329 396
#     4  11  27  46  66  98 134 175 232 288 335 400
#     4  10  23  41  64  99 137 173 220 278 338 406
#
# _framework density 23.040213000000001
#
# number of rings (size 3 to 8) (size 9 to 14) (size 15 to 20)
#    0.000    1.500    0.000    3.000    0.000   18.000 
#    0.000    0.000    0.000    0.000    0.000    0.000 
#    0.000    0.000    0.000    0.000    0.000    0.000 
#
# Total GULP energy -89128.704655 kJ/mol
# GULP energy per Si atom -5570.544041 kJ/mol
# Density = 2.298777 g / cm^3
# Si number density = 23.040213 Si / 1000 Ang^3
#
#
#
# Elastic Constant Matrix: (Units=GPa)
#
#
# Indices 1 2 3 4 5 6 
#
# 1 134.1987 47.3610 53.4782 0.0000 0.0000 0.0000
# 2 47.3610 107.5941 76.5629 0.0000 0.0000 0.0000
# 3 53.4782 76.5629 157.8521 0.0002 0.0000 0.0000
# 4 0.0000 0.0000 0.0002 204.7296 0.0000 0.0000
# 5 0.0000 0.0000 0.0000 0.0000 17.5722 0.0000
# 6 0.0000 0.0000 0.0000 0.0000 0.0000 15.2946
#
#
#
# Elastic Compliance Matrix: (Units=1/GPa)
#
#
# Indices 1 2 3 4 5 6 
#
# 1 0.009127 -0.002775 -0.001746 0.000000 0.000000 0.000000
# 2 -0.002775 0.015036 -0.006353 0.000000 0.000000 0.000000
# 3 -0.001746 -0.006353 0.010008 0.000000 0.000000 0.000000
# 4 0.000000 0.000000 0.000000 0.004884 0.000000 0.000000
# 5 0.000000 0.000000 0.000000 0.000000 0.056908 0.000000
# 6 0.000000 0.000000 0.000000 0.000000 0.000000 0.065382
#
#
# Mechanical properties :
#
#
# Convention : Reuss Voigt Hill
#
# Bulk Modulus (GPa) = 80.49512 83.82767 82.16140
# Shear Modulus (GPa) = 26.70437 62.33547 44.51992
#
# Velocity S-wave (km/s) = 3.40815 5.20709 4.40053
# Velocity P-wave (km/s) = 7.10633 8.52138 7.84582
#
# Compressibility (1/GPa) = 0.01242311
#
# Stress axis : x y z
#
# Youngs Moduli (GPa) = 109.56770 66.50536 99.92020
#
# Poissons Ratio (x) = 0.18455 0.17447
# Poissons Ratio (y) = 0.30404 0.63479
# Poissons Ratio (z) = 0.19132 0.42251
#
# Static dielectric constant tensor:
#      x y z
#    x 1.608540 0.000000 0.000000 
#    y 0.000000 1.950420 0.000000 
#    z 0.000000 0.000000 1.783400 
# 
# From -- ./inp_files/5252.got.cif
#   From: 2010.05.17/outbox.cif.g08.bks.cpg/sg24_3_cif.got.tgz:5252.got - 2010.06.04 00:33:39.
