data_PCOD9335480
_publ_section_title
;
Structure prediction by ZEFSAII (Michael W. Deem and Ramdas Pophale) SiO2 
 PCOD9335480
Probable space group: I 21 21 21
;
_chemical_formula_sum "Si O2"
_cell_formula_units_Z 40
_cell_length_a 12.269076
_cell_length_b 7.281682
_cell_length_c 18.985119
_cell_angle_alpha 90.000000
_cell_angle_beta 90.000000
_cell_angle_gamma 90.000000
_cell_volume 1696.121226
_symmetry_space_group_name_H-M "I 21 21 21"
_symmetry_group_IT_number 24
_symmetry_cell_setting 'orthorhombic'
loop_
_space_group_symop_operation_xyz
x,y,z
-x,1/2-y,z
x,-y,1/2-z
1/2-x,y,-z
1/2+x,1/2+y,1/2+z
1/2-x,-y,1/2+z
1/2+x,1/2-y,-z
-x,1/2+y,1/2-z
loop_
_atom_site_type_symbol
_atom_site_label
_atom_site_fract_x
_atom_site_fract_y
_atom_site_fract_z
Si Si1 0.825453 0.508383 0.328522
Si Si2 0.955889 0.956562 0.928118
Si Si3 0.754790 0.078600 0.329356
Si Si4 0.030911 0.532260 0.087264
Si Si5 0.101943 0.131709 0.816406
O O1 0.875097 0.500000 0.250000
O O2 0.772108 0.302660 0.335917
O O3 0.729467 0.658675 0.332189
O O4 0.919374 0.552541 0.383808
O O5 0.849915 0.966170 0.878061
O O6 0.000000 0.750000 0.930902
O O7 0.937651 0.019726 0.007808
O O8 0.052731 0.061893 0.889466
O O9 0.868056 0.005523 0.360846
O O10 0.736223 0.000000 0.250000
O O11 0.000000 0.750000 0.087449
O O12 0.000000 0.250000 0.789791
O O13 0.113152 0.000000 0.750000
#
# Coordination Sequence:
#
# PCOD9335480 Si02
#       5
#     8   8   8   8   8
#     4  10  22  40  62  95 126 172 221 268 320 382
#     4  11  21  38  64  95 128 168 214 268 323 385
#     4  11  22  38  65  99 127 170 215 270 321 385
#     4   9  21  40  64  91 132 174 220 259 318 396
#     4  11  24  39  63  93 127 164 216 275 326 382
#
# _framework density 23.583219
#
# number of rings (size 3 to 8) (size 9 to 14) (size 15 to 20)
#    0.000    1.600    2.000    2.400    8.400    0.800 
#    0.000    2.000    4.400    0.000    0.000    0.000 
#    0.000    0.000    0.000    0.000    0.000    0.000 
#
# Total GULP energy -111666.315532 kJ/mol
# GULP energy per Si atom -5583.315777 kJ/mol
# Density = 2.352954 g / cm^3
# Si number density = 23.583219 Si / 1000 Ang^3
#
#
#
# Elastic Constant Matrix: (Units=GPa)
#
#
# Indices 1 2 3 4 5 6 
#
# 1 201.1848 37.4772 110.4206 0.0000 0.0000 0.0000
# 2 37.4772 48.8237 18.5553 0.0000 0.0000 0.0000
# 3 110.4206 18.5553 171.3969 0.0000 0.0000 0.0000
# 4 0.0000 0.0000 0.0000 23.0498 0.0000 0.0000
# 5 0.0000 0.0000 0.0000 0.0000 47.1448 0.0000
# 6 0.0000 0.0000 0.0000 0.0000 0.0000 21.7315
#
#
#
# Elastic Compliance Matrix: (Units=1/GPa)
#
#
# Indices 1 2 3 4 5 6 
#
# 1 0.008611 -0.004695 -0.005039 0.000000 0.000000 0.000000
# 2 -0.004695 0.023920 0.000435 0.000000 0.000000 0.000000
# 3 -0.005039 0.000435 0.009034 0.000000 0.000000 0.000000
# 4 0.000000 0.000000 0.000000 0.043384 0.000000 0.000000
# 5 0.000000 0.000000 0.000000 0.000000 0.021211 0.000000
# 6 0.000000 0.000000 0.000000 0.000000 0.000000 0.046016
#
#
# Mechanical properties :
#
#
# Convention : Reuss Voigt Hill
#
# Bulk Modulus (GPa) = 43.54091 83.81241 63.67666
# Shear Modulus (GPa) = 28.02217 35.38203 31.70210
#
# Velocity S-wave (km/s) = 3.45080 3.87758 3.67040
# Velocity P-wave (km/s) = 5.86346 7.46081 6.70984
#
# Compressibility (1/GPa) = 0.02296691
#
# Stress axis : x y z
#
# Youngs Moduli (GPa) = 116.13254 41.80576 110.69549
#
# Poissons Ratio (x) = 0.19626 0.55782
# Poissons Ratio (y) = 0.54519 -0.04814
# Poissons Ratio (z) = 0.58522 -0.01818
#
# Static dielectric constant tensor:
#      x y z
#    x 3.408260 0.000000 0.000000 
#    y 0.000000 2.219530 0.000000 
#    z 0.000000 0.000000 1.838650 
# 
# From -- ./inp_files/10677.got.cif
#   From: 2010.05.17/outbox.cif.g08.bks.cpg/sg24_6_cif.got.tgz:10677.got - 2010.06.04 00:33:39.
