data_PCOD9335167
_publ_section_title
;
Structure prediction by ZEFSAII (Michael W. Deem and Ramdas Pophale) SiO2 
 PCOD9335167
Probable space group: I 21 21 21
;
_chemical_formula_sum "Si O2"
_cell_formula_units_Z 48
_cell_length_a 8.551346
_cell_length_b 11.697602
_cell_length_c 23.704913
_cell_angle_alpha 90.000000
_cell_angle_beta 90.000000
_cell_angle_gamma 90.000000
_cell_volume 2371.208186
_symmetry_space_group_name_H-M "I 21 21 21"
_symmetry_group_IT_number 24
_symmetry_cell_setting 'orthorhombic'
loop_
_space_group_symop_operation_xyz
x,y,z
-x,1/2-y,z
x,-y,1/2-z
1/2-x,y,-z
1/2+x,1/2+y,1/2+z
1/2-x,-y,1/2+z
1/2+x,1/2-y,-z
-x,1/2+y,1/2-z
loop_
_atom_site_type_symbol
_atom_site_label
_atom_site_fract_x
_atom_site_fract_y
_atom_site_fract_z
Si Si1 0.874154 0.848844 0.195277
Si Si2 0.705340 0.458750 0.935020
Si Si3 0.750000 0.039843 0.000000
Si Si4 0.050397 0.366382 0.426310
Si Si5 0.500000 0.250000 0.894700
Si Si6 0.963021 0.117836 0.898229
Si Si7 0.207855 0.598985 0.312765
O O1 0.763487 0.849682 0.250550
O O2 0.000000 0.750000 0.209608
O O3 0.848951 0.828689 0.128491
O O4 0.901892 0.986652 0.191958
O O5 0.606312 0.564070 0.910688
O O6 0.597154 0.344737 0.929394
O O7 0.870624 0.442021 0.904952
O O8 0.750000 0.478677 0.000000
O O9 0.642515 0.956208 0.963503
O O10 0.857661 0.107760 0.955370
O O11 0.000000 0.250000 0.456740
O O12 0.621167 0.186449 0.853844
O O13 0.864039 0.067324 0.846394
O O14 0.000000 0.250000 0.887630
#
# Coordination Sequence:
#
# PCOD9335167 Si02
#       7
#     8   8   4   8   4   8   8
#     4  10  21  41  73  93 125 178 231 275 324 395
#     4  12  26  40  66 102 141 176 223 272 344 408
#     4  12  24  42  64 100 136 190 218 278 334 408
#     4  11  25  44  69  94 132 184 238 274 331 398
#     4  12  22  40  66  98 130 174 218 276 332 406
#     4  12  26  39  66 101 147 172 217 275 350 402
#     4  11  22  41  68  98 130 174 223 281 331 396
#
# _framework density 20.242844999999999
#
# number of rings (size 3 to 8) (size 9 to 14) (size 15 to 20)
#    0.000    0.667    7.500    0.000    3.500    0.000 
#    0.000    0.000   22.000    0.000    0.000    0.000 
#    0.000    0.000    0.000    0.000    0.000    0.000 
#
# Total GULP energy -133695.622818 kJ/mol
# GULP energy per Si atom -5570.650951 kJ/mol
# Density = 2.019677 g / cm^3
# Si number density = 20.242845 Si / 1000 Ang^3
#
#
#
# Elastic Constant Matrix: (Units=GPa)
#
#
# Indices 1 2 3 4 5 6 
#
# 1 91.9785 30.6663 32.2233 0.0000 0.0000 0.0000
# 2 30.6663 96.5395 7.4185 0.0000 0.0000 0.0000
# 3 32.2233 7.4185 109.4719 0.0000 0.0000 0.0000
# 4 0.0000 0.0000 0.0000 23.3055 0.0000 0.0000
# 5 0.0000 0.0000 0.0000 0.0000 16.9756 0.0000
# 6 0.0000 0.0000 0.0000 0.0000 0.0000 10.7440
#
#
#
# Elastic Compliance Matrix: (Units=1/GPa)
#
#
# Indices 1 2 3 4 5 6 
#
# 1 0.013505 -0.004005 -0.003704 0.000000 0.000000 0.000000
# 2 -0.004005 0.011601 0.000393 0.000000 0.000000 0.000000
# 3 -0.003704 0.000393 0.010198 0.000000 0.000000 0.000000
# 4 0.000000 0.000000 0.000000 0.042908 0.000000 0.000000
# 5 0.000000 0.000000 0.000000 0.000000 0.058908 0.000000
# 6 0.000000 0.000000 0.000000 0.000000 0.000000 0.093075
#
#
# Mechanical properties :
#
#
# Convention : Reuss Voigt Hill
#
# Bulk Modulus (GPa) = 48.37599 48.73401 48.55500
# Shear Modulus (GPa) = 19.86341 25.38379 22.62360
#
# Velocity S-wave (km/s) = 3.13590 3.54498 3.34669
# Velocity P-wave (km/s) = 6.08782 6.39396 6.24277
#
# Compressibility (1/GPa) = 0.02067141
#
# Stress axis : x y z
#
# Youngs Moduli (GPa) = 74.04607 86.20252 98.05486
#
# Poissons Ratio (x) = 0.34527 0.36318
# Poissons Ratio (y) = 0.29658 -0.03852
# Poissons Ratio (z) = 0.27425 -0.03387
#
# Static dielectric constant tensor:
#      x y z
#    x 1.775590 0.000000 0.000000 
#    y 0.000000 1.728060 0.000000 
#    z 0.000000 0.000000 1.762520 
# 
# From -- ./inp_files/35164.got.cif
#   From: 2010.05.17/outbox.cif.g08.bks.cpg/sg24_18_cif.got.tgz:35164.got - 2010.06.04 00:33:39.
