data_PCOD9335389
_publ_section_title
;
Structure prediction by ZEFSAII (Michael W. Deem and Ramdas Pophale) SiO2 
 PCOD9335389
Probable space group: I 21 21 21
;
_chemical_formula_sum "Si O2"
_cell_formula_units_Z 48
_cell_length_a 14.646415
_cell_length_b 14.796610
_cell_length_c 11.265178
_cell_angle_alpha 90.000000
_cell_angle_beta 90.000000
_cell_angle_gamma 90.000000
_cell_volume 2441.358855
_symmetry_space_group_name_H-M "I 21 21 21"
_symmetry_group_IT_number 24
_symmetry_cell_setting 'orthorhombic'
loop_
_space_group_symop_operation_xyz
x,y,z
-x,1/2-y,z
x,-y,1/2-z
1/2-x,y,-z
1/2+x,1/2+y,1/2+z
1/2-x,-y,1/2+z
1/2+x,1/2-y,-z
-x,1/2+y,1/2-z
loop_
_atom_site_type_symbol
_atom_site_label
_atom_site_fract_x
_atom_site_fract_y
_atom_site_fract_z
Si Si1 0.250000 0.652793 0.500000
Si Si2 0.427990 0.895756 0.714419
Si Si3 0.774611 0.255241 0.243057
Si Si4 0.408962 0.299796 0.336153
Si Si5 0.942844 0.051471 0.008627
Si Si6 0.580679 0.854641 0.893205
Si Si7 0.939857 0.000000 0.750000
O O1 0.256720 0.711943 0.616563
O O2 0.345250 0.598839 0.490889
O O3 0.332456 0.844899 0.719590
O O4 0.485121 0.894620 0.590814
O O5 0.490281 0.847604 0.813809
O O6 0.416522 0.000000 0.750000
O O7 0.677927 0.261736 0.307853
O O8 0.835973 0.185792 0.319477
O O9 0.500000 0.250000 0.288965
O O10 0.419936 0.310963 0.477203
O O11 0.394329 0.402182 0.284304
O O12 0.983412 0.024799 0.878907
O O13 0.915597 0.961552 0.081090
#
# Coordination Sequence:
#
# PCOD9335389 Si02
#       7
#     4   8   8   8   8   8   4
#     4  12  24  34  62 100 128 172 216 270 350 386
#     4  10  22  44  69  96 132 181 226 273 333 406
#     4  12  24  40  66  99 131 173 229 277 333 410
#     4  11  24  41  63  98 134 175 223 279 341 393
#     4  10  22  38  63  99 136 168 215 272 340 404
#     4  10  22  39  69  97 133 171 217 277 333 396
#     4  10  22  42  64  92 132 170 216 274 340 398
#
# _framework density 19.661180999999999
#
# number of rings (size 3 to 8) (size 9 to 14) (size 15 to 20)
#    0.000    1.333    3.333    2.000    4.667    1.333 
#    1.500    0.000    3.667    0.000    0.000    0.000 
#    0.000    0.000    0.000    0.000    0.000    0.000 
#
# Total GULP energy -133809.578180 kJ/mol
# GULP energy per Si atom -5575.399091 kJ/mol
# Density = 1.961643 g / cm^3
# Si number density = 19.661181 Si / 1000 Ang^3
#
#
#
# Elastic Constant Matrix: (Units=GPa)
#
#
# Indices 1 2 3 4 5 6 
#
# 1 141.5791 68.1785 36.7975 0.0000 0.0000 0.0000
# 2 68.1785 91.8642 48.8426 0.0000 0.0000 0.0000
# 3 36.7975 48.8426 118.6208 0.0000 0.0000 0.0000
# 4 0.0000 0.0000 0.0000 6.8287 0.0000 0.0000
# 5 0.0000 0.0000 0.0000 0.0000 9.5762 0.0000
# 6 0.0000 0.0000 0.0000 0.0000 0.0000 33.9984
#
#
#
# Elastic Compliance Matrix: (Units=1/GPa)
#
#
# Indices 1 2 3 4 5 6 
#
# 1 0.010992 -0.008123 -0.000065 0.000000 0.000000 0.000000
# 2 -0.008123 0.019940 -0.005690 0.000000 0.000000 0.000000
# 3 -0.000065 -0.005690 0.010793 0.000000 0.000000 0.000000
# 4 0.000000 0.000000 0.000000 0.146441 0.000000 0.000000
# 5 0.000000 0.000000 0.000000 0.000000 0.104425 0.000000
# 6 0.000000 0.000000 0.000000 0.000000 0.000000 0.029413
#
#
# Mechanical properties :
#
#
# Convention : Reuss Voigt Hill
#
# Bulk Modulus (GPa) = 71.59280 73.30014 72.44647
# Shear Modulus (GPa) = 14.10765 23.29703 18.70234
#
# Velocity S-wave (km/s) = 2.68160 3.44601 3.08755
# Velocity P-wave (km/s) = 6.78825 7.29355 7.04543
#
# Compressibility (1/GPa) = 0.01396788
#
# Stress axis : x y z
#
# Youngs Moduli (GPa) = 90.97596 50.15059 92.64880
#
# Poissons Ratio (x) = 0.40739 0.00603
# Poissons Ratio (y) = 0.73902 0.52721
# Poissons Ratio (z) = 0.00592 0.28538
#
# Static dielectric constant tensor:
#      x y z
#    x 1.721310 0.000000 0.000000 
#    y 0.000000 1.718700 0.000000 
#    z 0.000000 0.000000 1.698300 
# 
# From -- ./inp_files/20779.got.cif
#   From: 2010.05.17/outbox.cif.g08.bks.cpg/sg24_11_cif.got.tgz:20779.got - 2010.06.04 00:33:39.
