data_PCOD9335482
_publ_section_title
;
Structure prediction by ZEFSAII (Michael W. Deem and Ramdas Pophale) SiO2 
 PCOD9335482
Probable space group: I 21 21 21
;
_chemical_formula_sum "Si O2"
_cell_formula_units_Z 40
_cell_length_a 12.186434
_cell_length_b 5.132593
_cell_length_c 30.579203
_cell_angle_alpha 90.000000
_cell_angle_beta 90.000000
_cell_angle_gamma 90.000000
_cell_volume 1912.668168
_symmetry_space_group_name_H-M "I 21 21 21"
_symmetry_group_IT_number 24
_symmetry_cell_setting 'orthorhombic'
loop_
_space_group_symop_operation_xyz
x,y,z
-x,1/2-y,z
x,-y,1/2-z
1/2-x,y,-z
1/2+x,1/2+y,1/2+z
1/2-x,-y,1/2+z
1/2+x,1/2-y,-z
-x,1/2+y,1/2-z
loop_
_atom_site_type_symbol
_atom_site_label
_atom_site_fract_x
_atom_site_fract_y
_atom_site_fract_z
Si Si1 0.000000 0.750000 0.279376
Si Si2 0.236937 0.362615 0.176944
Si Si3 0.925334 0.499742 0.545531
Si Si4 0.925236 0.502270 0.448835
Si Si5 0.744839 0.627949 0.120744
Si Si6 0.919172 0.000000 0.750000
O O1 0.967787 0.500000 0.250000
O O2 0.111180 0.658946 0.304870
O O3 0.242680 0.579163 0.138455
O O4 0.332764 0.446874 0.210572
O O5 0.265331 0.073783 0.160325
O O6 0.872863 0.541135 0.497236
O O7 0.851027 0.426643 0.586332
O O8 0.000000 0.750000 0.554816
O O9 0.000000 0.250000 0.539854
O O10 0.847818 0.458641 0.408066
O O11 0.000000 0.250000 0.450856
O O12 0.000000 0.750000 0.441083
O O13 0.000000 0.750000 0.756377
#
# Coordination Sequence:
#
# PCOD9335482 Si02
#       6
#     4   8   8   8   8   4
#     4  12  26  50  78  96 148 176 228 286 350 450
#     4  12  28  45  72 108 128 185 221 286 357 413
#     4  10  22  41  65  91 134 187 231 274 329 396
#     4  10  22  40  62  95 135 182 225 273 337 395
#     4  12  25  41  67 102 138 167 232 279 344 395
#     4  12  28  52  74  98 140 178 228 284 346 428
#
# _framework density 20.913195000000002
#
# number of rings (size 3 to 8) (size 9 to 14) (size 15 to 20)
#    0.000    0.800    1.000    5.400    5.600    4.800 
#    0.000    8.000    0.000    0.000    0.000    0.000 
#    0.000    0.000    0.000    0.000    0.000    0.000 
#
# Total GULP energy -111651.125821 kJ/mol
# GULP energy per Si atom -5582.556291 kJ/mol
# Density = 2.086560 g / cm^3
# Si number density = 20.913195 Si / 1000 Ang^3
#
#
#
# Elastic Constant Matrix: (Units=GPa)
#
#
# Indices 1 2 3 4 5 6 
#
# 1 109.6266 29.5094 35.9538 0.0000 0.0000 0.0000
# 2 29.5094 123.5732 -2.9848 0.0000 0.0000 0.0000
# 3 35.9538 -2.9848 61.3731 0.0000 0.0000 0.0000
# 4 0.0000 0.0000 0.0000 28.1251 0.0000 0.0000
# 5 0.0000 0.0000 0.0000 0.0000 45.4008 0.0000
# 6 0.0000 0.0000 0.0000 0.0000 0.0000 8.0850
#
#
#
# Elastic Compliance Matrix: (Units=1/GPa)
#
#
# Indices 1 2 3 4 5 6 
#
# 1 0.012400 -0.003140 -0.007417 0.000000 0.000000 0.000000
# 2 -0.003140 0.008897 0.002272 0.000000 0.000000 0.000000
# 3 -0.007417 0.002272 0.020749 0.000000 0.000000 0.000000
# 4 0.000000 0.000000 0.000000 0.035555 0.000000 0.000000
# 5 0.000000 0.000000 0.000000 0.000000 0.022026 0.000000
# 6 0.000000 0.000000 0.000000 0.000000 0.000000 0.123686
#
#
# Mechanical properties :
#
#
# Convention : Reuss Voigt Hill
#
# Bulk Modulus (GPa) = 39.25153 46.61443 42.93298
# Shear Modulus (GPa) = 20.13092 31.79515 25.96303
#
# Velocity S-wave (km/s) = 3.10594 3.90338 3.52727
# Velocity P-wave (km/s) = 5.62779 6.53093 6.09611
#
# Compressibility (1/GPa) = 0.02547672
#
# Stress axis : x y z
#
# Youngs Moduli (GPa) = 80.64800 112.39584 48.19475
#
# Poissons Ratio (x) = 0.35294 0.35744
# Poissons Ratio (y) = 0.25325 -0.10951
# Poissons Ratio (z) = 0.59814 -0.25539
#
# Static dielectric constant tensor:
#      x y z
#    x 2.118840 0.000000 0.000000 
#    y 0.000000 1.679970 0.000000 
#    z 0.000000 0.000000 1.791660 
# 
# From -- ./inp_files/37065.got.cif
#   From: 2010.05.17/outbox.cif.g08.bks.cpg/sg24_19_cif.got.tgz:37065.got - 2010.06.04 00:33:39.
