data_PCOD9335738
_publ_section_title
;
Structure prediction by ZEFSAII (Michael W. Deem and Ramdas Pophale) SiO2 
 PCOD9335738
Probable space group: I 21 21 21
;
_chemical_formula_sum "Si O2"
_cell_formula_units_Z 48
_cell_length_a 13.824727
_cell_length_b 8.902680
_cell_length_c 15.459363
_cell_angle_alpha 90.000000
_cell_angle_beta 90.000000
_cell_angle_gamma 90.000000
_cell_volume 1902.693884
_symmetry_space_group_name_H-M "I 21 21 21"
_symmetry_group_IT_number 24
_symmetry_cell_setting 'orthorhombic'
loop_
_space_group_symop_operation_xyz
x,y,z
-x,1/2-y,z
x,-y,1/2-z
1/2-x,y,-z
1/2+x,1/2+y,1/2+z
1/2-x,-y,1/2+z
1/2+x,1/2-y,-z
-x,1/2+y,1/2-z
loop_
_atom_site_type_symbol
_atom_site_label
_atom_site_fract_x
_atom_site_fract_y
_atom_site_fract_z
Si Si1 0.295079 0.150994 0.090865
Si Si2 0.000000 0.250000 0.617376
Si Si3 0.143238 0.301751 0.464532
Si Si4 0.500000 0.250000 0.844747
Si Si5 0.499090 0.500000 0.250000
Si Si6 0.500000 0.250000 0.129466
Si Si7 0.874802 0.488101 0.350409
Si Si8 0.317466 0.571280 0.665196
O O1 0.409563 0.167248 0.087162
O O2 0.250885 0.310500 0.118622
O O3 0.239011 0.031653 0.150574
O O4 0.250000 0.109372 0.000000
O O5 0.921693 0.183489 0.550522
O O6 0.043747 0.120140 0.680494
O O7 0.250000 0.268263 0.500000
O O8 0.110186 0.164735 0.402423
O O9 0.149268 0.449194 0.404894
O O10 0.559627 0.380513 0.893483
O O11 0.411587 0.337469 0.800033
O O12 0.450201 0.379482 0.187726
O O13 0.905677 0.500000 0.250000
O O14 0.270600 0.500000 0.750000
#
# Coordination Sequence:
#
# PCOD9335738 Si02
#       8
#     8   4   8   4   4   4   8   8
#     4  11  27  46  72 110 147 207 255 322 388 459
#     4  11  28  51  77 113 158 196 261 330 373 479
#     4  12  27  47  77 116 152 199 268 325 394 452
#     4  10  22  44  69 103 148 198 248 286 396 475
#     4  10  28  50  78 110 140 214 252 314 394 446
#     4  11  28  49  80 102 156 194 271 306 395 470
#     4  11  25  45  74 112 155 203 254 322 399 476
#     4  11  25  45  74 112 155 203 254 322 399 476
#
# _framework density 25.22739
#
# number of rings (size 3 to 8) (size 9 to 14) (size 15 to 20)
#    0.000    1.000    0.000    4.500   11.667    6.667 
#    0.000    0.000    0.000    0.000    0.000    0.000 
#    0.000    0.000    0.000    0.000    0.000    0.000 
#
# Total GULP energy -133966.606589 kJ/mol
# GULP energy per Si atom -5581.941941 kJ/mol
# Density = 2.516997 g / cm^3
# Si number density = 25.227390 Si / 1000 Ang^3
#
#
#
# Elastic Constant Matrix: (Units=GPa)
#
#
# Indices 1 2 3 4 5 6 
#
# 1 127.8450 7.7521 23.1383 0.0000 0.0000 0.0000
# 2 7.7521 123.1228 43.6138 0.0000 0.0000 0.0000
# 3 23.1383 43.6138 138.0639 0.0000 0.0000 0.0000
# 4 0.0000 0.0000 0.0000 37.5955 0.0000 0.0000
# 5 0.0000 0.0000 0.0000 0.0000 8.6278 0.0000
# 6 0.0000 0.0000 0.0000 0.0000 0.0000 34.3100
#
#
#
# Elastic Compliance Matrix: (Units=1/GPa)
#
#
# Indices 1 2 3 4 5 6 
#
# 1 0.008067 -0.000033 -0.001342 0.000000 0.000000 0.000000
# 2 -0.000033 0.009145 -0.002884 0.000000 0.000000 0.000000
# 3 -0.001342 -0.002884 0.008379 0.000000 0.000000 0.000000
# 4 0.000000 0.000000 0.000000 0.026599 0.000000 0.000000
# 5 0.000000 0.000000 0.000000 0.000000 0.115905 0.000000
# 6 0.000000 0.000000 0.000000 0.000000 0.000000 0.029146
#
#
# Mechanical properties :
#
#
# Convention : Reuss Voigt Hill
#
# Bulk Modulus (GPa) = 58.56387 59.78224 59.17306
# Shear Modulus (GPa) = 23.64647 37.07516 30.36081
#
# Velocity S-wave (km/s) = 3.06491 3.83775 3.47289
# Velocity P-wave (km/s) = 5.98245 6.58684 6.29191
#
# Compressibility (1/GPa) = 0.01707538
#
# Stress axis : x y z
#
# Youngs Moduli (GPa) = 123.96548 109.34376 119.34932
#
# Poissons Ratio (x) = 0.00357 0.16012
# Poissons Ratio (y) = 0.00405 0.34415
# Poissons Ratio (z) = 0.16631 0.31530
#
# Static dielectric constant tensor:
#      x y z
#    x 2.006630 0.000000 0.000000 
#    y 0.000000 2.031890 0.000000 
#    z 0.000000 0.000000 1.993440 
# 
# From -- ./inp_files/30781.got.cif
#   From: 2010.05.17/outbox.cif.g08.bks.cpg/sg24_16_cif.got.tgz:30781.got - 2010.06.04 00:33:39.
