data_PCOD9335208
_publ_section_title
;
Structure prediction by ZEFSAII (Michael W. Deem and Ramdas Pophale) SiO2 
 PCOD9335208
Probable space group: I 21 21 21
;
_chemical_formula_sum "Si O2"
_cell_formula_units_Z 36
_cell_length_a 12.958627
_cell_length_b 8.027336
_cell_length_c 16.453845
_cell_angle_alpha 90.000000
_cell_angle_beta 90.000000
_cell_angle_gamma 90.000000
_cell_volume 1711.582482
_symmetry_space_group_name_H-M "I 21 21 21"
_symmetry_group_IT_number 24
_symmetry_cell_setting 'orthorhombic'
loop_
_space_group_symop_operation_xyz
x,y,z
-x,1/2-y,z
x,-y,1/2-z
1/2-x,y,-z
1/2+x,1/2+y,1/2+z
1/2-x,-y,1/2+z
1/2+x,1/2-y,-z
-x,1/2+y,1/2-z
loop_
_atom_site_type_symbol
_atom_site_label
_atom_site_fract_x
_atom_site_fract_y
_atom_site_fract_z
Si Si1 0.500000 0.250000 0.052177
Si Si2 0.327455 0.355054 0.936304
Si Si3 0.729336 0.540493 0.653962
Si Si4 0.497041 0.054805 0.656248
Si Si5 0.452621 0.064313 0.343761
O O1 0.492615 0.418375 0.104911
O O2 0.400075 0.245213 0.995113
O O3 0.267590 0.235087 0.872445
O O4 0.407885 0.471972 0.890286
O O5 0.250000 0.440662 0.000000
O O6 0.725087 0.500000 0.750000
O O7 0.616446 0.489465 0.623701
O O8 0.832672 0.445177 0.627385
O O9 0.500000 0.250000 0.652745
O O10 0.504450 0.000000 0.750000
O O11 0.500000 0.250000 0.350573
O O12 0.455787 0.000000 0.250000
#
# Coordination Sequence:
#
# PCOD9335208 Si02
#       5
#     4   8   8   8   8
#     4  12  24  44  70 100 148 188 234 308 362 426
#     4  12  24  44  71 103 144 190 236 305 377 424
#     4  10  21  42  69 100 138 188 238 293 362 430
#     4  11  23  43  73 106 142 187 248 304 361 448
#     4  11  24  44  73 106 146 195 246 297 366 449
#
# _framework density 21.033166999999999
#
# number of rings (size 3 to 8) (size 9 to 14) (size 15 to 20)
#    0.000    0.889    5.556    2.667    0.000    2.667 
#    0.000    3.333    0.000    0.000    0.000    0.000 
#    0.000    0.000    0.000    0.000    0.000    0.000 
#
# Total GULP energy -100379.538826 kJ/mol
# GULP energy per Si atom -5576.641046 kJ/mol
# Density = 2.098530 g / cm^3
# Si number density = 21.033167 Si / 1000 Ang^3
#
#
#
# Elastic Constant Matrix: (Units=GPa)
#
#
# Indices 1 2 3 4 5 6 
#
# 1 150.1277 75.2529 48.6807 0.0000 0.0000 0.0000
# 2 75.2529 178.3265 69.1809 0.0000 0.0000 0.0000
# 3 48.6807 69.1809 92.9888 0.0000 0.0000 0.0000
# 4 0.0000 0.0000 0.0000 34.2409 0.0000 0.0000
# 5 0.0000 0.0000 0.0000 0.0000 72.2194 0.0000
# 6 0.0000 0.0000 0.0000 0.0000 0.0000 39.8441
#
#
#
# Elastic Compliance Matrix: (Units=1/GPa)
#
#
# Indices 1 2 3 4 5 6 
#
# 1 0.008879 -0.002732 -0.002615 0.000000 0.000000 0.000000
# 2 -0.002732 0.008724 -0.005060 0.000000 0.000000 0.000000
# 3 -0.002615 -0.005060 0.015888 0.000000 0.000000 0.000000
# 4 0.000000 0.000000 0.000000 0.029205 0.000000 0.000000
# 5 0.000000 0.000000 0.000000 0.000000 0.013847 0.000000
# 6 0.000000 0.000000 0.000000 0.000000 0.000000 0.025098
#
#
# Mechanical properties :
#
#
# Convention : Reuss Voigt Hill
#
# Bulk Modulus (GPa) = 78.89530 89.74135 84.31833
# Shear Modulus (GPa) = 39.46998 44.48278 41.97638
#
# Velocity S-wave (km/s) = 4.33663 4.60378 4.47220
# Velocity P-wave (km/s) = 7.91622 8.42727 8.17574
#
# Compressibility (1/GPa) = 0.01267503
#
# Stress axis : x y z
#
# Youngs Moduli (GPa) = 112.63088 114.63264 62.94238
#
# Poissons Ratio (x) = 0.31318 0.16462
# Poissons Ratio (y) = 0.30771 0.31847
# Poissons Ratio (z) = 0.29458 0.58002
#
# Static dielectric constant tensor:
#      x y z
#    x 1.896610 0.000000 0.000000 
#    y 0.000000 1.752840 0.000000 
#    z 0.000000 0.000000 1.776600 
# 
# From -- ./inp_files/26261.got.cif
#   From: 2010.05.17/outbox.cif.g08.bks.cpg/sg24_14_cif.got.tgz:26261.got - 2010.06.04 00:33:39.
