data_PCOD9335202
_publ_section_title
;
Structure prediction by ZEFSAII (Michael W. Deem and Ramdas Pophale) SiO2 
 PCOD9335202
Probable space group: I 21 21 21
;
_chemical_formula_sum "Si O2"
_cell_formula_units_Z 40
_cell_length_a 15.919920
_cell_length_b 14.530696
_cell_length_c 8.637602
_cell_angle_alpha 90.000000
_cell_angle_beta 90.000000
_cell_angle_gamma 90.000000
_cell_volume 1998.115031
_symmetry_space_group_name_H-M "I 21 21 21"
_symmetry_group_IT_number 24
_symmetry_cell_setting 'orthorhombic'
loop_
_space_group_symop_operation_xyz
x,y,z
-x,1/2-y,z
x,-y,1/2-z
1/2-x,y,-z
1/2+x,1/2+y,1/2+z
1/2-x,-y,1/2+z
1/2+x,1/2-y,-z
-x,1/2+y,1/2-z
loop_
_atom_site_type_symbol
_atom_site_label
_atom_site_fract_x
_atom_site_fract_y
_atom_site_fract_z
Si Si1 0.599912 0.757925 0.941334
Si Si2 0.160846 0.768519 0.713640
Si Si3 0.407672 0.405745 0.809808
Si Si4 0.290622 0.907644 0.831520
Si Si5 0.750000 0.120168 0.000000
Si Si6 0.500000 0.750000 0.491666
O O1 0.500000 0.750000 0.954631
O O2 0.621091 0.845873 0.837629
O O3 0.637468 0.668072 0.857433
O O4 0.639025 0.760643 0.111688
O O5 0.219212 0.858036 0.728004
O O6 0.210109 0.687603 0.627906
O O7 0.076335 0.783702 0.616110
O O8 0.448038 0.500000 0.750000
O O9 0.327288 0.430708 0.917231
O O10 0.465918 0.334693 0.905317
O O11 0.319704 0.000000 0.750000
O O12 0.250000 0.926759 0.000000
#
# Coordination Sequence:
#
# PCOD9335202 Si02
#       6
#     8   8   8   8   4   4
#     4  11  22  43  64  95 133 173 214 274 333 395
#     4  10  21  42  68  92 134 175 218 271 331 392
#     4  11  24  42  66  97 131 176 222 275 335 395
#     4  10  23  40  66  97 127 174 219 270 335 396
#     4  10  22  40  68  92 122 176 218 280 320 388
#     4  10  22  44  66  98 134 174 222 278 334 392
#
# _framework density 20.018868000000001
#
# number of rings (size 3 to 8) (size 9 to 14) (size 15 to 20)
#    0.000    1.600    4.000    0.000    1.400    2.400 
#    7.200    3.000    0.000    0.000    0.000    0.000 
#    0.000    0.000    0.000    0.000    0.000    0.000 
#
# Total GULP energy -111771.566607 kJ/mol
# GULP energy per Si atom -5588.578330 kJ/mol
# Density = 1.997330 g / cm^3
# Si number density = 20.018868 Si / 1000 Ang^3
#
#
#
# Elastic Constant Matrix: (Units=GPa)
#
#
# Indices 1 2 3 4 5 6 
#
# 1 97.9443 34.1891 38.0550 0.0000 0.0000 0.0000
# 2 34.1891 120.0361 63.7970 0.0000 0.0000 0.0000
# 3 38.0550 63.7970 100.2687 0.0000 0.0000 0.0000
# 4 0.0000 0.0000 0.0000 16.7598 0.0000 0.0000
# 5 0.0000 0.0000 0.0000 0.0000 14.3585 0.0000
# 6 0.0000 0.0000 0.0000 0.0000 0.0000 15.1539
#
#
#
# Elastic Compliance Matrix: (Units=1/GPa)
#
#
# Indices 1 2 3 4 5 6 
#
# 1 0.012158 -0.001527 -0.003643 0.000000 0.000000 0.000000
# 2 -0.001527 0.012779 -0.007551 0.000000 0.000000 0.000000
# 3 -0.003643 -0.007551 0.016160 0.000000 0.000000 0.000000
# 4 0.000000 0.000000 0.000000 0.059666 0.000000 0.000000
# 5 0.000000 0.000000 0.000000 0.000000 0.069645 0.000000
# 6 0.000000 0.000000 0.000000 0.000000 0.000000 0.065989
#
#
# Mechanical properties :
#
#
# Convention : Reuss Voigt Hill
#
# Bulk Modulus (GPa) = 63.87515 65.59236 64.73376
# Shear Modulus (GPa) = 18.72239 21.40165 20.06202
#
# Velocity S-wave (km/s) = 3.06148 3.27322 3.16912
# Velocity P-wave (km/s) = 6.66886 6.86452 6.76740
#
# Compressibility (1/GPa) = 0.01565554
#
# Stress axis : x y z
#
# Youngs Moduli (GPa) = 82.24853 78.25263 61.87928
#
# Poissons Ratio (x) = 0.11947 0.22543
# Poissons Ratio (y) = 0.12557 0.46728
# Poissons Ratio (z) = 0.29963 0.59092
#
# Static dielectric constant tensor:
#      x y z
#    x 1.733150 0.000000 0.000000 
#    y 0.000000 1.651100 0.000000 
#    z 0.000000 0.000000 1.708120 
# 
# From -- ./inp_files/10781.got.cif
#   From: 2010.05.17/outbox.cif.g08.bks.cpg/sg24_6_cif.got.tgz:10781.got - 2010.06.04 00:33:39.
