data_PCOD9335700
_publ_section_title
;
Structure prediction by ZEFSAII (Michael W. Deem and Ramdas Pophale) SiO2 
 PCOD9335700
Probable space group: I 21 21 21
;
_chemical_formula_sum "Si O2"
_cell_formula_units_Z 40
_cell_length_a 20.948199
_cell_length_b 9.253035
_cell_length_c 8.254980
_cell_angle_alpha 90.000000
_cell_angle_beta 90.000000
_cell_angle_gamma 90.000000
_cell_volume 1600.099248
_symmetry_space_group_name_H-M "I 21 21 21"
_symmetry_group_IT_number 24
_symmetry_cell_setting 'orthorhombic'
loop_
_space_group_symop_operation_xyz
x,y,z
-x,1/2-y,z
x,-y,1/2-z
1/2-x,y,-z
1/2+x,1/2+y,1/2+z
1/2-x,-y,1/2+z
1/2+x,1/2-y,-z
-x,1/2+y,1/2-z
loop_
_atom_site_type_symbol
_atom_site_label
_atom_site_fract_x
_atom_site_fract_y
_atom_site_fract_z
Si Si1 0.672752 0.804125 0.610397
Si Si2 0.494708 0.106954 0.368565
Si Si3 0.061430 0.832959 0.208885
Si Si4 0.692335 0.327281 0.224036
Si Si5 0.356759 0.424964 0.418918
O O1 0.619805 0.766244 0.742241
O O2 0.655636 0.716815 0.443155
O O3 0.738075 0.739398 0.680492
O O4 0.672917 0.972719 0.557603
O O5 0.500000 0.250000 0.262136
O O6 0.453861 0.151449 0.520441
O O7 0.565603 0.058443 0.423039
O O8 0.460656 0.000000 0.250000
O O9 0.000000 0.750000 0.282468
O O10 0.070566 0.000000 0.250000
O O11 0.695248 0.500000 0.250000
O O12 0.666050 0.238260 0.379895
O O13 0.337054 0.500000 0.250000
#
# Coordination Sequence:
#
# PCOD9335700 Si02
#       5
#     8   8   8   8   8
#     4  10  22  45  69 100 143 187 243 302 363 444
#     4  10  23  42  66 100 138 183 235 287 357 438
#     4  11  24  42  68 102 141 187 237 304 370 432
#     4  10  22  43  70 104 145 193 244 302 368 436
#     4   9  20  42  68  97 137 190 242 295 365 446
#
# _framework density 24.998449000000001
#
# number of rings (size 3 to 8) (size 9 to 14) (size 15 to 20)
#    0.000    2.000    0.000    1.800    0.000    9.600 
#    0.000   45.000    0.000    0.000    0.000    0.000 
#    0.000    0.000    0.000    0.000    0.000    0.000 
#
# Total GULP energy -111733.922616 kJ/mol
# GULP energy per Si atom -5586.696131 kJ/mol
# Density = 2.494155 g / cm^3
# Si number density = 24.998449 Si / 1000 Ang^3
#
#
#
# Elastic Constant Matrix: (Units=GPa)
#
#
# Indices 1 2 3 4 5 6 
#
# 1 122.0996 44.7276 52.4951 0.0000 0.0000 0.0000
# 2 44.7276 199.9598 69.2647 0.0000 0.0000 0.0000
# 3 52.4951 69.2647 110.7681 0.0000 0.0000 0.0000
# 4 0.0000 0.0000 0.0000 10.4708 0.0000 0.0000
# 5 0.0000 0.0000 0.0000 0.0000 30.2911 0.0000
# 6 0.0000 0.0000 0.0000 0.0000 0.0000 36.8072
#
#
#
# Elastic Compliance Matrix: (Units=1/GPa)
#
#
# Indices 1 2 3 4 5 6 
#
# 1 0.010382 -0.000789 -0.004427 0.000000 0.000000 0.000000
# 2 -0.000789 0.006444 -0.003655 0.000000 0.000000 0.000000
# 3 -0.004427 -0.003655 0.013412 0.000000 0.000000 0.000000
# 4 0.000000 0.000000 0.000000 0.095504 0.000000 0.000000
# 5 0.000000 0.000000 0.000000 0.000000 0.033013 0.000000
# 6 0.000000 0.000000 0.000000 0.000000 0.000000 0.027169
#
#
# Mechanical properties :
#
#
# Convention : Reuss Voigt Hill
#
# Bulk Modulus (GPa) = 80.03223 85.08914 82.56068
# Shear Modulus (GPa) = 24.05801 33.26983 28.66392
#
# Velocity S-wave (km/s) = 3.10559 3.65207 3.38986
# Velocity P-wave (km/s) = 6.70403 7.20383 6.95842
#
# Compressibility (1/GPa) = 0.01249497
#
# Stress axis : x y z
#
# Youngs Moduli (GPa) = 96.31689 155.19074 74.56121
#
# Poissons Ratio (x) = 0.12242 0.33009
# Poissons Ratio (y) = 0.07598 0.27256
# Poissons Ratio (z) = 0.42641 0.56730
#
# Static dielectric constant tensor:
#      x y z
#    x 2.016350 0.000000 0.000000 
#    y 0.000000 2.193550 0.000000 
#    z 0.000000 0.000000 2.053440 
# 
# From -- ./inp_files/15637.got.cif
#   From: 2010.05.17/outbox.cif.g08.bks.cpg/sg24_8_cif.got.tgz:15637.got - 2010.06.04 00:33:39.
