data_PCOD9335261
_publ_section_title
;
Structure prediction by ZEFSAII (Michael W. Deem and Ramdas Pophale) SiO2 
 PCOD9335261
Probable space group: I 21 21 21
;
_chemical_formula_sum "Si O2"
_cell_formula_units_Z 60
_cell_length_a 16.622273
_cell_length_b 8.001045
_cell_length_c 21.735036
_cell_angle_alpha 90.000000
_cell_angle_beta 90.000000
_cell_angle_gamma 90.000000
_cell_volume 2890.663160
_symmetry_space_group_name_H-M "I 21 21 21"
_symmetry_group_IT_number 24
_symmetry_cell_setting 'orthorhombic'
loop_
_space_group_symop_operation_xyz
x,y,z
-x,1/2-y,z
x,-y,1/2-z
1/2-x,y,-z
1/2+x,1/2+y,1/2+z
1/2-x,-y,1/2+z
1/2+x,1/2-y,-z
-x,1/2+y,1/2-z
loop_
_atom_site_type_symbol
_atom_site_label
_atom_site_fract_x
_atom_site_fract_y
_atom_site_fract_z
Si Si1 0.707013 0.927052 0.060972
Si Si2 0.160920 0.605270 0.368562
Si Si3 0.980520 0.049900 0.554480
Si Si4 0.496911 0.950037 0.922286
Si Si5 0.965410 0.563982 0.815790
Si Si6 0.292447 0.803621 0.181536
Si Si7 0.132217 0.975287 0.318608
Si Si8 0.257677 0.500000 0.750000
O O1 0.615215 0.973569 0.047453
O O2 0.702931 0.795687 0.116952
O O3 0.764889 0.076716 0.084573
O O4 0.750000 0.856893 0.000000
O O5 0.079394 0.535506 0.398626
O O6 0.154118 0.787762 0.338961
O O7 0.185527 0.497993 0.309171
O O8 0.020596 0.984495 0.491479
O O9 0.000000 0.250000 0.556475
O O10 0.007306 0.978458 0.620477
O O11 0.500000 0.750000 0.928056
O O12 0.430081 0.976600 0.871136
O O13 0.994448 0.500000 0.750000
O O14 0.869330 0.577981 0.815131
O O15 0.000000 0.750000 0.819404
O O16 0.293968 0.666898 0.237114
O O17 0.211181 0.909528 0.182867
O O18 0.096413 0.000000 0.250000
#
# Coordination Sequence:
#
# PCOD9335261 Si02
#       8
#     8   8   8   8   8   8   8   4
#     4  11  21  42  74  96 130 176 234 280 338 406
#     4  11  24  42  67  98 137 181 224 276 347 403
#     4  10  21  44  67 100 131 170 229 285 334 409
#     4  11  24  42  73  98 134 178 232 280 339 408
#     4  11  24  42  67  98 135 174 225 281 344 404
#     4  11  23  42  67  98 135 178 229 279 341 410
#     4  12  26  44  65 101 146 179 221 284 341 419
#     4  10  22  38  68  94 126 180 228 274 332 398
#
# _framework density 20.756481999999998
#
# number of rings (size 3 to 8) (size 9 to 14) (size 15 to 20)
#    0.000    1.067    5.333    2.400    3.733    0.000 
#    0.000    3.333    0.000    0.000    0.000    0.000 
#    0.000    0.000    0.000    0.000    0.000    0.000 
#
# Total GULP energy -167376.716413 kJ/mol
# GULP energy per Si atom -5579.223880 kJ/mol
# Density = 2.070924 g / cm^3
# Si number density = 20.756482 Si / 1000 Ang^3
#
#
#
# Elastic Constant Matrix: (Units=GPa)
#
#
# Indices 1 2 3 4 5 6 
#
# 1 109.5935 9.3095 45.6125 0.0000 0.0000 0.0000
# 2 9.3095 51.7637 6.3578 0.0000 0.0000 0.0000
# 3 45.6125 6.3578 167.3402 0.0000 0.0000 0.0000
# 4 0.0000 0.0000 0.0000 11.4486 0.0000 0.0000
# 5 0.0000 0.0000 0.0000 0.0000 33.4214 0.0000
# 6 0.0000 0.0000 0.0000 0.0000 0.0000 -40.6856
#
#
#
# Elastic Compliance Matrix: (Units=1/GPa)
#
#
# Indices 1 2 3 4 5 6 
#
# 1 0.010412 -0.001531 -0.002780 0.000000 0.000000 0.000000
# 2 -0.001531 0.019634 -0.000329 0.000000 0.000000 0.000000
# 3 -0.002780 -0.000329 0.006746 0.000000 0.000000 0.000000
# 4 0.000000 0.000000 0.000000 0.087347 0.000000 0.000000
# 5 0.000000 0.000000 0.000000 0.000000 0.029921 0.000000
# 6 0.000000 0.000000 0.000000 0.000000 0.000000 -0.024579
#
#
# Mechanical properties :
#
#
# Convention : Reuss Voigt Hill
#
# Bulk Modulus (GPa) = 36.34647 50.13967 43.24307
# Shear Modulus (GPa) = 33.79947 18.66472 26.23209
#
# Velocity S-wave (km/s) = 4.03970 3.00196 3.55886
# Velocity P-wave (km/s) = 6.26959 6.01866 6.14541
#
# Compressibility (1/GPa) = 0.02751299
#
# Stress axis : x y z
#
# Youngs Moduli (GPa) = 96.04660 50.93133 148.23541
#
# Poissons Ratio (x) = 0.07798 0.41206
# Poissons Ratio (y) = 0.14705 0.04872
# Poissons Ratio (z) = 0.26699 0.01674
#
# Static dielectric constant tensor:
#      x y z
#    x 1.788540 0.000000 0.000000 
#    y 0.000000 2.149580 0.000000 
#    z 0.000000 0.000000 1.804960 
# 
# From -- ./inp_files/35817.got.cif
#   From: 2010.05.17/outbox.cif.g08.bks.cpg/sg24_18_cif.got.tgz:35817.got - 2010.06.04 00:33:39.
