data_PCOD9335033
_publ_section_title
;
Structure prediction by ZEFSAII (Michael W. Deem and Ramdas Pophale) SiO2 
 PCOD9335033
Probable space group: I 21 21 21
;
_chemical_formula_sum "Si O2"
_cell_formula_units_Z 56
_cell_length_a 13.792173
_cell_length_b 21.396740
_cell_length_c 10.177592
_cell_angle_alpha 90.000000
_cell_angle_beta 90.000000
_cell_angle_gamma 90.000000
_cell_volume 3003.484135
_symmetry_space_group_name_H-M "I 21 21 21"
_symmetry_group_IT_number 24
_symmetry_cell_setting 'orthorhombic'
loop_
_space_group_symop_operation_xyz
x,y,z
-x,1/2-y,z
x,-y,1/2-z
1/2-x,y,-z
1/2+x,1/2+y,1/2+z
1/2-x,-y,1/2+z
1/2+x,1/2-y,-z
-x,1/2+y,1/2-z
loop_
_atom_site_type_symbol
_atom_site_label
_atom_site_fract_x
_atom_site_fract_y
_atom_site_fract_z
Si Si1 0.903448 0.009554 0.090620
Si Si2 0.988456 0.319656 0.777056
Si Si3 0.777133 0.565691 0.303582
Si Si4 0.296423 0.678737 0.233513
Si Si5 0.284619 0.814900 0.147490
Si Si6 0.750000 0.112508 0.000000
Si Si7 0.250000 0.590237 0.000000
Si Si8 0.585111 0.428175 0.035914
O O1 0.005193 0.023257 0.017254
O O2 0.911950 0.000000 0.250000
O O3 0.834827 0.069148 0.059753
O O4 0.844065 0.953858 0.019629
O O5 0.899458 0.321072 0.675346
O O6 0.000000 0.250000 0.837250
O O7 0.089355 0.328003 0.703397
O O8 0.966695 0.371878 0.886289
O O9 0.815837 0.500000 0.250000
O O10 0.760699 0.621201 0.201632
O O11 0.672555 0.549165 0.369280
O O12 0.852670 0.592220 0.409648
O O13 0.260681 0.749899 0.221265
O O14 0.285683 0.654346 0.380387
O O15 0.248201 0.633782 0.127761
O O16 0.250000 0.806475 0.000000
#
# Coordination Sequence:
#
# PCOD9335033 Si02
#       8
#     8   8   8   8   8   4   4   8
#     4  11  22  38  58  93 130 165 212 262 314 380
#     4   9  20  38  65  91 124 163 211 262 319 395
#     4  10  23  41  63  89 122 166 214 268 325 376
#     4  11  21  42  64  94 130 171 211 260 322 387
#     4  10  22  40  66  92 125 165 214 267 323 383
#     4  11  22  38  66  90 129 174 208 258 319 374
#     4  11  24  38  62  90 133 168 208 256 315 388
#     4  10  21  40  60  91 121 161 215 261 323 378
#
# _framework density 18.645012000000001
#
# number of rings (size 3 to 8) (size 9 to 14) (size 15 to 20)
#    0.000    1.714    3.571    0.429    2.000    5.714 
#    2.571    0.000    0.000    0.000    0.000    0.000 
#    0.000    0.000    0.000    0.000    0.000    0.000 
#
# Total GULP energy -156007.175446 kJ/mol
# GULP energy per Si atom -5571.684837 kJ/mol
# Density = 1.860258 g / cm^3
# Si number density = 18.645012 Si / 1000 Ang^3
#
#
#
# Elastic Constant Matrix: (Units=GPa)
#
#
# Indices 1 2 3 4 5 6 
#
# 1 59.2959 28.6699 13.7290 -0.0001 0.0000 0.0011
# 2 28.6699 97.4011 41.9175 0.0000 0.0000 0.0012
# 3 13.7290 41.9175 90.6477 -0.0001 0.0000 0.0052
# 4 -0.0001 0.0000 -0.0001 24.8251 0.0000 0.0023
# 5 0.0000 0.0000 0.0000 0.0000 19.0226 -0.0015
# 6 0.0011 0.0012 0.0052 0.0023 -0.0015 728.0065
#
#
#
# Elastic Compliance Matrix: (Units=1/GPa)
#
#
# Indices 1 2 3 4 5 6 
#
# 1 0.019673 -0.005629 -0.000377 0.000000 0.000000 0.000000
# 2 -0.005629 0.014428 -0.005819 0.000000 0.000000 0.000000
# 3 -0.000377 -0.005819 0.013780 0.000000 0.000000 0.000000
# 4 0.000000 0.000000 0.000000 0.040282 0.000000 0.000000
# 5 0.000000 0.000000 0.000000 0.000000 0.052569 0.000000
# 6 0.000000 0.000000 0.000000 0.000000 0.000000 0.001374
#
#
# Mechanical properties :
#
#
# Convention : Reuss Voigt Hill
#
# Bulk Modulus (GPa) = 41.26857 46.21971 43.74414
# Shear Modulus (GPa) = 28.76335 165.23939 97.00137
#
# Velocity S-wave (km/s) = 3.93196 9.42424 7.22069
# Velocity P-wave (km/s) = 6.54184 11.96933 9.64522
#
# Compressibility (1/GPa) = 0.02423151
#
# Stress axis : x y z
#
# Youngs Moduli (GPa) = 50.83027 69.30949 72.57007
#
# Poissons Ratio (x) = 0.39012 0.02734
# Poissons Ratio (y) = 0.28611 0.42231
# Poissons Ratio (z) = 0.01915 0.40334
#
# Static dielectric constant tensor:
#      x y z
#    x 1.659280 0.000000 0.000000 
#    y 0.000000 1.661990 0.000000 
#    z 0.000000 0.000000 1.618860 
# 
# From -- ./inp_files/13205.got.cif
#   From: 2010.05.17/outbox.cif.g08.bks.cpg/sg24_7_cif.got.tgz:13205.got - 2010.06.04 00:33:39.
