data_PCOD9335354
_publ_section_title
;
Structure prediction by ZEFSAII (Michael W. Deem and Ramdas Pophale) SiO2 
 PCOD9335354
Probable space group: I 21 21 21
;
_chemical_formula_sum "Si O2"
_cell_formula_units_Z 48
_cell_length_a 22.440623
_cell_length_b 5.424876
_cell_length_c 19.207461
_cell_angle_alpha 90.000000
_cell_angle_beta 90.000000
_cell_angle_gamma 90.000000
_cell_volume 2338.270149
_symmetry_space_group_name_H-M "I 21 21 21"
_symmetry_group_IT_number 24
_symmetry_cell_setting 'orthorhombic'
loop_
_space_group_symop_operation_xyz
x,y,z
-x,1/2-y,z
x,-y,1/2-z
1/2-x,y,-z
1/2+x,1/2+y,1/2+z
1/2-x,-y,1/2+z
1/2+x,1/2-y,-z
-x,1/2+y,1/2-z
loop_
_atom_site_type_symbol
_atom_site_label
_atom_site_fract_x
_atom_site_fract_y
_atom_site_fract_z
Si Si1 0.783367 0.080961 0.180211
Si Si2 0.056106 0.064793 0.331399
Si Si3 0.936193 0.784393 0.465500
Si Si4 0.140998 0.336768 0.419671
Si Si5 0.185499 0.949495 0.521231
Si Si6 0.209773 0.926351 0.821341
O O1 0.759637 0.357216 0.184411
O O2 0.817257 0.000000 0.250000
O O3 0.823126 0.061368 0.112477
O O4 0.733932 0.856912 0.177387
O O5 0.118234 0.188893 0.353126
O O6 0.000000 0.250000 0.340918
O O7 0.055781 0.000000 0.250000
O O8 0.056055 0.847060 0.389506
O O9 0.877443 0.681002 0.503666
O O10 0.000000 0.750000 0.501066
O O11 0.918815 0.069118 0.456039
O O12 0.181839 0.187364 0.471348
O O13 0.250000 0.832274 0.500000
O O14 0.183707 0.019947 0.602479
O O15 0.174192 0.000000 0.750000
#
# Coordination Sequence:
#
# PCOD9335354 Si02
#       6
#     8   8   8   8   8   8
#     4  10  22  37  61  90 134 171 215 267 329 390
#     4  11  24  38  57  84 123 174 230 271 313 376
#     4  11  24  42  61  88 127 171 221 267 330 396
#     4  11  24  37  59  86 127 170 223 268 326 388
#     4  11  23  40  64  97 127 167 217 274 332 398
#     4  10  22  42  63  96 130 171 212 273 341 404
#
# _framework density 20.527996999999999
#
# number of rings (size 3 to 8) (size 9 to 14) (size 15 to 20)
#    0.000    1.333    3.333    1.500    7.000    1.333 
#    0.000    0.000    0.000    0.000    4.333    0.000 
#    0.000    0.000    0.000    0.000    0.000    0.000 
#
# Total GULP energy -133664.560520 kJ/mol
# GULP energy per Si atom -5569.356688 kJ/mol
# Density = 2.048127 g / cm^3
# Si number density = 20.527997 Si / 1000 Ang^3
#
#
#
# Elastic Constant Matrix: (Units=GPa)
#
#
# Indices 1 2 3 4 5 6 
#
# 1 103.8647 29.7495 52.4353 0.0000 0.0000 0.0000
# 2 29.7495 66.8838 12.2604 0.0000 0.0000 0.0000
# 3 52.4353 12.2604 130.5416 0.0000 0.0000 0.0000
# 4 0.0000 0.0000 0.0000 24.4500 0.0000 0.0000
# 5 0.0000 0.0000 0.0000 0.0000 24.3910 0.0000
# 6 0.0000 0.0000 0.0000 0.0000 0.0000 33.9664
#
#
#
# Elastic Compliance Matrix: (Units=1/GPa)
#
#
# Indices 1 2 3 4 5 6 
#
# 1 0.013619 -0.005143 -0.004987 0.000000 0.000000 0.000000
# 2 -0.005143 0.017156 0.000455 0.000000 0.000000 0.000000
# 3 -0.004987 0.000455 0.009621 0.000000 0.000000 0.000000
# 4 0.000000 0.000000 0.000000 0.040900 0.000000 0.000000
# 5 0.000000 0.000000 0.000000 0.000000 0.040999 0.000000
# 6 0.000000 0.000000 0.000000 0.000000 0.000000 0.029441
#
#
# Mechanical properties :
#
#
# Convention : Reuss Voigt Hill
#
# Bulk Modulus (GPa) = 47.52041 54.46453 50.99247
# Shear Modulus (GPa) = 28.07388 30.35114 29.21251
#
# Velocity S-wave (km/s) = 3.70211 3.84933 3.77644
# Velocity P-wave (km/s) = 6.43999 6.80778 6.62644
#
# Compressibility (1/GPa) = 0.02104359
#
# Stress axis : x y z
#
# Youngs Moduli (GPa) = 73.42723 58.28970 103.93964
#
# Poissons Ratio (x) = 0.29981 0.51838
# Poissons Ratio (y) = 0.37767 -0.04726
# Poissons Ratio (z) = 0.36621 -0.02651
#
# Static dielectric constant tensor:
#      x y z
#    x 1.769990 0.000000 0.000000 
#    y 0.000000 1.843880 0.000000 
#    z 0.000000 0.000000 1.804170 
# 
# From -- ./inp_files/31502.got.cif
#   From: 2010.05.17/outbox.cif.g08.bks.cpg/sg24_16_cif.got.tgz:31502.got - 2010.06.04 00:33:39.
