data_PCOD9335892
_publ_section_title
;
Structure prediction by ZEFSAII (Michael W. Deem and Ramdas Pophale) SiO2 
 PCOD9335892
Probable space group: I 21 21 21
;
_chemical_formula_sum "Si O2"
_cell_formula_units_Z 56
_cell_length_a 14.306288
_cell_length_b 11.219409
_cell_length_c 15.258705
_cell_angle_alpha 90.000000
_cell_angle_beta 90.000000
_cell_angle_gamma 90.000000
_cell_volume 2449.145692
_symmetry_space_group_name_H-M "I 21 21 21"
_symmetry_group_IT_number 24
_symmetry_cell_setting 'orthorhombic'
loop_
_space_group_symop_operation_xyz
x,y,z
-x,1/2-y,z
x,-y,1/2-z
1/2-x,y,-z
1/2+x,1/2+y,1/2+z
1/2-x,-y,1/2+z
1/2+x,1/2-y,-z
-x,1/2+y,1/2-z
loop_
_atom_site_type_symbol
_atom_site_label
_atom_site_fract_x
_atom_site_fract_y
_atom_site_fract_z
Si Si1 0.744188 0.208457 0.368159
Si Si2 0.896514 0.298536 0.492650
Si Si3 0.519426 0.542209 0.495513
Si Si4 0.480025 0.114837 0.184380
Si Si5 0.628380 0.985490 0.647690
Si Si6 0.224541 0.127260 0.793911
Si Si7 0.899936 0.277156 0.123827
O O1 0.829705 0.285856 0.408899
O O2 0.656959 0.223437 0.432767
O O3 0.719139 0.265540 0.275933
O O4 0.786365 0.076566 0.363354
O O5 0.909176 0.434582 0.521747
O O6 0.000000 0.250000 0.478455
O O7 0.468145 0.578608 0.405689
O O8 0.452200 0.494833 0.574627
O O9 0.567967 0.658836 0.535570
O O10 0.500000 0.250000 0.218626
O O11 0.371861 0.128841 0.153458
O O12 0.489622 0.000000 0.250000
O O13 0.652278 0.848896 0.625905
O O14 0.597824 0.000000 0.750000
O O15 0.325539 0.134613 0.836292
O O16 0.220285 0.000000 0.750000
O O17 0.000000 0.250000 0.170999
#
# Coordination Sequence:
#
# PCOD9335892 Si02
#       7
#     8   8   8   8   8   8   8
#     4  11  24  42  69 109 149 193 261 305 387 448
#     4  11  23  43  69 105 150 202 246 319 373 459
#     4  11  24  46  76 108 151 200 260 308 386 467
#     4  11  26  51  76 107 148 205 264 323 389 463
#     4  11  22  45  72 112 160 196 248 323 387 459
#     4  11  23  43  69 103 147 196 251 313 377 457
#     4  10  23  41  70 106 145 195 243 307 383 455
#
# _framework density 22.865116
#
# number of rings (size 3 to 8) (size 9 to 14) (size 15 to 20)
#    0.000    1.143    2.857    3.857    0.000    9.143 
#    5.143    1.429    0.000    0.000    0.000    0.000 
#    0.000    0.000    0.000    0.000    0.000    0.000 
#
# Total GULP energy -156178.174518 kJ/mol
# GULP energy per Si atom -5577.791947 kJ/mol
# Density = 2.281307 g / cm^3
# Si number density = 22.865116 Si / 1000 Ang^3
#
#
#
# Elastic Constant Matrix: (Units=GPa)
#
#
# Indices 1 2 3 4 5 6 
#
# 1 66.9688 -4.0135 10.4881 0.0000 0.0000 0.0000
# 2 -4.0135 134.8568 9.1993 0.0000 0.0000 0.0000
# 3 10.4881 9.1993 88.2792 0.0000 0.0000 0.0000
# 4 0.0000 0.0000 0.0000 18.6272 0.0000 0.0000
# 5 0.0000 0.0000 0.0000 0.0000 24.1574 0.0000
# 6 0.0000 0.0000 0.0000 0.0000 0.0000 842.2157
#
#
#
# Elastic Compliance Matrix: (Units=1/GPa)
#
#
# Indices 1 2 3 4 5 6 
#
# 1 0.015261 0.000582 -0.001874 0.000000 0.000000 0.000000
# 2 0.000582 0.007491 -0.000850 0.000000 0.000000 0.000000
# 3 -0.001874 -0.000850 0.011639 0.000000 0.000000 0.000000
# 4 0.000000 0.000000 0.000000 0.053685 0.000000 0.000000
# 5 0.000000 0.000000 0.000000 0.000000 0.041395 0.000000
# 6 0.000000 0.000000 0.000000 0.000000 0.000000 0.001187
#
#
# Mechanical properties :
#
#
# Convention : Reuss Voigt Hill
#
# Bulk Modulus (GPa) = 33.21464 35.71696 34.46580
# Shear Modulus (GPa) = 34.48841 195.29545 114.89193
#
# Velocity S-wave (km/s) = 3.88795 9.25189 7.09625
# Velocity P-wave (km/s) = 5.89175 11.39230 9.06910
#
# Compressibility (1/GPa) = 0.03010720
#
# Stress axis : x y z
#
# Youngs Moduli (GPa) = 65.52801 133.50141 85.91918
#
# Poissons Ratio (x) = -0.07770 0.16099
# Poissons Ratio (y) = -0.03814 0.07301
# Poissons Ratio (z) = 0.12278 0.11344
#
# Static dielectric constant tensor:
#      x y z
#    x 1.933190 0.000000 0.000000 
#    y 0.000000 1.895450 0.000000 
#    z 0.000000 0.000000 1.695600 
# 
# From -- ./inp_files/26503.got.cif
#   From: 2010.05.17/outbox.cif.g08.bks.cpg/sg24_14_cif.got.tgz:26503.got - 2010.06.04 00:33:39.
