data_PCOD9335288
_publ_section_title
;
Structure prediction by ZEFSAII (Michael W. Deem and Ramdas Pophale) SiO2 
 PCOD9335288
Probable space group: I 21 21 21
;
_chemical_formula_sum "Si O2"
_cell_formula_units_Z 52
_cell_length_a 19.420004
_cell_length_b 23.482241
_cell_length_c 5.493931
_cell_angle_alpha 90.000000
_cell_angle_beta 90.000000
_cell_angle_gamma 90.000000
_cell_volume 2505.371061
_symmetry_space_group_name_H-M "I 21 21 21"
_symmetry_group_IT_number 24
_symmetry_cell_setting 'orthorhombic'
loop_
_space_group_symop_operation_xyz
x,y,z
-x,1/2-y,z
x,-y,1/2-z
1/2-x,y,-z
1/2+x,1/2+y,1/2+z
1/2-x,-y,1/2+z
1/2+x,1/2-y,-z
-x,1/2+y,1/2-z
loop_
_atom_site_type_symbol
_atom_site_label
_atom_site_fract_x
_atom_site_fract_y
_atom_site_fract_z
Si Si1 0.915867 0.348904 0.766526
Si Si2 0.822745 0.240577 0.871999
Si Si3 0.645225 0.875577 0.633833
Si Si4 0.010787 0.117610 0.248578
Si Si5 0.250000 0.665145 0.000000
Si Si6 0.750000 0.963369 0.500000
Si Si7 0.313568 0.055745 0.368570
Si Si8 0.582893 0.500000 0.750000
O O1 0.872823 0.291096 0.797160
O O2 0.954912 0.358965 0.503755
O O3 0.858496 0.399656 0.784071
O O4 0.964966 0.350027 0.003028
O O5 0.801335 0.207179 0.633290
O O6 0.750000 0.259010 0.000000
O O7 0.855141 0.188963 0.028293
O O8 0.571320 0.885159 0.750669
O O9 0.705080 0.873143 0.829845
O O10 0.679589 0.924444 0.465765
O O11 0.036510 0.053871 0.191826
O O12 0.758165 0.000000 0.250000
O O13 0.250000 0.087042 0.500000
O O14 0.279424 0.000000 0.250000
O O15 0.368534 0.025129 0.541776
#
# Coordination Sequence:
#
# PCOD9335288 Si02
#       8
#     8   8   8   8   4   4   8   4
#     4  11  27  45  67 107 140 185 247 281 343 439
#     4  10  24  44  75  99 141 187 235 299 354 410
#     4  11  25  49  72 105 144 187 227 302 366 424
#     4  11  27  45  70 100 146 188 231 284 360 432
#     4  10  21  46  74 100 138 181 234 288 372 410
#     4  12  27  46  76 114 138 175 252 304 354 446
#     4  11  21  38  66  93 137 183 234 290 338 391
#     4  10  22  44  60  96 138 184 222 282 354 420
#
# _framework density 20.755410000000001
#
# number of rings (size 3 to 8) (size 9 to 14) (size 15 to 20)
#    0.000    1.231    4.615    0.462    8.615    2.462 
#    2.769    0.000    0.000    0.000    0.000    0.000 
#    0.000    0.000    0.000    0.000    0.000    0.000 
#
# Total GULP energy -144826.491163 kJ/mol
# GULP energy per Si atom -5570.249660 kJ/mol
# Density = 2.070817 g / cm^3
# Si number density = 20.755410 Si / 1000 Ang^3
#
#
#
# Elastic Constant Matrix: (Units=GPa)
#
#
# Indices 1 2 3 4 5 6 
#
# 1 348.2771 -42.6111 105.8193 0.0000 0.0000 0.0000
# 2 -42.6111 145.7122 -4.2571 0.0000 0.0000 0.0000
# 3 105.8193 -4.2571 110.0939 0.0000 0.0000 0.0000
# 4 0.0000 0.0000 0.0000 50.6329 0.0000 0.0000
# 5 0.0000 0.0000 0.0000 0.0000 119.0425 0.0000
# 6 0.0000 0.0000 0.0000 0.0000 0.0000 -63.7615
#
#
#
# Elastic Compliance Matrix: (Units=1/GPa)
#
#
# Indices 1 2 3 4 5 6 
#
# 1 0.004231 0.001120 -0.004023 0.000000 0.000000 0.000000
# 2 0.001120 0.007167 -0.000799 0.000000 0.000000 0.000000
# 3 -0.004023 -0.000799 0.012919 0.000000 0.000000 0.000000
# 4 0.000000 0.000000 0.000000 0.019750 0.000000 0.000000
# 5 0.000000 0.000000 0.000000 0.000000 0.008400 0.000000
# 6 0.000000 0.000000 0.000000 0.000000 0.000000 -0.015683
#
#
# Mechanical properties :
#
#
# Convention : Reuss Voigt Hill
#
# Bulk Modulus (GPa) = 59.13056 80.22062 69.67559
# Shear Modulus (GPa) = 100.34979 57.52491 78.93735
#
# Velocity S-wave (km/s) = 6.96087 5.27027 6.17371
# Velocity P-wave (km/s) = 9.65174 8.70453 9.19034
#
# Compressibility (1/GPa) = 0.01691173
#
# Stress axis : x y z
#
# Youngs Moduli (GPa) = 236.37226 139.53000 77.40471
#
# Poissons Ratio (x) = -0.15622 0.31140
# Poissons Ratio (y) = -0.26465 0.06185
# Poissons Ratio (z) = 0.95094 0.11149
#
# Static dielectric constant tensor:
#      x y z
#    x 1.725350 0.000000 0.000000 
#    y 0.000000 1.767970 0.000000 
#    z 0.000000 0.000000 1.865840 
# 
# From -- ./inp_files/4983.got.cif
#   From: 2010.05.17/outbox.cif.g08.bks.cpg/sg24_3_cif.got.tgz:4983.got - 2010.06.04 00:33:39.
