data_PCOD9335610
_publ_section_title
;
Structure prediction by ZEFSAII (Michael W. Deem and Ramdas Pophale) SiO2 
 PCOD9335610
Probable space group: I 21 21 21
;
_chemical_formula_sum "Si O2"
_cell_formula_units_Z 48
_cell_length_a 26.976181
_cell_length_b 15.203645
_cell_length_c 5.172564
_cell_angle_alpha 90.000000
_cell_angle_beta 90.000000
_cell_angle_gamma 90.000000
_cell_volume 2121.456154
_symmetry_space_group_name_H-M "I 21 21 21"
_symmetry_group_IT_number 24
_symmetry_cell_setting 'orthorhombic'
loop_
_space_group_symop_operation_xyz
x,y,z
-x,1/2-y,z
x,-y,1/2-z
1/2-x,y,-z
1/2+x,1/2+y,1/2+z
1/2-x,-y,1/2+z
1/2+x,1/2-y,-z
-x,1/2+y,1/2-z
loop_
_atom_site_type_symbol
_atom_site_label
_atom_site_fract_x
_atom_site_fract_y
_atom_site_fract_z
Si Si1 0.472165 0.000000 0.750000
Si Si2 0.782436 0.000000 0.750000
Si Si3 0.855521 0.741673 0.457273
Si Si4 0.034043 0.822959 0.450809
Si Si5 0.151327 0.659772 0.954337
Si Si6 0.458829 0.596755 0.136989
Si Si7 0.783424 0.397001 0.248932
O O1 0.507920 0.068369 0.604116
O O2 0.444625 0.924219 0.595205
O O3 0.750000 0.971757 0.500000
O O4 0.816709 0.922117 0.859281
O O5 0.914311 0.727988 0.480862
O O6 0.836886 0.763273 0.745955
O O7 0.831638 0.660048 0.306976
O O8 0.841825 0.819419 0.256244
O O9 0.000000 0.750000 0.293993
O O10 0.994986 0.847698 0.678322
O O11 0.092729 0.641411 0.925129
O O12 0.446616 0.500000 0.250000
O O13 0.795900 0.500000 0.250000
O O14 0.750000 0.376941 0.500000
O O15 0.750000 0.379527 0.000000
#
# Coordination Sequence:
#
# PCOD9335610 Si02
#       7
#     4   4   8   8   8   8   8
#     4  10  24  39  68  98 138 202 241 304 354 428
#     4  12  28  49  76 108 144 188 249 326 378 440
#     4  12  27  42  74 108 143 191 237 301 362 445
#     4  11  23  42  65 106 147 191 243 301 360 435
#     4  12  26  46  71 104 143 194 240 297 377 439
#     4  10  22  42  65  94 139 192 245 284 352 438
#     4  10  23  47  73 100 135 182 233 297 366 436
#
# _framework density 22.625966999999999
#
# number of rings (size 3 to 8) (size 9 to 14) (size 15 to 20)
#    0.000    1.000    2.500    3.000    5.833    5.333 
#    0.000    2.500    0.000    0.000    0.000    0.000 
#    0.000    0.000    0.000    0.000    0.000    0.000 
#
# Total GULP energy -133712.551384 kJ/mol
# GULP energy per Si atom -5571.356308 kJ/mol
# Density = 2.257447 g / cm^3
# Si number density = 22.625967 Si / 1000 Ang^3
#
#
#
# Elastic Constant Matrix: (Units=GPa)
#
#
# Indices 1 2 3 4 5 6 
#
# 1 53.2542 30.4558 7.1812 0.0000 0.0000 0.0000
# 2 30.4558 83.1688 19.4451 0.0000 0.0000 0.0000
# 3 7.1812 19.4451 85.5122 0.0000 -0.0001 0.0000
# 4 0.0000 0.0000 0.0000 34.4056 0.0000 0.0000
# 5 0.0000 0.0000 -0.0001 0.0000 -21.1886 0.0000
# 6 0.0000 0.0000 0.0000 0.0000 0.0000 36.0248
#
#
#
# Elastic Compliance Matrix: (Units=1/GPa)
#
#
# Indices 1 2 3 4 5 6 
#
# 1 0.023752 -0.008694 -0.000018 0.000000 0.000000 0.000000
# 2 -0.008694 0.015881 -0.002881 0.000000 0.000000 0.000000
# 3 -0.000018 -0.002881 0.012351 0.000000 0.000000 0.000000
# 4 0.000000 0.000000 0.000000 0.029065 0.000000 0.000000
# 5 0.000000 0.000000 0.000000 0.000000 -0.047195 0.000000
# 6 0.000000 0.000000 0.000000 0.000000 0.000000 0.027759
#
#
# Mechanical properties :
#
#
# Convention : Reuss Voigt Hill
#
# Bulk Modulus (GPa) = 34.72380 37.34438 36.03409
# Shear Modulus (GPa) = 52.96768 20.83858 36.90313
#
# Velocity S-wave (km/s) = 4.84365 3.03810 4.04296
# Velocity P-wave (km/s) = 6.83092 5.37100 6.14447
#
# Compressibility (1/GPa) = 0.02879869
#
# Stress axis : x y z
#
# Youngs Moduli (GPa) = 42.10146 62.96862 80.96583
#
# Poissons Ratio (x) = 0.54743 0.00144
# Poissons Ratio (y) = 0.36602 0.23328
# Poissons Ratio (z) = 0.00075 0.18142
#
# Static dielectric constant tensor:
#      x y z
#    x 1.877400 0.000000 0.000000 
#    y 0.000000 1.682360 0.000000 
#    z 0.000000 0.000000 1.816230 
# 
# From -- ./inp_files/7141.got.cif
#   From: 2010.05.17/outbox.cif.g08.bks.cpg/sg24_4_cif.got.tgz:7141.got - 2010.06.04 00:33:39.
