data_PCOD9335352
_publ_section_title
;
Structure prediction by ZEFSAII (Michael W. Deem and Ramdas Pophale) SiO2 
 PCOD9335352
Probable space group: I 21 21 21
;
_chemical_formula_sum "Si O2"
_cell_formula_units_Z 24
_cell_length_a 13.401044
_cell_length_b 6.942402
_cell_length_c 9.687016
_cell_angle_alpha 90.000000
_cell_angle_beta 90.000000
_cell_angle_gamma 90.000000
_cell_volume 901.235744
_symmetry_space_group_name_H-M "I 21 21 21"
_symmetry_group_IT_number 24
_symmetry_cell_setting 'orthorhombic'
loop_
_space_group_symop_operation_xyz
x,y,z
-x,1/2-y,z
x,-y,1/2-z
1/2-x,y,-z
1/2+x,1/2+y,1/2+z
1/2-x,-y,1/2+z
1/2+x,1/2-y,-z
-x,1/2+y,1/2-z
loop_
_atom_site_type_symbol
_atom_site_label
_atom_site_fract_x
_atom_site_fract_y
_atom_site_fract_z
Si Si1 0.606505 0.271003 0.745020
Si Si2 0.160393 0.224983 0.713056
Si Si3 0.132697 0.456190 0.978609
O O1 0.500000 0.250000 0.670178
O O2 0.617084 0.500000 0.750000
O O3 0.720758 0.221279 0.702386
O O4 0.589773 0.139497 0.883068
O O5 0.110535 0.330976 0.842928
O O6 0.882000 0.823657 0.926019
O O7 0.151386 0.000000 0.750000
O O8 0.250000 0.422149 0.000000
#
# Coordination Sequence:
#
# PCOD9335352 Si02
#       3
#     8   8   8
#     4  10  22  37  61 101 141 169 224 296 360 402
#     4   9  19  37  62  90 123 175 237 271 333 421
#     4   9  19  35  60  90 127 175 222 276 337 409
#
# _framework density 26.630101
#
# number of rings (size 3 to 8) (size 9 to 14) (size 15 to 20)
#    0.000    2.667    0.000    0.000    9.333    6.667 
#    0.000    0.000    7.333    0.000    0.000    0.000 
#    0.000    0.000    0.000    0.000    0.000    0.000 
#
# Total GULP energy -66861.451203 kJ/mol
# GULP energy per Si atom -5571.787600 kJ/mol
# Density = 2.656949 g / cm^3
# Si number density = 26.630101 Si / 1000 Ang^3
#
#
#
# Elastic Constant Matrix: (Units=GPa)
#
#
# Indices 1 2 3 4 5 6 
#
# 1 138.7383 48.6692 56.4937 0.0000 0.0000 0.0000
# 2 48.6692 194.1138 73.5182 0.0000 0.0000 0.0000
# 3 56.4937 73.5182 172.4301 0.0000 0.0000 0.0000
# 4 0.0000 0.0000 0.0000 40.3827 0.0000 0.0000
# 5 0.0000 0.0000 0.0000 0.0000 31.3878 0.0000
# 6 0.0000 0.0000 0.0000 0.0000 0.0000 20.8040
#
#
#
# Elastic Compliance Matrix: (Units=1/GPa)
#
#
# Indices 1 2 3 4 5 6 
#
# 1 0.008582 -0.001296 -0.002259 0.000000 0.000000 0.000000
# 2 -0.001296 0.006339 -0.002278 0.000000 0.000000 0.000000
# 3 -0.002259 -0.002278 0.007511 0.000000 0.000000 0.000000
# 4 0.000000 0.000000 0.000000 0.024763 0.000000 0.000000
# 5 0.000000 0.000000 0.000000 0.000000 0.031859 0.000000
# 6 0.000000 0.000000 0.000000 0.000000 0.000000 0.048068
#
#
# Mechanical properties :
#
#
# Convention : Reuss Voigt Hill
#
# Bulk Modulus (GPa) = 92.88857 95.84940 94.36898
# Shear Modulus (GPa) = 35.11751 40.28831 37.70291
#
# Velocity S-wave (km/s) = 3.63535 3.89380 3.76679
# Velocity P-wave (km/s) = 7.25106 7.50244 7.37782
#
# Compressibility (1/GPa) = 0.01076559
#
# Stress axis : x y z
#
# Youngs Moduli (GPa) = 116.51651 157.74209 133.13762
#
# Poissons Ratio (x) = 0.20446 0.30079
# Poissons Ratio (y) = 0.15103 0.30332
# Poissons Ratio (z) = 0.26324 0.35938
#
# Static dielectric constant tensor:
#      x y z
#    x 2.009720 0.000000 0.000000 
#    y 0.000000 2.148900 0.000000 
#    z 0.000000 0.000000 2.187410 
# 
# From -- ./inp_files/10015.got.cif
#   From: 2010.05.17/outbox.cif.g08.bks.cpg/sg24_6_cif.got.tgz:10015.got - 2010.06.04 00:33:39.
