data_PCOD9335340
_publ_section_title
;
Structure prediction by ZEFSAII (Michael W. Deem and Ramdas Pophale) SiO2 
 PCOD9335340
Probable space group: I 21 21 21
;
_chemical_formula_sum "Si O2"
_cell_formula_units_Z 44
_cell_length_a 14.333241
_cell_length_b 17.151241
_cell_length_c 9.747011
_cell_angle_alpha 90.000000
_cell_angle_beta 90.000000
_cell_angle_gamma 90.000000
_cell_volume 2396.135695
_symmetry_space_group_name_H-M "I 21 21 21"
_symmetry_group_IT_number 24
_symmetry_cell_setting 'orthorhombic'
loop_
_space_group_symop_operation_xyz
x,y,z
-x,1/2-y,z
x,-y,1/2-z
1/2-x,y,-z
1/2+x,1/2+y,1/2+z
1/2-x,-y,1/2+z
1/2+x,1/2-y,-z
-x,1/2+y,1/2-z
loop_
_atom_site_type_symbol
_atom_site_label
_atom_site_fract_x
_atom_site_fract_y
_atom_site_fract_z
Si Si1 0.577846 0.527845 0.593087
Si Si2 0.032522 0.329268 0.179120
Si Si3 0.652989 0.781441 0.083170
Si Si4 0.750000 0.627619 0.500000
Si Si5 0.531236 0.358254 0.518463
Si Si6 0.760705 0.217241 0.153296
O O1 0.601852 0.500000 0.750000
O O2 0.493744 0.590447 0.605401
O O3 0.660812 0.573127 0.517595
O O4 0.553256 0.449010 0.514409
O O5 0.974817 0.333397 0.321162
O O6 0.141237 0.315512 0.206983
O O7 0.000000 0.250000 0.102888
O O8 0.606903 0.696524 0.055491
O O9 0.571460 0.839456 0.037453
O O10 0.679549 0.797683 0.239945
O O11 0.750000 0.786960 0.000000
O O12 0.758735 0.689085 0.373655
O O13 0.750000 0.183969 0.000000
#
# Coordination Sequence:
#
# PCOD9335340 Si02
#       6
#     8   8   8   4   8   8
#     4  10  23  37  62  92 128 161 202 263 319 378
#     4  11  16  39  64  87 123 165 212 246 308 385
#     4  11  20  38  67  90 123 161 215 264 301 379
#     4  10  22  38  58  94 124 158 204 248 318 380
#     4  10  22  36  62  98 121 158 210 266 320 357
#     4  10  22  38  65  91 118 169 209 251 310 377
#
# _framework density 18.3629
#
# number of rings (size 3 to 8) (size 9 to 14) (size 15 to 20)
#    0.545    1.091    5.455    0.000    3.818    0.000 
#    9.818    0.909    0.000    0.000    0.000    0.000 
#    0.000    0.000    0.000    0.000    0.000    0.000 
#
# Total GULP energy -122521.673896 kJ/mol
# GULP energy per Si atom -5569.166995 kJ/mol
# Density = 1.832111 g / cm^3
# Si number density = 18.362900 Si / 1000 Ang^3
#
#
#
# Elastic Constant Matrix: (Units=GPa)
#
#
# Indices 1 2 3 4 5 6 
#
# 1 103.2275 34.3695 26.9885 0.0000 0.0000 0.0000
# 2 34.3695 89.5942 9.9259 0.0000 0.0000 0.0000
# 3 26.9885 9.9259 58.9598 0.0000 0.0000 0.0000
# 4 0.0000 0.0000 0.0000 13.8197 0.0000 0.0000
# 5 0.0000 0.0000 0.0000 0.0000 26.6292 0.0000
# 6 0.0000 0.0000 0.0000 0.0000 0.0000 17.5636
#
#
#
# Elastic Compliance Matrix: (Units=1/GPa)
#
#
# Indices 1 2 3 4 5 6 
#
# 1 0.012383 -0.004201 -0.004961 0.000000 0.000000 0.000000
# 2 -0.004201 0.012799 -0.000232 0.000000 0.000000 0.000000
# 3 -0.004961 -0.000232 0.019271 0.000000 0.000000 0.000000
# 4 0.000000 0.000000 0.000000 0.072360 0.000000 0.000000
# 5 0.000000 0.000000 0.000000 0.000000 0.037553 0.000000
# 6 0.000000 0.000000 0.000000 0.000000 0.000000 0.056936
#
#
# Mechanical properties :
#
#
# Convention : Reuss Voigt Hill
#
# Bulk Modulus (GPa) = 38.96339 43.81658 41.38998
# Shear Modulus (GPa) = 20.95177 23.63568 22.29373
#
# Velocity S-wave (km/s) = 3.38151 3.59157 3.48812
# Velocity P-wave (km/s) = 6.04241 6.41190 6.22990
#
# Compressibility (1/GPa) = 0.02566512
#
# Stress axis : x y z
#
# Youngs Moduli (GPa) = 80.75582 78.13389 51.89239
#
# Poissons Ratio (x) = 0.32821 0.25744
# Poissons Ratio (y) = 0.33923 0.01203
# Poissons Ratio (z) = 0.40064 0.01811
#
# Static dielectric constant tensor:
#      x y z
#    x 1.623020 0.000000 0.000000 
#    y 0.000000 1.639360 0.000000 
#    z 0.000000 0.000000 1.677570 
# 
# From -- ./inp_files/19633.got.cif
#   From: 2010.05.17/outbox.cif.g08.bks.cpg/sg24_10_cif.got.tgz:19633.got - 2010.06.04 00:33:39.
