data_PCOD9335448
_publ_section_title
;
Structure prediction by ZEFSAII (Michael W. Deem and Ramdas Pophale) SiO2 
 PCOD9335448
Probable space group: I 21 21 21
;
_chemical_formula_sum "Si O2"
_cell_formula_units_Z 40
_cell_length_a 12.146548
_cell_length_b 18.334608
_cell_length_c 8.256524
_cell_angle_alpha 90.000000
_cell_angle_beta 90.000000
_cell_angle_gamma 90.000000
_cell_volume 1838.746027
_symmetry_space_group_name_H-M "I 21 21 21"
_symmetry_group_IT_number 24
_symmetry_cell_setting 'orthorhombic'
loop_
_space_group_symop_operation_xyz
x,y,z
-x,1/2-y,z
x,-y,1/2-z
1/2-x,y,-z
1/2+x,1/2+y,1/2+z
1/2-x,-y,1/2+z
1/2+x,1/2-y,-z
-x,1/2+y,1/2-z
loop_
_atom_site_type_symbol
_atom_site_label
_atom_site_fract_x
_atom_site_fract_y
_atom_site_fract_z
Si Si1 0.909147 0.119389 0.605487
Si Si2 0.844184 0.265163 0.766872
Si Si3 0.887197 0.220451 0.132485
Si Si4 0.684334 0.916935 0.759162
Si Si5 0.153566 0.929049 0.862816
O O1 0.910262 0.203726 0.665407
O O2 0.817033 0.086361 0.727523
O O3 0.860113 0.115595 0.426580
O O4 0.023425 0.075217 0.591765
O O5 0.715991 0.243411 0.759950
O O6 0.842809 0.349705 0.722406
O O7 0.877064 0.254633 0.954408
O O8 0.870495 0.133450 0.122334
O O9 0.000000 0.250000 0.204339
O O10 0.650182 0.000000 0.750000
O O11 0.170735 0.000000 0.750000
O O12 0.250000 0.930368 0.000000
#
# Coordination Sequence:
#
# PCOD9335448 Si02
#       5
#     8   8   8   8   8
#     4  10  23  45  69  96 138 180 227 282 354 412
#     4  10  24  45  68  97 134 184 232 281 347 421
#     4  10  22  39  69  98 136 174 231 282 340 420
#     4  10  23  40  69 107 132 169 229 293 352 407
#     4  12  29  46  68  98 143 191 236 290 356 425
#
# _framework density 21.753955999999999
#
# number of rings (size 3 to 8) (size 9 to 14) (size 15 to 20)
#    0.000    1.600    0.000    2.400   11.200   10.400 
#    0.000    0.000    0.000    0.000    0.000    0.000 
#    0.000    0.000    0.000    0.000    0.000    0.000 
#
# Total GULP energy -111521.947219 kJ/mol
# GULP energy per Si atom -5576.097361 kJ/mol
# Density = 2.170444 g / cm^3
# Si number density = 21.753956 Si / 1000 Ang^3
#
#
#
# Elastic Constant Matrix: (Units=GPa)
#
#
# Indices 1 2 3 4 5 6 
#
# 1 143.1494 33.0712 20.4652 0.0000 0.0000 0.0000
# 2 33.0712 176.5080 53.9503 0.0000 0.0000 0.0000
# 3 20.4652 53.9503 76.6483 0.0000 0.0000 0.0000
# 4 0.0000 0.0000 0.0000 32.0191 0.0000 0.0000
# 5 0.0000 0.0000 0.0000 0.0000 11.7474 0.0000
# 6 0.0000 0.0000 0.0000 0.0000 0.0000 19.3935
#
#
#
# Elastic Compliance Matrix: (Units=1/GPa)
#
#
# Indices 1 2 3 4 5 6 
#
# 1 0.007398 -0.000997 -0.001274 0.000000 0.000000 0.000000
# 2 -0.000997 0.007353 -0.004909 0.000000 0.000000 0.000000
# 3 -0.001274 -0.004909 0.016842 0.000000 0.000000 0.000000
# 4 0.000000 0.000000 0.000000 0.031231 0.000000 0.000000
# 5 0.000000 0.000000 0.000000 0.000000 0.085125 0.000000
# 6 0.000000 0.000000 0.000000 0.000000 0.000000 0.051564
#
#
# Mechanical properties :
#
#
# Convention : Reuss Voigt Hill
#
# Bulk Modulus (GPa) = 58.02639 67.91991 62.97315
# Shear Modulus (GPa) = 22.76690 31.88659 27.32675
#
# Velocity S-wave (km/s) = 3.23857 3.83271 3.54810
# Velocity P-wave (km/s) = 6.38093 7.13273 6.76728
#
# Compressibility (1/GPa) = 0.01723354
#
# Stress axis : x y z
#
# Youngs Moduli (GPa) = 135.17003 136.00339 59.37496
#
# Poissons Ratio (x) = 0.13557 0.07562
# Poissons Ratio (y) = 0.13474 0.29148
# Poissons Ratio (z) = 0.17216 0.66767
#
# Static dielectric constant tensor:
#      x y z
#    x 1.903080 0.000000 0.000000 
#    y 0.000000 1.832100 0.000000 
#    z 0.000000 0.000000 1.805420 
# 
# From -- ./inp_files/10699.got.cif
#   From: 2010.05.17/outbox.cif.g08.bks.cpg/sg24_6_cif.got.tgz:10699.got - 2010.06.04 00:33:39.
