data_PCOD9335489
_publ_section_title
;
Structure prediction by ZEFSAII (Michael W. Deem and Ramdas Pophale) SiO2 
 PCOD9335489
Probable space group: I 21 21 21
;
_chemical_formula_sum "Si O2"
_cell_formula_units_Z 48
_cell_length_a 11.396713
_cell_length_b 10.134223
_cell_length_c 18.103013
_cell_angle_alpha 90.000000
_cell_angle_beta 90.000000
_cell_angle_gamma 90.000000
_cell_volume 2090.840633
_symmetry_space_group_name_H-M "I 21 21 21"
_symmetry_group_IT_number 24
_symmetry_cell_setting 'orthorhombic'
loop_
_space_group_symop_operation_xyz
x,y,z
-x,1/2-y,z
x,-y,1/2-z
1/2-x,y,-z
1/2+x,1/2+y,1/2+z
1/2-x,-y,1/2+z
1/2+x,1/2-y,-z
-x,1/2+y,1/2-z
loop_
_atom_site_type_symbol
_atom_site_label
_atom_site_fract_x
_atom_site_fract_y
_atom_site_fract_z
Si Si1 0.736463 0.904984 0.399005
Si Si2 0.790054 0.367397 0.847023
Si Si3 0.000000 0.750000 0.736138
Si Si4 0.823057 0.407438 0.432845
Si Si5 0.861256 0.000000 0.750000
Si Si6 0.964156 0.906890 0.485235
Si Si7 0.590503 0.357919 0.725806
O O1 0.743778 0.746884 0.403440
O O2 0.863756 0.947438 0.426080
O O3 0.615647 0.937010 0.442345
O O4 0.716036 0.948806 0.316528
O O5 0.770388 0.502660 0.888232
O O6 0.707517 0.353969 0.775406
O O7 0.917001 0.334319 0.817574
O O8 0.067651 0.631270 0.776506
O O9 0.750000 0.340140 0.500000
O O10 0.882295 0.337760 0.361427
O O11 0.922451 0.502945 0.468925
O O12 0.000000 0.750000 0.483723
O O13 0.500000 0.250000 0.751857
O O14 0.540448 0.500000 0.750000
#
# Coordination Sequence:
#
# PCOD9335489 Si02
#       7
#     8   8   4   8   4   8   8
#     4  10  23  39  64 100 136 175 230 285 340 395
#     4  10  22  40  64 102 132 174 230 287 336 394
#     4  10  24  40  68  96 140 174 226 280 342 392
#     4  11  24  38  68  96 139 185 223 274 342 418
#     4  10  24  42  68 102 138 184 220 282 332 416
#     4  11  22  39  65 101 139 174 229 288 344 395
#     4  10  25  45  74 102 136 178 231 289 335 403
#
# _framework density 22.957274000000002
#
# number of rings (size 3 to 8) (size 9 to 14) (size 15 to 20)
#    0.000    1.667    1.667    1.000   17.500    2.667 
#    1.500    0.000   14.667    0.000    0.000    0.000 
#    0.000    0.000    0.000    0.000    0.000    0.000 
#
# Total GULP energy -133850.237158 kJ/mol
# GULP energy per Si atom -5577.093215 kJ/mol
# Density = 2.290502 g / cm^3
# Si number density = 22.957274 Si / 1000 Ang^3
#
#
#
# Elastic Constant Matrix: (Units=GPa)
#
#
# Indices 1 2 3 4 5 6 
#
# 1 77.4055 12.1122 31.4391 0.0000 0.0000 0.0000
# 2 12.1122 38.2796 2.1742 0.0000 0.0000 0.0000
# 3 31.4391 2.1742 100.3776 0.0000 0.0000 0.0000
# 4 0.0000 0.0000 0.0000 15.3029 0.0000 0.0000
# 5 0.0000 0.0000 0.0000 0.0000 23.9243 0.0000
# 6 0.0000 0.0000 0.0000 0.0000 0.0000 15.7723
#
#
#
# Elastic Compliance Matrix: (Units=1/GPa)
#
#
# Indices 1 2 3 4 5 6 
#
# 1 0.015591 -0.004661 -0.004782 0.000000 0.000000 0.000000
# 2 -0.004661 0.027549 0.000863 0.000000 0.000000 0.000000
# 3 -0.004782 0.000863 0.011441 0.000000 0.000000 0.000000
# 4 0.000000 0.000000 0.000000 0.065347 0.000000 0.000000
# 5 0.000000 0.000000 0.000000 0.000000 0.041799 0.000000
# 6 0.000000 0.000000 0.000000 0.000000 0.000000 0.063402
#
#
# Mechanical properties :
#
#
# Convention : Reuss Voigt Hill
#
# Bulk Modulus (GPa) = 26.72299 34.16818 30.44559
# Shear Modulus (GPa) = 19.62599 22.35571 20.99085
#
# Velocity S-wave (km/s) = 2.92703 3.12396 3.02709
# Velocity P-wave (km/s) = 4.80509 5.28468 5.05058
#
# Compressibility (1/GPa) = 0.03742096
#
# Stress axis : x y z
#
# Youngs Moduli (GPa) = 64.14071 36.29832 87.40120
#
# Poissons Ratio (x) = 0.16920 0.41797
# Poissons Ratio (y) = 0.29899 -0.07545
# Poissons Ratio (z) = 0.30673 -0.03134
#
# Static dielectric constant tensor:
#      x y z
#    x 2.499900 0.000000 0.000000 
#    y 0.000000 1.903760 0.000000 
#    z 0.000000 0.000000 1.912210 
# 
# From -- ./inp_files/30229.got.cif
#   From: 2010.05.17/outbox.cif.g08.bks.cpg/sg24_16_cif.got.tgz:30229.got - 2010.06.04 00:33:39.
