data_PCOD9335180
_publ_section_title
;
Structure prediction by ZEFSAII (Michael W. Deem and Ramdas Pophale) SiO2 
 PCOD9335180
Probable space group: I 21 21 21
;
_chemical_formula_sum "Si O2"
_cell_formula_units_Z 40
_cell_length_a 17.033358
_cell_length_b 5.485124
_cell_length_c 21.017622
_cell_angle_alpha 90.000000
_cell_angle_beta 90.000000
_cell_angle_gamma 90.000000
_cell_volume 1963.678121
_symmetry_space_group_name_H-M "I 21 21 21"
_symmetry_group_IT_number 24
_symmetry_cell_setting 'orthorhombic'
loop_
_space_group_symop_operation_xyz
x,y,z
-x,1/2-y,z
x,-y,1/2-z
1/2-x,y,-z
1/2+x,1/2+y,1/2+z
1/2-x,-y,1/2+z
1/2+x,1/2-y,-z
-x,1/2+y,1/2-z
loop_
_atom_site_type_symbol
_atom_site_label
_atom_site_fract_x
_atom_site_fract_y
_atom_site_fract_z
Si Si1 0.661276 0.659991 0.852958
Si Si2 0.405063 0.243473 0.507784
Si Si3 0.186046 0.892395 0.687432
Si Si4 0.405756 0.744353 0.434079
Si Si5 0.951145 0.500000 0.250000
Si Si6 0.298986 0.500000 0.750000
O O1 0.752038 0.573916 0.847671
O O2 0.604120 0.480750 0.813108
O O3 0.653761 0.896943 0.808887
O O4 0.634170 0.717248 0.923433
O O5 0.500000 0.250000 0.515012
O O6 0.383111 0.494515 0.470973
O O7 0.383959 0.994869 0.470479
O O8 0.132495 0.765703 0.635244
O O9 0.243697 0.703951 0.721006
O O10 0.142423 0.000000 0.750000
O O11 0.500000 0.750000 0.428770
O O12 0.000000 0.250000 0.254301
#
# Coordination Sequence:
#
# PCOD9335180 Si02
#       6
#     8   8   8   8   4   4
#     4  11  23  41  63  96 133 173 221 267 329 384
#     4  10  24  43  66  93 135 175 218 268 321 391
#     4  10  23  43  68  96 131 170 214 283 330 384
#     4  10  24  47  67  98 133 171 220 272 327 396
#     4  12  25  38  64  95 132 178 224 268 321 392
#     4  10  21  42  64  91 136 166 212 284 315 386
#
# _framework density 20.369935999999999
#
# number of rings (size 3 to 8) (size 9 to 14) (size 15 to 20)
#    0.000    1.600    3.000    1.200    8.400    3.200 
#    1.800    0.000    0.000    0.000    0.000    0.000 
#    0.000    0.000    0.000    0.000    0.000    0.000 
#
# Total GULP energy -111555.694091 kJ/mol
# GULP energy per Si atom -5577.784705 kJ/mol
# Density = 2.032357 g / cm^3
# Si number density = 20.369936 Si / 1000 Ang^3
#
#
#
# Elastic Constant Matrix: (Units=GPa)
#
#
# Indices 1 2 3 4 5 6 
#
# 1 29.7969 28.1045 51.6500 0.0000 0.0000 0.0000
# 2 28.1045 124.2866 69.0089 0.0000 0.0000 0.0000
# 3 51.6500 69.0089 193.2128 0.0000 0.0000 0.0000
# 4 0.0000 0.0000 0.0000 33.9976 0.0000 0.0000
# 5 0.0000 0.0000 0.0000 0.0000 31.6250 0.0000
# 6 0.0000 0.0000 0.0000 0.0000 0.0000 8.7721
#
#
#
# Elastic Compliance Matrix: (Units=1/GPa)
#
#
# Indices 1 2 3 4 5 6 
#
# 1 0.066429 -0.006438 -0.015458 0.000000 0.000000 0.000000
# 2 -0.006438 0.010660 -0.002086 0.000000 0.000000 0.000000
# 3 -0.015458 -0.002086 0.010053 0.000000 0.000000 0.000000
# 4 0.000000 0.000000 0.000000 0.029414 0.000000 0.000000
# 5 0.000000 0.000000 0.000000 0.000000 0.031621 0.000000
# 6 0.000000 0.000000 0.000000 0.000000 0.000000 0.113998
#
#
# Mechanical properties :
#
#
# Convention : Reuss Voigt Hill
#
# Bulk Modulus (GPa) = 25.52571 71.64700 48.58636
# Shear Modulus (GPa) = 15.47038 28.11448 21.79243
#
# Velocity S-wave (km/s) = 2.75884 3.71913 3.27438
# Velocity P-wave (km/s) = 4.76514 7.32747 6.18055
#
# Compressibility (1/GPa) = 0.03917619
#
# Stress axis : x y z
#
# Youngs Moduli (GPa) = 15.05377 93.80679 99.47108
#
# Poissons Ratio (x) = 0.60394 1.53765
# Poissons Ratio (y) = 0.09692 0.20754
# Poissons Ratio (z) = 0.23271 0.19572
#
# Static dielectric constant tensor:
#      x y z
#    x 1.767460 0.000000 0.000000 
#    y 0.000000 1.842090 0.000000 
#    z 0.000000 0.000000 1.717520 
# 
# From -- ./inp_files/4553.got.cif
#   From: 2010.05.17/outbox.cif.g08.bks.cpg/sg24_3_cif.got.tgz:4553.got - 2010.06.04 00:33:39.
