data_PCOD9335042
_publ_section_title
;
Structure prediction by ZEFSAII (Michael W. Deem and Ramdas Pophale) SiO2 
 PCOD9335042
Probable space group: I 21 21 21
;
_chemical_formula_sum "Si O2"
_cell_formula_units_Z 48
_cell_length_a 8.766389
_cell_length_b 8.091002
_cell_length_c 33.276286
_cell_angle_alpha 90.000000
_cell_angle_beta 90.000000
_cell_angle_gamma 90.000000
_cell_volume 2360.249395
_symmetry_space_group_name_H-M "I 21 21 21"
_symmetry_group_IT_number 24
_symmetry_cell_setting 'orthorhombic'
loop_
_space_group_symop_operation_xyz
x,y,z
-x,1/2-y,z
x,-y,1/2-z
1/2-x,y,-z
1/2+x,1/2+y,1/2+z
1/2-x,-y,1/2+z
1/2+x,1/2-y,-z
-x,1/2+y,1/2-z
loop_
_atom_site_type_symbol
_atom_site_label
_atom_site_fract_x
_atom_site_fract_y
_atom_site_fract_z
Si Si1 0.315468 0.419822 0.455960
Si Si2 0.326170 0.682481 0.873454
Si Si3 0.000000 0.250000 0.833819
Si Si4 0.838303 0.519132 0.960456
Si Si5 0.254777 0.460625 0.203327
Si Si6 0.500000 0.750000 0.668034
Si Si7 0.737704 0.450516 0.877615
O O1 0.250000 0.471408 0.500000
O O2 0.225167 0.426884 0.412728
O O3 0.328398 0.219724 0.459435
O O4 0.480999 0.506559 0.453944
O O5 0.500000 0.750000 0.878776
O O6 0.293482 0.591869 0.831206
O O7 0.232872 0.855082 0.870617
O O8 0.079793 0.390718 0.807555
O O9 0.130269 0.163364 0.859824
O O10 0.744000 0.436479 0.925025
O O11 0.750000 0.465197 0.000000
O O12 0.247638 0.500000 0.250000
O O13 0.133038 0.316998 0.195639
O O14 0.578256 0.610170 0.640721
#
# Coordination Sequence:
#
# PCOD9335042 Si02
#       7
#     8   8   4   8   8   4   8
#     4   9  19  30  55  90 128 157 202 266 321 368
#     4  11  22  38  66  98 126 170 219 270 313 388
#     4  10  24  44  63  90 126 172 203 264 332 388
#     4   9  18  32  53  85 122 164 205 259 315 375
#     4  11  25  42  66  95 128 167 215 265 328 384
#     4  10  22  40  61  88 124 166 201 258 328 382
#     4  10  21  40  63  87 126 163 212 261 316 387
#
# _framework density 20.336834
#
# number of rings (size 3 to 8) (size 9 to 14) (size 15 to 20)
#    0.000    2.000    1.667    1.000    8.167    3.333 
#    0.000    4.167    0.000    4.000    0.000    0.000 
#    0.000    0.000    0.000    0.000    0.000    0.000 
#
# Total GULP energy -133700.710383 kJ/mol
# GULP energy per Si atom -5570.862933 kJ/mol
# Density = 2.029055 g / cm^3
# Si number density = 20.336834 Si / 1000 Ang^3
#
#
#
# Elastic Constant Matrix: (Units=GPa)
#
#
# Indices 1 2 3 4 5 6 
#
# 1 61.7334 5.2961 45.5338 0.0000 0.0000 0.0000
# 2 5.2961 31.3970 34.5240 0.0000 0.0000 0.0000
# 3 45.5338 34.5240 194.6771 0.0000 0.0000 0.0000
# 4 0.0000 0.0000 0.0000 -2.0775 0.0000 0.0000
# 5 0.0000 0.0000 0.0000 0.0000 17.6844 0.0000
# 6 0.0000 0.0000 0.0000 0.0000 0.0000 14.2148
#
#
#
# Elastic Compliance Matrix: (Units=1/GPa)
#
#
# Indices 1 2 3 4 5 6 
#
# 1 0.019694 0.002165 -0.004990 0.000000 0.000000 0.000000
# 2 0.002165 0.039804 -0.007565 0.000000 0.000000 0.000000
# 3 -0.004990 -0.007565 0.007646 0.000000 0.000000 0.000000
# 4 0.000000 0.000000 0.000000 -0.481346 0.000000 0.000000
# 5 0.000000 0.000000 0.000000 0.000000 0.056547 0.000000
# 6 0.000000 0.000000 0.000000 0.000000 0.000000 0.070349
#
#
# Mechanical properties :
#
#
# Convention : Reuss Voigt Hill
#
# Bulk Modulus (GPa) = 21.56916 50.94614 36.25765
# Shear Modulus (GPa) = -19.91456 19.46126 -0.22665
#
# Velocity S-wave (km/s) = -3.13267 3.09681 -0.33420
# Velocity P-wave (km/s) = 1.56711 6.15569 4.20932
#
# Compressibility (1/GPa) = 0.04636248
#
# Stress axis : x y z
#
# Youngs Moduli (GPa) = 50.77777 25.12334 130.79580
#
# Poissons Ratio (x) = -0.05440 0.65270
# Poissons Ratio (y) = -0.10995 0.98950
# Poissons Ratio (z) = 0.25339 0.19006
#
# Static dielectric constant tensor:
#      x y z
#    x 1.901690 0.000000 0.000000 
#    y 0.000000 1.767380 0.000000 
#    z 0.000000 0.000000 1.729460 
# 
# From -- ./inp_files/16857.got.cif
#   From: 2010.05.17/outbox.cif.g08.bks.cpg/sg24_9_cif.got.tgz:16857.got - 2010.06.04 00:33:39.
