data_PCOD9335394
_publ_section_title
;
Structure prediction by ZEFSAII (Michael W. Deem and Ramdas Pophale) SiO2 
 PCOD9335394
Probable space group: I 21 21 21
;
_chemical_formula_sum "Si O2"
_cell_formula_units_Z 36
_cell_length_a 8.046492
_cell_length_b 9.803609
_cell_length_c 24.529484
_cell_angle_alpha 90.000000
_cell_angle_beta 90.000000
_cell_angle_gamma 90.000000
_cell_volume 1935.000039
_symmetry_space_group_name_H-M "I 21 21 21"
_symmetry_group_IT_number 24
_symmetry_cell_setting 'orthorhombic'
loop_
_space_group_symop_operation_xyz
x,y,z
-x,1/2-y,z
x,-y,1/2-z
1/2-x,y,-z
1/2+x,1/2+y,1/2+z
1/2-x,-y,1/2+z
1/2+x,1/2-y,-z
-x,1/2+y,1/2-z
loop_
_atom_site_type_symbol
_atom_site_label
_atom_site_fract_x
_atom_site_fract_y
_atom_site_fract_z
Si Si1 0.500000 0.250000 0.293066
Si Si2 0.089223 0.974569 0.140700
Si Si3 0.744394 0.179844 0.620760
Si Si4 0.784738 0.500000 0.750000
Si Si5 0.750000 0.079979 0.500000
Si Si6 0.928077 0.398438 0.027865
O O1 0.611274 0.163583 0.335402
O O2 0.605963 0.362443 0.259716
O O3 0.186508 0.836267 0.124914
O O4 0.900153 0.922060 0.140565
O O5 0.166877 0.020491 0.197501
O O6 0.102441 0.082681 0.092321
O O7 0.780071 0.156566 0.557103
O O8 0.578465 0.998001 0.510421
O O9 0.000000 0.250000 0.015051
O O10 0.750000 0.423680 0.000000
#
# Coordination Sequence:
#
# PCOD9335394 Si02
#       6
#     4   8   8   4   4   8
#     4  10  22  40  64  92 122 154 210 258 302 360
#     4   9  21  41  61  87 120 162 203 243 310 362
#     4   9  20  38  64  92 118 151 203 254 300 364
#     4  10  22  44  60  90 122 162 206 260 302 362
#     4  10  22  38  64  92 120 160 196 252 314 360
#     4  11  23  41  59  90 127 163 200 247 306 374
#
# _framework density 18.604651
#
# number of rings (size 3 to 8) (size 9 to 14) (size 15 to 20)
#    0.000    2.222    1.111    0.000    7.778    2.667 
#   18.000    0.000    0.000    0.000    0.000    0.000 
#    0.000    0.000    0.000    0.000    0.000    0.000 
#
# Total GULP energy -100309.334014 kJ/mol
# GULP energy per Si atom -5572.740779 kJ/mol
# Density = 1.856231 g / cm^3
# Si number density = 18.604651 Si / 1000 Ang^3
#
#
#
# Elastic Constant Matrix: (Units=GPa)
#
#
# Indices 1 2 3 4 5 6 
#
# 1 98.5861 21.6100 75.0906 0.0000 0.0000 0.0000
# 2 21.6100 27.5835 44.4068 0.0000 0.0000 0.0000
# 3 75.0906 44.4068 165.6498 0.0000 0.0000 0.0000
# 4 0.0000 0.0000 0.0000 23.0071 0.0000 0.0000
# 5 0.0000 0.0000 0.0000 0.0000 36.8794 0.0000
# 6 0.0000 0.0000 0.0000 0.0000 0.0000 3.0475
#
#
#
# Elastic Compliance Matrix: (Units=1/GPa)
#
#
# Indices 1 2 3 4 5 6 
#
# 1 0.015526 -0.001466 -0.006645 0.000000 0.000000 0.000000
# 2 -0.001466 0.063918 -0.016470 0.000000 0.000000 0.000000
# 3 -0.006645 -0.016470 0.013465 0.000000 0.000000 0.000000
# 4 0.000000 0.000000 0.000000 0.043465 0.000000 0.000000
# 5 0.000000 0.000000 0.000000 0.000000 0.027115 0.000000
# 6 0.000000 0.000000 0.000000 0.000000 0.000000 0.328140
#
#
# Mechanical properties :
#
#
# Convention : Reuss Voigt Hill
#
# Bulk Modulus (GPa) = 22.85937 63.78159 43.32048
# Shear Modulus (GPa) = 9.00296 22.63427 15.81862
#
# Velocity S-wave (km/s) = 2.20218 3.49175 2.91907
# Velocity P-wave (km/s) = 4.33356 7.11431 5.89038
#
# Compressibility (1/GPa) = 0.04374574
#
# Stress axis : x y z
#
# Youngs Moduli (GPa) = 64.40710 15.64516 74.26899
#
# Poissons Ratio (x) = 0.02293 0.49354
# Poissons Ratio (y) = 0.09439 1.22325
# Poissons Ratio (z) = 0.42801 0.25768
#
# Static dielectric constant tensor:
#      x y z
#    x 1.704650 0.000000 0.000000 
#    y 0.000000 1.641230 0.000000 
#    z 0.000000 0.000000 1.643660 
# 
# From -- ./inp_files/9108.got.cif
#   From: 2010.05.17/outbox.cif.g08.bks.cpg/sg24_5_cif.got.tgz:9108.got - 2010.06.04 00:33:39.
