data_PCOD9335214
_publ_section_title
;
Structure prediction by ZEFSAII (Michael W. Deem and Ramdas Pophale) SiO2 
 PCOD9335214
Probable space group: I 21 21 21
;
_chemical_formula_sum "Si O2"
_cell_formula_units_Z 56
_cell_length_a 14.868790
_cell_length_b 8.939925
_cell_length_c 20.255181
_cell_angle_alpha 90.000000
_cell_angle_beta 90.000000
_cell_angle_gamma 90.000000
_cell_volume 2692.437505
_symmetry_space_group_name_H-M "I 21 21 21"
_symmetry_group_IT_number 24
_symmetry_cell_setting 'orthorhombic'
loop_
_space_group_symop_operation_xyz
x,y,z
-x,1/2-y,z
x,-y,1/2-z
1/2-x,y,-z
1/2+x,1/2+y,1/2+z
1/2-x,-y,1/2+z
1/2+x,1/2-y,-z
-x,1/2+y,1/2-z
loop_
_atom_site_type_symbol
_atom_site_label
_atom_site_fract_x
_atom_site_fract_y
_atom_site_fract_z
Si Si1 0.158880 0.034377 0.463528
Si Si2 0.539568 0.415427 0.179398
Si Si3 0.870470 0.500000 0.250000
Si Si4 0.747304 0.370243 0.145189
Si Si5 0.000000 0.250000 0.209895
Si Si6 0.165124 0.567934 0.323506
Si Si7 0.490790 0.429271 0.450561
Si Si8 0.835328 0.868485 0.049048
O O1 0.250000 0.075553 0.500000
O O2 0.135192 0.197457 0.432845
O O3 0.078833 0.003558 0.513702
O O4 0.195043 0.894670 0.421453
O O5 0.500000 0.250000 0.188475
O O6 0.538596 0.500000 0.250000
O O7 0.642586 0.407612 0.152023
O O8 0.482853 0.496767 0.121343
O O9 0.803392 0.486013 0.189573
O O10 0.934250 0.355820 0.251403
O O11 0.764801 0.203784 0.170835
O O12 0.934247 0.142214 0.169077
O O13 0.168304 0.500000 0.250000
O O14 0.180846 0.453014 0.382447
O O15 0.500000 0.250000 0.440383
O O16 0.412162 0.444422 0.504112
O O17 0.750000 0.874615 0.000000
#
# Coordination Sequence:
#
# PCOD9335214 Si02
#       8
#     8   8   4   8   4   8   8   8
#     4  10  21  42  71  98 130 180 231 277 338 412
#     4  12  27  47  70 101 134 184 237 293 344 405
#     4  10  22  40  64  94 138 170 220 274 342 408
#     4  11  25  42  68 100 134 183 224 285 346 401
#     4  10  22  40  62  98 130 180 218 266 344 402
#     4  11  26  44  64 102 141 178 222 280 344 409
#     4  10  23  46  71  99 135 184 230 284 348 413
#     4  10  25  44  68 101 140 179 226 282 341 414
#
# _framework density 20.798997
#
# number of rings (size 3 to 8) (size 9 to 14) (size 15 to 20)
#    0.000    1.429    2.857    0.429   10.000    2.286 
#    2.571    0.000    0.000    0.000    0.000    0.000 
#    0.000    0.000    0.000    0.000    0.000    0.000 
#
# Total GULP energy -156072.749753 kJ/mol
# GULP energy per Si atom -5574.026777 kJ/mol
# Density = 2.075166 g / cm^3
# Si number density = 20.798997 Si / 1000 Ang^3
#
#
#
# Elastic Constant Matrix: (Units=GPa)
#
#
# Indices 1 2 3 4 5 6 
#
# 1 84.0408 15.9215 29.8801 0.0000 0.0000 0.0000
# 2 15.9215 62.7616 47.7787 0.0000 0.0000 0.0000
# 3 29.8801 47.7787 127.9192 0.0000 0.0000 0.0000
# 4 0.0000 0.0000 0.0000 30.2953 0.0000 0.0000
# 5 0.0000 0.0000 0.0000 0.0000 17.9801 0.0000
# 6 0.0000 0.0000 0.0000 0.0000 0.0000 11.3695
#
#
#
# Elastic Compliance Matrix: (Units=1/GPa)
#
#
# Indices 1 2 3 4 5 6 
#
# 1 0.013062 -0.001385 -0.002534 0.000000 0.000000 0.000000
# 2 -0.001385 0.022411 -0.008047 0.000000 0.000000 0.000000
# 3 -0.002534 -0.008047 0.011415 0.000000 0.000000 0.000000
# 4 0.000000 0.000000 0.000000 0.033008 0.000000 0.000000
# 5 0.000000 0.000000 0.000000 0.000000 0.055617 0.000000
# 6 0.000000 0.000000 0.000000 0.000000 0.000000 0.087954
#
#
# Mechanical properties :
#
#
# Convention : Reuss Voigt Hill
#
# Bulk Modulus (GPa) = 43.56071 51.32022 47.44046
# Shear Modulus (GPa) = 19.60389 24.00507 21.80448
#
# Velocity S-wave (km/s) = 3.07341 3.40096 3.24133
# Velocity P-wave (km/s) = 5.79514 6.33640 6.07180
#
# Compressibility (1/GPa) = 0.02295647
#
# Stress axis : x y z
#
# Youngs Moduli (GPa) = 76.55656 44.62175 87.60412
#
# Poissons Ratio (x) = 0.06178 0.22199
# Poissons Ratio (y) = 0.10600 0.70496
# Poissons Ratio (z) = 0.19399 0.35908
#
# Static dielectric constant tensor:
#      x y z
#    x 1.748500 0.000000 0.000000 
#    y 0.000000 1.934070 0.000000 
#    z 0.000000 0.000000 1.942100 
# 
# From -- ./inp_files/33800.got.cif
#   From: 2010.05.17/outbox.cif.g08.bks.cpg/sg24_17_cif.got.tgz:33800.got - 2010.06.04 00:33:39.
