data_PCOD9335218
_publ_section_title
;
Structure prediction by ZEFSAII (Michael W. Deem and Ramdas Pophale) SiO2 
 PCOD9335218
Probable space group: I 21 21 21
;
_chemical_formula_sum "Si O2"
_cell_formula_units_Z 60
_cell_length_a 11.751395
_cell_length_b 20.496803
_cell_length_c 12.236025
_cell_angle_alpha 90.000000
_cell_angle_beta 90.000000
_cell_angle_gamma 90.000000
_cell_volume 2947.242744
_symmetry_space_group_name_H-M "I 21 21 21"
_symmetry_group_IT_number 24
_symmetry_cell_setting 'orthorhombic'
loop_
_space_group_symop_operation_xyz
x,y,z
-x,1/2-y,z
x,-y,1/2-z
1/2-x,y,-z
1/2+x,1/2+y,1/2+z
1/2-x,-y,1/2+z
1/2+x,1/2-y,-z
-x,1/2+y,1/2-z
loop_
_atom_site_type_symbol
_atom_site_label
_atom_site_fract_x
_atom_site_fract_y
_atom_site_fract_z
Si Si1 0.674876 0.173802 0.778697
Si Si2 0.918466 0.610106 0.867927
Si Si3 0.622102 0.071684 0.220991
Si Si4 0.410030 0.052549 0.846129
Si Si5 0.124583 0.412008 0.026130
Si Si6 0.988643 0.674232 0.085496
Si Si7 0.750000 0.522104 0.000000
Si Si8 0.215707 0.174201 0.262010
O O1 0.783112 0.127246 0.754359
O O2 0.643218 0.154623 0.904220
O O3 0.577293 0.159979 0.685455
O O4 0.699465 0.250902 0.774325
O O5 0.846263 0.661211 0.794679
O O6 0.011047 0.575884 0.794444
O O7 0.989370 0.635368 0.972992
O O8 0.818911 0.564006 0.912271
O O9 0.672068 0.000000 0.250000
O O10 0.579559 0.086557 0.097061
O O11 0.539346 0.054672 0.889258
O O12 0.346584 0.120495 0.815188
O O13 0.402504 0.000000 0.750000
O O14 0.341377 0.022790 0.944409
O O15 0.250000 0.440748 0.000000
O O16 0.861519 0.665887 0.130262
O O17 0.000000 0.750000 0.058732
#
# Coordination Sequence:
#
# PCOD9335218 Si02
#       8
#     8   8   8   8   8   8   4   8
#     4  10  24  49  71 103 139 188 242 290 357 427
#     4  12  24  44  69 106 144 181 233 296 362 415
#     4  11  27  48  69  99 148 187 232 299 354 431
#     4  12  24  42  73 105 138 187 234 292 360 423
#     4  10  24  48  69  97 141 182 233 293 342 425
#     4  10  21  42  74 102 137 182 230 298 350 430
#     4  12  26  42  66 106 144 180 236 298 350 418
#     4  11  23  43  73 104 141 184 235 294 350 426
#
# _framework density 20.358011000000001
#
# number of rings (size 3 to 8) (size 9 to 14) (size 15 to 20)
#    0.000    1.067    4.000    0.800    5.600    2.667 
#   10.800    2.667    0.000    0.000    0.000    0.000 
#    0.000    0.000    0.000    0.000    0.000    0.000 
#
# Total GULP energy -167142.813044 kJ/mol
# GULP energy per Si atom -5571.427101 kJ/mol
# Density = 2.031167 g / cm^3
# Si number density = 20.358011 Si / 1000 Ang^3
#
#
#
# Elastic Constant Matrix: (Units=GPa)
#
#
# Indices 1 2 3 4 5 6 
#
# 1 56.8466 53.9205 19.2095 -0.0001 0.0000 0.0000
# 2 53.9205 108.5814 43.2813 0.0005 0.0000 -0.0001
# 3 19.2095 43.2813 70.6027 0.0005 0.0000 -0.0001
# 4 -0.0001 0.0005 0.0005 20.3756 -0.0001 -0.0001
# 5 0.0000 0.0000 0.0000 -0.0001 38.9382 0.0000
# 6 0.0000 -0.0001 -0.0001 -0.0001 0.0000 20.7282
#
#
#
# Elastic Compliance Matrix: (Units=1/GPa)
#
#
# Indices 1 2 3 4 5 6 
#
# 1 0.033364 -0.017137 0.001428 0.000000 0.000000 0.000000
# 2 -0.017137 0.020991 -0.008205 0.000000 0.000000 0.000000
# 3 0.001428 -0.008205 0.018805 0.000000 0.000000 0.000000
# 4 0.000000 0.000000 0.000000 0.049078 0.000000 0.000000
# 5 0.000000 0.000000 0.000000 0.000000 0.025682 0.000000
# 6 0.000000 0.000000 0.000000 0.000000 0.000000 0.048244
#
#
# Mechanical properties :
#
#
# Convention : Reuss Voigt Hill
#
# Bulk Modulus (GPa) = 39.47760 52.09483 45.78621
# Shear Modulus (GPa) = 19.80702 23.98301 21.89502
#
# Velocity S-wave (km/s) = 3.12257 3.43602 3.28304
# Velocity P-wave (km/s) = 5.69512 6.43323 6.07540
#
# Compressibility (1/GPa) = 0.02533082
#
# Stress axis : x y z
#
# Youngs Moduli (GPa) = 29.97245 47.64045 53.17702
#
# Poissons Ratio (x) = 0.81644 -0.07594
# Poissons Ratio (y) = 0.51365 0.43632
# Poissons Ratio (z) = -0.04280 0.39089
#
# Static dielectric constant tensor:
#      x y z
#    x 1.684220 0.000000 0.000000 
#    y 0.000000 1.789830 0.000000 
#    z 0.000000 0.000000 1.768080 
# 
# From -- ./inp_files/20009.got.cif
#   From: 2010.05.17/outbox.cif.g08.bks.cpg/sg24_11_cif.got.tgz:20009.got - 2010.06.04 00:33:39.
