data_PCOD9335849
_publ_section_title
;
Structure prediction by ZEFSAII (Michael W. Deem and Ramdas Pophale) SiO2 
 PCOD9335849
Probable space group: I 21 21 21
;
_chemical_formula_sum "Si O2"
_cell_formula_units_Z 40
_cell_length_a 17.665079
_cell_length_b 12.005161
_cell_length_c 9.327095
_cell_angle_alpha 90.000000
_cell_angle_beta 90.000000
_cell_angle_gamma 90.000000
_cell_volume 1978.016787
_symmetry_space_group_name_H-M "I 21 21 21"
_symmetry_group_IT_number 24
_symmetry_cell_setting 'orthorhombic'
loop_
_space_group_symop_operation_xyz
x,y,z
-x,1/2-y,z
x,-y,1/2-z
1/2-x,y,-z
1/2+x,1/2+y,1/2+z
1/2-x,-y,1/2+z
1/2+x,1/2-y,-z
-x,1/2+y,1/2-z
loop_
_atom_site_type_symbol
_atom_site_label
_atom_site_fract_x
_atom_site_fract_y
_atom_site_fract_z
Si Si1 0.809265 0.820201 0.626610
Si Si2 0.585876 0.286658 0.925428
Si Si3 0.546220 0.500000 0.750000
Si Si4 0.918918 0.000000 0.750000
Si Si5 0.543420 0.865874 0.989369
Si Si6 0.326012 0.369946 0.707904
O O1 0.750000 0.847875 0.500000
O O2 0.860103 0.719555 0.564916
O O3 0.866422 0.920303 0.654650
O O4 0.755041 0.811375 0.764976
O O5 0.500000 0.250000 0.960337
O O6 0.588924 0.402015 0.837085
O O7 0.617587 0.191658 0.818756
O O8 0.494365 0.558144 0.868553
O O9 0.964924 0.076819 0.642452
O O10 0.500000 0.750000 0.986134
O O11 0.631684 0.857246 0.943544
O O12 0.317517 0.500000 0.750000
#
# Coordination Sequence:
#
# PCOD9335849 Si02
#       6
#     8   8   4   4   8   8
#     4  10  23  38  63 101 131 174 219 279 346 396
#     4  11  20  36  66 101 134 179 227 277 331 411
#     4  12  20  41  70  94 137 186 232 272 328 427
#     4  12  26  37  62  96 147 170 210 298 344 399
#     4  12  24  40  66 104 136 179 229 279 341 406
#     4  11  18  38  68 100 135 171 223 280 344 408
#
# _framework density 20.222276000000001
#
# number of rings (size 3 to 8) (size 9 to 14) (size 15 to 20)
#    0.000    0.800    6.000    3.600    0.000    2.400 
#    0.000    0.000    0.000   14.400    0.000    1.400 
#    0.000    0.000    0.000    0.000    0.000    0.000 
#
# Total GULP energy -111651.246296 kJ/mol
# GULP energy per Si atom -5582.562315 kJ/mol
# Density = 2.017625 g / cm^3
# Si number density = 20.222276 Si / 1000 Ang^3
#
#
#
# Elastic Constant Matrix: (Units=GPa)
#
#
# Indices 1 2 3 4 5 6 
#
# 1 81.4360 57.7053 42.2506 0.0000 0.0000 0.0000
# 2 57.7053 108.8770 54.4939 0.0000 0.0000 0.0000
# 3 42.2506 54.4939 86.4997 0.0000 0.0000 0.0000
# 4 0.0000 0.0000 0.0000 42.9734 0.0000 0.0000
# 5 0.0000 0.0000 0.0000 0.0000 13.6149 0.0000
# 6 0.0000 0.0000 0.0000 0.0000 0.0000 -6.4307
#
#
#
# Elastic Compliance Matrix: (Units=1/GPa)
#
#
# Indices 1 2 3 4 5 6 
#
# 1 0.020905 -0.008718 -0.004719 0.000000 0.000000 0.000000
# 2 -0.008718 0.017050 -0.006483 0.000000 0.000000 0.000000
# 3 -0.004719 -0.006483 0.017950 0.000000 0.000000 0.000000
# 4 0.000000 0.000000 0.000000 0.023270 0.000000 0.000000
# 5 0.000000 0.000000 0.000000 0.000000 0.073449 0.000000
# 6 0.000000 0.000000 0.000000 0.000000 0.000000 -0.155504
#
#
# Mechanical properties :
#
#
# Convention : Reuss Voigt Hill
#
# Bulk Modulus (GPa) = 62.24574 65.07916 63.66245
# Shear Modulus (GPa) = 118.15680 18.18904 68.17292
#
# Velocity S-wave (km/s) = 7.65218 3.00235 5.81248
# Velocity P-wave (km/s) = 10.43657 6.65361 8.75193
#
# Compressibility (1/GPa) = 0.01606536
#
# Stress axis : x y z
#
# Youngs Moduli (GPa) = 47.83436 58.65048 55.71052
#
# Poissons Ratio (x) = 0.51132 0.26289
# Poissons Ratio (y) = 0.41703 0.36118
# Poissons Ratio (z) = 0.22573 0.38024
#
# Static dielectric constant tensor:
#      x y z
#    x 1.770180 0.000000 0.000000 
#    y 0.000000 1.694860 0.000000 
#    z 0.000000 0.000000 1.801990 
# 
# From -- ./inp_files/13868.got.cif
#   From: 2010.05.17/outbox.cif.g08.bks.cpg/sg24_7_cif.got.tgz:13868.got - 2010.06.04 00:33:39.
