data_PCOD9335058
_publ_section_title
;
Structure prediction by ZEFSAII (Michael W. Deem and Ramdas Pophale) SiO2 
 PCOD9335058
Probable space group: I 21 21 21
;
_chemical_formula_sum "Si O2"
_cell_formula_units_Z 64
_cell_length_a 8.925212
_cell_length_b 12.214251
_cell_length_c 27.660202
_cell_angle_alpha 90.000000
_cell_angle_beta 90.000000
_cell_angle_gamma 90.000000
_cell_volume 3015.370825
_symmetry_space_group_name_H-M "I 21 21 21"
_symmetry_group_IT_number 24
_symmetry_cell_setting 'orthorhombic'
loop_
_space_group_symop_operation_xyz
x,y,z
-x,1/2-y,z
x,-y,1/2-z
1/2-x,y,-z
1/2+x,1/2+y,1/2+z
1/2-x,-y,1/2+z
1/2+x,1/2-y,-z
-x,1/2+y,1/2-z
loop_
_atom_site_type_symbol
_atom_site_label
_atom_site_fract_x
_atom_site_fract_y
_atom_site_fract_z
Si Si1 0.311097 0.985883 0.594898
Si Si2 0.177669 0.773418 0.052592
Si Si3 0.833227 0.198333 0.342233
Si Si4 0.332109 0.931162 0.704178
Si Si5 0.396451 0.646674 0.593312
Si Si6 0.674396 0.768704 0.254262
Si Si7 0.167657 0.206426 0.954731
Si Si8 0.175392 0.446835 0.190268
O O1 0.312335 0.992614 0.653194
O O2 0.478773 0.943354 0.580358
O O3 0.191322 0.889444 0.584274
O O4 0.288694 0.100363 0.567938
O O5 0.223569 0.708738 0.102241
O O6 0.000000 0.750000 0.047647
O O7 0.250000 0.748836 0.000000
O O8 0.738705 0.254059 0.299386
O O9 0.000000 0.250000 0.341913
O O10 0.833254 0.073455 0.324066
O O11 0.252953 0.814545 0.708416
O O12 0.510349 0.914084 0.709086
O O13 0.278141 0.000000 0.750000
O O14 0.500000 0.750000 0.607141
O O15 0.278712 0.691708 0.555231
O O16 0.302278 0.609831 0.638805
O O17 0.500000 0.750000 0.254237
O O18 0.711722 0.891039 0.272658
O O19 0.000000 0.250000 0.960926
O O20 0.250000 0.150884 0.000000
#
# Coordination Sequence:
#
# PCOD9335058 Si02
#       8
#     8   8   8   8   8   8   8   8
#     4  10  21  40  64  93 126 164 209 258 314 375
#     4  11  24  45  69  93 123 161 214 272 321 375
#     4  11  23  44  68  90 122 167 222 268 310 374
#     4  11  21  38  66  93 123 168 215 255 308 380
#     4   9  18  34  58  89 125 160 202 258 314 376
#     4  12  25  38  58  95 138 170 206 261 322 382
#     4  11  22  38  60  91 129 166 208 257 314 382
#     4  11  21  39  65  92 123 168 217 261 310 372
#
# _framework density 21.224585000000001
#
# number of rings (size 3 to 8) (size 9 to 14) (size 15 to 20)
#    0.000    1.250    0.000   10.500    0.000    3.500 
#    0.000   10.000    0.000    0.000    0.000    0.000 
#    0.000    0.000    0.000    0.000    0.000    0.000 
#
# Total GULP energy -178557.787348 kJ/mol
# GULP energy per Si atom -5579.930855 kJ/mol
# Density = 2.117628 g / cm^3
# Si number density = 21.224585 Si / 1000 Ang^3
#
#
#
# Elastic Constant Matrix: (Units=GPa)
#
#
# Indices 1 2 3 4 5 6 
#
# 1 90.3670 44.4788 51.3025 0.0000 0.0000 0.0000
# 2 44.4788 96.0727 40.3420 0.0000 0.0000 0.0000
# 3 51.3025 40.3420 123.6169 0.0000 0.0000 0.0000
# 4 0.0000 0.0000 0.0000 24.7273 0.0000 0.0000
# 5 0.0000 0.0000 0.0000 0.0000 27.8767 0.0000
# 6 0.0000 0.0000 0.0000 0.0000 0.0000 8.0981
#
#
#
# Elastic Compliance Matrix: (Units=1/GPa)
#
#
# Indices 1 2 3 4 5 6 
#
# 1 0.016723 -0.005595 -0.005115 0.000000 0.000000 0.000000
# 2 -0.005595 0.013933 -0.002225 0.000000 0.000000 0.000000
# 3 -0.005115 -0.002225 0.010938 0.000000 0.000000 0.000000
# 4 0.000000 0.000000 0.000000 0.040441 0.000000 0.000000
# 5 0.000000 0.000000 0.000000 0.000000 0.035872 0.000000
# 6 0.000000 0.000000 0.000000 0.000000 0.000000 0.123485
#
#
# Mechanical properties :
#
#
# Convention : Reuss Voigt Hill
#
# Bulk Modulus (GPa) = 63.58913 64.70036 64.14475
# Shear Modulus (GPa) = 18.34831 23.73598 21.04215
#
# Velocity S-wave (km/s) = 2.94340 3.34776 3.15207
# Velocity P-wave (km/s) = 6.44800 6.74487 6.59810
#
# Compressibility (1/GPa) = 0.01572596
#
# Stress axis : x y z
#
# Youngs Moduli (GPa) = 59.79669 71.77003 91.42178
#
# Poissons Ratio (x) = 0.40154 0.46758
# Poissons Ratio (y) = 0.33455 0.20343
# Poissons Ratio (z) = 0.30583 0.15971
#
# Static dielectric constant tensor:
#      x y z
#    x 1.730120 0.000000 0.000000 
#    y 0.000000 1.842520 0.000000 
#    z 0.000000 0.000000 1.841720 
# 
# From -- ./inp_files/38438.got.cif
#   From: 2010.05.17/outbox.cif.g08.bks.cpg/sg24_20_cif.got.tgz:38438.got - 2010.06.04 00:33:39.
