data_PCOD9335246
_publ_section_title
;
Structure prediction by ZEFSAII (Michael W. Deem and Ramdas Pophale) SiO2 
 PCOD9335246
Probable space group: I 21 21 21
;
_chemical_formula_sum "Si O2"
_cell_formula_units_Z 48
_cell_length_a 8.960424
_cell_length_b 28.834059
_cell_length_c 8.735125
_cell_angle_alpha 90.000000
_cell_angle_beta 90.000000
_cell_angle_gamma 90.000000
_cell_volume 2256.854015
_symmetry_space_group_name_H-M "I 21 21 21"
_symmetry_group_IT_number 24
_symmetry_cell_setting 'orthorhombic'
loop_
_space_group_symop_operation_xyz
x,y,z
-x,1/2-y,z
x,-y,1/2-z
1/2-x,y,-z
1/2+x,1/2+y,1/2+z
1/2-x,-y,1/2+z
1/2+x,1/2-y,-z
-x,1/2+y,1/2-z
loop_
_atom_site_type_symbol
_atom_site_label
_atom_site_fract_x
_atom_site_fract_y
_atom_site_fract_z
Si Si1 0.162145 0.627416 0.206130
Si Si2 0.897147 0.211468 0.069272
Si Si3 0.606222 0.354397 0.108935
Si Si4 0.092714 0.981566 0.072102
Si Si5 0.505695 0.884735 0.084375
Si Si6 0.918318 0.066381 0.042366
O O1 0.157865 0.669532 0.324604
O O2 0.330226 0.610729 0.166964
O O3 0.075802 0.584124 0.282949
O O4 0.063836 0.643776 0.062290
O O5 0.000000 0.250000 0.146928
O O6 0.750000 0.234119 0.000000
O O7 0.995603 0.187255 0.936938
O O8 0.606734 0.361621 0.292804
O O9 0.750000 0.348785 0.000000
O O10 0.531402 0.402092 0.051087
O O11 0.105633 0.000000 0.250000
O O12 0.250000 0.996682 0.000000
O O13 0.956422 0.013560 0.016108
O O14 0.061334 0.931466 0.991490
O O15 0.750000 0.077392 0.000000
#
# Coordination Sequence:
#
# PCOD9335246 Si02
#       6
#     8   8   8   8   8   8
#     4  10  21  43  71 101 137 186 240 296 371 435
#     4  11  22  44  72 108 143 182 239 293 365 457
#     4  11  23  41  70 101 136 189 233 294 375 438
#     4  12  29  42  59  97 139 187 248 308 362 419
#     4  11  23  43  71  97 141 191 236 306 365 430
#     4  11  22  41  63  92 135 184 246 291 352 427
#
# _framework density 21.268545
#
# number of rings (size 3 to 8) (size 9 to 14) (size 15 to 20)
#    0.000    1.000    5.000    2.000    7.000    0.000 
#    0.000    0.833    3.667    0.000    0.000    0.000 
#    0.000    0.000    0.000    0.000    0.000    0.000 
#
# Total GULP energy -133627.499184 kJ/mol
# GULP energy per Si atom -5567.812466 kJ/mol
# Density = 2.122014 g / cm^3
# Si number density = 21.268545 Si / 1000 Ang^3
#
#
#
# Elastic Constant Matrix: (Units=GPa)
#
#
# Indices 1 2 3 4 5 6 
#
# 1 104.4308 35.0999 41.3000 0.0000 0.0001 0.0001
# 2 35.0999 63.3837 19.9405 0.0000 0.0001 0.0001
# 3 41.3000 19.9405 103.9812 -0.0014 -0.0011 -0.0005
# 4 0.0000 0.0000 -0.0014 6.7055 -0.0001 0.0000
# 5 0.0001 0.0001 -0.0011 -0.0001 31.6048 -0.0002
# 6 0.0001 0.0001 -0.0005 0.0000 -0.0002 29.8552
#
#
#
# Elastic Compliance Matrix: (Units=1/GPa)
#
#
# Indices 1 2 3 4 5 6 
#
# 1 0.013223 -0.006034 -0.004095 -0.000001 0.000000 0.000000
# 2 -0.006034 0.019544 -0.001351 0.000000 0.000000 0.000000
# 3 -0.004095 -0.001351 0.011503 0.000002 0.000000 0.000000
# 4 -0.000001 0.000000 0.000002 0.149131 0.000001 0.000000
# 5 0.000000 0.000000 0.000000 0.000001 0.031641 0.000000
# 6 0.000000 0.000000 0.000000 0.000000 0.000000 0.033495
#
#
# Mechanical properties :
#
#
# Convention : Reuss Voigt Hill
#
# Bulk Modulus (GPa) = 46.92896 51.60849 49.26873
# Shear Modulus (GPa) = 17.32502 25.33014 21.32758
#
# Velocity S-wave (km/s) = 2.85719 3.45478 3.17010
# Velocity P-wave (km/s) = 5.74435 6.34286 6.05101
#
# Compressibility (1/GPa) = 0.02130880
#
# Stress axis : x y z
#
# Youngs Moduli (GPa) = 75.62364 51.16751 86.93633
#
# Poissons Ratio (x) = 0.30877 0.35600
# Poissons Ratio (y) = 0.45635 0.11746
# Poissons Ratio (z) = 0.30967 0.06913
#
# Static dielectric constant tensor:
#      x y z
#    x 1.790120 0.000000 0.000000 
#    y 0.000000 1.740280 0.000000 
#    z 0.000000 0.000000 1.913090 
# 
# From -- ./inp_files/9744.got.cif
#   From: 2010.05.17/outbox.cif.g08.bks.cpg/sg24_5_cif.got.tgz:9744.got - 2010.06.04 00:33:39.
