data_PCOD9335592
_publ_section_title
;
Structure prediction by ZEFSAII (Michael W. Deem and Ramdas Pophale) SiO2 
 PCOD9335592
Probable space group: I 21 21 21
;
_chemical_formula_sum "Si O2"
_cell_formula_units_Z 52
_cell_length_a 18.779640
_cell_length_b 6.691372
_cell_length_c 20.185449
_cell_angle_alpha 90.000000
_cell_angle_beta 90.000000
_cell_angle_gamma 90.000000
_cell_volume 2536.534955
_symmetry_space_group_name_H-M "I 21 21 21"
_symmetry_group_IT_number 24
_symmetry_cell_setting 'orthorhombic'
loop_
_space_group_symop_operation_xyz
x,y,z
-x,1/2-y,z
x,-y,1/2-z
1/2-x,y,-z
1/2+x,1/2+y,1/2+z
1/2-x,-y,1/2+z
1/2+x,1/2-y,-z
-x,1/2+y,1/2-z
loop_
_atom_site_type_symbol
_atom_site_label
_atom_site_fract_x
_atom_site_fract_y
_atom_site_fract_z
Si Si1 0.125243 0.788161 0.011508
Si Si2 0.500000 0.750000 0.087106
Si Si3 0.700645 0.392042 0.814655
Si Si4 0.919599 0.685484 0.160934
Si Si5 0.686596 0.364363 0.081907
Si Si6 0.168094 0.500000 0.250000
Si Si7 0.750000 0.009638 0.000000
Si Si8 0.439056 0.908249 0.319015
O O1 0.188316 0.633914 0.025819
O O2 0.067078 0.702134 0.959998
O O3 0.157368 0.985154 0.974756
O O4 0.087410 0.818926 0.081575
O O5 0.523503 0.571378 0.134294
O O6 0.731146 0.500000 0.750000
O O7 0.619248 0.473903 0.820911
O O8 0.745386 0.453041 0.878900
O O9 0.706416 0.157635 0.798606
O O10 0.874291 0.852682 0.200378
O O11 0.000000 0.750000 0.177926
O O12 0.625783 0.329452 0.136599
O O13 0.712954 0.158006 0.051525
O O14 0.500000 0.750000 0.302617
O O15 0.412977 0.000000 0.250000
#
# Coordination Sequence:
#
# PCOD9335592 Si02
#       8
#     8   4   8   8   8   4   4   8
#     4  11  23  42  65  95 132 177 220 275 338 402
#     4  10  22  42  64  94 134 176 224 274 336 402
#     4  10  22  42  60  92 127 169 220 271 329 390
#     4  11  23  39  65  92 128 172 217 273 338 397
#     4  11  24  41  66  94 133 173 222 279 334 394
#     4  10  24  40  64  92 132 166 226 278 328 408
#     4  12  22  38  64  92 126 170 222 270 330 396
#     4  11  22  41  65  97 133 175 221 276 334 404
#
# _framework density 20.500406000000002
#
# number of rings (size 3 to 8) (size 9 to 14) (size 15 to 20)
#    0.000    1.231    1.538    4.615    3.231    1.231 
#    1.385    0.000    0.000    0.000    0.000    0.000 
#    0.000    0.000    0.000    0.000    0.000    0.000 
#
# Total GULP energy -145066.248684 kJ/mol
# GULP energy per Si atom -5579.471103 kJ/mol
# Density = 2.045375 g / cm^3
# Si number density = 20.500406 Si / 1000 Ang^3
#
#
#
# Elastic Constant Matrix: (Units=GPa)
#
#
# Indices 1 2 3 4 5 6 
#
# 1 85.4269 21.9581 9.6072 0.0000 0.0000 0.0000
# 2 21.9581 70.9713 14.7507 0.0000 0.0000 0.0000
# 3 9.6072 14.7507 103.4652 0.0000 0.0000 0.0000
# 4 0.0000 0.0000 0.0000 -3.8000 0.0000 0.0000
# 5 0.0000 0.0000 0.0000 0.0000 0.4494 0.0000
# 6 0.0000 0.0000 0.0000 0.0000 0.0000 5.9242
#
#
#
# Elastic Compliance Matrix: (Units=1/GPa)
#
#
# Indices 1 2 3 4 5 6 
#
# 1 0.012758 -0.003814 -0.000641 0.000000 0.000000 0.000000
# 2 -0.003814 0.015661 -0.001879 0.000000 0.000000 0.000000
# 3 -0.000641 -0.001879 0.009992 0.000000 0.000000 0.000000
# 4 0.000000 0.000000 0.000000 -0.263161 0.000000 0.000000
# 5 0.000000 0.000000 0.000000 0.000000 2.225399 0.000000
# 6 0.000000 0.000000 0.000000 0.000000 0.000000 0.168799
#
#
# Mechanical properties :
#
#
# Convention : Reuss Voigt Hill
#
# Bulk Modulus (GPa) = 38.84354 39.16617 39.00485
# Shear Modulus (GPa) = 2.28238 14.75120 8.51679
#
# Velocity S-wave (km/s) = 1.05629 2.68537 2.04046
# Velocity P-wave (km/s) = 4.52510 5.36297 4.96175
#
# Compressibility (1/GPa) = 0.02574431
#
# Stress axis : x y z
#
# Youngs Moduli (GPa) = 78.37980 63.85402 100.07590
#
# Poissons Ratio (x) = 0.24355 0.06414
# Poissons Ratio (y) = 0.29895 0.18800
# Poissons Ratio (z) = 0.05023 0.11995
#
# Static dielectric constant tensor:
#      x y z
#    x 1.776290 0.000000 0.000000 
#    y 0.000000 1.769010 0.000000 
#    z 0.000000 0.000000 1.733630 
# 
# From -- ./inp_files/34142.got.cif
#   From: 2010.05.17/outbox.cif.g08.bks.cpg/sg24_18_cif.got.tgz:34142.got - 2010.06.04 00:33:39.
