data_PCOD9335881
_publ_section_title
;
Structure prediction by ZEFSAII (Michael W. Deem and Ramdas Pophale) SiO2 
 PCOD9335881
Probable space group: I 21 21 21
;
_chemical_formula_sum "Si O2"
_cell_formula_units_Z 36
_cell_length_a 25.185467
_cell_length_b 5.193859
_cell_length_c 11.808280
_cell_angle_alpha 90.000000
_cell_angle_beta 90.000000
_cell_angle_gamma 90.000000
_cell_volume 1544.638325
_symmetry_space_group_name_H-M "I 21 21 21"
_symmetry_group_IT_number 24
_symmetry_cell_setting 'orthorhombic'
loop_
_space_group_symop_operation_xyz
x,y,z
-x,1/2-y,z
x,-y,1/2-z
1/2-x,y,-z
1/2+x,1/2+y,1/2+z
1/2-x,-y,1/2+z
1/2+x,1/2-y,-z
-x,1/2+y,1/2-z
loop_
_atom_site_type_symbol
_atom_site_label
_atom_site_fract_x
_atom_site_fract_y
_atom_site_fract_z
Si Si1 0.750000 0.639226 0.500000
Si Si2 0.345456 0.062841 0.369975
Si Si3 0.415497 0.446080 0.126148
Si Si4 0.171834 0.249271 0.176015
Si Si5 0.442647 0.624272 0.623172
O O1 0.699986 0.473037 0.460941
O O2 0.721509 0.803491 0.595415
O O3 0.367780 0.348768 0.371269
O O4 0.319193 0.000000 0.250000
O O5 0.392510 0.846216 0.375784
O O6 0.443181 0.500000 0.250000
O O7 0.441714 0.505353 0.003286
O O8 0.166520 0.500000 0.250000
O O9 0.112794 0.215224 0.121788
O O10 0.183004 0.000000 0.250000
O O11 0.500000 0.750000 0.622826
O O12 0.441646 0.500000 0.750000
#
# Coordination Sequence:
#
# PCOD9335881 Si02
#       5
#     4   8   8   8   8
#     4  12  24  42  72 100 144 194 238 308 360 444
#     4  10  23  41  65 100 139 188 236 292 360 430
#     4  10  23  47  71 100 143 185 238 296 357 431
#     4  11  27  45  67 106 146 188 247 301 364 441
#     4  11  25  47  77 108 147 194 244 309 369 438
#
# _framework density 23.306424
#
# number of rings (size 3 to 8) (size 9 to 14) (size 15 to 20)
#    0.000    1.333    2.222    1.333    6.222    8.000 
#    0.000    4.444    0.000    0.000    0.000    0.000 
#    0.000    0.000    0.000    0.000    0.000    0.000 
#
# Total GULP energy -100261.593002 kJ/mol
# GULP energy per Si atom -5570.088500 kJ/mol
# Density = 2.325338 g / cm^3
# Si number density = 23.306424 Si / 1000 Ang^3
#
#
#
# Elastic Constant Matrix: (Units=GPa)
#
#
# Indices 1 2 3 4 5 6 
#
# 1 117.0897 21.2123 42.9103 0.0000 0.0000 0.0000
# 2 21.2123 69.3868 7.4657 0.0000 0.0000 0.0000
# 3 42.9103 7.4657 177.1764 0.0000 0.0000 0.0000
# 4 0.0000 0.0000 0.0000 21.7862 0.0000 0.0000
# 5 0.0000 0.0000 0.0000 0.0000 3.3351 0.0000
# 6 0.0000 0.0000 0.0000 0.0000 0.0000 17.3492
#
#
#
# Elastic Compliance Matrix: (Units=1/GPa)
#
#
# Indices 1 2 3 4 5 6 
#
# 1 0.009877 -0.002775 -0.002275 0.000000 0.000000 0.000000
# 2 -0.002775 0.015257 0.000029 0.000000 0.000000 0.000000
# 3 -0.002275 0.000029 0.006194 0.000000 0.000000 0.000000
# 4 0.000000 0.000000 0.000000 0.045901 0.000000 0.000000
# 5 0.000000 0.000000 0.000000 0.000000 0.299841 0.000000
# 6 0.000000 0.000000 0.000000 0.000000 0.000000 0.057640
#
#
# Mechanical properties :
#
#
# Convention : Reuss Voigt Hill
#
# Bulk Modulus (GPa) = 46.97833 56.31438 51.64635
# Shear Modulus (GPa) = 11.06571 27.96506 19.51539
#
# Velocity S-wave (km/s) = 2.18134 3.46770 2.89682
# Velocity P-wave (km/s) = 5.15217 6.34415 5.77898
#
# Compressibility (1/GPa) = 0.02128641
#
# Stress axis : x y z
#
# Youngs Moduli (GPa) = 101.24609 65.54332 161.44945
#
# Poissons Ratio (x) = 0.18186 0.36733
# Poissons Ratio (y) = 0.28093 -0.00470
# Poissons Ratio (z) = 0.23035 -0.00191
#
# Static dielectric constant tensor:
#      x y z
#    x 1.833550 0.000000 0.000000 
#    y 0.000000 1.868260 0.000000 
#    z 0.000000 0.000000 1.842800 
# 
# From -- ./inp_files/22442.got.cif
#   From: 2010.05.17/outbox.cif.g08.bks.cpg/sg24_12_cif.got.tgz:22442.got - 2010.06.04 00:33:39.
