data_PCOD9335953
_publ_section_title
;
Structure prediction by ZEFSAII (Michael W. Deem and Ramdas Pophale) SiO2 
 PCOD9335953
Probable space group: I 21 21 21
;
_chemical_formula_sum "Si O2"
_cell_formula_units_Z 40
_cell_length_a 9.494191
_cell_length_b 7.635144
_cell_length_c 23.918606
_cell_angle_alpha 90.000000
_cell_angle_beta 90.000000
_cell_angle_gamma 90.000000
_cell_volume 1733.848159
_symmetry_space_group_name_H-M "I 21 21 21"
_symmetry_group_IT_number 24
_symmetry_cell_setting 'orthorhombic'
loop_
_space_group_symop_operation_xyz
x,y,z
-x,1/2-y,z
x,-y,1/2-z
1/2-x,y,-z
1/2+x,1/2+y,1/2+z
1/2-x,-y,1/2+z
1/2+x,1/2-y,-z
-x,1/2+y,1/2-z
loop_
_atom_site_type_symbol
_atom_site_label
_atom_site_fract_x
_atom_site_fract_y
_atom_site_fract_z
Si Si1 0.321861 0.038048 0.630850
Si Si2 0.246298 0.608365 0.168287
Si Si3 0.655328 0.243766 0.777879
Si Si4 0.994974 0.547630 0.601367
Si Si5 0.583722 0.568512 0.983971
O O1 0.343522 0.245435 0.636963
O O2 0.407772 0.976394 0.576515
O O3 0.337613 0.917330 0.685132
O O4 0.155547 0.025544 0.618752
O O5 0.267415 0.704417 0.228783
O O6 0.169106 0.426301 0.182408
O O7 0.382063 0.557256 0.132342
O O8 0.500000 0.250000 0.751344
O O9 0.000000 0.750000 0.618471
O O10 0.994015 0.532922 0.534138
O O11 0.500000 0.750000 0.980449
O O12 0.750000 0.595765 0.000000
#
# Coordination Sequence:
#
# PCOD9335953 Si02
#       5
#     8   8   8   8   8
#     4  11  24  46  72 106 148 196 243 315 376 458
#     4  11  25  46  75 102 146 200 246 315 374 450
#     4  11  27  45  69 111 147 195 251 300 380 456
#     4  11  22  48  71 106 151 188 257 318 380 453
#     4  10  23  43  72 107 147 198 254 310 386 457
#
# _framework density 23.070072
#
# number of rings (size 3 to 8) (size 9 to 14) (size 15 to 20)
#    0.000    1.200    2.000    3.600    8.400    0.800 
#   14.400    1.000    0.000    0.000    0.000    0.000 
#    0.000    0.000    0.000    0.000    0.000    0.000 
#
# Total GULP energy -111718.069705 kJ/mol
# GULP energy per Si atom -5585.903485 kJ/mol
# Density = 2.301756 g / cm^3
# Si number density = 23.070072 Si / 1000 Ang^3
#
#
#
# Elastic Constant Matrix: (Units=GPa)
#
#
# Indices 1 2 3 4 5 6 
#
# 1 84.0835 34.8630 63.6602 0.0000 0.0000 0.0000
# 2 34.8630 112.2610 43.1366 0.0000 0.0000 0.0000
# 3 63.6602 43.1366 148.6430 0.0000 0.0000 0.0000
# 4 0.0000 0.0000 0.0000 33.4557 0.0000 0.0000
# 5 0.0000 0.0000 0.0000 0.0000 42.6747 0.0000
# 6 0.0000 0.0000 0.0000 0.0000 0.0000 22.5755
#
#
#
# Elastic Compliance Matrix: (Units=1/GPa)
#
#
# Indices 1 2 3 4 5 6 
#
# 1 0.018475 -0.003036 -0.007032 0.000000 0.000000 0.000000
# 2 -0.003036 0.010525 -0.001754 0.000000 0.000000 0.000000
# 3 -0.007032 -0.001754 0.010248 0.000000 0.000000 0.000000
# 4 0.000000 0.000000 0.000000 0.029890 0.000000 0.000000
# 5 0.000000 0.000000 0.000000 0.000000 0.023433 0.000000
# 6 0.000000 0.000000 0.000000 0.000000 0.000000 0.044296
#
#
# Mechanical properties :
#
#
# Convention : Reuss Voigt Hill
#
# Bulk Modulus (GPa) = 64.08151 69.81191 66.94671
# Shear Modulus (GPa) = 30.17294 33.29636 31.73465
#
# Velocity S-wave (km/s) = 3.62039 3.80316 3.71290
# Velocity P-wave (km/s) = 6.73153 7.04357 6.88932
#
# Compressibility (1/GPa) = 0.01560513
#
# Stress axis : x y z
#
# Youngs Moduli (GPa) = 54.12658 95.01559 97.57971
#
# Poissons Ratio (x) = 0.28843 0.68614
# Poissons Ratio (y) = 0.16431 0.17117
# Poissons Ratio (z) = 0.38059 0.16667
#
# Static dielectric constant tensor:
#      x y z
#    x 1.823400 0.000000 0.000000 
#    y 0.000000 1.866710 0.000000 
#    z 0.000000 0.000000 1.965490 
# 
# From -- ./inp_files/35000.got.cif
#   From: 2010.05.17/outbox.cif.g08.bks.cpg/sg24_18_cif.got.tgz:35000.got - 2010.06.04 00:33:39.
