data_PCOD9335114
_publ_section_title
;
Structure prediction by ZEFSAII (Michael W. Deem and Ramdas Pophale) SiO2 
 PCOD9335114
Probable space group: I 21 21 21
;
_chemical_formula_sum "Si O2"
_cell_formula_units_Z 20
_cell_length_a 28.603905
_cell_length_b 5.189179
_cell_length_c 5.366686
_cell_angle_alpha 90.000000
_cell_angle_beta 90.000000
_cell_angle_gamma 90.000000
_cell_volume 796.581406
_symmetry_space_group_name_H-M "I 21 21 21"
_symmetry_group_IT_number 24
_symmetry_cell_setting 'orthorhombic'
loop_
_space_group_symop_operation_xyz
x,y,z
-x,1/2-y,z
x,-y,1/2-z
1/2-x,y,-z
1/2+x,1/2+y,1/2+z
1/2-x,-y,1/2+z
1/2+x,1/2-y,-z
-x,1/2+y,1/2-z
loop_
_atom_site_type_symbol
_atom_site_label
_atom_site_fract_x
_atom_site_fract_y
_atom_site_fract_z
Si Si1 0.595663 0.149064 0.006871
Si Si2 0.032114 0.000000 0.250000
Si Si3 0.800239 0.328457 0.998654
O O1 0.651557 0.177753 0.018267
O O2 0.579175 0.000000 0.250000
O O3 0.567390 0.413734 0.969582
O O4 0.587392 0.000000 0.750000
O O5 0.000000 0.250000 0.301616
O O6 0.799181 0.500000 0.750000
O O7 0.803021 0.500000 0.250000
O O8 0.750000 0.185216 0.000000
#
# Coordination Sequence:
#
# PCOD9335114 Si02
#       3
#     8   4   8
#     4  12  27  49  79 115 159 209 271 338 408 486
#     4  12  28  58  82 122 160 218 278 348 412 486
#     4  10  21  40  71 110 157 209 261 323 400 484
#
# _framework density 25.107285999999998
#
# number of rings (size 3 to 8) (size 9 to 14) (size 15 to 20)
#    0.000    0.800    4.000    2.400    0.000    1.600 
#    7.200    0.000    0.000    0.000    0.000    0.000 
#    0.000    0.000    0.000    0.000    0.000    0.000 
#
# Total GULP energy -55973.458404 kJ/mol
# GULP energy per Si atom -5597.345840 kJ/mol
# Density = 2.505014 g / cm^3
# Si number density = 25.107286 Si / 1000 Ang^3
#
#
#
# Elastic Constant Matrix: (Units=GPa)
#
#
# Indices 1 2 3 4 5 6 
#
# 1 198.3802 62.8118 29.5393 0.0000 0.0000 0.0000
# 2 62.8118 110.8530 68.0871 0.0000 0.0000 0.0000
# 3 29.5393 68.0871 216.3536 0.0000 0.0000 0.0000
# 4 0.0000 0.0000 0.0000 62.6579 0.0000 0.0000
# 5 0.0000 0.0000 0.0000 0.0000 -22.3602 0.0000
# 6 0.0000 0.0000 0.0000 0.0000 0.0000 49.2084
#
#
#
# Elastic Compliance Matrix: (Units=1/GPa)
#
#
# Indices 1 2 3 4 5 6 
#
# 1 0.006161 -0.003687 0.000319 0.000000 0.000000 0.000000
# 2 -0.003687 0.013389 -0.003710 0.000000 0.000000 0.000000
# 3 0.000319 -0.003710 0.005746 0.000000 0.000000 0.000000
# 4 0.000000 0.000000 0.000000 0.015960 0.000000 0.000000
# 5 0.000000 0.000000 0.000000 0.000000 -0.044722 0.000000
# 6 0.000000 0.000000 0.000000 0.000000 0.000000 0.020322
#
#
# Mechanical properties :
#
#
# Convention : Reuss Voigt Hill
#
# Bulk Modulus (GPa) = 89.76717 94.05148 91.90932
# Shear Modulus (GPa) = 143.99545 42.24445 93.11995
#
# Velocity S-wave (km/s) = 7.58133 4.10635 6.09667
# Velocity P-wave (km/s) = 10.60502 7.74751 9.28683
#
# Compressibility (1/GPa) = 0.01113993
#
# Stress axis : x y z
#
# Youngs Moduli (GPa) = 162.32136 74.68962 174.03168
#
# Poissons Ratio (x) = 0.27536 -0.05553
# Poissons Ratio (y) = 0.59844 0.64568
# Poissons Ratio (z) = -0.05180 0.27711
#
# Static dielectric constant tensor:
#      x y z
#    x 2.038050 0.000000 0.000000 
#    y 0.000000 2.050460 0.000000 
#    z 0.000000 0.000000 1.971370 
# 
# From -- ./inp_files/316.got.cif
#   From: 2010.05.17/outbox.cif.g08.bks.cpg/sg24_1_cif.got.tgz:316.got - 2010.06.04 00:33:39.
