data_PCOD9335120
_publ_section_title
;
Structure prediction by ZEFSAII (Michael W. Deem and Ramdas Pophale) SiO2 
 PCOD9335120
Probable space group: I 21 21 21
;
_chemical_formula_sum "Si O2"
_cell_formula_units_Z 60
_cell_length_a 28.762945
_cell_length_b 8.648285
_cell_length_c 13.267992
_cell_angle_alpha 90.000000
_cell_angle_beta 90.000000
_cell_angle_gamma 90.000000
_cell_volume 3300.414944
_symmetry_space_group_name_H-M "I 21 21 21"
_symmetry_group_IT_number 24
_symmetry_cell_setting 'orthorhombic'
loop_
_space_group_symop_operation_xyz
x,y,z
-x,1/2-y,z
x,-y,1/2-z
1/2-x,y,-z
1/2+x,1/2+y,1/2+z
1/2-x,-y,1/2+z
1/2+x,1/2-y,-z
-x,1/2+y,1/2-z
loop_
_atom_site_type_symbol
_atom_site_label
_atom_site_fract_x
_atom_site_fract_y
_atom_site_fract_z
Si Si1 0.121097 0.732750 0.343640
Si Si2 0.700462 0.107345 0.336328
Si Si3 0.196947 0.695213 0.172841
Si Si4 0.174648 0.946117 0.866709
Si Si5 0.750000 0.379069 0.000000
Si Si6 0.952226 0.670821 0.200249
Si Si7 0.868664 0.432271 0.429920
Si Si8 0.814473 0.905216 0.469290
O O1 0.161088 0.688859 0.263954
O O2 0.072391 0.723986 0.286736
O O3 0.131934 0.638886 0.445409
O O4 0.129016 0.912275 0.365908
O O5 0.748901 0.186947 0.298145
O O6 0.673533 0.260108 0.366892
O O7 0.680215 0.000000 0.250000
O O8 0.701567 0.985846 0.427936
O O9 0.177275 0.835285 0.103885
O O10 0.194997 0.541088 0.108028
O O11 0.169469 0.000000 0.750000
O O12 0.221881 0.020014 0.916820
O O13 0.136230 0.980888 0.953274
O O14 0.712654 0.256485 0.955743
O O15 0.959432 0.500000 0.250000
O O16 0.914421 0.657787 0.109388
O O17 0.000000 0.750000 0.169268
#
# Coordination Sequence:
#
# PCOD9335120 Si02
#       8
#     8   8   8   8   4   8   8   8
#     4  10  22  37  60  83 123 163 191 244 309 375
#     4  12  25  37  52  78 112 156 217 265 294 332
#     4  11  21  34  52  81 114 158 200 254 300 339
#     4  12  26  40  58  79 113 167 216 253 301 356
#     4  12  24  40  56  84 114 168 222 262 298 338
#     4   9  20  39  65  98 125 148 188 241 311 396
#     4  10  21  41  59  86 120 157 202 246 309 375
#     4  12  22  36  52  80 120 156 208 258 297 348
#
# _framework density 18.179531999999998
#
# number of rings (size 3 to 8) (size 9 to 14) (size 15 to 20)
#    0.000    1.067    4.000    4.000    1.867    2.133 
#    0.000    0.000    0.000    0.000    0.000    4.667 
#    0.000    0.000    0.000    0.000    0.000    0.000 
#
# Total GULP energy -167020.835707 kJ/mol
# GULP energy per Si atom -5567.361190 kJ/mol
# Density = 1.813815 g / cm^3
# Si number density = 18.179532 Si / 1000 Ang^3
#
#
#
# Elastic Constant Matrix: (Units=GPa)
#
#
# Indices 1 2 3 4 5 6 
#
# 1 64.4602 7.5953 23.8703 0.0000 0.0000 0.0000
# 2 7.5953 55.7154 34.5172 0.0000 0.0000 0.0000
# 3 23.8703 34.5172 86.2414 0.0000 0.0000 0.0000
# 4 0.0000 0.0000 0.0000 39.3234 0.0000 0.0000
# 5 0.0000 0.0000 0.0000 0.0000 18.3954 0.0000
# 6 0.0000 0.0000 0.0000 0.0000 0.0000 27.4901
#
#
#
# Elastic Compliance Matrix: (Units=1/GPa)
#
#
# Indices 1 2 3 4 5 6 
#
# 1 0.017313 0.000809 -0.005116 0.000000 0.000000 0.000000
# 2 0.000809 0.023904 -0.009791 0.000000 0.000000 0.000000
# 3 -0.005116 -0.009791 0.016930 0.000000 0.000000 0.000000
# 4 0.000000 0.000000 0.000000 0.025430 0.000000 0.000000
# 5 0.000000 0.000000 0.000000 0.000000 0.054361 0.000000
# 6 0.000000 0.000000 0.000000 0.000000 0.000000 0.036377
#
#
# Mechanical properties :
#
#
# Convention : Reuss Voigt Hill
#
# Bulk Modulus (GPa) = 33.38775 37.59808 35.49292
# Shear Modulus (GPa) = 23.53003 26.40405 24.96704
#
# Velocity S-wave (km/s) = 3.60156 3.81518 3.70991
# Velocity P-wave (km/s) = 5.97498 6.33513 6.15769
#
# Compressibility (1/GPa) = 0.02995110
#
# Stress axis : x y z
#
# Youngs Moduli (GPa) = 57.76171 41.83391 59.06603
#
# Poissons Ratio (x) = -0.03385 0.30217
# Poissons Ratio (y) = -0.04674 0.57834
# Poissons Ratio (z) = 0.29549 0.40961
#
# Static dielectric constant tensor:
#      x y z
#    x 1.674060 0.000000 0.000000 
#    y 0.000000 1.676330 0.000000 
#    z 0.000000 0.000000 1.725450 
# 
# From -- ./inp_files/11528.got.cif
#   From: 2010.05.17/outbox.cif.g08.bks.cpg/sg24_6_cif.got.tgz:11528.got - 2010.06.04 00:33:39.
