data_PCOD9335315
_publ_section_title
;
Structure prediction by ZEFSAII (Michael W. Deem and Ramdas Pophale) SiO2 
 PCOD9335315
Probable space group: I 21 21 21
;
_chemical_formula_sum "Si O2"
_cell_formula_units_Z 36
_cell_length_a 15.960950
_cell_length_b 4.990782
_cell_length_c 20.316524
_cell_angle_alpha 90.000000
_cell_angle_beta 90.000000
_cell_angle_gamma 90.000000
_cell_volume 1618.365988
_symmetry_space_group_name_H-M "I 21 21 21"
_symmetry_group_IT_number 24
_symmetry_cell_setting 'orthorhombic'
loop_
_space_group_symop_operation_xyz
x,y,z
-x,1/2-y,z
x,-y,1/2-z
1/2-x,y,-z
1/2+x,1/2+y,1/2+z
1/2-x,-y,1/2+z
1/2+x,1/2-y,-z
-x,1/2+y,1/2-z
loop_
_atom_site_type_symbol
_atom_site_label
_atom_site_fract_x
_atom_site_fract_y
_atom_site_fract_z
Si Si1 0.500000 0.250000 0.498632
Si Si2 0.097308 0.302138 0.379945
Si Si3 0.258323 0.020664 0.828108
Si Si4 0.645031 0.014395 0.327579
Si Si5 0.560459 0.000000 0.750000
Si Si6 0.000000 0.250000 0.913491
O O1 0.422578 0.364252 0.544050
O O2 0.533093 0.505564 0.458673
O O3 0.162223 0.061661 0.371912
O O4 0.117436 0.478591 0.315483
O O5 0.000000 0.250000 0.361786
O O6 0.183198 0.806637 0.840438
O O7 0.219001 0.693996 0.657751
O O8 0.280242 0.000000 0.750000
O O9 0.567125 0.907451 0.368997
O O10 0.624322 0.000000 0.250000
O O11 0.500000 0.750000 0.735279
#
# Coordination Sequence:
#
# PCOD9335315 Si02
#       6
#     4   8   8   8   4   4
#     4  10  26  41  65  98 136 184 228 256 308 422
#     4   9  23  39  63  94 139 178 222 251 322 386
#     4  10  22  40  63 103 134 160 212 285 330 386
#     4  10  24  43  70  97 123 159 221 288 347 388
#     4  10  22  34  60  94 122 176 222 262 302 370
#     4  12  24  49  69  92 130 178 222 282 342 400
#
# _framework density 22.244661000000001
#
# number of rings (size 3 to 8) (size 9 to 14) (size 15 to 20)
#    0.667    1.333    0.000    1.333   12.444    5.333 
#    0.000    6.667    0.000    0.000    0.000    0.000 
#    0.000    0.000    0.000    0.000    0.000    0.000 
#
# Total GULP energy -100231.938962 kJ/mol
# GULP energy per Si atom -5568.441053 kJ/mol
# Density = 2.219403 g / cm^3
# Si number density = 22.244661 Si / 1000 Ang^3
#
#
#
# Elastic Constant Matrix: (Units=GPa)
#
#
# Indices 1 2 3 4 5 6 
#
# 1 85.1641 11.4875 41.8027 0.0000 0.0000 0.0000
# 2 11.4875 107.1290 35.6288 0.0000 0.0000 0.0000
# 3 41.8027 35.6288 86.1646 0.0000 0.0000 0.0000
# 4 0.0000 0.0000 0.0000 91.1589 0.0000 0.0000
# 5 0.0000 0.0000 0.0000 0.0000 -49.8189 0.0000
# 6 0.0000 0.0000 0.0000 0.0000 0.0000 40.0405
#
#
#
# Elastic Compliance Matrix: (Units=1/GPa)
#
#
# Indices 1 2 3 4 5 6 
#
# 1 0.015499 0.000973 -0.007922 0.000000 0.000000 0.000000
# 2 0.000973 0.010884 -0.004972 0.000000 0.000000 0.000000
# 3 -0.007922 -0.004972 0.017505 0.000000 0.000000 0.000000
# 4 0.000000 0.000000 0.000000 0.010970 0.000000 0.000000
# 5 0.000000 0.000000 0.000000 0.000000 -0.020073 0.000000
# 6 0.000000 0.000000 0.000000 0.000000 0.000000 0.024975
#
#
# Mechanical properties :
#
#
# Convention : Reuss Voigt Hill
#
# Bulk Modulus (GPa) = 49.88691 50.69952 50.29321
# Shear Modulus (GPa) = 55.38072 28.91201 42.14637
#
# Velocity S-wave (km/s) = 4.99502 3.60909 4.35751
# Velocity P-wave (km/s) = 7.46607 6.34102 6.92642
#
# Compressibility (1/GPa) = 0.02004534
#
# Stress axis : x y z
#
# Youngs Moduli (GPa) = 64.51980 91.87856 57.12703
#
# Poissons Ratio (x) = -0.08936 0.45253
# Poissons Ratio (y) = -0.06275 0.28405
# Poissons Ratio (z) = 0.51110 0.45685
#
# Static dielectric constant tensor:
#      x y z
#    x 1.000490 0.000000 0.000000 
#    y 0.000000 1.938300 0.000000 
#    z 0.000000 0.000000 1.980740 
# 
# From -- ./inp_files/35929.got.cif
#   From: 2010.05.17/outbox.cif.g08.bks.cpg/sg24_18_cif.got.tgz:35929.got - 2010.06.04 00:33:39.
