data_PCOD9335523
_publ_section_title
;
Structure prediction by ZEFSAII (Michael W. Deem and Ramdas Pophale) SiO2 
 PCOD9335523
Probable space group: I 21 21 21
;
_chemical_formula_sum "Si O2"
_cell_formula_units_Z 32
_cell_length_a 7.913748
_cell_length_b 5.031868
_cell_length_c 34.612475
_cell_angle_alpha 90.000000
_cell_angle_beta 90.000000
_cell_angle_gamma 90.000000
_cell_volume 1378.301128
_symmetry_space_group_name_H-M "I 21 21 21"
_symmetry_group_IT_number 24
_symmetry_cell_setting 'orthorhombic'
loop_
_space_group_symop_operation_xyz
x,y,z
-x,1/2-y,z
x,-y,1/2-z
1/2-x,y,-z
1/2+x,1/2+y,1/2+z
1/2-x,-y,1/2+z
1/2+x,1/2-y,-z
-x,1/2+y,1/2-z
loop_
_atom_site_type_symbol
_atom_site_label
_atom_site_fract_x
_atom_site_fract_y
_atom_site_fract_z
Si Si1 0.310319 0.135749 0.173048
Si Si2 0.188125 0.872925 0.585688
Si Si3 0.610139 0.500000 0.250000
Si Si4 0.000000 0.250000 0.221128
Si Si5 0.814207 0.874600 0.042665
O O1 0.500000 0.250000 0.167109
O O2 0.261734 0.056670 0.129826
O O3 0.317088 0.920147 0.207794
O O4 0.160899 0.306679 0.193390
O O5 0.303408 0.637468 0.568704
O O6 0.000000 0.750000 0.583963
O O7 0.201501 0.138951 0.560756
O O8 0.500000 0.250000 0.239675
O O9 0.977251 0.500000 0.250000
O O10 0.000000 0.750000 0.040846
O O11 0.750000 0.944372 0.000000
#
# Coordination Sequence:
#
# PCOD9335523 Si02
#       5
#     8   8   4   4   8
#     4  10  25  45  70  97 139 182 228 283 341 405
#     4  11  25  46  72 104 138 182 230 284 347 415
#     4  10  22  40  68  94 130 182 228 272 332 394
#     4  12  28  42  66 100 134 182 234 284 336 402
#     4  12  26  46  73 103 140 180 225 284 346 419
#
# _framework density 23.216985999999999
#
# number of rings (size 3 to 8) (size 9 to 14) (size 15 to 20)
#    0.000    1.000    1.250    3.750   10.500    8.000 
#    0.000    0.000    0.000    0.000    0.000    0.000 
#    0.000    0.000    0.000    0.000    0.000    0.000 
#
# Total GULP energy -89166.446151 kJ/mol
# GULP energy per Si atom -5572.902884 kJ/mol
# Density = 2.316414 g / cm^3
# Si number density = 23.216986 Si / 1000 Ang^3
#
#
#
# Elastic Constant Matrix: (Units=GPa)
#
#
# Indices 1 2 3 4 5 6 
#
# 1 113.7821 -0.8293 20.0334 0.0000 0.0000 0.0000
# 2 -0.8293 83.7276 21.6916 -0.0001 0.0000 0.0000
# 3 20.0334 21.6916 170.8358 0.0000 0.0000 0.0000
# 4 0.0000 -0.0001 0.0000 -84.4793 0.0000 0.0000
# 5 0.0000 0.0000 0.0000 0.0000 22.0823 0.0000
# 6 0.0000 0.0000 0.0000 0.0000 0.0000 25.7240
#
#
#
# Elastic Compliance Matrix: (Units=1/GPa)
#
#
# Indices 1 2 3 4 5 6 
#
# 1 0.008985 0.000374 -0.001101 0.000000 0.000000 0.000000
# 2 0.000374 0.012365 -0.001614 0.000000 0.000000 0.000000
# 3 -0.001101 -0.001614 0.006188 0.000000 0.000000 0.000000
# 4 0.000000 0.000000 0.000000 -0.011837 0.000000 0.000000
# 5 0.000000 0.000000 0.000000 0.000000 0.045285 0.000000
# 6 0.000000 0.000000 0.000000 0.000000 0.000000 0.038874
#
#
# Mechanical properties :
#
#
# Convention : Reuss Voigt Hill
#
# Bulk Modulus (GPa) = 43.75111 50.01520 46.88316
# Shear Modulus (GPa) = 44.57880 14.49541 29.53710
#
# Velocity S-wave (km/s) = 4.38664 2.50140 3.57069
# Velocity P-wave (km/s) = 6.67399 5.47101 6.10222
#
# Compressibility (1/GPa) = 0.02285656
#
# Stress axis : x y z
#
# Youngs Moduli (GPa) = 111.29233 80.87125 161.61250
#
# Poissons Ratio (x) = -0.03027 0.17797
# Poissons Ratio (y) = -0.04166 0.26084
# Poissons Ratio (z) = 0.12256 0.13052
#
# Static dielectric constant tensor:
#      x y z
#    x 4.475340 0.000000 0.000000 
#    y 0.000000 1.929120 0.000000 
#    z 0.000000 0.000000 1.847480 
# 
# From -- ./inp_files/38107.got.cif
#   From: 2010.05.17/outbox.cif.g08.bks.cpg/sg24_20_cif.got.tgz:38107.got - 2010.06.04 00:33:39.
