data_PCOD9335760
_publ_section_title
;
Structure prediction by ZEFSAII (Michael W. Deem and Ramdas Pophale) SiO2 
 PCOD9335760
Probable space group: I 21 21 21
;
_chemical_formula_sum "Si O2"
_cell_formula_units_Z 24
_cell_length_a 6.845686
_cell_length_b 17.545445
_cell_length_c 7.516295
_cell_angle_alpha 90.000000
_cell_angle_beta 90.000000
_cell_angle_gamma 90.000000
_cell_volume 902.786756
_symmetry_space_group_name_H-M "I 21 21 21"
_symmetry_group_IT_number 24
_symmetry_cell_setting 'orthorhombic'
loop_
_space_group_symop_operation_xyz
x,y,z
-x,1/2-y,z
x,-y,1/2-z
1/2-x,y,-z
1/2+x,1/2+y,1/2+z
1/2-x,-y,1/2+z
1/2+x,1/2-y,-z
-x,1/2+y,1/2-z
loop_
_atom_site_type_symbol
_atom_site_label
_atom_site_fract_x
_atom_site_fract_y
_atom_site_fract_z
Si Si1 0.201731 0.658175 0.706760
Si Si2 0.249040 0.179259 0.298158
Si Si3 0.750000 0.567594 0.500000
Si Si4 0.922730 0.000000 0.750000
O O1 0.250000 0.659676 0.500000
O O2 0.305233 0.731195 0.793036
O O3 0.972242 0.673894 0.733441
O O4 0.214155 0.573036 0.781360
O O5 0.250000 0.152338 0.500000
O O6 0.156111 0.122106 0.154383
O O7 0.925366 0.519876 0.590030
#
# Coordination Sequence:
#
# PCOD9335760 Si02
#       4
#     8   8   4   4
#     4  10  22  45  68 108 154 194 246 327 388 448
#     4  10  22  45  76 105 144 206 267 307 380 478
#     4  10  22  44  74 108 150 196 258 314 378 478
#     4  10  24  42  74 106 152 194 246 318 400 442
#
# _framework density 26.584353
#
# number of rings (size 3 to 8) (size 9 to 14) (size 15 to 20)
#    0.000    2.000    1.667    0.000    9.333    1.333 
#   24.000    6.667    0.000    0.000    0.000    0.000 
#    0.000    0.000    0.000    0.000    0.000    0.000 
#
# Total GULP energy -67135.345019 kJ/mol
# GULP energy per Si atom -5594.612085 kJ/mol
# Density = 2.652385 g / cm^3
# Si number density = 26.584353 Si / 1000 Ang^3
#
#
#
# Elastic Constant Matrix: (Units=GPa)
#
#
# Indices 1 2 3 4 5 6 
#
# 1 108.4402 25.3673 42.5397 0.0010 -0.0010 -0.0001
# 2 25.3673 202.1949 75.3966 0.0009 0.0007 -0.0008
# 3 42.5397 75.3966 241.2828 0.0136 0.0066 -0.0154
# 4 0.0010 0.0009 0.0136 48.8346 0.0009 -0.0016
# 5 -0.0010 0.0007 0.0066 0.0009 48.7013 0.0001
# 6 -0.0001 -0.0008 -0.0154 -0.0016 0.0001 5.0556
#
#
#
# Elastic Compliance Matrix: (Units=1/GPa)
#
#
# Indices 1 2 3 4 5 6 
#
# 1 0.009988 -0.000675 -0.001550 0.000000 0.000000 -0.000005
# 2 -0.000675 0.005644 -0.001645 0.000000 0.000000 -0.000004
# 3 -0.001550 -0.001645 0.004932 -0.000001 -0.000001 0.000015
# 4 0.000000 0.000000 -0.000001 0.020477 0.000000 0.000007
# 5 0.000000 0.000000 -0.000001 0.000000 0.020533 0.000000
# 6 -0.000005 -0.000004 0.000015 0.000007 0.000000 0.197801
#
#
# Mechanical properties :
#
#
# Convention : Reuss Voigt Hill
#
# Bulk Modulus (GPa) = 77.97969 93.16945 85.57457
# Shear Modulus (GPa) = 18.42380 47.75925 33.09152
#
# Velocity S-wave (km/s) = 2.63541 4.24313 3.53196
# Velocity P-wave (km/s) = 6.21748 7.68950 6.99233
#
# Compressibility (1/GPa) = 0.01282385
#
# Stress axis : x y z
#
# Youngs Moduli (GPa) = 100.12405 177.19050 202.77148
#
# Poissons Ratio (x) = 0.11962 0.31428
# Poissons Ratio (y) = 0.06759 0.33346
# Poissons Ratio (z) = 0.15519 0.29139
#
# Static dielectric constant tensor:
#      x y z
#    x 2.015490 0.000000 0.000010 
#    y 0.000000 2.250970 0.000000 
#    z 0.000010 0.000000 2.062180 
# 
# From -- ./inp_files/1715.got.cif
#   From: 2010.05.17/outbox.cif.g08.bks.cpg/sg24_1_cif.got.tgz:1715.got - 2010.06.04 00:33:39.
