data_PCOD9335308
_publ_section_title
;
Structure prediction by ZEFSAII (Michael W. Deem and Ramdas Pophale) SiO2 
 PCOD9335308
Probable space group: I 21 21 21
;
_chemical_formula_sum "Si O2"
_cell_formula_units_Z 44
_cell_length_a 25.466579
_cell_length_b 19.156320
_cell_length_c 5.206144
_cell_angle_alpha 90.000000
_cell_angle_beta 90.000000
_cell_angle_gamma 90.000000
_cell_volume 2539.796196
_symmetry_space_group_name_H-M "I 21 21 21"
_symmetry_group_IT_number 24
_symmetry_cell_setting 'orthorhombic'
loop_
_space_group_symop_operation_xyz
x,y,z
-x,1/2-y,z
x,-y,1/2-z
1/2-x,y,-z
1/2+x,1/2+y,1/2+z
1/2-x,-y,1/2+z
1/2+x,1/2-y,-z
-x,1/2+y,1/2-z
loop_
_atom_site_type_symbol
_atom_site_label
_atom_site_fract_x
_atom_site_fract_y
_atom_site_fract_z
Si Si1 0.441208 0.915102 0.965949
Si Si2 0.913207 0.230797 0.982254
Si Si3 0.490957 0.133895 0.025703
Si Si4 0.365104 0.220493 0.515962
Si Si5 0.282569 0.876512 0.240511
Si Si6 0.138541 0.000000 0.750000
O O1 0.480502 0.903527 0.204711
O O2 0.403961 0.846186 0.964208
O O3 0.400316 0.975953 0.026271
O O4 0.473222 0.915093 0.705445
O O5 0.951473 0.165307 0.018999
O O6 0.870431 0.243931 0.205847
O O7 0.951617 0.298867 0.980051
O O8 0.887610 0.229140 0.702629
O O9 0.311708 0.188337 0.398999
O O10 0.250000 0.859971 0.500000
O O11 0.325791 0.933947 0.321207
O O12 0.250000 0.908562 0.000000
#
# Coordination Sequence:
#
# PCOD9335308 Si02
#       6
#     8   8   8   8   8   4
#     4   9  18  28  40  58  79 103 136 172 209 250
#     4   9  15  26  43  60  79  97 119 160 220 268
#     4   9  16  26  41  61  79  97 123 164 211 261
#     4   9  17  28  42  59  77 100 130 172 220 260
#     4  11  22  34  46  60  80 110 154 198 228 255
#     4  10  22  34  46  58  82 118 154 192 228 244
#
# _framework density 17.324224999999998
#
# number of rings (size 3 to 8) (size 9 to 14) (size 15 to 20)
#    0.000    2.545    0.000    2.727    0.000   10.909 
#    0.000    0.000    0.000    0.000    0.000    0.000 
#    0.000    0.000    0.000    0.000    0.000    0.000 
#
# Total GULP energy -122633.538985 kJ/mol
# GULP energy per Si atom -5574.251772 kJ/mol
# Density = 1.728479 g / cm^3
# Si number density = 17.324225 Si / 1000 Ang^3
#
#
#
# Elastic Constant Matrix: (Units=GPa)
#
#
# Indices 1 2 3 4 5 6 
#
# 1 40.4398 25.9028 9.3147 0.0000 0.0000 0.0000
# 2 25.9028 23.0619 11.3237 0.0000 0.0000 0.0000
# 3 9.3147 11.3237 91.2616 0.0000 0.0000 0.0000
# 4 0.0000 0.0000 0.0000 15.0040 0.0000 0.0000
# 5 0.0000 0.0000 0.0000 0.0000 14.3465 0.0000
# 6 0.0000 0.0000 0.0000 0.0000 0.0000 20.3945
#
#
#
# Elastic Compliance Matrix: (Units=1/GPa)
#
#
# Indices 1 2 3 4 5 6 
#
# 1 0.089200 -0.101928 0.003543 0.000000 0.000000 0.000000
# 2 -0.101928 0.162647 -0.009778 0.000000 0.000000 0.000000
# 3 0.003543 -0.009778 0.011809 0.000000 0.000000 0.000000
# 4 0.000000 0.000000 0.000000 0.066649 0.000000 0.000000
# 5 0.000000 0.000000 0.000000 0.000000 0.069704 0.000000
# 6 0.000000 0.000000 0.000000 0.000000 0.000000 0.049033
#
#
# Mechanical properties :
#
#
# Convention : Reuss Voigt Hill
#
# Bulk Modulus (GPa) = 21.12813 27.53842 24.33328
# Shear Modulus (GPa) = 7.34061 17.16380 12.25221
#
# Velocity S-wave (km/s) = 2.06068 3.15102 2.66226
# Velocity P-wave (km/s) = 4.22895 5.40083 4.85041
#
# Compressibility (1/GPa) = 0.04733027
#
# Stress axis : x y z
#
# Youngs Moduli (GPa) = 11.21082 6.14830 84.68017
#
# Poissons Ratio (x) = 0.62668 -0.30002
# Poissons Ratio (y) = 1.14269 0.82799
# Poissons Ratio (z) = -0.03972 0.06012
#
# Static dielectric constant tensor:
#      x y z
#    x 1.622190 0.000000 0.000000 
#    y 0.000000 1.601040 0.000000 
#    z 0.000000 0.000000 1.624010 
# 
# From -- ./inp_files/5588.got.cif
#   From: 2010.05.17/outbox.cif.g08.bks.cpg/sg24_3_cif.got.tgz:5588.got - 2010.06.04 00:33:39.
