data_PCOD9335838
_publ_section_title
;
Structure prediction by ZEFSAII (Michael W. Deem and Ramdas Pophale) SiO2 
 PCOD9335838
Probable space group: I 21 21 21
;
_chemical_formula_sum "Si O2"
_cell_formula_units_Z 60
_cell_length_a 21.073958
_cell_length_b 8.152504
_cell_length_c 15.478677
_cell_angle_alpha 90.000000
_cell_angle_beta 90.000000
_cell_angle_gamma 90.000000
_cell_volume 2659.322258
_symmetry_space_group_name_H-M "I 21 21 21"
_symmetry_group_IT_number 24
_symmetry_cell_setting 'orthorhombic'
loop_
_space_group_symop_operation_xyz
x,y,z
-x,1/2-y,z
x,-y,1/2-z
1/2-x,y,-z
1/2+x,1/2+y,1/2+z
1/2-x,-y,1/2+z
1/2+x,1/2-y,-z
-x,1/2+y,1/2-z
loop_
_atom_site_type_symbol
_atom_site_label
_atom_site_fract_x
_atom_site_fract_y
_atom_site_fract_z
Si Si1 0.315400 0.602577 0.949247
Si Si2 0.814852 0.302783 0.769235
Si Si3 0.656385 0.731000 0.587236
Si Si4 0.514706 0.497506 0.148610
Si Si5 0.327465 0.304173 0.737554
Si Si6 0.869174 0.714513 0.907713
Si Si7 0.096450 0.700244 0.588678
Si Si8 0.750000 0.515061 0.000000
O O1 0.314422 0.413572 0.923202
O O2 0.330260 0.713980 0.865805
O O3 0.250000 0.634328 0.000000
O O4 0.367598 0.648710 0.018905
O O5 0.826252 0.500000 0.750000
O O6 0.741471 0.263606 0.760461
O O7 0.848059 0.221699 0.685905
O O8 0.838317 0.214260 0.857216
O O9 0.631343 0.721426 0.685851
O O10 0.606035 0.737521 0.509099
O O11 0.709251 0.596182 0.565608
O O12 0.500071 0.500000 0.250000
O O13 0.561680 0.635686 0.109445
O O14 0.559524 0.341097 0.139327
O O15 0.450111 0.453019 0.100177
O O16 0.333443 0.500000 0.750000
O O17 0.809708 0.597051 0.943818
#
# Coordination Sequence:
#
# PCOD9335838 Si02
#       8
#     8   8   8   8   8   8   8   4
#     4  11  22  37  56  90 130 158 200 256 326 383
#     4  12  20  35  58  91 129 169 201 253 311 375
#     4  11  22  38  57  88 121 164 211 249 306 386
#     4  11  23  42  60  89 125 162 214 262 315 376
#     4  10  23  37  58  88 128 164 204 257 314 380
#     4  12  21  38  60  90 130 162 202 263 318 377
#     4  11  23  38  61  86 121 169 212 252 309 380
#     4  12  20  34  64  88 122 164 204 250 308 376
#
# _framework density 22.562139999999999
#
# number of rings (size 3 to 8) (size 9 to 14) (size 15 to 20)
#    0.000    0.800    6.667    1.600    1.867    1.600 
#    0.000    0.000    0.000    0.000   20.800    0.000 
#    0.000    0.000    0.000    0.000    0.000    0.000 
#
# Total GULP energy -167144.788443 kJ/mol
# GULP energy per Si atom -5571.492948 kJ/mol
# Density = 2.251079 g / cm^3
# Si number density = 22.562140 Si / 1000 Ang^3
#
#
#
# Elastic Constant Matrix: (Units=GPa)
#
#
# Indices 1 2 3 4 5 6 
#
# 1 31.7721 17.4340 -48.7575 0.0000 0.0000 0.0000
# 2 17.4340 24.8531 -8.0799 0.0000 0.0000 0.0000
# 3 -48.7575 -8.0799 -6.1594 0.0000 0.0000 0.0000
# 4 0.0000 0.0000 0.0000 28.7495 0.0000 0.0000
# 5 0.0000 0.0000 0.0000 0.0000 34.7974 0.0000
# 6 0.0000 0.0000 0.0000 0.0000 0.0000 31.8508
#
#
#
# Elastic Compliance Matrix: (Units=1/GPa)
#
#
# Indices 1 2 3 4 5 6 
#
# 1 0.004332 -0.009945 -0.021243 0.000000 0.000000 0.000000
# 2 -0.009945 0.051039 0.011769 0.000000 0.000000 0.000000
# 3 -0.021243 0.011769 -0.009634 0.000000 0.000000 0.000000
# 4 0.000000 0.000000 0.000000 0.034783 0.000000 0.000000
# 5 0.000000 0.000000 0.000000 0.000000 0.028738 0.000000
# 6 0.000000 0.000000 0.000000 0.000000 0.000000 0.031396
#
#
# Mechanical properties :
#
#
# Convention : Reuss Voigt Hill
#
# Bulk Modulus (GPa) = 144.93953 -3.14902 70.89526
# Shear Modulus (GPa) = 27.50425 25.07082 26.28753
#
# Velocity S-wave (km/s) = 3.49527 3.33707 3.41708
# Velocity P-wave (km/s) = 8.98158 3.66733 6.85996
#
# Compressibility (1/GPa) = 0.00689943
#
# Stress axis : x y z
#
# Youngs Moduli (GPa) = 230.86165 19.59290 -103.79544
#
# Poissons Ratio (x) = 0.19485 -2.20492
# Poissons Ratio (y) = 2.29587 1.22161
# Poissons Ratio (z) = 4.90418 -0.23060
#
# Static dielectric constant tensor:
#      x y z
#    x 1.886310 0.000000 0.000000 
#    y 0.000000 2.012770 0.000000 
#    z 0.000000 0.000000 1.630330 
# 
# From -- ./inp_files/27857.got.cif
#   From: 2010.05.17/outbox.cif.g08.bks.cpg/sg24_14_cif.got.tgz:27857.got - 2010.06.04 00:33:39.
