data_PCOD9335010
_publ_section_title
;
Structure prediction by ZEFSAII (Michael W. Deem and Ramdas Pophale) SiO2 
 PCOD9335010
Probable space group: I 21 21 21
;
_chemical_formula_sum "Si O2"
_cell_formula_units_Z 36
_cell_length_a 24.659451
_cell_length_b 7.391973
_cell_length_c 7.951088
_cell_angle_alpha 90.000000
_cell_angle_beta 90.000000
_cell_angle_gamma 90.000000
_cell_volume 1449.340191
_symmetry_space_group_name_H-M "I 21 21 21"
_symmetry_group_IT_number 24
_symmetry_cell_setting 'orthorhombic'
loop_
_space_group_symop_operation_xyz
x,y,z
-x,1/2-y,z
x,-y,1/2-z
1/2-x,y,-z
1/2+x,1/2+y,1/2+z
1/2-x,-y,1/2+z
1/2+x,1/2-y,-z
-x,1/2+y,1/2-z
loop_
_atom_site_type_symbol
_atom_site_label
_atom_site_fract_x
_atom_site_fract_y
_atom_site_fract_z
Si Si1 0.939332 0.726932 0.594063
Si Si2 0.940917 0.304804 0.519345
Si Si3 0.825095 0.137900 0.002812
Si Si4 0.175261 0.263005 0.389075
Si Si5 0.250000 0.064633 0.000000
O O1 0.931095 0.515861 0.557354
O O2 0.940120 0.776604 0.792097
O O3 0.888811 0.835497 0.523395
O O4 0.000000 0.750000 0.526203
O O5 0.889630 0.251834 0.409260
O O6 0.000000 0.250000 0.448648
O O7 0.814182 0.184623 0.197492
O O8 0.809956 0.927949 0.984111
O O9 0.790478 0.291496 0.906011
O O10 0.206690 0.078033 0.425316
#
# Coordination Sequence:
#
# PCOD9335010 Si02
#       5
#     8   8   8   8   4
#     4  10  21  39  65  97 134 175 220 271 331 396
#     4  10  21  39  65  97 134 175 220 271 331 396
#     4  11  25  44  68  99 133 173 223 277 334 396
#     4  11  25  44  68  99 133 173 223 277 334 396
#     4  12  24  44  68  92 134 180 222 276 330 402
#
# _framework density 24.838889000000002
#
# number of rings (size 3 to 8) (size 9 to 14) (size 15 to 20)
#    0.000    1.333    2.222    2.667    0.000    7.111 
#    0.000    0.000    0.000    0.000    0.000    0.000 
#    0.000    0.000    0.000    0.000    0.000    0.000 
#
# Total GULP energy -100539.607803 kJ/mol
# GULP energy per Si atom -5585.533767 kJ/mol
# Density = 2.478235 g / cm^3
# Si number density = 24.838889 Si / 1000 Ang^3
#
#
#
# Elastic Constant Matrix: (Units=GPa)
#
#
# Indices 1 2 3 4 5 6 
#
# 1 208.6959 52.0630 29.8679 0.0000 0.0000 0.0000
# 2 52.0630 151.4751 20.1749 0.0000 0.0000 0.0000
# 3 29.8679 20.1749 29.8325 0.0000 0.0000 0.0000
# 4 0.0000 0.0000 0.0000 11.0867 0.0000 0.0000
# 5 0.0000 0.0000 0.0000 0.0000 18.4553 0.0000
# 6 0.0000 0.0000 0.0000 0.0000 0.0000 39.3829
#
#
#
# Elastic Compliance Matrix: (Units=1/GPa)
#
#
# Indices 1 2 3 4 5 6 
#
# 1 0.005833 -0.001349 -0.004928 0.000000 0.000000 0.000000
# 2 -0.001349 0.007567 -0.003767 0.000000 0.000000 0.000000
# 3 -0.004928 -0.003767 0.041002 0.000000 0.000000 0.000000
# 4 0.000000 0.000000 0.000000 0.090198 0.000000 0.000000
# 5 0.000000 0.000000 0.000000 0.000000 0.054185 0.000000
# 6 0.000000 0.000000 0.000000 0.000000 0.000000 0.025392
#
#
# Mechanical properties :
#
#
# Convention : Reuss Voigt Hill
#
# Bulk Modulus (GPa) = 29.14216 66.02389 47.58303
# Shear Modulus (GPa) = 19.55389 32.97817 26.26603
#
# Velocity S-wave (km/s) = 2.80880 3.64769 3.25538
# Velocity P-wave (km/s) = 4.71986 6.66179 5.77306
#
# Compressibility (1/GPa) = 0.03431454
#
# Stress axis : x y z
#
# Youngs Moduli (GPa) = 171.42621 132.15256 24.38889
#
# Poissons Ratio (x) = 0.17822 0.12020
# Poissons Ratio (y) = 0.23118 0.09188
# Poissons Ratio (z) = 0.84484 0.49784
#
# Static dielectric constant tensor:
#      x y z
#    x 1.986280 0.000000 0.000000 
#    y 0.000000 2.042000 0.000000 
#    z 0.000000 0.000000 2.045810 
# 
# From -- ./inp_files/14811.got.cif
#   From: 2010.05.17/outbox.cif.g08.bks.cpg/sg24_8_cif.got.tgz:14811.got - 2010.06.04 00:33:39.
