data_PCOD9335491
_publ_section_title
;
Structure prediction by ZEFSAII (Michael W. Deem and Ramdas Pophale) SiO2 
 PCOD9335491
Probable space group: I 21 21 21
;
_chemical_formula_sum "Si O2"
_cell_formula_units_Z 56
_cell_length_a 8.818764
_cell_length_b 12.635663
_cell_length_c 21.104857
_cell_angle_alpha 90.000000
_cell_angle_beta 90.000000
_cell_angle_gamma 90.000000
_cell_volume 2351.733843
_symmetry_space_group_name_H-M "I 21 21 21"
_symmetry_group_IT_number 24
_symmetry_cell_setting 'orthorhombic'
loop_
_space_group_symop_operation_xyz
x,y,z
-x,1/2-y,z
x,-y,1/2-z
1/2-x,y,-z
1/2+x,1/2+y,1/2+z
1/2-x,-y,1/2+z
1/2+x,1/2-y,-z
-x,1/2+y,1/2-z
loop_
_atom_site_type_symbol
_atom_site_label
_atom_site_fract_x
_atom_site_fract_y
_atom_site_fract_z
Si Si1 0.684771 0.617414 0.268669
Si Si2 0.613209 0.661781 0.135188
Si Si3 0.840600 0.925472 0.343423
Si Si4 0.005785 0.076707 0.885350
Si Si5 0.425120 0.442885 0.979101
Si Si6 0.521568 0.135032 0.721700
Si Si7 0.614215 0.654073 0.950471
O O1 0.625248 0.500000 0.250000
O O2 0.624572 0.683803 0.209936
O O3 0.621160 0.637889 0.338675
O O4 0.864704 0.610462 0.258712
O O5 0.500000 0.750000 0.107298
O O6 0.551826 0.546885 0.116133
O O7 0.787249 0.654191 0.113244
O O8 0.662561 0.924937 0.356997
O O9 0.864744 0.855628 0.281307
O O10 0.916339 0.889693 0.409691
O O11 0.910458 0.041696 0.322834
O O12 0.998626 0.111405 0.958922
O O13 0.521664 0.548380 0.965558
O O14 0.250000 0.467057 0.000000
O O15 0.500000 0.250000 0.692458
O O16 0.500000 0.750000 0.953128
O O17 0.750000 0.667350 0.000000
#
# Coordination Sequence:
#
# PCOD9335491 Si02
#       7
#     8   8   8   8   8   8   8
#     4  10  22  41  60  87 128 163 215 264 317 386
#     4  11  25  38  58  92 128 171 218 268 323 390
#     4  10  23  41  67  95 132 170 219 271 324 388
#     4  10  23  42  63  88 127 172 220 267 327 385
#     4  10  22  40  64  91 124 175 222 265 328 392
#     4  11  24  41  67 100 130 171 216 267 329 386
#     4  12  24  36  56  88 135 175 216 263 324 399
#
# _framework density 23.812218999999999
#
# number of rings (size 3 to 8) (size 9 to 14) (size 15 to 20)
#    0.000    1.429    2.857    1.714   14.000    1.143 
#    0.000    0.000    0.000    6.000    0.000    0.000 
#    0.000    0.000    0.000    0.000    0.000    0.000 
#
# Total GULP energy -156340.748789 kJ/mol
# GULP energy per Si atom -5583.598171 kJ/mol
# Density = 2.375802 g / cm^3
# Si number density = 23.812219 Si / 1000 Ang^3
#
#
#
# Elastic Constant Matrix: (Units=GPa)
#
#
# Indices 1 2 3 4 5 6 
#
# 1 68.9884 0.2638 34.9453 0.0000 0.0000 0.0000
# 2 0.2638 34.2530 -6.1599 0.0000 0.0000 0.0000
# 3 34.9453 -6.1599 175.3031 0.0000 0.0000 0.0000
# 4 0.0000 0.0000 0.0000 14.9433 0.0000 0.0000
# 5 0.0000 0.0000 0.0000 0.0000 47.1879 0.0000
# 6 0.0000 0.0000 0.0000 0.0000 0.0000 25.1679
#
#
#
# Elastic Compliance Matrix: (Units=1/GPa)
#
#
# Indices 1 2 3 4 5 6 
#
# 1 0.016140 -0.000707 -0.003242 0.000000 0.000000 0.000000
# 2 -0.000707 0.029411 0.001174 0.000000 0.000000 0.000000
# 3 -0.003242 0.001174 0.006392 0.000000 0.000000 0.000000
# 4 0.000000 0.000000 0.000000 0.066920 0.000000 0.000000
# 5 0.000000 0.000000 0.000000 0.000000 0.021192 0.000000
# 6 0.000000 0.000000 0.000000 0.000000 0.000000 0.039733
#
#
# Mechanical properties :
#
#
# Convention : Reuss Voigt Hill
#
# Bulk Modulus (GPa) = 21.55493 37.40475 29.47984
# Shear Modulus (GPa) = 24.90005 34.09284 29.49645
#
# Velocity S-wave (km/s) = 3.23721 3.78794 3.52335
# Velocity P-wave (km/s) = 4.80046 5.90539 5.38136
#
# Compressibility (1/GPa) = 0.04639311
#
# Stress axis : x y z
#
# Youngs Moduli (GPa) = 61.95698 34.00063 156.44567
#
# Poissons Ratio (x) = 0.02405 0.50724
# Poissons Ratio (y) = 0.04383 -0.18374
# Poissons Ratio (z) = 0.20088 -0.03993
#
# Static dielectric constant tensor:
#      x y z
#    x 1.906350 0.000000 0.000000 
#    y 0.000000 1.948170 0.000000 
#    z 0.000000 0.000000 2.067350 
# 
# From -- ./inp_files/32848.got.cif
#   From: 2010.05.17/outbox.cif.g08.bks.cpg/sg24_17_cif.got.tgz:32848.got - 2010.06.04 00:33:39.
