data_PCOD9335476
_publ_section_title
;
Structure prediction by ZEFSAII (Michael W. Deem and Ramdas Pophale) SiO2 
 PCOD9335476
Probable space group: I 21 21 21
;
_chemical_formula_sum "Si O2"
_cell_formula_units_Z 40
_cell_length_a 11.855014
_cell_length_b 6.421941
_cell_length_c 27.872750
_cell_angle_alpha 90.000000
_cell_angle_beta 90.000000
_cell_angle_gamma 90.000000
_cell_volume 2122.013790
_symmetry_space_group_name_H-M "I 21 21 21"
_symmetry_group_IT_number 24
_symmetry_cell_setting 'orthorhombic'
loop_
_space_group_symop_operation_xyz
x,y,z
-x,1/2-y,z
x,-y,1/2-z
1/2-x,y,-z
1/2+x,1/2+y,1/2+z
1/2-x,-y,1/2+z
1/2+x,1/2-y,-z
-x,1/2+y,1/2-z
loop_
_atom_site_type_symbol
_atom_site_label
_atom_site_fract_x
_atom_site_fract_y
_atom_site_fract_z
Si Si1 0.882950 0.134393 0.876500
Si Si2 0.889988 0.366887 0.375758
Si Si3 0.000000 0.750000 0.430390
Si Si4 0.201715 0.021068 0.803860
Si Si5 0.200634 0.524280 0.050395
Si Si6 0.500000 0.750000 0.168725
O O1 0.829827 0.261177 0.830960
O O2 0.791381 0.106964 0.918385
O O3 0.000000 0.250000 0.890354
O O4 0.922430 0.904178 0.861946
O O5 0.792166 0.412218 0.338308
O O6 0.000000 0.250000 0.354903
O O7 0.934441 0.582578 0.397829
O O8 0.841654 0.216332 0.417247
O O9 0.092921 0.622206 0.459374
O O10 0.247128 0.000000 0.750000
O O11 0.084674 0.894144 0.802194
O O12 0.250000 0.595701 0.000000
#
# Coordination Sequence:
#
# PCOD9335476 Si02
#       6
#     8   8   4   8   8   4
#     4  10  22  41  61  92 128 162 204 259 306 373
#     4  10  22  45  62  89 130 163 213 266 308 366
#     4  10  22  44  66  87 126 165 206 262 316 368
#     4  11  23  40  65  91 124 170 208 257 317 374
#     4  11  23  41  66  93 123 165 207 257 314 373
#     4  10  22  40  62  91 132 159 208 264 308 374
#
# _framework density 18.850020000000001
#
# number of rings (size 3 to 8) (size 9 to 14) (size 15 to 20)
#    0.000    1.600    4.000    0.000    5.600    0.800 
#    7.200    0.000    0.000    0.000    0.000    0.000 
#    0.000    0.000    0.000    0.000    0.000    0.000 
#
# Total GULP energy -111537.831322 kJ/mol
# GULP energy per Si atom -5576.891566 kJ/mol
# Density = 1.880712 g / cm^3
# Si number density = 18.850020 Si / 1000 Ang^3
#
#
#
# Elastic Constant Matrix: (Units=GPa)
#
#
# Indices 1 2 3 4 5 6 
#
# 1 106.3180 38.7337 49.7556 0.0000 0.0000 0.0000
# 2 38.7337 84.5303 35.4623 0.0000 0.0000 0.0000
# 3 49.7556 35.4623 87.1061 0.0000 0.0000 0.0000
# 4 0.0000 0.0000 0.0000 11.8433 0.0000 0.0000
# 5 0.0000 0.0000 0.0000 0.0000 10.2827 0.0000
# 6 0.0000 0.0000 0.0000 0.0000 0.0000 38.6349
#
#
#
# Elastic Compliance Matrix: (Units=1/GPa)
#
#
# Indices 1 2 3 4 5 6 
#
# 1 0.013694 -0.003610 -0.006352 0.000000 0.000000 0.000000
# 2 -0.003610 0.015218 -0.004134 0.000000 0.000000 0.000000
# 3 -0.006352 -0.004134 0.016792 0.000000 0.000000 0.000000
# 4 0.000000 0.000000 0.000000 0.084436 0.000000 0.000000
# 5 0.000000 0.000000 0.000000 0.000000 0.097251 0.000000
# 6 0.000000 0.000000 0.000000 0.000000 0.000000 0.025883
#
#
# Mechanical properties :
#
#
# Convention : Reuss Voigt Hill
#
# Bulk Modulus (GPa) = 57.10358 58.42860 57.76609
# Shear Modulus (GPa) = 17.40325 22.41903 19.91114
#
# Velocity S-wave (km/s) = 3.04180 3.45242 3.25359
# Velocity P-wave (km/s) = 6.53423 6.85245 6.69523
#
# Compressibility (1/GPa) = 0.01751204
#
# Stress axis : x y z
#
# Youngs Moduli (GPa) = 73.02638 65.71017 59.55357
#
# Poissons Ratio (x) = 0.23720 0.37830
# Poissons Ratio (y) = 0.26361 0.24617
# Poissons Ratio (z) = 0.46389 0.27162
#
# Static dielectric constant tensor:
#      x y z
#    x 1.684570 0.000000 0.000000 
#    y 0.000000 1.668330 0.000000 
#    z 0.000000 0.000000 1.645530 
# 
# From -- ./inp_files/2483.got.cif
#   From: 2010.05.17/outbox.cif.g08.bks.cpg/sg24_2_cif.got.tgz:2483.got - 2010.06.04 00:33:39.
