data_PCOD9335388
_publ_section_title
;
Structure prediction by ZEFSAII (Michael W. Deem and Ramdas Pophale) SiO2 
 PCOD9335388
Probable space group: I 21 21 21
;
_chemical_formula_sum "Si O2"
_cell_formula_units_Z 32
_cell_length_a 19.927725
_cell_length_b 8.450950
_cell_length_c 9.283148
_cell_angle_alpha 90.000000
_cell_angle_beta 90.000000
_cell_angle_gamma 90.000000
_cell_volume 1563.358315
_symmetry_space_group_name_H-M "I 21 21 21"
_symmetry_group_IT_number 24
_symmetry_cell_setting 'orthorhombic'
loop_
_space_group_symop_operation_xyz
x,y,z
-x,1/2-y,z
x,-y,1/2-z
1/2-x,y,-z
1/2+x,1/2+y,1/2+z
1/2-x,-y,1/2+z
1/2+x,1/2-y,-z
-x,1/2+y,1/2-z
loop_
_atom_site_type_symbol
_atom_site_label
_atom_site_fract_x
_atom_site_fract_y
_atom_site_fract_z
Si Si1 0.250000 0.193092 0.000000
Si Si2 0.435009 0.820160 0.787551
Si Si3 0.831472 0.244245 0.520537
Si Si4 0.687724 0.500000 0.250000
Si Si5 0.635139 0.921496 0.598628
O O1 0.311952 0.302582 0.965157
O O2 0.232878 0.085706 0.866349
O O3 0.500000 0.750000 0.868714
O O4 0.423990 0.694398 0.656161
O O5 0.448979 0.000000 0.750000
O O6 0.367683 0.822731 0.882886
O O7 0.750000 0.228688 0.500000
O O8 0.846671 0.357361 0.657760
O O9 0.865805 0.069275 0.512223
O O10 0.659102 0.000000 0.750000
#
# Coordination Sequence:
#
# PCOD9335388 Si02
#       5
#     4   8   8   4   8
#     4  12  24  36  60  94 138 178 224 288 348 422
#     4  11  23  43  71 102 139 185 242 294 352 430
#     4  11  22  39  62 100 138 178 230 290 356 411
#     4  12  24  36  60  92 138 180 226 282 350 424
#     4  10  22  38  63  96 135 177 228 288 350 417
#
# _framework density 20.468755999999999
#
# number of rings (size 3 to 8) (size 9 to 14) (size 15 to 20)
#    0.000    1.000    2.500    6.750    3.500    0.000 
#    0.000    0.000    0.000   12.000    0.000    0.000 
#    0.000    0.000    0.000    0.000    0.000    0.000 
#
# Total GULP energy -89095.917698 kJ/mol
# GULP energy per Si atom -5568.494856 kJ/mol
# Density = 2.042217 g / cm^3
# Si number density = 20.468756 Si / 1000 Ang^3
#
#
#
# Elastic Constant Matrix: (Units=GPa)
#
#
# Indices 1 2 3 4 5 6 
#
# 1 84.2371 33.3033 21.2853 0.0000 0.0000 0.0000
# 2 33.3033 184.8440 79.5197 0.0000 0.0000 0.0000
# 3 21.2853 79.5197 76.8327 0.0000 0.0000 0.0000
# 4 0.0000 0.0000 0.0000 52.7980 0.0000 0.0000
# 5 0.0000 0.0000 0.0000 0.0000 32.7915 0.0000
# 6 0.0000 0.0000 0.0000 0.0000 0.0000 50.3105
#
#
#
# Elastic Compliance Matrix: (Units=1/GPa)
#
#
# Indices 1 2 3 4 5 6 
#
# 1 0.012970 -0.001426 -0.002117 0.000000 0.000000 0.000000
# 2 -0.001426 0.009909 -0.009860 0.000000 0.000000 0.000000
# 3 -0.002117 -0.009860 0.023807 0.000000 0.000000 0.000000
# 4 0.000000 0.000000 0.000000 0.018940 0.000000 0.000000
# 5 0.000000 0.000000 0.000000 0.000000 0.030496 0.000000
# 6 0.000000 0.000000 0.000000 0.000000 0.000000 0.019877
#
#
# Mechanical properties :
#
#
# Convention : Reuss Voigt Hill
#
# Bulk Modulus (GPa) = 50.30516 68.23670 59.27093
# Shear Modulus (GPa) = 33.46021 41.30038 37.38030
#
# Velocity S-wave (km/s) = 4.04752 4.49679 4.27806
# Velocity P-wave (km/s) = 6.81712 7.76987 7.30904
#
# Compressibility (1/GPa) = 0.01987867
#
# Stress axis : x y z
#
# Youngs Moduli (GPa) = 77.10093 100.92107 42.00461
#
# Poissons Ratio (x) = 0.14391 0.08894
# Poissons Ratio (y) = 0.10994 0.41417
# Poissons Ratio (z) = 0.16325 0.99510
#
# Static dielectric constant tensor:
#      x y z
#    x 1.823120 0.000000 0.000000 
#    y 0.000000 1.796520 0.000000 
#    z 0.000000 0.000000 1.709430 
# 
# From -- ./inp_files/8979.got.cif
#   From: 2010.05.17/outbox.cif.g08.bks.cpg/sg24_5_cif.got.tgz:8979.got - 2010.06.04 00:33:39.
