data_PCOD9335465
_publ_section_title
;
Structure prediction by ZEFSAII (Michael W. Deem and Ramdas Pophale) SiO2 
 PCOD9335465
Probable space group: I 21 21 21
;
_chemical_formula_sum "Si O2"
_cell_formula_units_Z 60
_cell_length_a 23.915371
_cell_length_b 14.308061
_cell_length_c 8.868954
_cell_angle_alpha 90.000000
_cell_angle_beta 90.000000
_cell_angle_gamma 90.000000
_cell_volume 3034.801625
_symmetry_space_group_name_H-M "I 21 21 21"
_symmetry_group_IT_number 24
_symmetry_cell_setting 'orthorhombic'
loop_
_space_group_symop_operation_xyz
x,y,z
-x,1/2-y,z
x,-y,1/2-z
1/2-x,y,-z
1/2+x,1/2+y,1/2+z
1/2-x,-y,1/2+z
1/2+x,1/2-y,-z
-x,1/2+y,1/2-z
loop_
_atom_site_type_symbol
_atom_site_label
_atom_site_fract_x
_atom_site_fract_y
_atom_site_fract_z
Si Si1 0.751626 0.898111 0.718867
Si Si2 0.407321 0.238434 0.243627
Si Si3 0.038240 0.097949 0.336519
Si Si4 0.250000 0.723823 0.000000
Si Si5 0.661109 0.160967 0.009603
Si Si6 0.634204 0.731096 0.920409
Si Si7 0.421067 0.611087 0.733819
Si Si8 0.000973 0.602784 0.809102
O O1 0.707777 0.834226 0.623832
O O2 0.807062 0.910960 0.618617
O O3 0.725975 0.000000 0.750000
O O4 0.770153 0.845874 0.868909
O O5 0.379694 0.221812 0.404588
O O6 0.449282 0.151682 0.220863
O O7 0.446792 0.329067 0.275276
O O8 0.360476 0.255577 0.116429
O O9 0.094426 0.158759 0.333808
O O10 0.016470 0.095740 0.512413
O O11 0.984895 0.142148 0.252247
O O12 0.047627 0.000000 0.250000
O O13 0.200588 0.780619 0.078968
O O14 0.605169 0.130630 0.927476
O O15 0.615816 0.832488 0.856134
O O16 0.419730 0.500000 0.750000
O O17 0.012263 0.500000 0.750000
#
# Coordination Sequence:
#
# PCOD9335465 Si02
#       8
#     8   8   8   4   8   8   8   8
#     4  11  24  39  57  86 131 177 220 263 313 387
#     4  10  22  40  61  88 127 165 204 263 320 382
#     4  10  23  42  65  91 126 164 216 271 328 389
#     4  12  22  40  64  90 120 178 212 264 330 384
#     4  11  23  37  56  89 128 167 220 265 309 379
#     4  11  22  42  64  88 128 166 211 261 325 389
#     4  11  23  36  58  94 130 168 209 259 317 387
#     4  10  22  40  62  91 125 166 209 254 326 394
#
# _framework density 19.77065
#
# number of rings (size 3 to 8) (size 9 to 14) (size 15 to 20)
#    0.000    1.333    4.000    1.600    5.600    1.600 
#    2.400    0.000    0.000    3.200    0.000    0.000 
#    0.000    0.000    0.000    0.000    0.000    0.000 
#
# Total GULP energy -167150.849233 kJ/mol
# GULP energy per Si atom -5571.694974 kJ/mol
# Density = 1.972565 g / cm^3
# Si number density = 19.770650 Si / 1000 Ang^3
#
#
#
# Elastic Constant Matrix: (Units=GPa)
#
#
# Indices 1 2 3 4 5 6 
#
# 1 115.9244 28.1897 28.4071 0.0000 0.0000 0.0000
# 2 28.1897 49.0489 10.2005 0.0000 0.0000 0.0000
# 3 28.4071 10.2005 77.2818 0.0000 0.0000 0.0000
# 4 0.0000 0.0000 0.0000 22.1871 0.0000 0.0000
# 5 0.0000 0.0000 0.0000 0.0000 35.0708 0.0000
# 6 0.0000 0.0000 0.0000 0.0000 0.0000 7.8951
#
#
#
# Elastic Compliance Matrix: (Units=1/GPa)
#
#
# Indices 1 2 3 4 5 6 
#
# 1 0.010757 -0.005511 -0.003227 0.000000 0.000000 0.000000
# 2 -0.005511 0.023787 -0.001114 0.000000 0.000000 0.000000
# 3 -0.003227 -0.001114 0.014273 0.000000 0.000000 0.000000
# 4 0.000000 0.000000 0.000000 0.045071 0.000000 0.000000
# 5 0.000000 0.000000 0.000000 0.000000 0.028514 0.000000
# 6 0.000000 0.000000 0.000000 0.000000 0.000000 0.126660
#
#
# Mechanical properties :
#
#
# Convention : Reuss Voigt Hill
#
# Bulk Modulus (GPa) = 34.34868 41.76107 38.05488
# Shear Modulus (GPa) = 17.95524 24.72779 21.34152
#
# Velocity S-wave (km/s) = 3.01687 3.54041 3.28907
# Velocity P-wave (km/s) = 5.43568 6.15477 5.80637
#
# Compressibility (1/GPa) = 0.02911320
#
# Stress axis : x y z
#
# Youngs Moduli (GPa) = 92.96073 42.03973 70.06371
#
# Poissons Ratio (x) = 0.23170 0.22607
# Poissons Ratio (y) = 0.51235 0.07804
# Poissons Ratio (z) = 0.29995 0.04682
#
# Static dielectric constant tensor:
#      x y z
#    x 1.773260 0.000000 0.000000 
#    y 0.000000 1.683450 0.000000 
#    z 0.000000 0.000000 1.747880 
# 
# From -- ./inp_files/16015.got.cif
#   From: 2010.05.17/outbox.cif.g08.bks.cpg/sg24_9_cif.got.tgz:16015.got - 2010.06.04 00:33:39.
