data_PCOD9335492
_publ_section_title
;
Structure prediction by ZEFSAII (Michael W. Deem and Ramdas Pophale) SiO2 
 PCOD9335492
Probable space group: I 21 21 21
;
_chemical_formula_sum "Si O2"
_cell_formula_units_Z 32
_cell_length_a 10.507561
_cell_length_b 15.911335
_cell_length_c 8.769404
_cell_angle_alpha 90.000000
_cell_angle_beta 90.000000
_cell_angle_gamma 90.000000
_cell_volume 1466.150719
_symmetry_space_group_name_H-M "I 21 21 21"
_symmetry_group_IT_number 24
_symmetry_cell_setting 'orthorhombic'
loop_
_space_group_symop_operation_xyz
x,y,z
-x,1/2-y,z
x,-y,1/2-z
1/2-x,y,-z
1/2+x,1/2+y,1/2+z
1/2-x,-y,1/2+z
1/2+x,1/2-y,-z
-x,1/2+y,1/2-z
loop_
_atom_site_type_symbol
_atom_site_label
_atom_site_fract_x
_atom_site_fract_y
_atom_site_fract_z
Si Si1 0.514873 0.347334 0.341657
Si Si2 0.424995 0.662525 0.821822
Si Si3 0.203233 0.411513 0.827388
Si Si4 0.073242 0.000000 0.250000
Si Si5 0.250000 0.928618 0.000000
O O1 0.500000 0.250000 0.303756
O O2 0.435397 0.360311 0.499351
O O3 0.445930 0.397663 0.206801
O O4 0.657341 0.373516 0.391010
O O5 0.500000 0.750000 0.801928
O O6 0.282377 0.661336 0.759693
O O7 0.493045 0.585381 0.735558
O O8 0.236434 0.500000 0.750000
O O9 0.250000 0.411982 0.000000
O O10 0.160447 0.015244 0.395929
#
# Coordination Sequence:
#
# PCOD9335492 Si02
#       5
#     8   8   8   4   4
#     4  10  24  42  73  98 135 183 241 293 358 430
#     4  10  22  43  68  97 135 183 234 291 360 426
#     4  12  26  43  69 102 140 187 240 298 360 427
#     4  10  22  40  64  92 138 178 232 286 352 422
#     4  10  24  42  66 102 132 188 232 284 356 422
#
# _framework density 21.825859999999999
#
# number of rings (size 3 to 8) (size 9 to 14) (size 15 to 20)
#    0.000    1.500    1.250    2.250   15.750    1.000 
#    2.250    0.000    0.000    0.000    0.000    0.000 
#    0.000    0.000    0.000    0.000    0.000    0.000 
#
# Total GULP energy -89401.494744 kJ/mol
# GULP energy per Si atom -5587.593422 kJ/mol
# Density = 2.177618 g / cm^3
# Si number density = 21.825860 Si / 1000 Ang^3
#
#
#
# Elastic Constant Matrix: (Units=GPa)
#
#
# Indices 1 2 3 4 5 6 
#
# 1 115.0967 38.7130 43.0069 0.0000 0.0000 0.0000
# 2 38.7130 97.0412 40.4420 0.0000 0.0000 0.0000
# 3 43.0069 40.4420 73.5525 -0.0002 0.0000 -0.0001
# 4 0.0000 0.0000 -0.0002 21.5110 0.0000 0.0000
# 5 0.0000 0.0000 0.0000 0.0000 48.4527 0.0000
# 6 0.0000 0.0000 -0.0001 0.0000 0.0000 17.8684
#
#
#
# Elastic Compliance Matrix: (Units=1/GPa)
#
#
# Indices 1 2 3 4 5 6 
#
# 1 0.011505 -0.002317 -0.005453 0.000000 0.000000 0.000000
# 2 -0.002317 0.013835 -0.006252 0.000000 0.000000 0.000000
# 3 -0.005453 -0.006252 0.020222 0.000000 0.000000 0.000000
# 4 0.000000 0.000000 0.000000 0.046488 0.000000 0.000000
# 5 0.000000 0.000000 0.000000 0.000000 0.020639 0.000000
# 6 0.000000 0.000000 0.000000 0.000000 0.000000 0.055965
#
#
# Mechanical properties :
#
#
# Convention : Reuss Voigt Hill
#
# Bulk Modulus (GPa) = 57.08683 58.89047 57.98865
# Shear Modulus (GPa) = 24.68680 28.46833 26.57757
#
# Velocity S-wave (km/s) = 3.36680 3.61548 3.49336
# Velocity P-wave (km/s) = 6.42854 6.66854 6.54964
#
# Compressibility (1/GPa) = 0.01751718
#
# Stress axis : x y z
#
# Youngs Moduli (GPa) = 86.91569 72.28118 49.45133
#
# Poissons Ratio (x) = 0.16749 0.26967
# Poissons Ratio (y) = 0.20141 0.30917
# Poissons Ratio (z) = 0.47397 0.45190
#
# Static dielectric constant tensor:
#      x y z
#    x 1.911030 0.000000 0.000000 
#    y 0.000000 1.780430 0.000000 
#    z 0.000000 0.000000 1.805760 
# 
# From -- ./inp_files/10282.got.cif
#   From: 2010.05.17/outbox.cif.g08.bks.cpg/sg24_6_cif.got.tgz:10282.got - 2010.06.04 00:33:39.
