data_PCOD9335147
_publ_section_title
;
Structure prediction by ZEFSAII (Michael W. Deem and Ramdas Pophale) SiO2 
 PCOD9335147
Probable space group: I 21 21 21
;
_chemical_formula_sum "Si O2"
_cell_formula_units_Z 48
_cell_length_a 28.348078
_cell_length_b 9.698107
_cell_length_c 8.379862
_cell_angle_alpha 90.000000
_cell_angle_beta 90.000000
_cell_angle_gamma 90.000000
_cell_volume 2303.814234
_symmetry_space_group_name_H-M "I 21 21 21"
_symmetry_group_IT_number 24
_symmetry_cell_setting 'orthorhombic'
loop_
_space_group_symop_operation_xyz
x,y,z
-x,1/2-y,z
x,-y,1/2-z
1/2-x,y,-z
1/2+x,1/2+y,1/2+z
1/2-x,-y,1/2+z
1/2+x,1/2-y,-z
-x,1/2+y,1/2-z
loop_
_atom_site_type_symbol
_atom_site_label
_atom_site_fract_x
_atom_site_fract_y
_atom_site_fract_z
Si Si1 0.898784 0.978418 0.430480
Si Si2 0.985186 0.881740 0.625921
Si Si3 0.839010 0.727411 0.331169
Si Si4 0.371991 0.215968 0.468220
Si Si5 0.073472 0.966118 0.427377
Si Si6 0.250000 0.124900 0.000000
Si Si7 0.819853 0.500000 0.750000
O O1 0.886422 0.121587 0.523620
O O2 0.918632 0.000000 0.250000
O O3 0.936908 0.893237 0.529606
O O4 0.854918 0.878285 0.391430
O O5 0.000000 0.750000 0.725917
O O6 0.030172 0.893127 0.510562
O O7 0.983462 0.000000 0.750000
O O8 0.844328 0.705711 0.139772
O O9 0.877580 0.621737 0.410990
O O10 0.785565 0.705295 0.384131
O O11 0.415588 0.111830 0.490195
O O12 0.347009 0.138646 0.316571
O O13 0.058531 0.000000 0.250000
O O14 0.286017 0.038859 0.105447
#
# Coordination Sequence:
#
# PCOD9335147 Si02
#       7
#     8   8   8   8   8   4   4
#     4  10  23  46  70  94 131 177 223 275 336 399
#     4  12  27  41  62  96 134 172 219 272 329 401
#     4  10  21  44  65  96 126 173 222 276 339 392
#     4  10  23  40  69  95 132 169 219 279 332 407
#     4  10  21  41  67  90 125 169 217 267 324 393
#     4  12  24  38  68  94 132 174 220 280 328 404
#     4  12  24  40  66 104 134 174 232 276 340 404
#
# _framework density 20.835014999999999
#
# number of rings (size 3 to 8) (size 9 to 14) (size 15 to 20)
#    0.000    1.333    3.333    1.500    4.667    1.333 
#    0.000    5.833    0.000    0.000    0.000    0.000 
#    0.000    0.000    0.000    0.000    0.000    0.000 
#
# Total GULP energy -133679.580372 kJ/mol
# GULP energy per Si atom -5569.982515 kJ/mol
# Density = 2.078759 g / cm^3
# Si number density = 20.835015 Si / 1000 Ang^3
#
#
#
# Elastic Constant Matrix: (Units=GPa)
#
#
# Indices 1 2 3 4 5 6 
#
# 1 49.5817 -2.4819 21.9875 0.0000 0.0000 0.0000
# 2 -2.4819 90.4801 22.0476 0.0000 0.0000 0.0000
# 3 21.9875 22.0476 56.6811 0.0000 0.0000 0.0000
# 4 0.0000 0.0000 0.0000 30.3017 0.0000 0.0000
# 5 0.0000 0.0000 0.0000 0.0000 19.0215 0.0000
# 6 0.0000 0.0000 0.0000 0.0000 0.0000 18.2155
#
#
#
# Elastic Compliance Matrix: (Units=1/GPa)
#
#
# Indices 1 2 3 4 5 6 
#
# 1 0.025274 0.003405 -0.011129 0.000000 0.000000 0.000000
# 2 0.003405 0.012668 -0.006249 0.000000 0.000000 0.000000
# 3 -0.011129 -0.006249 0.024390 0.000000 0.000000 0.000000
# 4 0.000000 0.000000 0.000000 0.033001 0.000000 0.000000
# 5 0.000000 0.000000 0.000000 0.000000 0.052572 0.000000
# 6 0.000000 0.000000 0.000000 0.000000 0.000000 0.054898
#
#
# Mechanical properties :
#
#
# Convention : Reuss Voigt Hill
#
# Bulk Modulus (GPa) = 29.07976 31.09437 30.08707
# Shear Modulus (GPa) = 20.64311 23.85373 22.24842
#
# Velocity S-wave (km/s) = 3.15110 3.38729 3.27132
# Velocity P-wave (km/s) = 5.21792 5.50044 5.36104
#
# Compressibility (1/GPa) = 0.03438817
#
# Stress axis : x y z
#
# Youngs Moduli (GPa) = 39.56579 78.93809 41.00017
#
# Poissons Ratio (x) = -0.26879 0.45628
# Poissons Ratio (y) = -0.13473 0.25619
# Poissons Ratio (z) = 0.44032 0.49325
#
# Static dielectric constant tensor:
#      x y z
#    x 1.734360 0.000000 0.000000 
#    y 0.000000 1.927040 0.000000 
#    z 0.000000 0.000000 1.813810 
# 
# From -- ./inp_files/9809.got.cif
#   From: 2010.05.17/outbox.cif.g08.bks.cpg/sg24_5_cif.got.tgz:9809.got - 2010.06.04 00:33:39.
