data_PCOD9335951
_publ_section_title
;
Structure prediction by ZEFSAII (Michael W. Deem and Ramdas Pophale) SiO2 
 PCOD9335951
Probable space group: I 21 21 21
;
_chemical_formula_sum "Si O2"
_cell_formula_units_Z 48
_cell_length_a 12.825290
_cell_length_b 8.636177
_cell_length_c 19.982908
_cell_angle_alpha 90.000000
_cell_angle_beta 90.000000
_cell_angle_gamma 90.000000
_cell_volume 2213.336355
_symmetry_space_group_name_H-M "I 21 21 21"
_symmetry_group_IT_number 24
_symmetry_cell_setting 'orthorhombic'
loop_
_space_group_symop_operation_xyz
x,y,z
-x,1/2-y,z
x,-y,1/2-z
1/2-x,y,-z
1/2+x,1/2+y,1/2+z
1/2-x,-y,1/2+z
1/2+x,1/2-y,-z
-x,1/2+y,1/2-z
loop_
_atom_site_type_symbol
_atom_site_label
_atom_site_fract_x
_atom_site_fract_y
_atom_site_fract_z
Si Si1 0.438472 0.884509 0.575903
Si Si2 0.500000 0.250000 0.355317
Si Si3 0.730811 0.781559 0.419530
Si Si4 0.382772 0.971718 0.058370
Si Si5 0.250000 0.720589 0.000000
Si Si6 0.295232 0.575599 0.177813
Si Si7 0.408371 0.626116 0.892476
O O1 0.500000 0.750000 0.537368
O O2 0.337344 0.802603 0.606091
O O3 0.404385 0.005027 0.519884
O O4 0.526747 0.968078 0.619123
O O5 0.475408 0.102134 0.401147
O O6 0.393213 0.305524 0.320325
O O7 0.750000 0.808017 0.500000
O O8 0.650447 0.638746 0.415076
O O9 0.700596 0.935348 0.378465
O O10 0.296805 0.835211 0.056368
O O11 0.155313 0.629926 0.036324
O O12 0.291601 0.500000 0.250000
O O13 0.182944 0.650467 0.160965
O O14 0.500000 0.750000 0.891769
#
# Coordination Sequence:
#
# PCOD9335951 Si02
#       7
#     8   4   8   8   4   8   8
#     4  11  21  36  65 107 146 174 224 291 354 425
#     4  12  28  44  72  96 140 190 242 294 364 438
#     4  10  23  43  72 103 141 179 233 291 359 422
#     4  11  21  38  65 109 138 182 225 288 357 415
#     4  12  20  36  70 112 154 176 228 288 362 422
#     4  12  30  51  70 100 140 192 245 299 362 434
#     4  12  24  42  72 105 148 192 236 295 361 429
#
# _framework density 21.686717999999999
#
# number of rings (size 3 to 8) (size 9 to 14) (size 15 to 20)
#    0.000    0.667    7.500    1.000    5.833    1.333 
#    3.000    0.000    0.000    0.000    0.000    0.000 
#    0.000    0.000    0.000    0.000    0.000    0.000 
#
# Total GULP energy -133729.994038 kJ/mol
# GULP energy per Si atom -5572.083085 kJ/mol
# Density = 2.163736 g / cm^3
# Si number density = 21.686718 Si / 1000 Ang^3
#
#
#
# Elastic Constant Matrix: (Units=GPa)
#
#
# Indices 1 2 3 4 5 6 
#
# 1 149.4844 43.5775 29.5660 0.0000 0.0000 0.0000
# 2 43.5775 79.9409 16.2751 0.0000 0.0000 0.0000
# 3 29.5660 16.2751 60.0874 0.0000 0.0000 0.0000
# 4 0.0000 0.0000 0.0000 20.4849 0.0000 0.0000
# 5 0.0000 0.0000 0.0000 0.0000 8.7948 0.0000
# 6 0.0000 0.0000 0.0000 0.0000 0.0000 52.9486
#
#
#
# Elastic Compliance Matrix: (Units=1/GPa)
#
#
# Indices 1 2 3 4 5 6 
#
# 1 0.008461 -0.003984 -0.003084 0.000000 0.000000 0.000000
# 2 -0.003984 0.015116 -0.002134 0.000000 0.000000 0.000000
# 3 -0.003084 -0.002134 0.018738 0.000000 0.000000 0.000000
# 4 0.000000 0.000000 0.000000 0.048816 0.000000 0.000000
# 5 0.000000 0.000000 0.000000 0.000000 0.113703 0.000000
# 6 0.000000 0.000000 0.000000 0.000000 0.000000 0.018886
#
#
# Mechanical properties :
#
#
# Convention : Reuss Voigt Hill
#
# Bulk Modulus (GPa) = 41.82300 52.03889 46.93095
# Shear Modulus (GPa) = 19.99240 29.78527 24.88883
#
# Velocity S-wave (km/s) = 3.03953 3.71001 3.39138
# Velocity P-wave (km/s) = 5.62541 6.51153 6.08462
#
# Compressibility (1/GPa) = 0.02391029
#
# Stress axis : x y z
#
# Youngs Moduli (GPa) = 118.18631 66.15653 53.36787
#
# Poissons Ratio (x) = 0.26360 0.16459
# Poissons Ratio (y) = 0.47091 0.11387
# Poissons Ratio (z) = 0.36450 0.14115
#
# Static dielectric constant tensor:
#      x y z
#    x 1.963040 0.000000 0.000000 
#    y 0.000000 1.943850 0.000000 
#    z 0.000000 0.000000 1.762300 
# 
# From -- ./inp_files/35560.got.cif
#   From: 2010.05.17/outbox.cif.g08.bks.cpg/sg24_18_cif.got.tgz:35560.got - 2010.06.04 00:33:39.
