data_PCOD9335314
_publ_section_title
;
Structure prediction by ZEFSAII (Michael W. Deem and Ramdas Pophale) SiO2 
 PCOD9335314
Probable space group: I 21 21 21
;
_chemical_formula_sum "Si O2"
_cell_formula_units_Z 40
_cell_length_a 8.845554
_cell_length_b 11.350223
_cell_length_c 23.091361
_cell_angle_alpha 90.000000
_cell_angle_beta 90.000000
_cell_angle_gamma 90.000000
_cell_volume 2318.349795
_symmetry_space_group_name_H-M "I 21 21 21"
_symmetry_group_IT_number 24
_symmetry_cell_setting 'orthorhombic'
loop_
_space_group_symop_operation_xyz
x,y,z
-x,1/2-y,z
x,-y,1/2-z
1/2-x,y,-z
1/2+x,1/2+y,1/2+z
1/2-x,-y,1/2+z
1/2+x,1/2-y,-z
-x,1/2+y,1/2-z
loop_
_atom_site_type_symbol
_atom_site_label
_atom_site_fract_x
_atom_site_fract_y
_atom_site_fract_z
Si Si1 0.250000 0.983514 0.500000
Si Si2 0.500000 0.750000 0.364265
Si Si3 0.189815 0.035817 0.816198
Si Si4 0.779019 0.924155 0.567567
Si Si5 0.546979 0.385621 0.898891
Si Si6 0.968254 0.387471 0.588559
O O1 0.146011 0.065834 0.539530
O O2 0.144692 0.906472 0.457433
O O3 0.585552 0.651230 0.326875
O O4 0.624575 0.817631 0.403620
O O5 0.348241 0.066309 0.847504
O O6 0.206768 0.000000 0.750000
O O7 0.106954 0.931826 0.851749
O O8 0.750000 0.899350 0.500000
O O9 0.615665 0.946179 0.595580
O O10 0.880258 0.039000 0.576858
O O11 0.500000 0.250000 0.892068
O O12 0.000000 0.250000 0.587069
#
# Coordination Sequence:
#
# PCOD9335314 Si02
#       6
#     4   4   8   8   8   8
#     4  10  22  34  56  92 124 158 190 236 302 364
#     4  10  22  38  62  92 114 158 196 246 298 350
#     4  10  23  42  61  85 119 155 206 246 291 340
#     4  11  22  35  62  94 123 153 191 239 305 358
#     4  11  22  36  60  92 123 152 194 247 300 350
#     4  10  23  39  58  87 120 162 199 236 293 361
#
# _framework density 17.253653
#
# number of rings (size 3 to 8) (size 9 to 14) (size 15 to 20)
#    0.000    1.600    4.000    0.000    5.600    0.000 
#    0.000    9.000    0.000    0.000    0.000    0.000 
#    0.000    0.000    0.000    0.000    0.000    0.000 
#
# Total GULP energy -111667.894108 kJ/mol
# GULP energy per Si atom -5583.394705 kJ/mol
# Density = 1.721438 g / cm^3
# Si number density = 17.253653 Si / 1000 Ang^3
#
#
#
# Elastic Constant Matrix: (Units=GPa)
#
#
# Indices 1 2 3 4 5 6 
#
# 1 165.5571 58.2466 75.5615 0.0000 0.0000 0.0000
# 2 58.2466 106.3767 55.6968 0.0000 0.0000 0.0000
# 3 75.5615 55.6968 156.9339 0.0000 0.0000 0.0000
# 4 0.0000 0.0000 0.0000 10.2642 0.0000 0.0000
# 5 0.0000 0.0000 0.0000 0.0000 11.3501 0.0000
# 6 0.0000 0.0000 0.0000 0.0000 0.0000 13.7552
#
#
#
# Elastic Compliance Matrix: (Units=1/GPa)
#
#
# Indices 1 2 3 4 5 6 
#
# 1 0.008491 -0.003081 -0.002995 0.000000 0.000000 0.000000
# 2 -0.003081 0.012664 -0.003011 0.000000 0.000000 0.000000
# 3 -0.002995 -0.003011 0.008883 0.000000 0.000000 0.000000
# 4 0.000000 0.000000 0.000000 0.097426 0.000000 0.000000
# 5 0.000000 0.000000 0.000000 0.000000 0.088105 0.000000
# 6 0.000000 0.000000 0.000000 0.000000 0.000000 0.072700
#
#
# Mechanical properties :
#
#
# Convention : Reuss Voigt Hill
#
# Bulk Modulus (GPa) = 84.28971 89.76415 87.02693
# Shear Modulus (GPa) = 16.10840 23.03143 19.56992
#
# Velocity S-wave (km/s) = 3.05884 3.65755 3.37151
# Velocity P-wave (km/s) = 7.83803 8.36517 8.10588
#
# Compressibility (1/GPa) = 0.01186384
#
# Stress axis : x y z
#
# Youngs Moduli (GPa) = 117.77007 78.96253 112.57860
#
# Poissons Ratio (x) = 0.24331 0.33715
# Poissons Ratio (y) = 0.36289 0.33898
# Poissons Ratio (z) = 0.35270 0.23776
#
# Static dielectric constant tensor:
#      x y z
#    x 1.607690 0.000000 0.000000 
#    y 0.000000 1.580220 0.000000 
#    z 0.000000 0.000000 1.571450 
# 
# From -- ./inp_files/11072.got.cif
#   From: 2010.05.17/outbox.cif.g08.bks.cpg/sg24_6_cif.got.tgz:11072.got - 2010.06.04 00:33:39.
