data_PCOD9335710
_publ_section_title
;
Structure prediction by ZEFSAII (Michael W. Deem and Ramdas Pophale) SiO2 
 PCOD9335710
Probable space group: I 21 21 21
;
_chemical_formula_sum "Si O2"
_cell_formula_units_Z 36
_cell_length_a 12.244389
_cell_length_b 21.319765
_cell_length_c 5.436862
_cell_angle_alpha 90.000000
_cell_angle_beta 90.000000
_cell_angle_gamma 90.000000
_cell_volume 1419.279211
_symmetry_space_group_name_H-M "I 21 21 21"
_symmetry_group_IT_number 24
_symmetry_cell_setting 'orthorhombic'
loop_
_space_group_symop_operation_xyz
x,y,z
-x,1/2-y,z
x,-y,1/2-z
1/2-x,y,-z
1/2+x,1/2+y,1/2+z
1/2-x,-y,1/2+z
1/2+x,1/2-y,-z
-x,1/2+y,1/2-z
loop_
_atom_site_type_symbol
_atom_site_label
_atom_site_fract_x
_atom_site_fract_y
_atom_site_fract_z
Si Si1 0.750000 0.161509 0.000000
Si Si2 0.868645 0.433475 0.109425
Si Si3 0.010372 0.345992 0.449098
Si Si4 0.145000 0.244550 0.606812
Si Si5 0.591661 0.064830 0.169356
O O1 0.690012 0.208534 0.189281
O O2 0.652672 0.109025 0.971527
O O3 0.853598 0.500000 0.250000
O O4 0.922108 0.378099 0.274987
O O5 0.750000 0.416456 0.000000
O O6 0.967779 0.445874 0.920253
O O7 0.942236 0.308800 0.664723
O O8 0.092931 0.288797 0.389125
O O9 0.082322 0.398016 0.576577
O O10 0.250000 0.210983 0.500000
O O11 0.645863 0.000000 0.250000
#
# Coordination Sequence:
#
# PCOD9335710 Si02
#       5
#     4   8   8   8   8
#     4  10  24  44  72 108 136 184 242 302 366 432
#     4  12  26  41  67 100 141 186 240 293 360 439
#     4  10  24  44  66 102 137 186 237 297 360 434
#     4  10  22  43  71  97 138 180 238 297 355 430
#     4  11  23  45  69 105 144 184 238 298 367 439
#
# _framework density 25.364985000000001
#
# number of rings (size 3 to 8) (size 9 to 14) (size 15 to 20)
#    0.000    1.333    2.222    2.000    3.111    2.667 
#    8.000    4.444    0.000    0.000    0.000    0.000 
#    0.000    0.000    0.000    0.000    0.000    0.000 
#
# Total GULP energy -100293.029817 kJ/mol
# GULP energy per Si atom -5571.834990 kJ/mol
# Density = 2.530725 g / cm^3
# Si number density = 25.364985 Si / 1000 Ang^3
#
#
#
# Elastic Constant Matrix: (Units=GPa)
#
#
# Indices 1 2 3 4 5 6 
#
# 1 109.8515 16.1841 11.2150 0.0013 0.0006 -0.0003
# 2 16.1841 104.6325 18.4733 -0.0010 0.0001 0.0000
# 3 11.2150 18.4733 54.5556 -0.0122 -0.0009 -0.0034
# 4 0.0013 -0.0010 -0.0122 31.0511 -0.0007 -0.0003
# 5 0.0006 0.0001 -0.0009 -0.0007 42.6518 0.0003
# 6 -0.0003 0.0000 -0.0034 -0.0003 0.0003 44.8245
#
#
#
# Elastic Compliance Matrix: (Units=1/GPa)
#
#
# Indices 1 2 3 4 5 6 
#
# 1 0.009435 -0.001188 -0.001537 -0.000001 0.000000 0.000000
# 2 -0.001188 0.010315 -0.003248 -0.000001 0.000000 0.000000
# 3 -0.001537 -0.003248 0.019746 0.000008 0.000000 0.000001
# 4 -0.000001 -0.000001 0.000008 0.032205 0.000001 0.000000
# 5 0.000000 0.000000 0.000000 0.000001 0.023446 0.000000
# 6 0.000000 0.000000 0.000001 0.000000 0.000000 0.022309
#
#
# Mechanical properties :
#
#
# Convention : Reuss Voigt Hill
#
# Bulk Modulus (GPa) = 36.30009 40.08718 38.19364
# Shear Modulus (GPa) = 36.07877 38.58329 37.33103
#
# Velocity S-wave (km/s) = 3.77554 3.90439 3.84051
# Velocity P-wave (km/s) = 5.77481 6.01366 5.89545
#
# Compressibility (1/GPa) = 0.02754814
#
# Stress axis : x y z
#
# Youngs Moduli (GPa) = 105.98646 96.95060 50.64342
#
# Poissons Ratio (x) = 0.11517 0.07786
# Poissons Ratio (y) = 0.12591 0.16451
# Poissons Ratio (z) = 0.16294 0.31494
#
# Static dielectric constant tensor:
#      x y z
#    x 2.082290 0.000000 0.000000 
#    y 0.000000 2.013200 0.000000 
#    z 0.000000 0.000000 2.103870 
# 
# From -- ./inp_files/2272.got.cif
#   From: 2010.05.17/outbox.cif.g08.bks.cpg/sg24_2_cif.got.tgz:2272.got - 2010.06.04 00:33:39.
