data_PCOD9335122
_publ_section_title
;
Structure prediction by ZEFSAII (Michael W. Deem and Ramdas Pophale) SiO2 
 PCOD9335122
Probable space group: I 21 21 21
;
_chemical_formula_sum "Si O2"
_cell_formula_units_Z 60
_cell_length_a 28.979183
_cell_length_b 17.281678
_cell_length_c 5.809725
_cell_angle_alpha 90.000000
_cell_angle_beta 90.000000
_cell_angle_gamma 90.000000
_cell_volume 2909.562041
_symmetry_space_group_name_H-M "I 21 21 21"
_symmetry_group_IT_number 24
_symmetry_cell_setting 'orthorhombic'
loop_
_space_group_symop_operation_xyz
x,y,z
-x,1/2-y,z
x,-y,1/2-z
1/2-x,y,-z
1/2+x,1/2+y,1/2+z
1/2-x,-y,1/2+z
1/2+x,1/2-y,-z
-x,1/2+y,1/2-z
loop_
_atom_site_type_symbol
_atom_site_label
_atom_site_fract_x
_atom_site_fract_y
_atom_site_fract_z
Si Si1 0.959311 0.202800 0.071829
Si Si2 0.199985 0.218906 0.883916
Si Si3 0.750000 0.643707 0.000000
Si Si4 0.400473 0.461893 0.495063
Si Si5 0.583025 0.321430 0.551630
Si Si6 0.497000 0.072530 0.608854
Si Si7 0.380520 0.685892 0.244801
Si Si8 0.667951 0.410403 0.777161
O O1 0.936463 0.263862 0.249539
O O2 0.983748 0.135748 0.213572
O O3 0.000000 0.250000 0.941930
O O4 0.920414 0.162148 0.921140
O O5 0.213182 0.197383 0.625536
O O6 0.166255 0.292173 0.876823
O O7 0.250000 0.232733 0.000000
O O8 0.176011 0.142534 0.994732
O O9 0.780803 0.593805 0.168631
O O10 0.385149 0.500000 0.250000
O O11 0.456343 0.454652 0.484493
O O12 0.379071 0.375652 0.462388
O O13 0.390327 0.500000 0.750000
O O14 0.543335 0.382056 0.477979
O O15 0.599998 0.266885 0.348997
O O16 0.627076 0.366019 0.647953
O O17 0.477346 0.000000 0.750000
O O18 0.655088 0.500000 0.750000
#
# Coordination Sequence:
#
# PCOD9335122 Si02
#       8
#     8   8   4   8   8   8   8   8
#     4  10  22  37  62  88 125 173 225 275 324 396
#     4  10  23  42  63  95 122 168 228 278 348 400
#     4  10  22  40  58  88 120 156 218 276 322 404
#     4  11  25  43  68 104 136 178 226 275 345 414
#     4  11  22  39  57  91 125 172 229 266 335 385
#     4  10  21  41  60  88 133 176 217 275 327 396
#     4  12  22  40  67  91 131 170 223 286 333 413
#     4  11  23  38  61  84 128 171 222 274 331 395
#
# _framework density 20.621659999999999
#
# number of rings (size 3 to 8) (size 9 to 14) (size 15 to 20)
#    0.000    1.333    4.000    2.000    4.667    0.000 
#    0.000    0.000    0.000    0.000    1.733    0.000 
#    0.000    0.000    0.000    0.000    0.000    0.000 
#
# Total GULP energy -167196.216911 kJ/mol
# GULP energy per Si atom -5573.207230 kJ/mol
# Density = 2.057472 g / cm^3
# Si number density = 20.621660 Si / 1000 Ang^3
#
#
#
# Elastic Constant Matrix: (Units=GPa)
#
#
# Indices 1 2 3 4 5 6 
#
# 1 74.9716 32.9698 18.4210 0.0000 0.0000 0.0000
# 2 32.9698 88.6945 21.1522 0.0000 0.0000 0.0000
# 3 18.4210 21.1522 56.7982 0.0000 0.0000 0.0000
# 4 0.0000 0.0000 0.0000 28.8405 0.0000 0.0000
# 5 0.0000 0.0000 0.0000 0.0000 28.7470 0.0000
# 6 0.0000 0.0000 0.0000 0.0000 0.0000 33.1280
#
#
#
# Elastic Compliance Matrix: (Units=1/GPa)
#
#
# Indices 1 2 3 4 5 6 
#
# 1 0.016512 -0.005335 -0.003369 0.000000 0.000000 0.000000
# 2 -0.005335 0.014097 -0.003520 0.000000 0.000000 0.000000
# 3 -0.003369 -0.003520 0.020009 0.000000 0.000000 0.000000
# 4 0.000000 0.000000 0.000000 0.034673 0.000000 0.000000
# 5 0.000000 0.000000 0.000000 0.000000 0.034786 0.000000
# 6 0.000000 0.000000 0.000000 0.000000 0.000000 0.030186
#
#
# Mechanical properties :
#
#
# Convention : Reuss Voigt Hill
#
# Bulk Modulus (GPa) = 38.20768 40.61670 39.41219
# Shear Modulus (GPa) = 27.25772 28.00452 27.63112
#
# Velocity S-wave (km/s) = 3.63960 3.68912 3.66445
# Velocity P-wave (km/s) = 6.01917 6.15508 6.08751
#
# Compressibility (1/GPa) = 0.02617275
#
# Stress axis : x y z
#
# Youngs Moduli (GPa) = 60.56195 70.93686 49.97626
#
# Poissons Ratio (x) = 0.37842 0.16835
# Poissons Ratio (y) = 0.32307 0.17590
# Poissons Ratio (z) = 0.20401 0.24968
#
# Static dielectric constant tensor:
#      x y z
#    x 1.752450 0.000000 0.000000 
#    y 0.000000 1.835890 0.000000 
#    z 0.000000 0.000000 1.776020 
# 
# From -- ./inp_files/7289.got.cif
#   From: 2010.05.17/outbox.cif.g08.bks.cpg/sg24_4_cif.got.tgz:7289.got - 2010.06.04 00:33:39.
