data_PCOD9335008
_publ_section_title
;
Structure prediction by ZEFSAII (Michael W. Deem and Ramdas Pophale) SiO2 
 PCOD9335008
Probable space group: I 21 21 21
;
_chemical_formula_sum "Si O2"
_cell_formula_units_Z 48
_cell_length_a 38.723559
_cell_length_b 8.107553
_cell_length_c 7.851050
_cell_angle_alpha 90.000000
_cell_angle_beta 90.000000
_cell_angle_gamma 90.000000
_cell_volume 2464.863110
_symmetry_space_group_name_H-M "I 21 21 21"
_symmetry_group_IT_number 24
_symmetry_cell_setting 'orthorhombic'
loop_
_space_group_symop_operation_xyz
x,y,z
-x,1/2-y,z
x,-y,1/2-z
1/2-x,y,-z
1/2+x,1/2+y,1/2+z
1/2-x,-y,1/2+z
1/2+x,1/2-y,-z
-x,1/2+y,1/2-z
loop_
_atom_site_type_symbol
_atom_site_label
_atom_site_fract_x
_atom_site_fract_y
_atom_site_fract_z
Si Si1 0.790095 0.500000 0.454991
Si Si2 0.086759 0.698031 0.938517
Si Si3 0.164583 0.690525 0.043632
Si Si4 0.913241 0.198031 0.938516
Si Si5 0.960514 0.305938 0.250000
Si Si6 0.164583 0.690524 0.456369
O O1 0.793261 0.500000 0.250000
O O2 0.750000 0.500000 0.500000
O O3 0.808900 0.331751 0.515350
O O4 0.808900 0.668250 0.515351
O O5 0.086275 0.500000 0.933482
O O6 0.078186 0.762059 0.750000
O O7 0.126145 0.741533 0.986170
O O8 0.060269 0.748714 0.083660
O O9 0.164808 0.687430 0.250001
O O10 0.171396 0.500000 0.987096
O O11 0.939730 0.248715 0.083660
O O12 0.873855 0.241533 0.986169
O O13 0.960247 0.500000 0.250000
O O14 0.000000 0.250000 0.249999
#
# Coordination Sequence:
#
# PCOD9335008 Si02
#       6
#     8   8   8   8   8   8
#     4  10  22  36  54  82 120 160 206 260 318 376
#     4  10  21  39  65  94 122 158 209 263 314 377
#     4   9  18  35  59  84 116 159 206 256 313 377
#     4  10  21  39  65  94 122 158 209 263 314 377
#     4  12  26  42  64  90 128 170 206 258 322 378
#     4   9  18  35  59  84 116 159 206 256 313 377
#
# _framework density 19.473700000000001
#
# number of rings (size 3 to 8) (size 9 to 14) (size 15 to 20)
#    0.000    2.000    1.667    1.500    2.333    3.333 
#    0.000    0.000    0.000    0.000    0.000    0.000 
#    0.000    0.000    0.000    0.000    0.000    0.000 
#
# Total GULP energy -133989.066663 kJ/mol
# GULP energy per Si atom -5582.877778 kJ/mol
# Density = 1.942938 g / cm^3
# Si number density = 19.473700 Si / 1000 Ang^3
#
#
#
# Elastic Constant Matrix: (Units=GPa)
#
#
# Indices 1 2 3 4 5 6 
#
# 1 189.2265 88.9020 69.2169 0.0000 0.0000 0.0000
# 2 88.9020 89.6018 43.5192 0.0000 0.0000 0.0000
# 3 69.2169 43.5192 91.4474 0.0000 0.0000 0.0000
# 4 0.0000 0.0000 0.0000 0.7196 0.0000 0.0000
# 5 0.0000 0.0000 0.0000 0.0000 20.3659 0.0000
# 6 0.0000 0.0000 0.0000 0.0000 0.0000 41.9463
#
#
#
# Elastic Compliance Matrix: (Units=1/GPa)
#
#
# Indices 1 2 3 4 5 6 
#
# 1 0.010944 -0.008890 -0.004053 0.000000 0.000000 0.000000
# 2 -0.008890 0.021737 -0.003616 0.000000 0.000000 0.000000
# 3 -0.004053 -0.003616 0.015723 0.000000 0.000000 0.000000
# 4 0.000000 0.000000 0.000000 1.389582 0.000000 0.000000
# 5 0.000000 0.000000 0.000000 0.000000 0.049102 0.000000
# 6 0.000000 0.000000 0.000000 0.000000 0.000000 0.023840
#
#
# Mechanical properties :
#
#
# Convention : Reuss Voigt Hill
#
# Bulk Modulus (GPa) = 65.41254 85.95022 75.68138
# Shear Modulus (GPa) = 3.22760 23.84888 13.53824
#
# Velocity S-wave (km/s) = 1.28880 3.50333 2.63954
# Velocity P-wave (km/s) = 5.98981 7.78439 6.94531
#
# Compressibility (1/GPa) = 0.01528759
#
# Stress axis : x y z
#
# Youngs Moduli (GPa) = 91.37658 46.00435 63.59918
#
# Poissons Ratio (x) = 0.40897 0.25775
# Poissons Ratio (y) = 0.81233 0.22996
# Poissons Ratio (z) = 0.37032 0.16634
#
# Static dielectric constant tensor:
#      x y z
#    x 1.606590 0.000000 0.000000 
#    y 0.000000 1.648900 0.000000 
#    z 0.000000 0.000000 1.670660 
# 
# From -- ./inp_files/16828.got.cif
#   From: 2010.05.17/outbox.cif.g08.bks.cpg/sg24_9_cif.got.tgz:16828.got - 2010.06.04 00:33:39.
