data_PCOD9335088
_publ_section_title
;
Structure prediction by ZEFSAII (Michael W. Deem and Ramdas Pophale) SiO2 
 PCOD9335088
Probable space group: I 21 21 21
;
_chemical_formula_sum "Si O2"
_cell_formula_units_Z 52
_cell_length_a 8.164053
_cell_length_b 15.445554
_cell_length_c 20.575431
_cell_angle_alpha 90.000000
_cell_angle_beta 90.000000
_cell_angle_gamma 90.000000
_cell_volume 2594.527313
_symmetry_space_group_name_H-M "I 21 21 21"
_symmetry_group_IT_number 24
_symmetry_cell_setting 'orthorhombic'
loop_
_space_group_symop_operation_xyz
x,y,z
-x,1/2-y,z
x,-y,1/2-z
1/2-x,y,-z
1/2+x,1/2+y,1/2+z
1/2-x,-y,1/2+z
1/2+x,1/2-y,-z
-x,1/2+y,1/2-z
loop_
_atom_site_type_symbol
_atom_site_label
_atom_site_fract_x
_atom_site_fract_y
_atom_site_fract_z
Si Si1 0.992393 0.907546 0.714046
Si Si2 0.000000 0.750000 0.181980
Si Si3 0.354945 0.681777 0.169673
Si Si4 0.495783 0.647071 0.586384
Si Si5 0.750000 0.457793 0.000000
Si Si6 0.750000 0.939654 0.500000
Si Si7 0.493230 0.482859 0.408747
Si Si8 0.872707 0.599125 0.273925
O O1 0.179815 0.876926 0.722167
O O2 0.867496 0.846567 0.753509
O O3 0.981717 0.000000 0.750000
O O4 0.975732 0.934328 0.639152
O O5 0.824839 0.781350 0.150870
O O6 0.951825 0.666669 0.224644
O O7 0.500000 0.750000 0.160078
O O8 0.419336 0.598800 0.129056
O O9 0.500000 0.750000 0.589954
O O10 0.622279 0.606607 0.534667
O O11 0.322375 0.617518 0.557838
O O12 0.541298 0.609076 0.656525
O O13 0.674160 0.515024 0.059266
O O14 0.614113 0.001602 0.471557
O O15 0.884618 0.500000 0.250000
#
# Coordination Sequence:
#
# PCOD9335088 Si02
#       8
#     8   4   8   8   4   4   8   8
#     4   9  19  39  65  91 127 169 214 272 343 403
#     4  12  26  40  66 106 136 180 224 282 354 416
#     4  11  24  43  66  99 135 171 221 282 352 409
#     4  11  22  39  59  92 132 171 226 279 332 405
#     4  10  21  40  67  88 122 184 230 271 338 410
#     4  10  25  40  59  90 128 174 232 271 326 408
#     4  10  22  43  66  93 126 178 224 280 339 411
#     4  11  23  38  64  99 134 173 222 280 345 411
#
# _framework density 20.042187999999999
#
# number of rings (size 3 to 8) (size 9 to 14) (size 15 to 20)
#    0.000    1.538    3.846    0.462    4.308    0.615 
#    2.769    1.538    0.000    0.000    0.000    0.000 
#    0.000    0.000    0.000    0.000    0.000    0.000 
#
# Total GULP energy -144856.559554 kJ/mol
# GULP energy per Si atom -5571.406137 kJ/mol
# Density = 1.999657 g / cm^3
# Si number density = 20.042188 Si / 1000 Ang^3
#
#
#
# Elastic Constant Matrix: (Units=GPa)
#
#
# Indices 1 2 3 4 5 6 
#
# 1 108.3285 43.5991 22.5080 0.0000 0.0000 0.0000
# 2 43.5991 96.7297 29.4938 0.0000 0.0000 0.0000
# 3 22.5080 29.4938 68.6040 0.0000 0.0000 0.0000
# 4 0.0000 0.0000 0.0000 19.4758 0.0000 0.0000
# 5 0.0000 0.0000 0.0000 0.0000 28.5907 0.0000
# 6 0.0000 0.0000 0.0000 0.0000 0.0000 27.9265
#
#
#
# Elastic Compliance Matrix: (Units=1/GPa)
#
#
# Indices 1 2 3 4 5 6 
#
# 1 0.011461 -0.004626 -0.001772 0.000000 0.000000 0.000000
# 2 -0.004626 0.013765 -0.004400 0.000000 0.000000 0.000000
# 3 -0.001772 -0.004400 0.017049 0.000000 0.000000 0.000000
# 4 0.000000 0.000000 0.000000 0.051346 0.000000 0.000000
# 5 0.000000 0.000000 0.000000 0.000000 0.034976 0.000000
# 6 0.000000 0.000000 0.000000 0.000000 0.000000 0.035808
#
#
# Mechanical properties :
#
#
# Convention : Reuss Voigt Hill
#
# Bulk Modulus (GPa) = 48.35485 51.65155 50.00320
# Shear Modulus (GPa) = 25.92107 27.06934 26.49520
#
# Velocity S-wave (km/s) = 3.60018 3.67906 3.63984
# Velocity P-wave (km/s) = 6.43900 6.62380 6.53205
#
# Compressibility (1/GPa) = 0.02068045
#
# Stress axis : x y z
#
# Youngs Moduli (GPa) = 87.25276 72.65010 58.65365
#
# Poissons Ratio (x) = 0.33605 0.10391
# Poissons Ratio (y) = 0.40360 0.25807
# Poissons Ratio (z) = 0.15457 0.31966
#
# Static dielectric constant tensor:
#      x y z
#    x 1.840780 0.000000 0.000000 
#    y 0.000000 1.651900 0.000000 
#    z 0.000000 0.000000 1.746140 
# 
# From -- ./inp_files/13096.got.cif
#   From: 2010.05.17/outbox.cif.g08.bks.cpg/sg24_7_cif.got.tgz:13096.got - 2010.06.04 00:33:39.
