data_PCOD9335593
_publ_section_title
;
Structure prediction by ZEFSAII (Michael W. Deem and Ramdas Pophale) SiO2 
 PCOD9335593
Probable space group: I 21 21 21
;
_chemical_formula_sum "Si O2"
_cell_formula_units_Z 56
_cell_length_a 15.145262
_cell_length_b 12.644280
_cell_length_c 12.413402
_cell_angle_alpha 90.000000
_cell_angle_beta 90.000000
_cell_angle_gamma 90.000000
_cell_volume 2377.178070
_symmetry_space_group_name_H-M "I 21 21 21"
_symmetry_group_IT_number 24
_symmetry_cell_setting 'orthorhombic'
loop_
_space_group_symop_operation_xyz
x,y,z
-x,1/2-y,z
x,-y,1/2-z
1/2-x,y,-z
1/2+x,1/2+y,1/2+z
1/2-x,-y,1/2+z
1/2+x,1/2-y,-z
-x,1/2+y,1/2-z
loop_
_atom_site_type_symbol
_atom_site_label
_atom_site_fract_x
_atom_site_fract_y
_atom_site_fract_z
Si Si1 0.872259 0.067750 0.147154
Si Si2 0.924961 0.677186 0.737666
Si Si3 0.206937 0.344574 0.737150
Si Si4 0.000000 0.250000 0.211204
Si Si5 0.580531 0.501329 0.095426
Si Si6 0.250000 0.974203 0.000000
Si Si7 0.854506 0.711421 0.113637
Si Si8 0.903060 0.903218 0.965987
O O1 0.773176 0.098799 0.181964
O O2 0.941345 0.165917 0.142986
O O3 0.906292 0.000000 0.250000
O O4 0.864021 0.991661 0.045323
O O5 0.851886 0.758792 0.701150
O O6 0.888108 0.592429 0.821636
O O7 0.965796 0.599847 0.648880
O O8 0.000000 0.750000 0.788896
O O9 0.274639 0.280131 0.661958
O O10 0.142001 0.404657 0.652513
O O11 0.928388 0.301949 0.293806
O O12 0.672455 0.458058 0.051464
O O13 0.505771 0.563171 0.031586
O O14 0.189891 0.895890 0.072494
O O15 0.889981 0.787326 0.017971
#
# Coordination Sequence:
#
# PCOD9335593 Si02
#       8
#     8   8   8   4   8   4   8   8
#     4  11  25  43  69 107 144 182 244 291 361 427
#     4  11  23  49  67 101 138 181 238 289 361 416
#     4  11  22  42  73 102 140 181 235 307 348 413
#     4  10  22  42  60  96 144 194 224 286 366 418
#     4  11  26  42  72 102 140 187 229 295 355 426
#     4  12  22  40  62 114 136 174 248 288 348 424
#     4  11  20  37  68  97 138 178 235 299 342 405
#     4  12  22  46  71 106 140 185 246 292 361 422
#
# _framework density 23.557345000000002
#
# number of rings (size 3 to 8) (size 9 to 14) (size 15 to 20)
#    0.000    0.857    7.143    0.857    0.000    1.143 
#    6.429    0.000    0.000    0.000    0.000    0.000 
#    0.000    0.000    0.000    0.000    0.000    0.000 
#
# Total GULP energy -156313.651848 kJ/mol
# GULP energy per Si atom -5582.630423 kJ/mol
# Density = 2.350373 g / cm^3
# Si number density = 23.557345 Si / 1000 Ang^3
#
#
#
# Elastic Constant Matrix: (Units=GPa)
#
#
# Indices 1 2 3 4 5 6 
#
# 1 114.6852 27.4943 13.6287 0.0000 0.0000 0.0000
# 2 27.4943 90.7507 31.4066 0.0000 0.0000 0.0000
# 3 13.6287 31.4066 37.2280 0.0000 0.0000 0.0000
# 4 0.0000 0.0000 0.0000 19.6045 0.0000 0.0000
# 5 0.0000 0.0000 0.0000 0.0000 18.0500 0.0000
# 6 0.0000 0.0000 0.0000 0.0000 0.0000 49.1234
#
#
#
# Elastic Compliance Matrix: (Units=1/GPa)
#
#
# Indices 1 2 3 4 5 6 
#
# 1 0.009460 -0.002355 -0.001476 0.000000 0.000000 0.000000
# 2 -0.002355 0.016149 -0.012762 0.000000 0.000000 0.000000
# 3 -0.001476 -0.012762 0.038168 0.000000 0.000000 0.000000
# 4 0.000000 0.000000 0.000000 0.051009 0.000000 0.000000
# 5 0.000000 0.000000 0.000000 0.000000 0.055402 0.000000
# 6 0.000000 0.000000 0.000000 0.000000 0.000000 0.020357
#
#
# Mechanical properties :
#
#
# Convention : Reuss Voigt Hill
#
# Bulk Modulus (GPa) = 32.68959 43.08036 37.88497
# Shear Modulus (GPa) = 21.37415 28.69786 25.03601
#
# Velocity S-wave (km/s) = 3.01545 3.49408 3.26355
# Velocity P-wave (km/s) = 5.10202 5.88262 5.50617
#
# Compressibility (1/GPa) = 0.03059078
#
# Stress axis : x y z
#
# Youngs Moduli (GPa) = 105.71339 61.92230 26.19976
#
# Poissons Ratio (x) = 0.14583 0.03868
# Poissons Ratio (y) = 0.24896 0.33436
# Poissons Ratio (z) = 0.15606 0.79024
#
# Static dielectric constant tensor:
#      x y z
#    x 1.897230 0.000000 0.000000 
#    y 0.000000 1.906330 0.000000 
#    z 0.000000 0.000000 1.993710 
# 
# From -- ./inp_files/20881.got.cif
#   From: 2010.05.17/outbox.cif.g08.bks.cpg/sg24_11_cif.got.tgz:20881.got - 2010.06.04 00:33:39.
