data_PCOD9335723
_publ_section_title
;
Structure prediction by ZEFSAII (Michael W. Deem and Ramdas Pophale) SiO2 
 PCOD9335723
Probable space group: I 21 21 21
;
_chemical_formula_sum "Si O2"
_cell_formula_units_Z 36
_cell_length_a 26.075228
_cell_length_b 11.572817
_cell_length_c 5.118187
_cell_angle_alpha 90.000000
_cell_angle_beta 90.000000
_cell_angle_gamma 90.000000
_cell_volume 1544.483773
_symmetry_space_group_name_H-M "I 21 21 21"
_symmetry_group_IT_number 24
_symmetry_cell_setting 'orthorhombic'
loop_
_space_group_symop_operation_xyz
x,y,z
-x,1/2-y,z
x,-y,1/2-z
1/2-x,y,-z
1/2+x,1/2+y,1/2+z
1/2-x,-y,1/2+z
1/2+x,1/2-y,-z
-x,1/2+y,1/2-z
loop_
_atom_site_type_symbol
_atom_site_label
_atom_site_fract_x
_atom_site_fract_y
_atom_site_fract_z
Si Si1 0.337216 0.255377 0.170143
Si Si2 0.554747 0.257134 0.859411
Si Si3 0.911505 0.500000 0.250000
Si Si4 0.394789 0.580327 0.992538
Si Si5 0.250000 0.582259 0.500000
Si Si6 0.339172 0.000000 0.250000
O O1 0.350448 0.330067 0.426475
O O2 0.314482 0.127570 0.224319
O O3 0.393562 0.248183 0.034015
O O4 0.298564 0.332725 0.007150
O O5 0.500000 0.250000 0.001333
O O6 0.555856 0.385018 0.744859
O O7 0.560930 0.160971 0.632931
O O8 0.874870 0.492428 0.498124
O O9 0.379802 0.500000 0.750000
O O10 0.406065 0.500000 0.250000
O O11 0.248588 0.500000 0.750000
#
# Coordination Sequence:
#
# PCOD9335723 Si02
#       6
#     8   8   4   8   4   4
#     4  11  26  51  76 111 152 199 259 319 388 457
#     4  11  26  46  74 114 149 205 254 319 384 460
#     4  10  22  44  65 104 146 188 241 304 372 446
#     4  12  25  44  74 105 155 200 255 315 378 464
#     4  12  32  48  82 114 156 204 258 328 390 452
#     4  10  22  46  77  96 142 186 243 310 368 456
#
# _framework density 23.308761000000001
#
# number of rings (size 3 to 8) (size 9 to 14) (size 15 to 20)
#    0.000    0.889    4.444    0.667    7.778    0.889 
#    2.000    5.556    0.000    0.000    0.000    0.000 
#    0.000    0.000    0.000    0.000    0.000    0.000 
#
# Total GULP energy -100559.696630 kJ/mol
# GULP energy per Si atom -5586.649813 kJ/mol
# Density = 2.325571 g / cm^3
# Si number density = 23.308761 Si / 1000 Ang^3
#
#
#
# Elastic Constant Matrix: (Units=GPa)
#
#
# Indices 1 2 3 4 5 6 
#
# 1 101.9286 44.0099 23.6749 0.0000 0.0000 0.0000
# 2 44.0099 226.2525 52.5852 0.0000 0.0000 0.0000
# 3 23.6749 52.5852 134.1317 0.0001 0.0000 0.0001
# 4 0.0000 0.0000 0.0001 27.6722 0.0000 0.0000
# 5 0.0000 0.0000 0.0000 0.0000 19.4999 0.0000
# 6 0.0000 0.0000 0.0001 0.0000 0.0000 -15.4276
#
#
#
# Elastic Compliance Matrix: (Units=1/GPa)
#
#
# Indices 1 2 3 4 5 6 
#
# 1 0.010883 -0.001838 -0.001200 0.000000 0.000000 0.000000
# 2 -0.001838 0.005173 -0.001704 0.000000 0.000000 0.000000
# 3 -0.001200 -0.001704 0.008335 0.000000 0.000000 0.000000
# 4 0.000000 0.000000 0.000000 0.036137 0.000000 0.000000
# 5 0.000000 0.000000 0.000000 0.000000 0.051282 0.000000
# 6 0.000000 0.000000 0.000000 0.000000 0.000000 -0.064819
#
#
# Mechanical properties :
#
#
# Convention : Reuss Voigt Hill
#
# Bulk Modulus (GPa) = 67.08034 78.09476 72.58755
# Shear Modulus (GPa) = 81.37256 29.15176 55.26216
#
# Velocity S-wave (km/s) = 5.91494 3.54033 4.87445
# Velocity P-wave (km/s) = 8.68851 7.09148 7.93030
#
# Compressibility (1/GPa) = 0.01490750
#
# Stress axis : x y z
#
# Youngs Moduli (GPa) = 91.88491 193.29871 119.97349
#
# Poissons Ratio (x) = 0.35528 0.14401
# Poissons Ratio (y) = 0.16888 0.20441
# Poissons Ratio (z) = 0.11030 0.32933
#
# Static dielectric constant tensor:
#      x y z
#    x 1.894140 0.000000 0.000000 
#    y 0.000000 1.953590 0.000000 
#    z 0.000000 0.000000 1.904740 
# 
# From -- ./inp_files/6201.got.cif
#   From: 2010.05.17/outbox.cif.g08.bks.cpg/sg24_4_cif.got.tgz:6201.got - 2010.06.04 00:33:39.
