data_PCOD9335647
_publ_section_title
;
Structure prediction by ZEFSAII (Michael W. Deem and Ramdas Pophale) SiO2 
 PCOD9335647
Probable space group: I 21 21 21
;
_chemical_formula_sum "Si O2"
_cell_formula_units_Z 48
_cell_length_a 30.621688
_cell_length_b 8.629918
_cell_length_c 9.065222
_cell_angle_alpha 90.000000
_cell_angle_beta 90.000000
_cell_angle_gamma 90.000000
_cell_volume 2395.599647
_symmetry_space_group_name_H-M "I 21 21 21"
_symmetry_group_IT_number 24
_symmetry_cell_setting 'orthorhombic'
loop_
_space_group_symop_operation_xyz
x,y,z
-x,1/2-y,z
x,-y,1/2-z
1/2-x,y,-z
1/2+x,1/2+y,1/2+z
1/2-x,-y,1/2+z
1/2+x,1/2-y,-z
-x,1/2+y,1/2-z
loop_
_atom_site_type_symbol
_atom_site_label
_atom_site_fract_x
_atom_site_fract_y
_atom_site_fract_z
Si Si1 0.636933 0.222549 0.637734
Si Si2 0.544229 0.829514 0.314321
Si Si3 0.623056 0.868563 0.543249
Si Si4 0.689744 0.825683 0.297269
Si Si5 0.111563 0.149191 0.645438
Si Si6 0.730331 0.650571 0.837288
O O1 0.620312 0.224005 0.804777
O O2 0.618401 0.355813 0.529751
O O3 0.689321 0.237033 0.641646
O O4 0.624458 0.052302 0.576592
O O5 0.500000 0.750000 0.367466
O O6 0.582052 0.836621 0.437549
O O7 0.565470 0.725029 0.185404
O O8 0.536417 0.000000 0.250000
O O9 0.667947 0.824739 0.458448
O O10 0.650410 0.763839 0.195266
O O11 0.731524 0.722425 0.263661
O O12 0.700083 0.000000 0.250000
O O13 0.116769 0.000000 0.750000
O O14 0.714296 0.500000 0.750000
O O15 0.750000 0.616736 0.000000
#
# Coordination Sequence:
#
# PCOD9335647 Si02
#       6
#     8   8   8   8   8   8
#     4  11  23  42  66  97 135 183 225 287 354 413
#     4  11  22  43  72 104 131 173 229 279 348 439
#     4  10  22  42  70  98 134 177 228 289 360 417
#     4  11  21  41  64  88 127 182 234 283 335 404
#     4  11  21  40  68  94 133 178 222 278 349 414
#     4  12  27  40  59  94 136 179 238 292 339 398
#
# _framework density 20.036736000000001
#
# number of rings (size 3 to 8) (size 9 to 14) (size 15 to 20)
#    0.000    1.000    5.000    2.000    4.667    1.333 
#    0.000    0.833    3.667    0.000    0.000    0.000 
#    0.000    0.000    0.000    0.000    0.000    0.000 
#
# Total GULP energy -134079.149042 kJ/mol
# GULP energy per Si atom -5586.631210 kJ/mol
# Density = 1.999113 g / cm^3
# Si number density = 20.036736 Si / 1000 Ang^3
#
#
#
# Elastic Constant Matrix: (Units=GPa)
#
#
# Indices 1 2 3 4 5 6 
#
# 1 95.7214 5.1083 38.0603 0.0000 0.0000 0.0000
# 2 5.1083 30.2441 38.2980 0.0000 0.0000 0.0000
# 3 38.0603 38.2980 148.0227 0.0000 0.0000 0.0000
# 4 0.0000 0.0000 0.0000 31.9730 0.0000 0.0000
# 5 0.0000 0.0000 0.0000 0.0000 18.9886 0.0000
# 6 0.0000 0.0000 0.0000 0.0000 0.0000 30.7569
#
#
#
# Elastic Compliance Matrix: (Units=1/GPa)
#
#
# Indices 1 2 3 4 5 6 
#
# 1 0.011788 0.002747 -0.003742 0.000000 0.000000 0.000000
# 2 0.002747 0.049816 -0.013595 0.000000 0.000000 0.000000
# 3 -0.003742 -0.013595 0.011235 0.000000 0.000000 0.000000
# 4 0.000000 0.000000 0.000000 0.031276 0.000000 0.000000
# 5 0.000000 0.000000 0.000000 0.000000 0.052663 0.000000
# 6 0.000000 0.000000 0.000000 0.000000 0.000000 0.032513
#
#
# Mechanical properties :
#
#
# Convention : Reuss Voigt Hill
#
# Bulk Modulus (GPa) = 22.90443 48.54682 35.72562
# Shear Modulus (GPa) = 21.45693 29.17848 25.31770
#
# Velocity S-wave (km/s) = 3.27598 3.82022 3.55852
# Velocity P-wave (km/s) = 5.07596 6.61365 5.89516
#
# Compressibility (1/GPa) = 0.04365968
#
# Stress axis : x y z
#
# Youngs Moduli (GPa) = 84.83075 20.07390 89.00484
#
# Poissons Ratio (x) = -0.05515 0.33304
# Poissons Ratio (y) = -0.23305 1.21004
# Poissons Ratio (z) = 0.31742 0.27291
#
# Static dielectric constant tensor:
#      x y z
#    x 1.665970 0.000000 0.000000 
#    y 0.000000 1.731430 0.000000 
#    z 0.000000 0.000000 1.771570 
# 
# From -- ./inp_files/9749.got.cif
#   From: 2010.05.17/outbox.cif.g08.bks.cpg/sg24_5_cif.got.tgz:9749.got - 2010.06.04 00:33:39.
