data_PCOD9335870
_publ_section_title
;
Structure prediction by ZEFSAII (Michael W. Deem and Ramdas Pophale) SiO2 
 PCOD9335870
Probable space group: I 21 21 21
;
_chemical_formula_sum "Si O2"
_cell_formula_units_Z 56
_cell_length_a 22.443509
_cell_length_b 14.970198
_cell_length_c 8.696208
_cell_angle_alpha 90.000000
_cell_angle_beta 90.000000
_cell_angle_gamma 90.000000
_cell_volume 2921.784779
_symmetry_space_group_name_H-M "I 21 21 21"
_symmetry_group_IT_number 24
_symmetry_cell_setting 'orthorhombic'
loop_
_space_group_symop_operation_xyz
x,y,z
-x,1/2-y,z
x,-y,1/2-z
1/2-x,y,-z
1/2+x,1/2+y,1/2+z
1/2-x,-y,1/2+z
1/2+x,1/2-y,-z
-x,1/2+y,1/2-z
loop_
_atom_site_type_symbol
_atom_site_label
_atom_site_fract_x
_atom_site_fract_y
_atom_site_fract_z
Si Si1 0.985932 0.847642 0.387088
Si Si2 0.016343 0.983350 0.918896
Si Si3 0.203715 0.600035 0.305030
Si Si4 0.884166 0.220228 0.348694
Si Si5 0.598144 0.587952 0.817681
Si Si6 0.442993 0.687286 0.167998
Si Si7 0.660910 0.095547 0.153836
O O1 0.933130 0.823079 0.268109
O O2 0.000000 0.750000 0.456726
O O3 0.040261 0.883222 0.282434
O O4 0.984397 0.928467 0.509893
O O5 0.968021 0.906785 0.893922
O O6 0.041264 0.000000 0.750000
O O7 0.068420 0.944768 0.024684
O O8 0.207428 0.500000 0.250000
O O9 0.170780 0.656226 0.175507
O O10 0.166686 0.593793 0.466762
O O11 0.272187 0.631187 0.313967
O O12 0.865431 0.321430 0.311752
O O13 0.911758 0.227451 0.517182
O O14 0.628245 0.500000 0.750000
O O15 0.500000 0.750000 0.207658
O O16 0.391850 0.661842 0.291357
O O17 0.654138 0.000000 0.250000
#
# Coordination Sequence:
#
# PCOD9335870 Si02
#       7
#     8   8   8   8   8   8   8
#     4   9  19  35  52  77 113 159 205 241 296 360
#     4  11  22  33  50  79 117 164 196 240 308 359
#     4  10  23  40  67  91 124 166 213 252 305 372
#     4  11  20  35  58  87 115 162 206 248 305 361
#     4   9  18  38  53  74 117 159 200 248 290 366
#     4  12  23  38  57  87 130 163 199 253 312 373
#     4  10  23  44  60  93 129 166 208 260 309 367
#
# _framework density 19.166366
#
# number of rings (size 3 to 8) (size 9 to 14) (size 15 to 20)
#    0.000    1.714    2.857    1.714    6.000    2.286 
#    5.143    0.714    0.000    0.000    0.000    6.000 
#    0.000    0.000    0.000    0.000    0.000    0.000 
#
# Total GULP energy -155918.453136 kJ/mol
# GULP energy per Si atom -5568.516183 kJ/mol
# Density = 1.912274 g / cm^3
# Si number density = 19.166366 Si / 1000 Ang^3
#
#
#
# Elastic Constant Matrix: (Units=GPa)
#
#
# Indices 1 2 3 4 5 6 
#
# 1 73.3341 29.6831 24.1804 0.0000 0.0000 0.0000
# 2 29.6831 105.1290 8.8435 0.0000 0.0000 0.0000
# 3 24.1804 8.8435 72.8830 0.0000 0.0000 0.0000
# 4 0.0000 0.0000 0.0000 0.3723 0.0000 0.0000
# 5 0.0000 0.0000 0.0000 0.0000 14.9136 0.0000
# 6 0.0000 0.0000 0.0000 0.0000 0.0000 26.7365
#
#
#
# Elastic Compliance Matrix: (Units=1/GPa)
#
#
# Indices 1 2 3 4 5 6 
#
# 1 0.017113 -0.004399 -0.005144 0.000000 0.000000 0.000000
# 2 -0.004399 0.010741 0.000156 0.000000 0.000000 0.000000
# 3 -0.005144 0.000156 0.015408 0.000000 0.000000 0.000000
# 4 0.000000 0.000000 0.000000 2.685862 0.000000 0.000000
# 5 0.000000 0.000000 0.000000 0.000000 0.067053 0.000000
# 6 0.000000 0.000000 0.000000 0.000000 0.000000 0.037402
#
#
# Mechanical properties :
#
#
# Convention : Reuss Voigt Hill
#
# Bulk Modulus (GPa) = 40.83501 41.86225 41.34863
# Shear Modulus (GPa) = 1.74794 20.98042 11.36418
#
# Velocity S-wave (km/s) = 0.95601 3.31214 2.43764
# Velocity P-wave (km/s) = 4.75083 6.04284 5.43536
#
# Compressibility (1/GPa) = 0.02448879
#
# Stress axis : x y z
#
# Youngs Moduli (GPa) = 58.43551 93.10054 64.90040
#
# Poissons Ratio (x) = 0.40956 0.33383
# Poissons Ratio (y) = 0.25706 -0.01014
# Poissons Ratio (z) = 0.30058 -0.01454
#
# Static dielectric constant tensor:
#      x y z
#    x 1.679520 0.000000 0.000000 
#    y 0.000000 1.691260 0.000000 
#    z 0.000000 0.000000 1.782750 
# 
# From -- ./inp_files/15259.got.cif
#   From: 2010.05.17/outbox.cif.g08.bks.cpg/sg24_8_cif.got.tgz:15259.got - 2010.06.04 00:33:39.
