data_PCOD9335445
_publ_section_title
;
Structure prediction by ZEFSAII (Michael W. Deem and Ramdas Pophale) SiO2 
 PCOD9335445
Probable space group: I 21 21 21
;
_chemical_formula_sum "Si O2"
_cell_formula_units_Z 40
_cell_length_a 12.513161
_cell_length_b 20.794870
_cell_length_c 5.906208
_cell_angle_alpha 90.000000
_cell_angle_beta 90.000000
_cell_angle_gamma 90.000000
_cell_volume 1536.851763
_symmetry_space_group_name_H-M "I 21 21 21"
_symmetry_group_IT_number 24
_symmetry_cell_setting 'orthorhombic'
loop_
_space_group_symop_operation_xyz
x,y,z
-x,1/2-y,z
x,-y,1/2-z
1/2-x,y,-z
1/2+x,1/2+y,1/2+z
1/2-x,-y,1/2+z
1/2+x,1/2-y,-z
-x,1/2+y,1/2-z
loop_
_atom_site_type_symbol
_atom_site_label
_atom_site_fract_x
_atom_site_fract_y
_atom_site_fract_z
Si Si1 0.727617 0.334444 0.238288
Si Si2 0.425986 0.011470 0.511973
Si Si3 0.338018 0.700789 0.811426
Si Si4 0.499626 0.852911 0.113134
Si Si5 0.134124 0.579275 0.513869
O O1 0.750000 0.357142 0.500000
O O2 0.800793 0.270044 0.218670
O O3 0.599137 0.324610 0.244059
O O4 0.750000 0.371235 0.000000
O O5 0.453943 0.086213 0.519982
O O6 0.386623 0.000000 0.250000
O O7 0.535172 0.968874 0.528971
O O8 0.364844 0.000000 0.750000
O O9 0.347114 0.640730 0.645758
O O10 0.250000 0.688038 0.000000
O O11 0.447848 0.696063 0.944274
O O12 0.592837 0.885612 0.260522
O O13 0.250000 0.544851 0.500000
#
# Coordination Sequence:
#
# PCOD9335445 Si02
#       5
#     8   8   8   8   8
#     4  11  29  51  72 108 150 208 264 311 378 461
#     4  10  22  39  68 107 141 189 239 303 382 450
#     4  11  23  43  68 107 148 203 253 309 386 460
#     4  11  25  47  73 107 158 201 247 321 389 470
#     4  11  22  40  70 106 153 190 249 315 389 458
#
# _framework density 26.027232999999999
#
# number of rings (size 3 to 8) (size 9 to 14) (size 15 to 20)
#    0.000    1.200    4.000    0.600    5.600    6.400 
#    0.000    0.000    0.000   14.400    0.000    0.000 
#    0.000    0.000    0.000    0.000    0.000    0.000 
#
# Total GULP energy -111572.532471 kJ/mol
# GULP energy per Si atom -5578.626624 kJ/mol
# Density = 2.596799 g / cm^3
# Si number density = 26.027233 Si / 1000 Ang^3
#
#
#
# Elastic Constant Matrix: (Units=GPa)
#
#
# Indices 1 2 3 4 5 6 
#
# 1 114.1523 34.6302 43.9928 0.0000 0.0001 -0.0001
# 2 34.6302 105.4767 34.7612 0.0000 0.0006 -0.0004
# 3 43.9928 34.7612 195.7397 -0.0004 0.0036 -0.0032
# 4 0.0000 0.0000 -0.0004 21.5087 0.0008 -0.0004
# 5 0.0001 0.0006 0.0036 0.0008 24.9238 0.0005
# 6 -0.0001 -0.0004 -0.0032 -0.0004 0.0005 90.3616
#
#
#
# Elastic Compliance Matrix: (Units=1/GPa)
#
#
# Indices 1 2 3 4 5 6 
#
# 1 0.010307 -0.002783 -0.001822 0.000000 0.000000 0.000000
# 2 -0.002783 0.010822 -0.001296 0.000000 0.000000 0.000000
# 3 -0.001822 -0.001296 0.005749 0.000000 -0.000001 0.000000
# 4 0.000000 0.000000 0.000000 0.046493 -0.000002 0.000000
# 5 0.000000 0.000000 -0.000001 -0.000002 0.040122 0.000000
# 6 0.000000 0.000000 0.000000 0.000000 0.000000 0.011067
#
#
# Mechanical properties :
#
#
# Convention : Reuss Voigt Hill
#
# Bulk Modulus (GPa) = 66.34151 71.34857 68.84504
# Shear Modulus (GPa) = 35.36388 47.49113 41.42751
#
# Velocity S-wave (km/s) = 3.69009 4.27625 3.99394
# Velocity P-wave (km/s) = 6.61062 7.20099 6.91211
#
# Compressibility (1/GPa) = 0.01507352
#
# Stress axis : x y z
#
# Youngs Moduli (GPa) = 97.02258 92.40585 173.95647
#
# Poissons Ratio (x) = 0.25721 0.31698
# Poissons Ratio (y) = 0.27006 0.22549
# Poissons Ratio (z) = 0.17679 0.11978
#
# Static dielectric constant tensor:
#      x y z
#    x 2.119210 0.000000 0.000000 
#    y 0.000000 2.066330 0.000000 
#    z 0.000000 0.000000 2.064350 
# 
# From -- ./inp_files/2469.got.cif
#   From: 2010.05.17/outbox.cif.g08.bks.cpg/sg24_2_cif.got.tgz:2469.got - 2010.06.04 00:33:39.
