data_PCOD9335673
_publ_section_title
;
Structure prediction by ZEFSAII (Michael W. Deem and Ramdas Pophale) SiO2 
 PCOD9335673
Probable space group: I 21 21 21
;
_chemical_formula_sum "Si O2"
_cell_formula_units_Z 36
_cell_length_a 9.805800
_cell_length_b 9.432862
_cell_length_c 19.032360
_cell_angle_alpha 90.000000
_cell_angle_beta 90.000000
_cell_angle_gamma 90.000000
_cell_volume 1760.431601
_symmetry_space_group_name_H-M "I 21 21 21"
_symmetry_group_IT_number 24
_symmetry_cell_setting 'orthorhombic'
loop_
_space_group_symop_operation_xyz
x,y,z
-x,1/2-y,z
x,-y,1/2-z
1/2-x,y,-z
1/2+x,1/2+y,1/2+z
1/2-x,-y,1/2+z
1/2+x,1/2-y,-z
-x,1/2+y,1/2-z
loop_
_atom_site_type_symbol
_atom_site_label
_atom_site_fract_x
_atom_site_fract_y
_atom_site_fract_z
Si Si1 0.660043 0.000000 0.750000
Si Si2 0.586823 0.608514 0.011974
Si Si3 0.673405 0.462414 0.146497
Si Si4 0.354241 0.770717 0.227515
Si Si5 0.474824 0.908715 0.614976
O O1 0.760510 0.133878 0.735780
O O2 0.565784 0.044175 0.817339
O O3 0.500000 0.750000 0.024176
O O4 0.587713 0.501180 0.078157
O O5 0.750000 0.637747 0.000000
O O6 0.522941 0.527815 0.945126
O O7 0.718762 0.611605 0.180826
O O8 0.604683 0.359044 0.202433
O O9 0.816778 0.391387 0.133675
O O10 0.500000 0.750000 0.191162
O O11 0.500000 0.750000 0.587891
#
# Coordination Sequence:
#
# PCOD9335673 Si02
#       5
#     4   8   8   8   8
#     4  12  24  38  72 104 128 172 232 278 334 406
#     4  10  24  44  68  95 135 178 222 277 335 409
#     4  10  22  43  64  90 137 174 210 277 337 390
#     4  11  23  40  66  97 133 175 219 275 336 400
#     4  11  24  42  65  99 130 169 222 281 337 389
#
# _framework density 20.449531
#
# number of rings (size 3 to 8) (size 9 to 14) (size 15 to 20)
#    0.000    1.333    2.222    3.333    6.222    0.889 
#    0.000    3.333    0.000    0.000    0.000    0.000 
#    0.000    0.000    0.000    0.000    0.000    0.000 
#
# Total GULP energy -100301.295486 kJ/mol
# GULP energy per Si atom -5572.294194 kJ/mol
# Density = 2.040299 g / cm^3
# Si number density = 20.449531 Si / 1000 Ang^3
#
#
#
# Elastic Constant Matrix: (Units=GPa)
#
#
# Indices 1 2 3 4 5 6 
#
# 1 63.8597 47.1369 28.4412 0.0000 0.0000 0.0000
# 2 47.1369 107.7827 26.4995 0.0000 0.0000 0.0000
# 3 28.4412 26.4995 88.4631 0.0000 0.0000 0.0000
# 4 0.0000 0.0000 0.0000 -1.9038 0.0000 0.0000
# 5 0.0000 0.0000 0.0000 0.0000 -163.9674 0.0000
# 6 0.0000 0.0000 0.0000 0.0000 0.0000 27.1825
#
#
#
# Elastic Compliance Matrix: (Units=1/GPa)
#
#
# Indices 1 2 3 4 5 6 
#
# 1 0.025138 -0.009723 -0.005170 0.000000 0.000000 0.000000
# 2 -0.009723 0.013776 -0.001001 0.000000 0.000000 0.000000
# 3 -0.005170 -0.001001 0.013266 0.000000 0.000000 0.000000
# 4 0.000000 0.000000 0.000000 -0.525254 0.000000 0.000000
# 5 0.000000 0.000000 0.000000 0.000000 -0.006099 0.000000
# 6 0.000000 0.000000 0.000000 0.000000 0.000000 0.036788
#
#
# Mechanical properties :
#
#
# Convention : Reuss Voigt Hill
#
# Bulk Modulus (GPa) = 49.03375 51.58453 50.30914
# Shear Modulus (GPa) = -12.38238 -17.20256 -14.79247
#
# Velocity S-wave (km/s) = -2.46338 -2.90353 -2.69246
# Velocity P-wave (km/s) = 3.99237 3.74692 3.87159
#
# Compressibility (1/GPa) = 0.02039412
#
# Stress axis : x y z
#
# Youngs Moduli (GPa) = 39.77971 72.58948 75.38089
#
# Poissons Ratio (x) = 0.70578 0.38969
# Poissons Ratio (y) = 0.38677 0.07544
# Poissons Ratio (z) = 0.20564 0.07264
#
# Static dielectric constant tensor:
#      x y z
#    x 1.751170 0.000000 0.000000 
#    y 0.000000 2.000710 0.000000 
#    z 0.000000 0.000000 1.860840 
# 
# From -- ./inp_files/9054.got.cif
#   From: 2010.05.17/outbox.cif.g08.bks.cpg/sg24_5_cif.got.tgz:9054.got - 2010.06.04 00:33:39.
