data_PCOD9335387
_publ_section_title
;
Structure prediction by ZEFSAII (Michael W. Deem and Ramdas Pophale) SiO2 
 PCOD9335387
Probable space group: I 21 21 21
;
_chemical_formula_sum "Si O2"
_cell_formula_units_Z 48
_cell_length_a 16.893929
_cell_length_b 5.379409
_cell_length_c 24.175422
_cell_angle_alpha 90.000000
_cell_angle_beta 90.000000
_cell_angle_gamma 90.000000
_cell_volume 2197.046727
_symmetry_space_group_name_H-M "I 21 21 21"
_symmetry_group_IT_number 24
_symmetry_cell_setting 'orthorhombic'
loop_
_space_group_symop_operation_xyz
x,y,z
-x,1/2-y,z
x,-y,1/2-z
1/2-x,y,-z
1/2+x,1/2+y,1/2+z
1/2-x,-y,1/2+z
1/2+x,1/2-y,-z
-x,1/2+y,1/2-z
loop_
_atom_site_type_symbol
_atom_site_label
_atom_site_fract_x
_atom_site_fract_y
_atom_site_fract_z
Si Si1 0.302205 0.422200 0.578975
Si Si2 0.633450 0.950144 0.461205
Si Si3 0.371610 0.912796 0.364019
Si Si4 0.305842 0.069841 0.856453
Si Si5 0.000000 0.250000 0.590673
Si Si6 0.968323 0.498831 0.187083
Si Si7 0.500000 0.750000 0.286014
O O1 0.348466 0.529947 0.525873
O O2 0.208784 0.402637 0.564217
O O3 0.324726 0.144721 0.597787
O O4 0.310728 0.643342 0.623737
O O5 0.639567 0.695032 0.426384
O O6 0.547536 0.056552 0.447092
O O7 0.422291 0.728337 0.325342
O O8 0.285529 0.969781 0.340149
O O9 0.431924 0.136697 0.371448
O O10 0.374158 0.019264 0.812666
O O11 0.000414 0.500000 0.250000
O O12 0.000000 0.750000 0.160107
O O13 0.000000 0.250000 0.158718
O O14 0.507923 0.500000 0.250000
#
# Coordination Sequence:
#
# PCOD9335387 Si02
#       7
#     8   8   8   8   4   8   4
#     4  10  23  39  63  96 132 166 221 265 323 371
#     4  10  22  38  63  90 129 181 216 262 314 406
#     4  11  24  42  66  93 134 182 225 267 340 393
#     4  11  23  43  67  97 131 169 209 283 327 391
#     4  12  19  40  66  88 132 182 228 245 322 402
#     4  10  22  44  69  92 122 164 208 259 333 407
#     4  12  27  44  66  98 138 178 234 295 324 380
#
# _framework density 21.847508999999999
#
# number of rings (size 3 to 8) (size 9 to 14) (size 15 to 20)
#    0.000    1.333    3.333    1.500    2.333    2.000 
#    4.500    2.500    0.000    0.000    0.000    0.000 
#    0.000    0.000    0.000    0.000    0.000    0.000 
#
# Total GULP energy -133829.991210 kJ/mol
# GULP energy per Si atom -5576.249634 kJ/mol
# Density = 2.179778 g / cm^3
# Si number density = 21.847509 Si / 1000 Ang^3
#
#
#
# Elastic Constant Matrix: (Units=GPa)
#
#
# Indices 1 2 3 4 5 6 
#
# 1 142.2344 27.5541 11.9351 0.0000 0.0000 0.0000
# 2 27.5541 109.4074 9.5794 0.0000 0.0000 0.0000
# 3 11.9351 9.5794 38.6020 0.0000 0.0000 0.0000
# 4 0.0000 0.0000 0.0000 2.9206 0.0000 0.0000
# 5 0.0000 0.0000 0.0000 0.0000 31.8208 0.0000
# 6 0.0000 0.0000 0.0000 0.0000 0.0000 34.2255
#
#
#
# Elastic Compliance Matrix: (Units=1/GPa)
#
#
# Indices 1 2 3 4 5 6 
#
# 1 0.007525 -0.001729 -0.001897 0.000000 0.000000 0.000000
# 2 -0.001729 0.009740 -0.001883 0.000000 0.000000 0.000000
# 3 -0.001897 -0.001883 0.026959 0.000000 0.000000 0.000000
# 4 0.000000 0.000000 0.000000 0.342401 0.000000 0.000000
# 5 0.000000 0.000000 0.000000 0.000000 0.031426 0.000000
# 6 0.000000 0.000000 0.000000 0.000000 0.000000 0.029218
#
#
# Mechanical properties :
#
#
# Convention : Reuss Voigt Hill
#
# Bulk Modulus (GPa) = 30.11470 43.15344 36.63407
# Shear Modulus (GPa) = 10.65289 29.87172 20.26231
#
# Velocity S-wave (km/s) = 2.21057 3.70169 3.04870
# Velocity P-wave (km/s) = 4.50882 6.16968 5.40345
#
# Compressibility (1/GPa) = 0.03320637
#
# Stress axis : x y z
#
# Youngs Moduli (GPa) = 132.89374 102.66489 37.09303
#
# Poissons Ratio (x) = 0.17751 0.07038
# Poissons Ratio (y) = 0.22977 0.06983
# Poissons Ratio (z) = 0.25216 0.19328
#
# Static dielectric constant tensor:
#      x y z
#    x 1.795510 0.000000 0.000000 
#    y 0.000000 1.768780 0.000000 
#    z 0.000000 0.000000 1.833300 
# 
# From -- ./inp_files/37381.got.cif
#   From: 2010.05.17/outbox.cif.g08.bks.cpg/sg24_19_cif.got.tgz:37381.got - 2010.06.04 00:33:39.
