data_PCOD9335757
_publ_section_title
;
Structure prediction by ZEFSAII (Michael W. Deem and Ramdas Pophale) SiO2 
 PCOD9335757
Probable space group: I 21 21 21
;
_chemical_formula_sum "Si O2"
_cell_formula_units_Z 20
_cell_length_a 22.626458
_cell_length_b 7.736226
_cell_length_c 5.148465
_cell_angle_alpha 90.000000
_cell_angle_beta 90.000000
_cell_angle_gamma 90.000000
_cell_volume 901.204781
_symmetry_space_group_name_H-M "I 21 21 21"
_symmetry_group_IT_number 24
_symmetry_cell_setting 'orthorhombic'
loop_
_space_group_symop_operation_xyz
x,y,z
-x,1/2-y,z
x,-y,1/2-z
1/2-x,y,-z
1/2+x,1/2+y,1/2+z
1/2-x,-y,1/2+z
1/2+x,1/2-y,-z
-x,1/2+y,1/2-z
loop_
_atom_site_type_symbol
_atom_site_label
_atom_site_fract_x
_atom_site_fract_y
_atom_site_fract_z
Si Si1 0.120999 0.816943 0.906659
Si Si2 0.455553 0.500000 0.250000
Si Si3 0.461032 0.000000 0.750000
Si Si4 0.250000 0.122115 0.500000
O O1 0.085650 0.667225 0.765733
O O2 0.189391 0.775249 0.956423
O O3 0.120520 0.000000 0.750000
O O4 0.084081 0.847852 0.171102
O O5 0.497451 0.517773 0.500552
O O6 0.259994 0.000000 0.750000
#
# Coordination Sequence:
#
# PCOD9335757 Si02
#       4
#     8   4   4   4
#     4  11  26  47  72 103 140 192 231 299 343 429
#     4  12  30  42  72 106 146 182 242 282 364 420
#     4  12  26  44  72 106 142 188 230 296 348 426
#     4  10  22  44  74 100 134 188 240 286 350 416
#
# _framework density 22.192515
#
# number of rings (size 3 to 8) (size 9 to 14) (size 15 to 20)
#    0.000    0.800    4.000    1.200   11.200    0.000 
#    0.000   10.000    0.000    0.000    0.000    0.000 
#    0.000    0.000    0.000    0.000    0.000    0.000 
#
# Total GULP energy -55957.271579 kJ/mol
# GULP energy per Si atom -5595.727158 kJ/mol
# Density = 2.214200 g / cm^3
# Si number density = 22.192515 Si / 1000 Ang^3
#
#
#
# Elastic Constant Matrix: (Units=GPa)
#
#
# Indices 1 2 3 4 5 6 
#
# 1 251.2560 55.2511 64.7338 0.0001 0.0000 -0.0001
# 2 55.2511 76.9378 18.5355 0.0008 0.0001 0.0003
# 3 64.7338 18.5355 142.5017 0.0017 0.0003 0.0001
# 4 0.0001 0.0008 0.0017 19.3411 0.0002 0.0003
# 5 0.0000 0.0001 0.0003 0.0002 12.3449 -0.0001
# 6 -0.0001 0.0003 0.0001 0.0003 -0.0001 -3.9474
#
#
#
# Elastic Compliance Matrix: (Units=1/GPa)
#
#
# Indices 1 2 3 4 5 6 
#
# 1 0.005197 -0.003266 -0.001936 0.000000 0.000000 0.000000
# 2 -0.003266 0.015470 -0.000529 -0.000001 0.000000 0.000001
# 3 -0.001936 -0.000529 0.007966 -0.000001 0.000000 0.000000
# 4 0.000000 -0.000001 -0.000001 0.051703 -0.000001 0.000004
# 5 0.000000 0.000000 0.000000 -0.000001 0.081005 -0.000002
# 6 0.000000 0.000001 0.000000 0.000004 -0.000002 -0.253330
#
#
# Mechanical properties :
#
#
# Convention : Reuss Voigt Hill
#
# Bulk Modulus (GPa) = 58.23484 83.08179 70.65831
# Shear Modulus (GPa) = -66.84112 27.69271 -19.57420
#
# Velocity S-wave (km/s) = -5.49401 3.53631 -2.97310
# Velocity P-wave (km/s) = 3.73468 7.36153 4.48577
#
# Compressibility (1/GPa) = 0.01717185
#
# Stress axis : x y z
#
# Youngs Moduli (GPa) = 192.42207 64.64109 125.53815
#
# Poissons Ratio (x) = 0.21109 0.24304
# Poissons Ratio (y) = 0.62838 0.06638
# Poissons Ratio (z) = 0.37253 0.03418
#
# Static dielectric constant tensor:
#      x y z
#    x 1.812820 0.000000 0.000000 
#    y 0.000000 1.838090 0.000000 
#    z 0.000000 0.000000 1.869700 
# 
# From -- ./inp_files/761.got.cif
#   From: 2010.05.17/outbox.cif.g08.bks.cpg/sg24_1_cif.got.tgz:761.got - 2010.06.04 00:33:39.
