data_PCOD9335404
_publ_section_title
;
Structure prediction by ZEFSAII (Michael W. Deem and Ramdas Pophale) SiO2 
 PCOD9335404
Probable space group: I 21 21 21
;
_chemical_formula_sum "Si O2"
_cell_formula_units_Z 32
_cell_length_a 19.801509
_cell_length_b 5.679537
_cell_length_c 11.759106
_cell_angle_alpha 90.000000
_cell_angle_beta 90.000000
_cell_angle_gamma 90.000000
_cell_volume 1322.469077
_symmetry_space_group_name_H-M "I 21 21 21"
_symmetry_group_IT_number 24
_symmetry_cell_setting 'orthorhombic'
loop_
_space_group_symop_operation_xyz
x,y,z
-x,1/2-y,z
x,-y,1/2-z
1/2-x,y,-z
1/2+x,1/2+y,1/2+z
1/2-x,-y,1/2+z
1/2+x,1/2-y,-z
-x,1/2+y,1/2-z
loop_
_atom_site_type_symbol
_atom_site_label
_atom_site_fract_x
_atom_site_fract_y
_atom_site_fract_z
Si Si1 0.163041 0.500000 0.250000
Si Si2 0.000000 0.750000 0.685485
Si Si3 0.630545 0.033956 0.119425
Si Si4 0.807618 0.337648 0.066070
Si Si5 0.919270 0.283387 0.437296
O O1 0.204338 0.292623 0.186588
O O2 0.115318 0.392363 0.347066
O O3 0.995373 0.500000 0.750000
O O4 0.068044 0.715820 0.616516
O O5 0.650253 0.000000 0.250000
O O6 0.682929 0.142327 0.032524
O O7 0.601720 0.796927 0.064088
O O8 0.877937 0.477065 0.084480
O O9 0.750000 0.492460 0.000000
O O10 0.000000 0.250000 0.427212
#
# Coordination Sequence:
#
# PCOD9335404 Si02
#       5
#     4   4   8   8   8
#     4  10  26  48  70 108 146 198 260 324 384 476
#     4  10  22  38  66 104 150 190 240 306 386 462
#     4  10  24  40  68 105 145 190 240 317 387 466
#     4  11  26  47  73 106 147 201 257 318 402 474
#     4  11  25  45  75 108 146 199 262 325 388 465
#
# _framework density 24.197163
#
# number of rings (size 3 to 8) (size 9 to 14) (size 15 to 20)
#    0.000    1.500    0.000    2.250   19.250    6.000 
#    4.500    0.000    0.000    0.000    0.000    0.000 
#    0.000    0.000    0.000    0.000    0.000    0.000 
#
# Total GULP energy -89256.219586 kJ/mol
# GULP energy per Si atom -5578.513724 kJ/mol
# Density = 2.414209 g / cm^3
# Si number density = 24.197163 Si / 1000 Ang^3
#
#
#
# Elastic Constant Matrix: (Units=GPa)
#
#
# Indices 1 2 3 4 5 6 
#
# 1 134.8862 21.2523 32.4834 0.0000 0.0000 0.0000
# 2 21.2523 87.6740 30.9537 0.0000 0.0000 0.0000
# 3 32.4834 30.9537 136.8444 0.0000 0.0000 0.0000
# 4 0.0000 0.0000 0.0000 46.4194 0.0000 0.0000
# 5 0.0000 0.0000 0.0000 0.0000 35.4639 0.0000
# 6 0.0000 0.0000 0.0000 0.0000 0.0000 22.4260
#
#
#
# Elastic Compliance Matrix: (Units=1/GPa)
#
#
# Indices 1 2 3 4 5 6 
#
# 1 0.008014 -0.001381 -0.001590 0.000000 0.000000 0.000000
# 2 -0.001381 0.012634 -0.002530 0.000000 0.000000 0.000000
# 3 -0.001590 -0.002530 0.008257 0.000000 0.000000 0.000000
# 4 0.000000 0.000000 0.000000 0.021543 0.000000 0.000000
# 5 0.000000 0.000000 0.000000 0.000000 0.028198 0.000000
# 6 0.000000 0.000000 0.000000 0.000000 0.000000 0.044591
#
#
# Mechanical properties :
#
#
# Convention : Reuss Voigt Hill
#
# Bulk Modulus (GPa) = 55.85618 58.75371 57.30494
# Shear Modulus (GPa) = 35.66165 39.17621 37.41893
#
# Velocity S-wave (km/s) = 3.84317 4.02810 3.93672
# Velocity P-wave (km/s) = 6.54424 6.77997 6.66315
#
# Compressibility (1/GPa) = 0.01790312
#
# Stress axis : x y z
#
# Youngs Moduli (GPa) = 124.77887 79.15211 121.10624
#
# Poissons Ratio (x) = 0.10933 0.19255
# Poissons Ratio (y) = 0.17236 0.30638
# Poissons Ratio (z) = 0.19839 0.20024
#
# Static dielectric constant tensor:
#      x y z
#    x 2.111400 0.000000 0.000000 
#    y 0.000000 2.025440 0.000000 
#    z 0.000000 0.000000 1.914380 
# 
# From -- ./inp_files/21923.got.cif
#   From: 2010.05.17/outbox.cif.g08.bks.cpg/sg24_11_cif.got.tgz:21923.got - 2010.06.04 00:33:39.
