data_PCOD9335797
_publ_section_title
;
Structure prediction by ZEFSAII (Michael W. Deem and Ramdas Pophale) SiO2 
 PCOD9335797
Probable space group: I 21 21 21
;
_chemical_formula_sum "Si O2"
_cell_formula_units_Z 60
_cell_length_a 9.929249
_cell_length_b 11.781959
_cell_length_c 25.723724
_cell_angle_alpha 90.000000
_cell_angle_beta 90.000000
_cell_angle_gamma 90.000000
_cell_volume 3009.315695
_symmetry_space_group_name_H-M "I 21 21 21"
_symmetry_group_IT_number 24
_symmetry_cell_setting 'orthorhombic'
loop_
_space_group_symop_operation_xyz
x,y,z
-x,1/2-y,z
x,-y,1/2-z
1/2-x,y,-z
1/2+x,1/2+y,1/2+z
1/2-x,-y,1/2+z
1/2+x,1/2-y,-z
-x,1/2+y,1/2-z
loop_
_atom_site_type_symbol
_atom_site_label
_atom_site_fract_x
_atom_site_fract_y
_atom_site_fract_z
Si Si1 0.850641 0.474595 0.548724
Si Si2 0.844668 0.014533 0.949675
Si Si3 0.981116 0.122141 0.778959
Si Si4 0.731460 0.233441 0.437697
Si Si5 0.270478 0.358769 0.853952
Si Si6 0.500000 0.750000 0.869774
Si Si7 0.256863 0.103081 0.149707
Si Si8 0.999758 0.985228 0.189497
O O1 0.750000 0.474940 0.500000
O O2 0.859804 0.344505 0.569189
O O3 0.787389 0.548892 0.594218
O O4 0.999021 0.518022 0.534966
O O5 0.803098 0.106365 0.907171
O O6 0.820803 0.890885 0.923152
O O7 0.750000 0.024653 0.000000
O O8 0.101970 0.116933 0.820631
O O9 0.000000 0.250000 0.753108
O O10 0.837796 0.123939 0.807913
O O11 0.989123 0.000000 0.750000
O O12 0.750000 0.225424 0.500000
O O13 0.870097 0.256703 0.407329
O O14 0.306839 0.227134 0.855359
O O15 0.399005 0.436567 0.843584
O O16 0.512371 0.859130 0.833020
O O17 0.152689 0.025322 0.180726
O O18 0.965479 0.000000 0.250000
#
# Coordination Sequence:
#
# PCOD9335797 Si02
#       8
#     8   8   8   8   8   4   8   8
#     4  11  24  41  67  99 136 175 222 272 340 411
#     4  11  24  41  67  99 136 175 222 272 340 411
#     4  10  22  46  68  96 132 173 222 280 341 400
#     4  10  23  38  66  96 140 174 218 280 354 402
#     4  11  24  44  67  93 136 175 220 278 338 400
#     4  12  24  44  70 106 136 184 228 294 330 430
#     4  11  24  44  67  93 136 175 220 278 338 400
#     4  12  27  46  68 100 136 175 235 281 346 395
#
# _framework density 19.938088
#
# number of rings (size 3 to 8) (size 9 to 14) (size 15 to 20)
#    0.000    1.067    4.000    1.600   11.200    0.533 
#    4.800    0.000    0.000    0.000    0.000    0.000 
#    0.000    0.000    0.000    0.000    0.000    0.000 
#
# Total GULP energy -167539.681710 kJ/mol
# GULP energy per Si atom -5584.656057 kJ/mol
# Density = 1.989271 g / cm^3
# Si number density = 19.938088 Si / 1000 Ang^3
#
#
#
# Elastic Constant Matrix: (Units=GPa)
#
#
# Indices 1 2 3 4 5 6 
#
# 1 59.0351 -15.6247 8.3636 0.0000 0.0000 0.0000
# 2 -15.6247 116.2607 37.3003 0.0000 0.0000 0.0000
# 3 8.3636 37.3003 69.5270 0.0000 0.0000 0.0000
# 4 0.0000 0.0000 0.0000 36.8220 0.0000 0.0000
# 5 0.0000 0.0000 0.0000 0.0000 25.6597 0.0000
# 6 0.0000 0.0000 0.0000 0.0000 0.0000 28.2860
#
#
#
# Elastic Compliance Matrix: (Units=1/GPa)
#
#
# Indices 1 2 3 4 5 6 
#
# 1 0.018578 0.003882 -0.004317 0.000000 0.000000 0.000000
# 2 0.003882 0.011201 -0.006476 0.000000 0.000000 0.000000
# 3 -0.004317 -0.006476 0.018377 0.000000 0.000000 0.000000
# 4 0.000000 0.000000 0.000000 0.027158 0.000000 0.000000
# 5 0.000000 0.000000 0.000000 0.000000 0.038972 0.000000
# 6 0.000000 0.000000 0.000000 0.000000 0.000000 0.035353
#
#
# Mechanical properties :
#
#
# Convention : Reuss Voigt Hill
#
# Bulk Modulus (GPa) = 29.12695 33.87792 31.50244
# Shear Modulus (GPa) = 28.58693 32.47245 30.52969
#
# Velocity S-wave (km/s) = 3.79064 4.04005 3.91733
# Velocity P-wave (km/s) = 5.81369 6.22825 6.02454
#
# Compressibility (1/GPa) = 0.03433246
#
# Stress axis : x y z
#
# Youngs Moduli (GPa) = 53.82666 89.27938 54.41715
#
# Poissons Ratio (x) = -0.34658 0.23494
# Poissons Ratio (y) = -0.20895 0.35241
# Poissons Ratio (z) = 0.23239 0.57818
#
# Static dielectric constant tensor:
#      x y z
#    x 1.678240 0.000000 0.000000 
#    y 0.000000 1.727790 0.000000 
#    z 0.000000 0.000000 1.669930 
# 
# From -- ./inp_files/36927.got.cif
#   From: 2010.05.17/outbox.cif.g08.bks.cpg/sg24_19_cif.got.tgz:36927.got - 2010.06.04 00:33:39.
