data_PCOD9335542
_publ_section_title
;
Structure prediction by ZEFSAII (Michael W. Deem and Ramdas Pophale) SiO2 
 PCOD9335542
Probable space group: I 21 21 21
;
_chemical_formula_sum "Si O2"
_cell_formula_units_Z 40
_cell_length_a 22.167853
_cell_length_b 9.418403
_cell_length_c 7.473507
_cell_angle_alpha 90.000000
_cell_angle_beta 90.000000
_cell_angle_gamma 90.000000
_cell_volume 1560.361938
_symmetry_space_group_name_H-M "I 21 21 21"
_symmetry_group_IT_number 24
_symmetry_cell_setting 'orthorhombic'
loop_
_space_group_symop_operation_xyz
x,y,z
-x,1/2-y,z
x,-y,1/2-z
1/2-x,y,-z
1/2+x,1/2+y,1/2+z
1/2-x,-y,1/2+z
1/2+x,1/2-y,-z
-x,1/2+y,1/2-z
loop_
_atom_site_type_symbol
_atom_site_label
_atom_site_fract_x
_atom_site_fract_y
_atom_site_fract_z
Si Si1 0.412176 0.000902 0.946774
Si Si2 0.000000 0.750000 0.530688
Si Si3 0.386868 0.613419 0.474745
Si Si4 0.195492 0.157712 0.865207
Si Si5 0.120103 0.305745 0.395432
Si Si6 0.250000 0.211703 0.500000
O O1 0.415683 0.831256 0.972644
O O2 0.382753 0.000000 0.750000
O O3 0.470308 0.105737 0.939855
O O4 0.364372 0.074021 0.076287
O O5 0.056533 0.681063 0.627140
O O6 0.326665 0.677808 0.389564
O O7 0.392770 0.446971 0.494213
O O8 0.392356 0.669504 0.683187
O O9 0.250000 0.135320 0.000000
O O10 0.219089 0.865932 0.833661
O O11 0.192442 0.288179 0.412812
#
# Coordination Sequence:
#
# PCOD9335542 Si02
#       6
#     8   4   8   8   8   4
#     4  11  22  42  69 110 154 204 264 329 404 477
#     4  10  22  40  74 110 152 204 266 328 398 472
#     4  10  23  42  71 109 155 199 263 329 387 486
#     4  11  23  46  72 105 155 197 260 323 394 482
#     4  11  24  39  68 113 147 205 262 315 406 470
#     4  12  26  44  76 110 156 210 252 336 402 484
#
# _framework density 25.635076000000002
#
# number of rings (size 3 to 8) (size 9 to 14) (size 15 to 20)
#    0.000    1.200    6.000    0.000    5.600    2.400 
#    0.000    0.000    0.000   24.000    0.000    0.000 
#    0.000    0.000    0.000    0.000    0.000    0.000 
#
# Total GULP energy -111727.273504 kJ/mol
# GULP energy per Si atom -5586.363675 kJ/mol
# Density = 2.557673 g / cm^3
# Si number density = 25.635076 Si / 1000 Ang^3
#
#
#
# Elastic Constant Matrix: (Units=GPa)
#
#
# Indices 1 2 3 4 5 6 
#
# 1 128.3921 60.4086 40.7129 0.0000 0.0000 0.0000
# 2 60.4086 216.6621 42.1283 0.0000 0.0000 0.0000
# 3 40.7129 42.1283 134.9496 0.0000 0.0000 0.0000
# 4 0.0000 0.0000 0.0000 26.2711 0.0000 0.0000
# 5 0.0000 0.0000 0.0000 0.0000 12.3051 0.0000
# 6 0.0000 0.0000 0.0000 0.0000 0.0000 36.0152
#
#
#
# Elastic Compliance Matrix: (Units=1/GPa)
#
#
# Indices 1 2 3 4 5 6 
#
# 1 0.009530 -0.002234 -0.002178 0.000000 0.000000 0.000000
# 2 -0.002234 0.005437 -0.001024 0.000000 0.000000 0.000000
# 3 -0.002178 -0.001024 0.008387 0.000000 0.000000 0.000000
# 4 0.000000 0.000000 0.000000 0.038065 0.000000 0.000000
# 5 0.000000 0.000000 0.000000 0.000000 0.081267 0.000000
# 6 0.000000 0.000000 0.000000 0.000000 0.000000 0.027766
#
#
# Mechanical properties :
#
#
# Convention : Reuss Voigt Hill
#
# Bulk Modulus (GPa) = 80.10205 85.16707 82.63456
# Shear Modulus (GPa) = 26.95657 37.36855 32.16256
#
# Velocity S-wave (km/s) = 3.24628 3.82214 3.54592
# Velocity P-wave (km/s) = 6.73543 7.26453 7.00497
#
# Compressibility (1/GPa) = 0.01248408
#
# Stress axis : x y z
#
# Youngs Moduli (GPa) = 104.92974 183.91541 119.23600
#
# Poissons Ratio (x) = 0.41081 0.25968
# Poissons Ratio (y) = 0.23438 0.12204
# Poissons Ratio (z) = 0.22852 0.18824
#
# Static dielectric constant tensor:
#      x y z
#    x 1.970710 0.000000 0.000000 
#    y 0.000000 2.219570 0.000000 
#    z 0.000000 0.000000 2.029950 
# 
# From -- ./inp_files/27388.got.cif
#   From: 2010.05.17/outbox.cif.g08.bks.cpg/sg24_14_cif.got.tgz:27388.got - 2010.06.04 00:33:39.
