data_PCOD9335557
_publ_section_title
;
Structure prediction by ZEFSAII (Michael W. Deem and Ramdas Pophale) SiO2 
 PCOD9335557
Probable space group: I 21 21 21
;
_chemical_formula_sum "Si O2"
_cell_formula_units_Z 48
_cell_length_a 9.075263
_cell_length_b 26.464557
_cell_length_c 8.944390
_cell_angle_alpha 90.000000
_cell_angle_beta 90.000000
_cell_angle_gamma 90.000000
_cell_volume 2148.199324
_symmetry_space_group_name_H-M "I 21 21 21"
_symmetry_group_IT_number 24
_symmetry_cell_setting 'orthorhombic'
loop_
_space_group_symop_operation_xyz
x,y,z
-x,1/2-y,z
x,-y,1/2-z
1/2-x,y,-z
1/2+x,1/2+y,1/2+z
1/2-x,-y,1/2+z
1/2+x,1/2-y,-z
-x,1/2+y,1/2-z
loop_
_atom_site_type_symbol
_atom_site_label
_atom_site_fract_x
_atom_site_fract_y
_atom_site_fract_z
Si Si1 0.368494 0.345920 0.895104
Si Si2 0.731627 0.922277 0.824769
Si Si3 0.474117 0.000000 0.750000
Si Si4 0.500239 0.405024 0.153148
Si Si5 0.919170 0.302760 0.326851
Si Si6 0.750000 0.465492 0.000000
Si Si7 0.570970 0.694071 0.158410
O O1 0.291212 0.366656 0.746057
O O2 0.516990 0.323314 0.828537
O O3 0.250000 0.316593 0.000000
O O4 0.415584 0.392267 0.999892
O O5 0.887025 0.938068 0.750481
O O6 0.588080 0.954130 0.778881
O O7 0.750000 0.922474 0.000000
O O8 0.367739 0.994265 0.605403
O O9 0.652251 0.431785 0.113017
O O10 0.526699 0.350644 0.230132
O O11 0.745014 0.297843 0.321999
O O12 0.954810 0.327294 0.489022
O O13 0.000000 0.250000 0.341947
O O14 0.500000 0.750000 0.178440
#
# Coordination Sequence:
#
# PCOD9335557 Si02
#       7
#     8   8   4   8   8   4   8
#     4  10  22  42  66 100 133 185 233 287 349 411
#     4  11  26  45  75 101 134 185 231 290 354 443
#     4  12  30  48  76 104 142 180 238 294 372 426
#     4  11  24  46  72 100 147 184 236 292 356 423
#     4  10  22  41  65  97 145 187 239 289 342 420
#     4  12  28  50  72 108 142 186 232 306 354 436
#     4  10  23  41  69 105 141 190 238 290 349 418
#
# _framework density 22.344296
#
# number of rings (size 3 to 8) (size 9 to 14) (size 15 to 20)
#    0.000    1.333    1.667    2.000    9.333    0.667 
#    0.000    0.000    0.000    0.000    0.000    0.000 
#    0.000    0.000    0.000    0.000    0.000    0.000 
#
# Total GULP energy -133893.239176 kJ/mol
# GULP energy per Si atom -5578.884966 kJ/mol
# Density = 2.229344 g / cm^3
# Si number density = 22.344296 Si / 1000 Ang^3
#
#
#
# Elastic Constant Matrix: (Units=GPa)
#
#
# Indices 1 2 3 4 5 6 
#
# 1 169.7513 46.4927 76.4292 -0.0002 0.0004 -0.0002
# 2 46.4927 54.1350 45.2017 0.0002 0.0001 0.0000
# 3 76.4292 45.2017 161.1627 -0.0027 0.0020 -0.0017
# 4 -0.0002 0.0002 -0.0027 21.9619 0.0005 -0.0002
# 5 0.0004 0.0001 0.0020 0.0005 77.9854 0.0000
# 6 -0.0002 0.0000 -0.0017 -0.0002 0.0000 38.0518
#
#
#
# Elastic Compliance Matrix: (Units=1/GPa)
#
#
# Indices 1 2 3 4 5 6 
#
# 1 0.008449 -0.005106 -0.002574 0.000000 0.000000 0.000000
# 2 -0.005106 0.027207 -0.005209 -0.000001 0.000000 0.000000
# 3 -0.002574 -0.005209 0.008887 0.000001 0.000000 0.000000
# 4 0.000000 -0.000001 0.000001 0.045533 0.000000 0.000000
# 5 0.000000 0.000000 0.000000 0.000000 0.012823 0.000000
# 6 0.000000 0.000000 0.000000 0.000000 0.000000 0.026280
#
#
# Mechanical properties :
#
#
# Convention : Reuss Voigt Hill
#
# Bulk Modulus (GPa) = 53.29709 80.14405 66.72057
# Shear Modulus (GPa) = 31.01469 42.06150 36.53809
#
# Velocity S-wave (km/s) = 3.72968 4.34340 4.04819
# Velocity P-wave (km/s) = 6.51550 7.81660 7.19552
#
# Compressibility (1/GPa) = 0.01876275
#
# Stress axis : x y z
#
# Youngs Moduli (GPa) = 118.36190 36.75462 112.52510
#
# Poissons Ratio (x) = 0.18768 0.28969
# Poissons Ratio (y) = 0.60439 0.58618
# Poissons Ratio (z) = 0.30472 0.19147
#
# Static dielectric constant tensor:
#      x y z
#    x 1.880460 0.000000 0.000000 
#    y 0.000000 1.720720 0.000000 
#    z 0.000000 0.000000 1.906390 
# 
# From -- ./inp_files/9799.got.cif
#   From: 2010.05.17/outbox.cif.g08.bks.cpg/sg24_5_cif.got.tgz:9799.got - 2010.06.04 00:33:39.
