data_PCOD9335104
_publ_section_title
;
Structure prediction by ZEFSAII (Michael W. Deem and Ramdas Pophale) SiO2 
 PCOD9335104
Probable space group: I 21 21 21
;
_chemical_formula_sum "Si O2"
_cell_formula_units_Z 48
_cell_length_a 8.103822
_cell_length_b 32.122897
_cell_length_c 8.010439
_cell_angle_alpha 90.000000
_cell_angle_beta 90.000000
_cell_angle_gamma 90.000000
_cell_volume 2085.263377
_symmetry_space_group_name_H-M "I 21 21 21"
_symmetry_group_IT_number 24
_symmetry_cell_setting 'orthorhombic'
loop_
_space_group_symop_operation_xyz
x,y,z
-x,1/2-y,z
x,-y,1/2-z
1/2-x,y,-z
1/2+x,1/2+y,1/2+z
1/2-x,-y,1/2+z
1/2+x,1/2-y,-z
-x,1/2+y,1/2-z
loop_
_atom_site_type_symbol
_atom_site_label
_atom_site_fract_x
_atom_site_fract_y
_atom_site_fract_z
Si Si1 0.048586 0.704612 0.310474
Si Si2 0.429253 0.676983 0.344733
Si Si3 0.049939 0.352295 0.490763
Si Si4 0.575402 0.557852 0.081954
Si Si5 0.422986 0.094816 0.052349
Si Si6 0.583698 0.979564 0.572204
O O1 0.246333 0.695933 0.321709
O O2 0.986146 0.700954 0.501648
O O3 0.000000 0.750000 0.246866
O O4 0.990233 0.670258 0.176998
O O5 0.506047 0.671943 0.160000
O O6 0.438839 0.629733 0.416689
O O7 0.250000 0.351849 0.500000
O O8 0.994063 0.399958 0.498736
O O9 0.590555 0.569535 0.275106
O O10 0.750000 0.548110 0.000000
O O11 0.466558 0.517380 0.048526
O O12 0.250000 0.115132 0.000000
O O13 0.460644 0.059094 0.918788
O O14 0.750000 0.960600 0.500000
O O15 0.605630 0.000000 0.750000
#
# Coordination Sequence:
#
# PCOD9335104 Si02
#       6
#     8   8   8   8   8   8
#     4  10  21  40  68  96 128 172 219 282 345 412
#     4   9  22  42  65  96 132 173 220 281 338 418
#     4   9  20  40  67  93 130 177 221 275 339 410
#     4  11  23  41  62  96 137 175 227 281 333 400
#     4  11  24  43  67  96 134 182 226 280 344 407
#     4  12  26  41  66  98 134 183 230 285 333 405
#
# _framework density 23.018675000000002
#
# number of rings (size 3 to 8) (size 9 to 14) (size 15 to 20)
#    0.000    1.667    0.000    3.500    7.000    2.000 
#    3.000    2.500    0.000    0.000    0.000    0.000 
#    0.000    0.000    0.000    0.000    0.000    0.000 
#
# Total GULP energy -134071.846515 kJ/mol
# GULP energy per Si atom -5586.326938 kJ/mol
# Density = 2.296628 g / cm^3
# Si number density = 23.018675 Si / 1000 Ang^3
#
#
#
# Elastic Constant Matrix: (Units=GPa)
#
#
# Indices 1 2 3 4 5 6 
#
# 1 58.0518 30.5053 9.4509 -0.0002 -0.0001 0.0001
# 2 30.5053 97.4540 18.9878 -0.0006 0.0000 0.0008
# 3 9.4509 18.9878 88.7195 -0.0012 -0.0002 0.0010
# 4 -0.0002 -0.0006 -0.0012 20.7472 -0.0001 0.0004
# 5 -0.0001 0.0000 -0.0002 -0.0001 15.6201 0.0001
# 6 0.0001 0.0008 0.0010 0.0004 0.0001 29.4709
#
#
#
# Elastic Compliance Matrix: (Units=1/GPa)
#
#
# Indices 1 2 3 4 5 6 
#
# 1 0.020679 -0.006307 -0.000853 0.000000 0.000000 0.000000
# 2 -0.006307 0.012631 -0.002032 0.000000 0.000000 0.000000
# 3 -0.000853 -0.002032 0.011797 0.000001 0.000000 0.000000
# 4 0.000000 0.000000 0.000001 0.048199 0.000000 -0.000001
# 5 0.000000 0.000000 0.000000 0.000000 0.064020 0.000000
# 6 0.000000 0.000000 0.000000 -0.000001 0.000000 0.033932
#
#
# Mechanical properties :
#
#
# Convention : Reuss Voigt Hill
#
# Bulk Modulus (GPa) = 37.41864 40.23482 38.82673
# Shear Modulus (GPa) = 22.87815 25.51975 24.19895
#
# Velocity S-wave (km/s) = 3.15603 3.33326 3.24585
# Velocity P-wave (km/s) = 5.43799 5.68606 5.56341
#
# Compressibility (1/GPa) = 0.02672465
#
# Stress axis : x y z
#
# Youngs Moduli (GPa) = 48.35826 79.16887 84.76632
#
# Poissons Ratio (x) = 0.49930 0.07231
# Poissons Ratio (y) = 0.30498 0.17220
# Poissons Ratio (z) = 0.04125 0.16083
#
# Static dielectric constant tensor:
#      x y z
#    x 2.034010 0.000000 0.000000 
#    y 0.000000 1.810700 0.000000 
#    z 0.000000 0.000000 1.901790 
# 
# From -- ./inp_files/9714.got.cif
#   From: 2010.05.17/outbox.cif.g08.bks.cpg/sg24_5_cif.got.tgz:9714.got - 2010.06.04 00:33:39.
