data_PCOD9335409
_publ_section_title
;
Structure prediction by ZEFSAII (Michael W. Deem and Ramdas Pophale) SiO2 
 PCOD9335409
Probable space group: I 21 21 21
;
_chemical_formula_sum "Si O2"
_cell_formula_units_Z 32
_cell_length_a 7.557615
_cell_length_b 18.892148
_cell_length_c 10.486572
_cell_angle_alpha 90.000000
_cell_angle_beta 90.000000
_cell_angle_gamma 90.000000
_cell_volume 1497.268357
_symmetry_space_group_name_H-M "I 21 21 21"
_symmetry_group_IT_number 24
_symmetry_cell_setting 'orthorhombic'
loop_
_space_group_symop_operation_xyz
x,y,z
-x,1/2-y,z
x,-y,1/2-z
1/2-x,y,-z
1/2+x,1/2+y,1/2+z
1/2-x,-y,1/2+z
1/2+x,1/2-y,-z
-x,1/2+y,1/2-z
loop_
_atom_site_type_symbol
_atom_site_label
_atom_site_fract_x
_atom_site_fract_y
_atom_site_fract_z
Si Si1 0.604050 0.103254 0.356771
Si Si2 0.005298 0.666146 0.102449
Si Si3 0.904319 0.568280 0.320272
Si Si4 0.502431 0.443562 0.095024
O O1 0.471829 0.141539 0.456585
O O2 0.797105 0.136213 0.373647
O O3 0.564408 0.106894 0.206993
O O4 0.589174 0.020203 0.393390
O O5 0.000000 0.750000 0.110159
O O6 0.895163 0.629231 0.214921
O O7 0.985412 0.500000 0.250000
O O8 0.708901 0.546522 0.367275
O O9 0.008357 0.584195 0.450712
#
# Coordination Sequence:
#
# PCOD9335409 Si02
#       4
#     8   8   8   8
#     4  10  22  41  62  95 130 159 218 271 315 383
#     4  11  26  42  62  93 133 181 212 258 333 391
#     4  11  21  40  67  95 132 166 217 269 317 386
#     4  10  22  38  67 103 121 164 217 276 323 356
#
# _framework density 21.372254000000002
#
# number of rings (size 3 to 8) (size 9 to 14) (size 15 to 20)
#    0.000    1.500    5.000    0.000    3.500    6.000 
#    0.000    6.250    0.000    0.000    0.000    0.000 
#    0.000    0.000    0.000    0.000    0.000    0.000 
#
# Total GULP energy -89353.811007 kJ/mol
# GULP energy per Si atom -5584.613188 kJ/mol
# Density = 2.132361 g / cm^3
# Si number density = 21.372254 Si / 1000 Ang^3
#
#
#
# Elastic Constant Matrix: (Units=GPa)
#
#
# Indices 1 2 3 4 5 6 
#
# 1 63.2669 23.7306 35.6144 0.0000 0.0000 0.0000
# 2 23.7306 128.8007 69.5068 -0.0003 0.0000 -0.0001
# 3 35.6144 69.5068 214.4396 -0.0002 0.0000 0.0000
# 4 0.0000 -0.0003 -0.0002 25.8894 0.0000 -0.0001
# 5 0.0000 0.0000 0.0000 0.0000 33.1961 0.0000
# 6 0.0000 -0.0001 0.0000 -0.0001 0.0000 -41.5674
#
#
#
# Elastic Compliance Matrix: (Units=1/GPa)
#
#
# Indices 1 2 3 4 5 6 
#
# 1 0.017872 -0.002049 -0.002304 0.000000 0.000000 0.000000
# 2 -0.002049 0.009645 -0.002786 0.000000 0.000000 0.000000
# 3 -0.002304 -0.002786 0.005949 0.000000 0.000000 0.000000
# 4 0.000000 0.000000 0.000000 0.038626 0.000000 0.000000
# 5 0.000000 0.000000 0.000000 0.000000 0.030124 0.000000
# 6 0.000000 0.000000 0.000000 0.000000 0.000000 -0.024057
#
#
# Mechanical properties :
#
#
# Convention : Reuss Voigt Hill
#
# Bulk Modulus (GPa) = 52.11813 73.80119 62.95966
# Shear Modulus (GPa) = 50.59086 22.01399 36.30242
#
# Velocity S-wave (km/s) = 4.87059 3.21288 4.12585
# Velocity P-wave (km/s) = 7.48793 6.95484 7.22630
#
# Compressibility (1/GPa) = 0.01918718
#
# Stress axis : x y z
#
# Youngs Moduli (GPa) = 55.95450 103.68175 168.09756
#
# Poissons Ratio (x) = 0.21249 0.38727
# Poissons Ratio (y) = 0.11468 0.46829
# Poissons Ratio (z) = 0.12891 0.28884
#
# Static dielectric constant tensor:
#      x y z
#    x 1.881360 0.000000 0.000000 
#    y 0.000000 1.693940 0.000000 
#    z 0.000000 0.000000 1.866770 
# 
# From -- ./inp_files/13769.got.cif
#   From: 2010.05.17/outbox.cif.g08.bks.cpg/sg24_7_cif.got.tgz:13769.got - 2010.06.04 00:33:39.
