data_PCOD9335333
_publ_section_title
;
Structure prediction by ZEFSAII (Michael W. Deem and Ramdas Pophale) SiO2 
 PCOD9335333
Probable space group: I 21 21 21
;
_chemical_formula_sum "Si O2"
_cell_formula_units_Z 32
_cell_length_a 7.075046
_cell_length_b 7.073557
_cell_length_c 23.207498
_cell_angle_alpha 90.000000
_cell_angle_beta 90.000000
_cell_angle_gamma 90.000000
_cell_volume 1161.436438
_symmetry_space_group_name_H-M "I 21 21 21"
_symmetry_group_IT_number 24
_symmetry_cell_setting 'orthorhombic'
loop_
_space_group_symop_operation_xyz
x,y,z
-x,1/2-y,z
x,-y,1/2-z
1/2-x,y,-z
1/2+x,1/2+y,1/2+z
1/2-x,-y,1/2+z
1/2+x,1/2-y,-z
-x,1/2+y,1/2-z
loop_
_atom_site_type_symbol
_atom_site_label
_atom_site_fract_x
_atom_site_fract_y
_atom_site_fract_z
Si Si1 0.250000 0.587411 0.000000
Si Si2 0.222559 0.704015 0.879331
Si Si3 0.772432 0.223377 0.743505
Si Si4 0.000000 0.250000 0.032797
Si Si5 0.774063 0.759622 0.631848
O O1 0.219414 0.721931 0.054657
O O2 0.078685 0.431375 0.997949
O O3 0.295554 0.790511 0.819305
O O4 0.263341 0.482349 0.871503
O O5 0.000000 0.750000 0.879618
O O6 0.712265 0.309373 0.804671
O O7 0.000000 0.250000 0.742563
O O8 0.736624 0.000000 0.750000
O O9 0.836980 0.321759 0.077373
O O10 0.000000 0.750000 0.627959
#
# Coordination Sequence:
#
# PCOD9335333 Si02
#       5
#     4   8   8   4   8
#     4  10  22  38  56  88 122 160 208 242 300 352
#     4   9  18  34  55  81 115 155 192 237 302 363
#     4   8  14  28  55  80 107 141 187 238 294 353
#     4  10  22  36  58  88 112 152 204 252 282 344
#     4   9  18  35  61  88 109 148 196 248 298 344
#
# _framework density 27.552087
#
# number of rings (size 3 to 8) (size 9 to 14) (size 15 to 20)
#    0.000    3.000    0.000    0.000    7.000    0.000 
#    4.500    0.000    2.750   60.000    0.000    0.000 
#    0.000    0.000    0.000    0.000    0.000    0.000 
#
# Total GULP energy -89300.391581 kJ/mol
# GULP energy per Si atom -5581.274474 kJ/mol
# Density = 2.748938 g / cm^3
# Si number density = 27.552087 Si / 1000 Ang^3
#
#
#
# Elastic Constant Matrix: (Units=GPa)
#
#
# Indices 1 2 3 4 5 6 
#
# 1 134.9273 2.0235 23.8122 0.0000 0.0000 0.0000
# 2 2.0235 137.1470 37.1767 0.0000 0.0000 0.0000
# 3 23.8122 37.1767 227.7398 0.0000 0.0000 0.0000
# 4 0.0000 0.0000 0.0000 -125.7841 0.0000 0.0000
# 5 0.0000 0.0000 0.0000 0.0000 -385.6275 0.0000
# 6 0.0000 0.0000 0.0000 0.0000 0.0000 26.7317
#
#
#
# Elastic Compliance Matrix: (Units=1/GPa)
#
#
# Indices 1 2 3 4 5 6 
#
# 1 0.007552 0.000107 -0.000807 0.000000 0.000000 0.000000
# 2 0.000107 0.007631 -0.001257 0.000000 0.000000 0.000000
# 3 -0.000807 -0.001257 0.004681 0.000000 0.000000 0.000000
# 4 0.000000 0.000000 0.000000 -0.007950 0.000000 0.000000
# 5 0.000000 0.000000 0.000000 0.000000 -0.002593 0.000000
# 6 0.000000 0.000000 0.000000 0.000000 0.000000 0.037409
#
#
# Mechanical properties :
#
#
# Convention : Reuss Voigt Hill
#
# Bulk Modulus (GPa) = 62.69582 69.53766 66.11674
# Shear Modulus (GPa) = 89.35151 -67.81585 10.76783
#
# Velocity S-wave (km/s) = 5.70092 -4.96660 1.97905
# Velocity P-wave (km/s) = 8.13257 2.75610 5.41030
#
# Compressibility (1/GPa) = 0.01595003
#
# Stress axis : x y z
#
# Youngs Moduli (GPa) = 132.41102 131.05195 213.65031
#
# Poissons Ratio (x) = -0.01407 0.17245
# Poissons Ratio (y) = -0.01422 0.26853
# Poissons Ratio (z) = 0.10688 0.16471
#
# Static dielectric constant tensor:
#      x y z
#    x 2.176990 0.000000 0.000000 
#    y 0.000000 4.785410 0.000000 
#    z 0.000000 0.000000 2.286150 
# 
# From -- ./inp_files/9192.got.cif
#   From: 2010.05.17/outbox.cif.g08.bks.cpg/sg24_5_cif.got.tgz:9192.got - 2010.06.04 00:33:39.
