data_PCOD9335978
_publ_section_title
;
Structure prediction by ZEFSAII (Michael W. Deem and Ramdas Pophale) SiO2 
 PCOD9335978
Probable space group: I 21 21 21
;
_chemical_formula_sum "Si O2"
_cell_formula_units_Z 40
_cell_length_a 10.186043
_cell_length_b 10.148156
_cell_length_c 17.888426
_cell_angle_alpha 90.000000
_cell_angle_beta 90.000000
_cell_angle_gamma 90.000000
_cell_volume 1849.118606
_symmetry_space_group_name_H-M "I 21 21 21"
_symmetry_group_IT_number 24
_symmetry_cell_setting 'orthorhombic'
loop_
_space_group_symop_operation_xyz
x,y,z
-x,1/2-y,z
x,-y,1/2-z
1/2-x,y,-z
1/2+x,1/2+y,1/2+z
1/2-x,-y,1/2+z
1/2+x,1/2-y,-z
-x,1/2+y,1/2-z
loop_
_atom_site_type_symbol
_atom_site_label
_atom_site_fract_x
_atom_site_fract_y
_atom_site_fract_z
Si Si1 0.202218 0.624093 0.667784
Si Si2 0.396391 0.986396 0.531688
Si Si3 0.621472 0.164624 0.322875
Si Si4 0.500000 0.750000 0.034017
Si Si5 0.500000 0.250000 0.065065
Si Si6 0.490248 0.595242 0.679319
O O1 0.221822 0.673008 0.753719
O O2 0.110202 0.493212 0.668314
O O3 0.345593 0.580033 0.641921
O O4 0.127673 0.726641 0.616373
O O5 0.250000 0.990366 0.500000
O O6 0.474978 0.874959 0.486666
O O7 0.403348 0.947480 0.618276
O O8 0.465057 0.125087 0.514924
O O9 0.500000 0.250000 0.291187
O O10 0.621059 0.220662 0.407378
O O11 0.500000 0.750000 0.697023
O O12 0.498221 0.500000 0.750000
#
# Coordination Sequence:
#
# PCOD9335978 Si02
#       6
#     8   8   8   4   4   8
#     4  11  21  40  73  99 145 190 233 295 353 428
#     4  12  28  47  67 103 144 183 246 295 359 435
#     4   9  18  38  63 107 132 174 241 275 342 425
#     4  10  23  44  69 102 138 186 242 292 359 412
#     4  12  21  44  71 100 140 192 230 304 347 420
#     4  12  28  49  69 104 141 191 239 291 369 435
#
# _framework density 21.631927000000001
#
# number of rings (size 3 to 8) (size 9 to 14) (size 15 to 20)
#    0.600    0.400    6.000    1.200    1.400    3.200 
#    0.000    0.000    0.000    0.000    0.000    0.000 
#    0.000    0.000    0.000    0.000    0.000    0.000 
#
# Total GULP energy -111501.343373 kJ/mol
# GULP energy per Si atom -5575.067169 kJ/mol
# Density = 2.158269 g / cm^3
# Si number density = 21.631927 Si / 1000 Ang^3
#
#
#
# Elastic Constant Matrix: (Units=GPa)
#
#
# Indices 1 2 3 4 5 6 
#
# 1 74.7073 31.4848 27.8424 0.0000 0.0000 0.0000
# 2 31.4848 165.0478 62.4106 0.0000 0.0000 0.0000
# 3 27.8424 62.4106 108.6134 0.0000 0.0000 0.0000
# 4 0.0000 0.0000 0.0000 8.8931 0.0000 0.0000
# 5 0.0000 0.0000 0.0000 0.0000 8.7363 0.0000
# 6 0.0000 0.0000 0.0000 0.0000 0.0000 14.9705
#
#
#
# Elastic Compliance Matrix: (Units=1/GPa)
#
#
# Indices 1 2 3 4 5 6 
#
# 1 0.015218 -0.001824 -0.002853 0.000000 0.000000 0.000000
# 2 -0.001824 0.007959 -0.004106 0.000000 0.000000 0.000000
# 3 -0.002853 -0.004106 0.012298 0.000000 0.000000 0.000000
# 4 0.000000 0.000000 0.000000 0.112447 0.000000 0.000000
# 5 0.000000 0.000000 0.000000 0.000000 0.114465 0.000000
# 6 0.000000 0.000000 0.000000 0.000000 0.000000 0.066798
#
#
# Mechanical properties :
#
#
# Convention : Reuss Voigt Hill
#
# Bulk Modulus (GPa) = 55.83849 65.76044 60.79947
# Shear Modulus (GPa) = 14.17556 21.62869 17.90213
#
# Velocity S-wave (km/s) = 2.56267 3.16547 2.87989
# Velocity P-wave (km/s) = 5.88434 6.62012 6.26304
#
# Compressibility (1/GPa) = 0.01790879
#
# Stress axis : x y z
#
# Youngs Moduli (GPa) = 65.71362 125.63663 81.31672
#
# Poissons Ratio (x) = 0.22919 0.23197
# Poissons Ratio (y) = 0.11988 0.33389
# Poissons Ratio (z) = 0.18746 0.51586
#
# Static dielectric constant tensor:
#      x y z
#    x 1.823790 0.000000 0.000000 
#    y 0.000000 1.764610 0.000000 
#    z 0.000000 0.000000 1.809690 
# 
# From -- ./inp_files/30069.got.cif
#   From: 2010.05.17/outbox.cif.g08.bks.cpg/sg24_16_cif.got.tgz:30069.got - 2010.06.04 00:33:39.
