data_PCOD9335606
_publ_section_title
;
Structure prediction by ZEFSAII (Michael W. Deem and Ramdas Pophale) SiO2 
 PCOD9335606
Probable space group: I 21 21 21
;
_chemical_formula_sum "Si O2"
_cell_formula_units_Z 40
_cell_length_a 6.910175
_cell_length_b 25.416015
_cell_length_c 10.671815
_cell_angle_alpha 90.000000
_cell_angle_beta 90.000000
_cell_angle_gamma 90.000000
_cell_volume 1874.281386
_symmetry_space_group_name_H-M "I 21 21 21"
_symmetry_group_IT_number 24
_symmetry_cell_setting 'orthorhombic'
loop_
_space_group_symop_operation_xyz
x,y,z
-x,1/2-y,z
x,-y,1/2-z
1/2-x,y,-z
1/2+x,1/2+y,1/2+z
1/2-x,-y,1/2+z
1/2+x,1/2-y,-z
-x,1/2+y,1/2-z
loop_
_atom_site_type_symbol
_atom_site_label
_atom_site_fract_x
_atom_site_fract_y
_atom_site_fract_z
Si Si1 0.114132 0.605798 0.110413
Si Si2 0.595223 0.902966 0.607984
Si Si3 0.368611 0.992769 0.881094
Si Si4 0.181004 0.721917 0.130347
Si Si5 0.250000 0.830044 0.500000
Si Si6 0.000000 0.750000 0.674388
O O1 0.182764 0.607460 0.254504
O O2 0.090882 0.666899 0.083263
O O3 0.932826 0.567384 0.110859
O O4 0.250000 0.584498 0.000000
O O5 0.750000 0.893133 0.500000
O O6 0.403260 0.867558 0.576780
O O7 0.541127 0.964878 0.617952
O O8 0.260222 0.000000 0.750000
O O9 0.250000 0.007692 0.000000
O O10 0.351663 0.720686 0.231101
O O11 0.000000 0.750000 0.193523
O O12 0.250000 0.748523 0.000000
O O13 0.121067 0.791673 0.589635
#
# Coordination Sequence:
#
# PCOD9335606 Si02
#       6
#     8   8   8   8   4   4
#     4  10  23  41  64 100 135 176 229 283 352 413
#     4  11  23  45  72  97 140 183 233 289 349 424
#     4  10  22  42  65 100 138 180 231 287 349 427
#     4  11  23  45  68  99 139 181 231 292 356 421
#     4  12  28  44  72 104 136 190 234 292 354 422
#     4  12  28  44  70 100 144 184 242 294 352 430
#
# _framework density 21.341512000000002
#
# number of rings (size 3 to 8) (size 9 to 14) (size 15 to 20)
#    0.000    1.200    2.000    3.000    5.600    2.400 
#   14.400    0.000    0.000    0.000    0.000    0.000 
#    0.000    0.000    0.000    0.000    0.000    0.000 
#
# Total GULP energy -111457.896202 kJ/mol
# GULP energy per Si atom -5572.894810 kJ/mol
# Density = 2.129294 g / cm^3
# Si number density = 21.341512 Si / 1000 Ang^3
#
#
#
# Elastic Constant Matrix: (Units=GPa)
#
#
# Indices 1 2 3 4 5 6 
#
# 1 66.6674 28.1782 53.2085 0.0000 0.0000 0.0000
# 2 28.1782 87.6795 5.8791 0.0000 0.0000 0.0000
# 3 53.2085 5.8791 159.4579 0.0002 -0.0001 -0.0002
# 4 0.0000 0.0000 0.0002 17.0849 0.0000 0.0000
# 5 0.0000 0.0000 -0.0001 0.0000 36.4729 0.0000
# 6 0.0000 0.0000 -0.0002 0.0000 0.0000 25.3382
#
#
#
# Elastic Compliance Matrix: (Units=1/GPa)
#
#
# Indices 1 2 3 4 5 6 
#
# 1 0.024358 -0.007301 -0.007859 0.000000 0.000000 0.000000
# 2 -0.007301 0.013622 0.001934 0.000000 0.000000 0.000000
# 3 -0.007859 0.001934 0.008822 0.000000 0.000000 0.000000
# 4 0.000000 0.000000 0.000000 0.058531 0.000000 0.000000
# 5 0.000000 0.000000 0.000000 0.000000 0.027418 0.000000
# 6 0.000000 0.000000 0.000000 0.000000 0.000000 0.039466
#
#
# Mechanical properties :
#
#
# Convention : Reuss Voigt Hill
#
# Bulk Modulus (GPa) = 49.13866 54.25961 51.69914
# Shear Modulus (GPa) = 24.33658 30.88181 27.60919
#
# Velocity S-wave (km/s) = 3.38056 3.80811 3.60069
# Velocity P-wave (km/s) = 6.18971 6.69442 6.44700
#
# Compressibility (1/GPa) = 0.02035057
#
# Stress axis : x y z
#
# Youngs Moduli (GPa) = 41.05440 73.41117 113.34981
#
# Poissons Ratio (x) = 0.53598 0.89078
# Poissons Ratio (y) = 0.29974 -0.21922
# Poissons Ratio (z) = 0.32263 -0.14198
#
# Static dielectric constant tensor:
#      x y z
#    x 2.107310 0.000000 0.000000 
#    y 0.000000 1.802940 0.000000 
#    z 0.000000 0.000000 1.883840 
# 
# From -- ./inp_files/17643.got.cif
#   From: 2010.05.17/outbox.cif.g08.bks.cpg/sg24_9_cif.got.tgz:17643.got - 2010.06.04 00:33:39.
