data_PCOD9335160
_publ_section_title
;
Structure prediction by ZEFSAII (Michael W. Deem and Ramdas Pophale) SiO2 
 PCOD9335160
Probable space group: I 21 21 21
;
_chemical_formula_sum "Si O2"
_cell_formula_units_Z 28
_cell_length_a 25.521334
_cell_length_b 7.227543
_cell_length_c 6.669490
_cell_angle_alpha 90.000000
_cell_angle_beta 90.000000
_cell_angle_gamma 90.000000
_cell_volume 1230.231042
_symmetry_space_group_name_H-M "I 21 21 21"
_symmetry_group_IT_number 24
_symmetry_cell_setting 'orthorhombic'
loop_
_space_group_symop_operation_xyz
x,y,z
-x,1/2-y,z
x,-y,1/2-z
1/2-x,y,-z
1/2+x,1/2+y,1/2+z
1/2-x,-y,1/2+z
1/2+x,1/2-y,-z
-x,1/2+y,1/2-z
loop_
_atom_site_type_symbol
_atom_site_label
_atom_site_fract_x
_atom_site_fract_y
_atom_site_fract_z
Si Si1 0.692467 0.370135 0.067558
Si Si2 0.014646 0.000000 0.750000
Si Si3 0.570544 0.198996 0.449642
Si Si4 0.336114 0.500000 0.250000
Si Si5 0.390918 0.000000 0.750000
O O1 0.675821 0.500000 0.250000
O O2 0.695864 0.160622 0.144138
O O3 0.750000 0.433014 0.000000
O O4 0.648341 0.394662 0.900632
O O5 0.053120 0.824542 0.756938
O O6 0.975668 0.954237 0.936661
O O7 0.624999 0.099277 0.407965
O O8 0.576559 0.343607 0.630089
#
# Coordination Sequence:
#
# PCOD9335160 Si02
#       5
#     8   4   8   4   4
#     4  12  26  47  73 110 158 196 251 320 374 444
#     4   9  20  44  69  96 154 186 233 320 366 423
#     4  10  21  41  71 106 142 195 245 304 375 440
#     4  11  24  44  74 106 146 198 248 310 374 447
#     4  12  24  44  79 108 146 204 259 302 380 456
#
# _framework density 22.759955000000001
#
# number of rings (size 3 to 8) (size 9 to 14) (size 15 to 20)
#    0.000    1.143    4.286    1.714    0.000    4.571 
#    0.000   22.857    0.000    0.000    0.000    0.000 
#    0.000    0.000    0.000    0.000    0.000    0.000 
#
# Total GULP energy -78134.595301 kJ/mol
# GULP energy per Si atom -5581.042521 kJ/mol
# Density = 2.270815 g / cm^3
# Si number density = 22.759955 Si / 1000 Ang^3
#
#
#
# Elastic Constant Matrix: (Units=GPa)
#
#
# Indices 1 2 3 4 5 6 
#
# 1 81.9986 7.3904 40.9152 0.0000 0.0000 0.0000
# 2 7.3904 115.2854 56.0725 0.0000 0.0000 0.0000
# 3 40.9152 56.0725 96.3337 0.0000 0.0000 0.0000
# 4 0.0000 0.0000 0.0000 51.2985 0.0000 0.0000
# 5 0.0000 0.0000 0.0000 0.0000 40.0677 0.0000
# 6 0.0000 0.0000 0.0000 0.0000 0.0000 30.5851
#
#
#
# Elastic Compliance Matrix: (Units=1/GPa)
#
#
# Indices 1 2 3 4 5 6 
#
# 1 0.016298 0.003239 -0.008808 0.000000 0.000000 0.000000
# 2 0.003239 0.012743 -0.008793 0.000000 0.000000 0.000000
# 3 -0.008808 -0.008793 0.019239 0.000000 0.000000 0.000000
# 4 0.000000 0.000000 0.000000 0.019494 0.000000 0.000000
# 5 0.000000 0.000000 0.000000 0.000000 0.024958 0.000000
# 6 0.000000 0.000000 0.000000 0.000000 0.000000 0.032696
#
#
# Mechanical properties :
#
#
# Convention : Reuss Voigt Hill
#
# Bulk Modulus (GPa) = 51.13082 55.81934 53.47508
# Shear Modulus (GPa) = 31.11960 37.00624 34.06292
#
# Velocity S-wave (km/s) = 3.70171 4.03666 3.87281
# Velocity P-wave (km/s) = 6.38625 6.80476 6.59882
#
# Compressibility (1/GPa) = 0.01955768
#
# Stress axis : x y z
#
# Youngs Moduli (GPa) = 61.35675 78.47283 51.97643
#
# Poissons Ratio (x) = -0.25417 0.45778
# Poissons Ratio (y) = -0.19873 0.45703
# Poissons Ratio (z) = 0.54040 0.69002
#
# Static dielectric constant tensor:
#      x y z
#    x 1.821540 0.000000 0.000000 
#    y 0.000000 1.906540 0.000000 
#    z 0.000000 0.000000 1.881210 
# 
# From -- ./inp_files/6801.got.cif
#   From: 2010.05.17/outbox.cif.g08.bks.cpg/sg24_4_cif.got.tgz:6801.got - 2010.06.04 00:33:39.
