data_PCOD9335007
_publ_section_title
;
Structure prediction by ZEFSAII (Michael W. Deem and Ramdas Pophale) SiO2 
 PCOD9335007
Probable space group: I 21 21 21
;
_chemical_formula_sum "Si O2"
_cell_formula_units_Z 60
_cell_length_a 6.444049
_cell_length_b 23.400339
_cell_length_c 20.289042
_cell_angle_alpha 90.000000
_cell_angle_beta 90.000000
_cell_angle_gamma 90.000000
_cell_volume 3059.444113
_symmetry_space_group_name_H-M "I 21 21 21"
_symmetry_group_IT_number 24
_symmetry_cell_setting 'orthorhombic'
loop_
_space_group_symop_operation_xyz
x,y,z
-x,1/2-y,z
x,-y,1/2-z
1/2-x,y,-z
1/2+x,1/2+y,1/2+z
1/2-x,-y,1/2+z
1/2+x,1/2-y,-z
-x,1/2+y,1/2-z
loop_
_atom_site_type_symbol
_atom_site_label
_atom_site_fract_x
_atom_site_fract_y
_atom_site_fract_z
Si Si1 0.422098 0.190395 0.953752
Si Si2 0.030878 0.817834 0.244275
Si Si3 0.636982 0.469840 0.436175
Si Si4 0.750000 0.902041 0.000000
Si Si5 0.619924 0.307224 0.164100
Si Si6 0.977771 0.899039 0.122164
Si Si7 0.775734 0.872494 0.363378
Si Si8 0.321447 0.498079 0.171027
O O1 0.500000 0.250000 0.985404
O O2 0.295643 0.208974 0.888667
O O3 0.601874 0.149520 0.927600
O O4 0.250000 0.162522 0.000000
O O5 0.259033 0.830386 0.273317
O O6 0.008071 0.852686 0.178002
O O7 0.000000 0.750000 0.237157
O O8 0.872126 0.841066 0.299498
O O9 0.750000 0.499209 0.500000
O O10 0.437371 0.439521 0.469677
O O11 0.809290 0.427026 0.405305
O O12 0.531499 0.500820 0.373423
O O13 0.855413 0.870894 0.060953
O O14 0.500000 0.250000 0.181310
O O15 0.461202 0.352088 0.133424
O O16 0.830007 0.949604 0.150901
O O17 0.790487 0.939393 0.349949
O O18 0.359697 0.500000 0.250000
#
# Coordination Sequence:
#
# PCOD9335007 Si02
#       8
#     8   8   8   4   8   8   8   8
#     4  11  23  39  64  86 118 173 223 264 312 372
#     4  11  22  37  62  94 123 158 209 258 318 381
#     4   9  20  40  65  91 122 170 209 249 320 383
#     4   8  18  40  64  86 120 166 196 246 314 380
#     4  11  20  38  60  84 119 161 201 264 320 364
#     4  10  21  39  65  92 124 164 206 256 317 385
#     4  11  23  41  57  94 131 160 212 267 325 370
#     4  11  23  39  64  96 132 167 211 272 316 383
#
# _framework density 19.611405999999999
#
# number of rings (size 3 to 8) (size 9 to 14) (size 15 to 20)
#    0.000    1.600    4.000    1.200    1.867    2.667 
#    0.000   12.000    4.400    0.000    0.000    0.000 
#    0.000    0.000    0.000    0.000    0.000    0.000 
#
# Total GULP energy -167320.571844 kJ/mol
# GULP energy per Si atom -5577.352395 kJ/mol
# Density = 1.956677 g / cm^3
# Si number density = 19.611406 Si / 1000 Ang^3
#
#
#
# Elastic Constant Matrix: (Units=GPa)
#
#
# Indices 1 2 3 4 5 6 
#
# 1 104.2885 25.4466 52.1219 0.0000 0.0000 0.0000
# 2 25.4466 78.1275 33.9265 0.0000 0.0000 0.0000
# 3 52.1219 33.9265 122.7442 0.0000 0.0000 0.0000
# 4 0.0000 0.0000 0.0000 22.6217 0.0000 0.0000
# 5 0.0000 0.0000 0.0000 0.0000 38.1608 0.0000
# 6 0.0000 0.0000 0.0000 0.0000 0.0000 16.1132
#
#
#
# Elastic Compliance Matrix: (Units=1/GPa)
#
#
# Indices 1 2 3 4 5 6 
#
# 1 0.012440 -0.001998 -0.004731 0.000000 0.000000 0.000000
# 2 -0.001998 0.014866 -0.003261 0.000000 0.000000 0.000000
# 3 -0.004731 -0.003261 0.011057 0.000000 0.000000 0.000000
# 4 0.000000 0.000000 0.000000 0.044205 0.000000 0.000000
# 5 0.000000 0.000000 0.000000 0.000000 0.026205 0.000000
# 6 0.000000 0.000000 0.000000 0.000000 0.000000 0.062061
#
#
# Mechanical properties :
#
#
# Convention : Reuss Voigt Hill
#
# Bulk Modulus (GPa) = 54.38979 58.68336 56.53658
# Shear Modulus (GPa) = 25.38823 28.29015 26.83919
#
# Velocity S-wave (km/s) = 3.60191 3.80219 3.70341
# Velocity P-wave (km/s) = 6.71508 7.01880 6.86862
#
# Compressibility (1/GPa) = 0.01838580
#
# Stress axis : x y z
#
# Youngs Moduli (GPa) = 80.38273 67.26662 90.43999
#
# Poissons Ratio (x) = 0.13438 0.42783
# Poissons Ratio (y) = 0.16058 0.29490
# Poissons Ratio (z) = 0.38025 0.21934
#
# Static dielectric constant tensor:
#      x y z
#    x 1.742680 0.000000 0.000000 
#    y 0.000000 1.665360 0.000000 
#    z 0.000000 0.000000 1.715360 
# 
# From -- ./inp_files/32302.got.cif
#   From: 2010.05.17/outbox.cif.g08.bks.cpg/sg24_17_cif.got.tgz:32302.got - 2010.06.04 00:33:39.
