data_PCOD9335828
_publ_section_title
;
Structure prediction by ZEFSAII (Michael W. Deem and Ramdas Pophale) SiO2 
 PCOD9335828
Probable space group: I 21 21 21
;
_chemical_formula_sum "Si O2"
_cell_formula_units_Z 56
_cell_length_a 8.035386
_cell_length_b 19.343789
_cell_length_c 14.319176
_cell_angle_alpha 90.000000
_cell_angle_beta 90.000000
_cell_angle_gamma 90.000000
_cell_volume 2225.698420
_symmetry_space_group_name_H-M "I 21 21 21"
_symmetry_group_IT_number 24
_symmetry_cell_setting 'orthorhombic'
loop_
_space_group_symop_operation_xyz
x,y,z
-x,1/2-y,z
x,-y,1/2-z
1/2-x,y,-z
1/2+x,1/2+y,1/2+z
1/2-x,-y,1/2+z
1/2+x,1/2-y,-z
-x,1/2+y,1/2-z
loop_
_atom_site_type_symbol
_atom_site_label
_atom_site_fract_x
_atom_site_fract_y
_atom_site_fract_z
Si Si1 0.277886 0.099801 0.647061
Si Si2 0.000000 0.750000 0.231236
Si Si3 0.370298 0.525389 0.856801
Si Si4 0.983965 0.006672 0.639071
Si Si5 0.750000 0.230471 0.000000
Si Si6 0.200157 0.747876 0.900762
Si Si7 0.521193 0.901326 0.517134
Si Si8 0.715063 0.655073 0.652559
O O1 0.464917 0.071700 0.636019
O O2 0.257702 0.172504 0.598012
O O3 0.217639 0.116072 0.755242
O O4 0.146592 0.046472 0.606476
O O5 0.835769 0.776624 0.175929
O O6 0.943938 0.688266 0.296267
O O7 0.370256 0.500000 0.750000
O O8 0.184114 0.551259 0.880109
O O9 0.382333 0.457993 0.922145
O O10 0.984063 0.933157 0.586066
O O11 0.988787 0.000000 0.750000
O O12 0.600927 0.175222 0.984783
O O13 0.715380 0.280458 0.090205
O O14 0.000000 0.750000 0.882411
O O15 0.250000 0.715669 0.000000
O O16 0.352541 0.896640 0.575862
#
# Coordination Sequence:
#
# PCOD9335828 Si02
#       8
#     8   4   8   8   4   8   8   8
#     4  11  27  48  75 112 154 206 273 322 415 479
#     4  10  22  48  78 106 160 208 264 330 418 478
#     4  11  23  47  77 104 153 210 253 335 388 474
#     4  11  27  47  73 115 150 204 263 335 388 484
#     4  12  24  46  78 122 158 212 274 320 428 500
#     4  11  25  49  75 113 154 208 269 341 405 496
#     4  12  24  48  76 112 167 209 277 328 416 499
#     4  11  25  46  79 114 160 220 259 345 417 498
#
# _framework density 25.160640999999998
#
# number of rings (size 3 to 8) (size 9 to 14) (size 15 to 20)
#    0.000    0.857    5.000    0.429    4.000    2.286 
#    5.143    0.000    0.000    0.000    0.000    0.000 
#    0.000    0.000    0.000    0.000    0.000    0.000 
#
# Total GULP energy -156311.338399 kJ/mol
# GULP energy per Si atom -5582.547800 kJ/mol
# Density = 2.510337 g / cm^3
# Si number density = 25.160641 Si / 1000 Ang^3
#
#
#
# Elastic Constant Matrix: (Units=GPa)
#
#
# Indices 1 2 3 4 5 6 
#
# 1 154.5472 42.1844 33.6486 0.0000 0.0000 0.0000
# 2 42.1844 92.1163 15.7466 0.0000 0.0000 0.0000
# 3 33.6486 15.7466 153.7485 0.0000 0.0000 0.0000
# 4 0.0000 0.0000 0.0000 36.0393 0.0000 0.0000
# 5 0.0000 0.0000 0.0000 0.0000 27.1829 0.0000
# 6 0.0000 0.0000 0.0000 0.0000 0.0000 26.8383
#
#
#
# Elastic Compliance Matrix: (Units=1/GPa)
#
#
# Indices 1 2 3 4 5 6 
#
# 1 0.007657 -0.003277 -0.001340 0.000000 0.000000 0.000000
# 2 -0.003277 0.012452 -0.000558 0.000000 0.000000 0.000000
# 3 -0.001340 -0.000558 0.006855 0.000000 0.000000 0.000000
# 4 0.000000 0.000000 0.000000 0.027747 0.000000 0.000000
# 5 0.000000 0.000000 0.000000 0.000000 0.036788 0.000000
# 6 0.000000 0.000000 0.000000 0.000000 0.000000 0.037260
#
#
# Mechanical properties :
#
#
# Convention : Reuss Voigt Hill
#
# Bulk Modulus (GPa) = 60.19548 64.84122 62.51835
# Shear Modulus (GPa) = 34.56681 38.60094 36.58388
#
# Velocity S-wave (km/s) = 3.71056 3.92111 3.81729
# Velocity P-wave (km/s) = 6.50647 6.80639 6.65812
#
# Compressibility (1/GPa) = 0.01661254
#
# Stress axis : x y z
#
# Youngs Moduli (GPa) = 130.60195 80.30777 145.88820
#
# Poissons Ratio (x) = 0.26320 0.19550
# Poissons Ratio (y) = 0.42803 0.08141
# Poissons Ratio (z) = 0.17502 0.04482
#
# Static dielectric constant tensor:
#      x y z
#    x 2.225930 0.000000 0.000000 
#    y 0.000000 2.127830 0.000000 
#    z 0.000000 0.000000 2.058790 
# 
# From -- ./inp_files/25107.got.cif
#   From: 2010.05.17/outbox.cif.g08.bks.cpg/sg24_13_cif.got.tgz:25107.got - 2010.06.04 00:33:39.
