data_PCOD9335651
_publ_section_title
;
Structure prediction by ZEFSAII (Michael W. Deem and Ramdas Pophale) SiO2 
 PCOD9335651
Probable space group: I 21 21 21
;
_chemical_formula_sum "Si O2"
_cell_formula_units_Z 48
_cell_length_a 13.795686
_cell_length_b 9.999861
_cell_length_c 16.560533
_cell_angle_alpha 90.000000
_cell_angle_beta 90.000000
_cell_angle_gamma 90.000000
_cell_volume 2284.607376
_symmetry_space_group_name_H-M "I 21 21 21"
_symmetry_group_IT_number 24
_symmetry_cell_setting 'orthorhombic'
loop_
_space_group_symop_operation_xyz
x,y,z
-x,1/2-y,z
x,-y,1/2-z
1/2-x,y,-z
1/2+x,1/2+y,1/2+z
1/2-x,-y,1/2+z
1/2+x,1/2-y,-z
-x,1/2+y,1/2-z
loop_
_atom_site_type_symbol
_atom_site_label
_atom_site_fract_x
_atom_site_fract_y
_atom_site_fract_z
Si Si1 0.971537 0.000000 0.750000
Si Si2 0.116392 0.950065 0.620439
Si Si3 0.804857 0.209513 0.780071
Si Si4 0.619159 0.906933 0.628157
Si Si5 0.750000 0.384550 0.500000
Si Si6 0.500000 0.250000 0.745845
Si Si7 0.163889 0.283742 0.366167
Si Si8 0.000000 0.750000 0.505040
O O1 0.901425 0.120531 0.776547
O O2 0.040696 0.965882 0.825721
O O3 0.171567 0.853651 0.683528
O O4 0.055651 0.855256 0.560636
O O5 0.191198 0.029874 0.565293
O O6 0.723143 0.143960 0.838494
O O7 0.758982 0.210984 0.690544
O O8 0.543217 0.864670 0.697546
O O9 0.578506 0.828524 0.550459
O O10 0.627135 0.065529 0.619365
O O11 0.820521 0.290372 0.449181
O O12 0.413498 0.205473 0.688342
#
# Coordination Sequence:
#
# PCOD9335651 Si02
#       8
#     4   8   8   8   4   4   8   4
#     4  12  22  44  74 100 128 178 244 282 338 422
#     4  12  26  46  66 101 140 183 236 281 356 420
#     4  11  21  46  72 101 134 182 235 288 343 420
#     4  10  22  42  72 103 137 181 235 284 352 415
#     4  12  30  46  62 102 146 186 222 290 356 418
#     4   9  20  42  68 101 130 178 238 283 332 416
#     4  11  24  45  69 101 140 181 230 287 350 408
#     4  11  24  42  72 103 140 188 226 291 350 424
#
# _framework density 21.010173999999999
#
# number of rings (size 3 to 8) (size 9 to 14) (size 15 to 20)
#    0.000    1.000    3.333    3.500    2.333    2.667 
#    6.000    0.000    0.000    0.000    0.000    0.000 
#    0.000    0.000    0.000    0.000    0.000    0.000 
#
# Total GULP energy -134226.179373 kJ/mol
# GULP energy per Si atom -5592.757474 kJ/mol
# Density = 2.096235 g / cm^3
# Si number density = 21.010174 Si / 1000 Ang^3
#
#
#
# Elastic Constant Matrix: (Units=GPa)
#
#
# Indices 1 2 3 4 5 6 
#
# 1 95.3604 56.0340 37.5658 0.0000 0.0000 0.0000
# 2 56.0340 116.8629 56.8759 0.0000 0.0000 0.0000
# 3 37.5658 56.8759 107.5179 0.0000 0.0000 0.0000
# 4 0.0000 0.0000 0.0000 36.1156 0.0000 0.0000
# 5 0.0000 0.0000 0.0000 0.0000 -22.2030 0.0000
# 6 0.0000 0.0000 0.0000 0.0000 0.0000 33.1450
#
#
#
# Elastic Compliance Matrix: (Units=1/GPa)
#
#
# Indices 1 2 3 4 5 6 
#
# 1 0.014889 -0.006204 -0.001920 0.000000 0.000000 0.000000
# 2 -0.006204 0.014110 -0.005296 0.000000 0.000000 0.000000
# 3 -0.001920 -0.005296 0.012773 0.000000 0.000000 0.000000
# 4 0.000000 0.000000 0.000000 0.027689 0.000000 0.000000
# 5 0.000000 0.000000 0.000000 0.000000 -0.045039 0.000000
# 6 0.000000 0.000000 0.000000 0.000000 0.000000 0.030170
#
#
# Mechanical properties :
#
#
# Convention : Reuss Voigt Hill
#
# Bulk Modulus (GPa) = 66.97679 68.96583 67.97131
# Shear Modulus (GPa) = 57.86436 20.69590 39.28013
#
# Velocity S-wave (km/s) = 5.25366 3.14194 4.32855
# Velocity P-wave (km/s) = 8.29148 6.78665 7.57652
#
# Compressibility (1/GPa) = 0.01493055
#
# Stress axis : x y z
#
# Youngs Moduli (GPa) = 67.16552 70.87422 78.28965
#
# Poissons Ratio (x) = 0.43974 0.15030
# Poissons Ratio (y) = 0.41673 0.41462
# Poissons Ratio (z) = 0.12895 0.37535
#
# Static dielectric constant tensor:
#      x y z
#    x 1.778080 0.000000 0.000000 
#    y 0.000000 1.750170 0.000000 
#    z 0.000000 0.000000 1.739470 
# 
# From -- ./inp_files/30771.got.cif
#   From: 2010.05.17/outbox.cif.g08.bks.cpg/sg24_16_cif.got.tgz:30771.got - 2010.06.04 00:33:39.
