data_PCOD9335012
_publ_section_title
;
Structure prediction by ZEFSAII (Michael W. Deem and Ramdas Pophale) SiO2 
 PCOD9335012
Probable space group: I 21 21 21
;
_chemical_formula_sum "Si O2"
_cell_formula_units_Z 60
_cell_length_a 19.287267
_cell_length_b 8.248035
_cell_length_c 18.234819
_cell_angle_alpha 90.000000
_cell_angle_beta 90.000000
_cell_angle_gamma 90.000000
_cell_volume 2900.832448
_symmetry_space_group_name_H-M "I 21 21 21"
_symmetry_group_IT_number 24
_symmetry_cell_setting 'orthorhombic'
loop_
_space_group_symop_operation_xyz
x,y,z
-x,1/2-y,z
x,-y,1/2-z
1/2-x,y,-z
1/2+x,1/2+y,1/2+z
1/2-x,-y,1/2+z
1/2+x,1/2-y,-z
-x,1/2+y,1/2-z
loop_
_atom_site_type_symbol
_atom_site_label
_atom_site_fract_x
_atom_site_fract_y
_atom_site_fract_z
Si Si1 0.795573 0.993482 0.931465
Si Si2 0.361883 0.927162 0.178967
Si Si3 0.419870 0.280180 0.442614
Si Si4 0.722962 0.747870 0.820087
Si Si5 0.880641 0.553429 0.073176
Si Si6 0.001537 0.444072 0.170926
Si Si7 0.366099 0.500000 0.750000
Si Si8 0.683878 0.364345 0.039963
O O1 0.876597 0.946172 0.940455
O O2 0.758213 0.896515 0.865901
O O3 0.793687 0.187220 0.933541
O O4 0.750000 0.936814 0.000000
O O5 0.406484 0.793449 0.137574
O O6 0.289531 0.850664 0.206152
O O7 0.397642 0.000000 0.250000
O O8 0.343603 0.048744 0.112547
O O9 0.500000 0.250000 0.458386
O O10 0.381859 0.178778 0.506158
O O11 0.674424 0.626848 0.868346
O O12 0.678168 0.837508 0.758137
O O13 0.955086 0.532685 0.111410
O O14 0.867315 0.382806 0.029886
O O15 0.971383 0.500000 0.250000
O O16 0.000000 0.250000 0.164354
O O17 0.081893 0.495993 0.180061
O O18 0.750000 0.447666 0.000000
#
# Coordination Sequence:
#
# PCOD9335012 Si02
#       8
#     8   8   8   8   8   8   4   8
#     4  10  21  39  66  94 127 158 218 279 313 379
#     4  10  23  42  66  92 127 165 216 261 333 383
#     4  10  23  41  66  94 126 169 217 259 337 384
#     4  11  22  39  66  91 128 167 218 262 327 378
#     4  11  22  38  66  89 128 176 210 265 322 385
#     4  10  24  42  57  85 137 173 221 254 307 385
#     4  10  26  38  60  94 130 170 220 250 312 394
#     4  10  21  40  62  98 126 160 218 277 321 373
#
# _framework density 20.683719
#
# number of rings (size 3 to 8) (size 9 to 14) (size 15 to 20)
#    0.400    1.333    2.667    0.800    3.733    4.800 
#    0.000    3.333    0.000    0.000    0.000    0.000 
#    0.000    0.000    0.000    0.000    0.000    0.000 
#
# Total GULP energy -167026.564590 kJ/mol
# GULP energy per Si atom -5567.552153 kJ/mol
# Density = 2.063664 g / cm^3
# Si number density = 20.683719 Si / 1000 Ang^3
#
#
#
# Elastic Constant Matrix: (Units=GPa)
#
#
# Indices 1 2 3 4 5 6 
#
# 1 60.7065 0.4005 -6.0000 0.0000 0.0000 0.0000
# 2 0.4005 57.0318 4.5475 0.0000 0.0000 0.0000
# 3 -6.0000 4.5475 60.7976 0.0000 0.0000 0.0000
# 4 0.0000 0.0000 0.0000 24.8563 0.0000 0.0000
# 5 0.0000 0.0000 0.0000 0.0000 14.9015 0.0000
# 6 0.0000 0.0000 0.0000 0.0000 0.0000 6.6699
#
#
#
# Elastic Compliance Matrix: (Units=1/GPa)
#
#
# Indices 1 2 3 4 5 6 
#
# 1 0.016638 -0.000249 0.001661 0.000000 0.000000 0.000000
# 2 -0.000249 0.017643 -0.001344 0.000000 0.000000 0.000000
# 3 0.001661 -0.001344 0.016712 0.000000 0.000000 0.000000
# 4 0.000000 0.000000 0.000000 0.040231 0.000000 0.000000
# 5 0.000000 0.000000 0.000000 0.000000 0.067107 0.000000
# 6 0.000000 0.000000 0.000000 0.000000 0.000000 0.149928
#
#
# Mechanical properties :
#
#
# Convention : Reuss Voigt Hill
#
# Bulk Modulus (GPa) = 19.55867 19.60355 19.58111
# Shear Modulus (GPa) = 15.37661 21.25805 18.31733
#
# Velocity S-wave (km/s) = 2.72952 3.20936 2.97912
# Velocity P-wave (km/s) = 4.40572 4.81992 4.61747
#
# Compressibility (1/GPa) = 0.05112823
#
# Stress axis : x y z
#
# Youngs Moduli (GPa) = 60.10170 56.67966 59.83561
#
# Poissons Ratio (x) = 0.01413 -0.09937
# Poissons Ratio (y) = 0.01498 0.08043
# Poissons Ratio (z) = -0.09981 0.07619
#
# Static dielectric constant tensor:
#      x y z
#    x 1.798650 0.000000 0.000000 
#    y 0.000000 1.770570 0.000000 
#    z 0.000000 0.000000 1.748020 
# 
# From -- ./inp_files/31210.got.cif
#   From: 2010.05.17/outbox.cif.g08.bks.cpg/sg24_16_cif.got.tgz:31210.got - 2010.06.04 00:33:39.
