data_PCOD9335808
_publ_section_title
;
Structure prediction by ZEFSAII (Michael W. Deem and Ramdas Pophale) SiO2 
 PCOD9335808
Probable space group: I 21 21 21
;
_chemical_formula_sum "Si O2"
_cell_formula_units_Z 32
_cell_length_a 12.782871
_cell_length_b 13.740044
_cell_length_c 7.197168
_cell_angle_alpha 90.000000
_cell_angle_beta 90.000000
_cell_angle_gamma 90.000000
_cell_volume 1264.090507
_symmetry_space_group_name_H-M "I 21 21 21"
_symmetry_group_IT_number 24
_symmetry_cell_setting 'orthorhombic'
loop_
_space_group_symop_operation_xyz
x,y,z
-x,1/2-y,z
x,-y,1/2-z
1/2-x,y,-z
1/2+x,1/2+y,1/2+z
1/2-x,-y,1/2+z
1/2+x,1/2-y,-z
-x,1/2+y,1/2-z
loop_
_atom_site_type_symbol
_atom_site_label
_atom_site_fract_x
_atom_site_fract_y
_atom_site_fract_z
Si Si1 0.369165 0.000000 0.250000
Si Si2 0.973161 0.967445 0.038211
Si Si3 0.708018 0.000000 0.250000
Si Si4 0.750000 0.349955 0.500000
Si Si5 0.500000 0.750000 0.110535
Si Si6 0.730575 0.781854 0.291099
O O1 0.444981 0.968021 0.417179
O O2 0.299582 0.079538 0.348551
O O3 0.976281 0.000000 0.250000
O O4 0.865281 0.986634 0.931670
O O5 0.002981 0.854000 0.998525
O O6 0.759337 0.895150 0.273223
O O7 0.802354 0.273698 0.357888
O O8 0.608370 0.763449 0.231117
O O9 0.750000 0.749357 0.500000
#
# Coordination Sequence:
#
# PCOD9335808 Si02
#       6
#     4   8   4   4   4   8
#     4  11  26  44  64 104 151 194 252 305 360 458
#     4  10  22  46  75 107 145 207 245 314 385 440
#     4   9  24  48  74 112 153 186 268 309 372 460
#     4  12  28  44  70 106 158 192 254 300 370 450
#     4  10  22  50  76 112 156 186 270 308 370 472
#     4  11  26  48  77 112 152 204 247 319 375 453
#
# _framework density 25.314640000000001
#
# number of rings (size 3 to 8) (size 9 to 14) (size 15 to 20)
#    0.000    1.500    2.500    0.000    5.250    4.000 
#    4.500    1.250    0.000    0.000    0.000    0.000 
#    0.000    0.000    0.000    0.000    0.000    0.000 
#
# Total GULP energy -89398.724697 kJ/mol
# GULP energy per Si atom -5587.420294 kJ/mol
# Density = 2.525702 g / cm^3
# Si number density = 25.314640 Si / 1000 Ang^3
#
#
#
# Elastic Constant Matrix: (Units=GPa)
#
#
# Indices 1 2 3 4 5 6 
#
# 1 83.4749 66.8646 55.4766 0.0000 0.0000 0.0000
# 2 66.8646 166.7631 90.8928 0.0000 0.0000 0.0000
# 3 55.4766 90.8928 277.0551 0.0000 0.0000 0.0000
# 4 0.0000 0.0000 0.0000 58.6811 0.0000 0.0000
# 5 0.0000 0.0000 0.0000 0.0000 32.2078 0.0000
# 6 0.0000 0.0000 0.0000 0.0000 0.0000 29.7018
#
#
#
# Elastic Compliance Matrix: (Units=1/GPa)
#
#
# Indices 1 2 3 4 5 6 
#
# 1 0.018158 -0.006453 -0.001519 0.000000 0.000000 0.000000
# 2 -0.006453 0.009595 -0.001856 0.000000 0.000000 0.000000
# 3 -0.001519 -0.001856 0.004522 0.000000 0.000000 0.000000
# 4 0.000000 0.000000 0.000000 0.017041 0.000000 0.000000
# 5 0.000000 0.000000 0.000000 0.000000 0.031048 0.000000
# 6 0.000000 0.000000 0.000000 0.000000 0.000000 0.033668
#
#
# Mechanical properties :
#
#
# Convention : Reuss Voigt Hill
#
# Bulk Modulus (GPa) = 79.23544 105.97348 92.60446
# Shear Modulus (GPa) = 36.25960 45.05541 40.65750
#
# Velocity S-wave (km/s) = 3.78875 4.22336 4.01195
# Velocity P-wave (km/s) = 7.10688 8.10776 7.62376
#
# Compressibility (1/GPa) = 0.01262062
#
# Stress axis : x y z
#
# Youngs Moduli (GPa) = 55.07296 104.21847 221.12208
#
# Poissons Ratio (x) = 0.67247 0.33588
# Poissons Ratio (y) = 0.35536 0.41037
# Poissons Ratio (z) = 0.08365 0.19341
#
# Static dielectric constant tensor:
#      x y z
#    x 2.324110 0.000000 0.000000 
#    y 0.000000 2.000160 0.000000 
#    z 0.000000 0.000000 1.998920 
# 
# From -- ./inp_files/4394.got.cif
#   From: 2010.05.17/outbox.cif.g08.bks.cpg/sg24_3_cif.got.tgz:4394.got - 2010.06.04 00:33:39.
