data_PCOD9335720
_publ_section_title
;
Structure prediction by ZEFSAII (Michael W. Deem and Ramdas Pophale) SiO2 
 PCOD9335720
Probable space group: I 21 21 21
;
_chemical_formula_sum "Si O2"
_cell_formula_units_Z 48
_cell_length_a 14.126101
_cell_length_b 23.109999
_cell_length_c 6.803903
_cell_angle_alpha 90.000000
_cell_angle_beta 90.000000
_cell_angle_gamma 90.000000
_cell_volume 2221.162575
_symmetry_space_group_name_H-M "I 21 21 21"
_symmetry_group_IT_number 24
_symmetry_cell_setting 'orthorhombic'
loop_
_space_group_symop_operation_xyz
x,y,z
-x,1/2-y,z
x,-y,1/2-z
1/2-x,y,-z
1/2+x,1/2+y,1/2+z
1/2-x,-y,1/2+z
1/2+x,1/2-y,-z
-x,1/2+y,1/2-z
loop_
_atom_site_type_symbol
_atom_site_label
_atom_site_fract_x
_atom_site_fract_y
_atom_site_fract_z
Si Si1 0.428006 0.158879 0.095300
Si Si2 0.500000 0.250000 0.852542
Si Si3 0.053138 0.367445 0.555225
Si Si4 0.750000 0.741214 0.500000
Si Si5 0.333968 0.260797 0.617770
Si Si6 0.509796 0.439721 0.828099
Si Si7 0.662189 0.943529 0.373317
O O1 0.514624 0.196348 0.997820
O O2 0.424110 0.100872 0.965177
O O3 0.459484 0.147984 0.317890
O O4 0.335808 0.199430 0.072161
O O5 0.420631 0.225268 0.706531
O O6 0.115530 0.312153 0.495085
O O7 0.117531 0.402501 0.708683
O O8 0.026527 0.403230 0.360166
O O9 0.784143 0.779734 0.319874
O O10 0.250000 0.231401 0.500000
O O11 0.552228 0.500000 0.750000
O O12 0.421638 0.455846 0.970291
O O13 0.750000 0.921237 0.500000
O O14 0.692774 0.000000 0.250000
#
# Coordination Sequence:
#
# PCOD9335720 Si02
#       7
#     8   4   8   4   8   8   8
#     4  10  24  43  71  92 138 172 227 286 347 411
#     4  10  22  44  60  98 134 176 222 280 336 414
#     4  11  25  40  64  98 132 181 222 278 341 410
#     4  10  26  48  66 102 136 176 226 292 342 422
#     4  11  26  38  65  95 133 176 225 273 338 405
#     4  11  22  43  67  94 130 176 231 279 348 418
#     4  11  24  37  58  91 134 182 225 278 329 405
#
# _framework density 21.610306999999999
#
# number of rings (size 3 to 8) (size 9 to 14) (size 15 to 20)
#    0.000    1.333    3.333    0.500    9.333    0.000 
#    0.000    0.000    3.667    0.000    0.000    0.000 
#    0.000    0.000    0.000    0.000    0.000    0.000 
#
# Total GULP energy -133878.025623 kJ/mol
# GULP energy per Si atom -5578.251068 kJ/mol
# Density = 2.156112 g / cm^3
# Si number density = 21.610307 Si / 1000 Ang^3
#
#
#
# Elastic Constant Matrix: (Units=GPa)
#
#
# Indices 1 2 3 4 5 6 
#
# 1 61.0349 -3.0685 22.6662 -0.0001 -0.0001 0.0000
# 2 -3.0685 66.4558 22.7338 0.0000 -0.0002 0.0000
# 3 22.6662 22.7338 138.7441 0.0003 0.0004 -0.0005
# 4 -0.0001 0.0000 0.0003 35.3088 0.0001 -0.0001
# 5 -0.0001 -0.0002 0.0004 0.0001 25.7640 0.0000
# 6 0.0000 0.0000 -0.0005 -0.0001 0.0000 18.0638
#
#
#
# Elastic Compliance Matrix: (Units=1/GPa)
#
#
# Indices 1 2 3 4 5 6 
#
# 1 0.017668 0.001910 -0.003199 0.000000 0.000000 0.000000
# 2 0.001910 0.016148 -0.002958 0.000000 0.000000 0.000000
# 3 -0.003199 -0.002958 0.008215 0.000000 0.000000 0.000000
# 4 0.000000 0.000000 0.000000 0.028322 0.000000 0.000000
# 5 0.000000 0.000000 0.000000 0.000000 0.038814 0.000000
# 6 0.000000 0.000000 0.000000 0.000000 0.000000 0.055359
#
#
# Mechanical properties :
#
#
# Convention : Reuss Voigt Hill
#
# Bulk Modulus (GPa) = 29.81811 38.98865 34.40338
# Shear Modulus (GPa) = 27.14464 30.75422 28.94943
#
# Velocity S-wave (km/s) = 3.54799 3.77653 3.66404
# Velocity P-wave (km/s) = 5.53284 6.09074 5.81848
#
# Compressibility (1/GPa) = 0.03353666
#
# Stress axis : x y z
#
# Youngs Moduli (GPa) = 56.59871 61.92837 121.73052
#
# Poissons Ratio (x) = -0.11830 0.38947
# Poissons Ratio (y) = -0.10812 0.36007
# Poissons Ratio (z) = 0.18108 0.18318
#
# Static dielectric constant tensor:
#      x y z
#    x 1.895290 0.000000 0.000000 
#    y 0.000000 1.793920 0.000000 
#    z 0.000000 0.000000 1.831210 
# 
# From -- ./inp_files/3824.got.cif
#   From: 2010.05.17/outbox.cif.g08.bks.cpg/sg24_2_cif.got.tgz:3824.got - 2010.06.04 00:33:39.
