data_PCOD9335026
_publ_section_title
;
Structure prediction by ZEFSAII (Michael W. Deem and Ramdas Pophale) SiO2 
 PCOD9335026
Probable space group: I 21 21 21
;
_chemical_formula_sum "Si O2"
_cell_formula_units_Z 48
_cell_length_a 14.916463
_cell_length_b 9.547056
_cell_length_c 15.980646
_cell_angle_alpha 90.000000
_cell_angle_beta 90.000000
_cell_angle_gamma 90.000000
_cell_volume 2275.776751
_symmetry_space_group_name_H-M "I 21 21 21"
_symmetry_group_IT_number 24
_symmetry_cell_setting 'orthorhombic'
loop_
_space_group_symop_operation_xyz
x,y,z
-x,1/2-y,z
x,-y,1/2-z
1/2-x,y,-z
1/2+x,1/2+y,1/2+z
1/2-x,-y,1/2+z
1/2+x,1/2-y,-z
-x,1/2+y,1/2-z
loop_
_atom_site_type_symbol
_atom_site_label
_atom_site_fract_x
_atom_site_fract_y
_atom_site_fract_z
Si Si1 0.127793 0.139619 0.132404
Si Si2 0.351247 0.453669 0.488222
Si Si3 0.564646 0.039490 0.842825
Si Si4 0.394094 0.770179 0.461468
Si Si5 0.180283 0.856422 0.711584
Si Si6 0.918401 0.860721 0.808273
O O1 0.098156 0.301836 0.142689
O O2 0.217795 0.120941 0.183195
O O3 0.043404 0.044779 0.156022
O O4 0.142695 0.127969 0.032959
O O5 0.250000 0.399574 0.500000
O O6 0.400808 0.448509 0.578444
O O7 0.347263 0.619753 0.467660
O O8 0.401569 0.393525 0.406430
O O9 0.595706 0.000000 0.750000
O O10 0.500000 0.750000 0.476595
O O11 0.377709 0.826642 0.370216
O O12 0.166936 0.725149 0.772602
O O13 0.146887 0.000000 0.750000
O O14 0.000000 0.750000 0.799135
O O15 0.929076 0.000000 0.750000
#
# Coordination Sequence:
#
# PCOD9335026 Si02
#       6
#     8   8   8   8   8   8
#     4  10  21  41  64 100 128 181 236 286 335 403
#     4  11  24  43  69 103 133 179 232 284 344 407
#     4  10  21  39  69  94 135 178 235 284 344 403
#     4  11  20  41  68  97 131 182 240 282 330 412
#     4  12  26  40  69 101 141 180 234 281 347 412
#     4  12  28  47  71 102 143 186 227 283 351 417
#
# _framework density 21.091699999999999
#
# number of rings (size 3 to 8) (size 9 to 14) (size 15 to 20)
#    0.000    1.000    5.000    4.000    4.667    0.000 
#    3.000    3.333    0.000    0.000    0.000    0.000 
#    0.000    0.000    0.000    0.000    0.000    0.000 
#
# Total GULP energy -134074.345778 kJ/mol
# GULP energy per Si atom -5586.431074 kJ/mol
# Density = 2.104369 g / cm^3
# Si number density = 21.091700 Si / 1000 Ang^3
#
#
#
# Elastic Constant Matrix: (Units=GPa)
#
#
# Indices 1 2 3 4 5 6 
#
# 1 104.0981 22.0739 41.7414 0.0000 0.0000 0.0000
# 2 22.0739 58.8660 48.0412 0.0000 0.0000 0.0000
# 3 41.7414 48.0412 195.3422 0.0000 0.0000 0.0000
# 4 0.0000 0.0000 0.0000 31.4334 0.0000 0.0000
# 5 0.0000 0.0000 0.0000 0.0000 15.7227 0.0000
# 6 0.0000 0.0000 0.0000 0.0000 0.0000 3.0720
#
#
#
# Elastic Compliance Matrix: (Units=1/GPa)
#
#
# Indices 1 2 3 4 5 6 
#
# 1 0.010844 -0.002722 -0.001648 0.000000 0.000000 0.000000
# 2 -0.002722 0.021937 -0.004813 0.000000 0.000000 0.000000
# 3 -0.001648 -0.004813 0.006655 0.000000 0.000000 0.000000
# 4 0.000000 0.000000 0.000000 0.031813 0.000000 0.000000
# 5 0.000000 0.000000 0.000000 0.000000 0.063602 0.000000
# 6 0.000000 0.000000 0.000000 0.000000 0.000000 0.325517
#
#
# Mechanical properties :
#
#
# Convention : Reuss Voigt Hill
#
# Bulk Modulus (GPa) = 47.46044 64.66882 56.06463
# Shear Modulus (GPa) = 10.29321 26.47563 18.38442
#
# Velocity S-wave (km/s) = 2.21152 3.54681 2.95556
# Velocity P-wave (km/s) = 5.39184 6.89206 6.18758
#
# Compressibility (1/GPa) = 0.02107018
#
# Stress axis : x y z
#
# Youngs Moduli (GPa) = 92.21516 45.58609 150.26023
#
# Poissons Ratio (x) = 0.12406 0.24761
# Poissons Ratio (y) = 0.25097 0.72326
# Poissons Ratio (z) = 0.15196 0.21942
#
# Static dielectric constant tensor:
#      x y z
#    x 1.822930 0.000000 0.000000 
#    y 0.000000 1.775440 0.000000 
#    z 0.000000 0.000000 1.812250 
# 
# From -- ./inp_files/26442.got.cif
#   From: 2010.05.17/outbox.cif.g08.bks.cpg/sg24_14_cif.got.tgz:26442.got - 2010.06.04 00:33:39.
