data_PCOD9335207
_publ_section_title
;
Structure prediction by ZEFSAII (Michael W. Deem and Ramdas Pophale) SiO2 
 PCOD9335207
Probable space group: I 21 21 21
;
_chemical_formula_sum "Si O2"
_cell_formula_units_Z 56
_cell_length_a 20.123883
_cell_length_b 8.587398
_cell_length_c 15.671006
_cell_angle_alpha 90.000000
_cell_angle_beta 90.000000
_cell_angle_gamma 90.000000
_cell_volume 2708.134639
_symmetry_space_group_name_H-M "I 21 21 21"
_symmetry_group_IT_number 24
_symmetry_cell_setting 'orthorhombic'
loop_
_space_group_symop_operation_xyz
x,y,z
-x,1/2-y,z
x,-y,1/2-z
1/2-x,y,-z
1/2+x,1/2+y,1/2+z
1/2-x,-y,1/2+z
1/2+x,1/2-y,-z
-x,1/2+y,1/2-z
loop_
_atom_site_type_symbol
_atom_site_label
_atom_site_fract_x
_atom_site_fract_y
_atom_site_fract_z
Si Si1 0.207655 0.960571 0.153079
Si Si2 0.744809 0.881844 0.897791
Si Si3 0.878231 0.014307 0.846869
Si Si4 0.697012 0.289839 0.066143
Si Si5 0.909597 0.625824 0.426976
Si Si6 0.030787 0.421914 0.493953
Si Si7 0.883701 0.038845 0.152309
O O1 0.260533 0.067958 0.102945
O O2 0.132874 0.009028 0.130423
O O3 0.220056 0.000000 0.250000
O O4 0.216089 0.781988 0.131604
O O5 0.818765 0.892220 0.860642
O O6 0.695424 0.014639 0.860839
O O7 0.750000 0.883445 0.000000
O O8 0.933110 0.983436 0.920055
O O9 0.903292 0.000000 0.750000
O O10 0.837555 0.173598 0.867236
O O11 0.750000 0.212488 0.000000
O O12 0.635947 0.346333 0.009421
O O13 0.908640 0.789585 0.375767
O O14 0.976128 0.545529 0.460417
O O15 0.084255 0.422582 0.417190
O O16 0.000000 0.250000 0.506377
O O17 0.900725 0.000000 0.250000
#
# Coordination Sequence:
#
# PCOD9335207 Si02
#       7
#     8   8   8   8   8   8   8
#     4  11  23  38  66 109 140 174 226 289 349 419
#     4  12  21  40  71 104 143 178 220 293 359 409
#     4  12  25  45  70 100 135 184 237 290 345 414
#     4  10  21  42  69 100 133 179 227 278 355 421
#     4  11  23  45  68  92 142 188 228 274 347 420
#     4  12  28  47  67  96 142 187 237 288 345 413
#     4  12  25  44  74 107 135 180 232 287 350 422
#
# _framework density 20.678439000000001
#
# number of rings (size 3 to 8) (size 9 to 14) (size 15 to 20)
#    0.000    0.571    2.857    6.857    2.000    1.714 
#    2.571    0.000    0.000    0.000    0.000    0.000 
#    0.000    0.000    0.000    0.000    0.000    0.000 
#
# Total GULP energy -156455.410109 kJ/mol
# GULP energy per Si atom -5587.693218 kJ/mol
# Density = 2.063137 g / cm^3
# Si number density = 20.678439 Si / 1000 Ang^3
#
#
#
# Elastic Constant Matrix: (Units=GPa)
#
#
# Indices 1 2 3 4 5 6 
#
# 1 102.3347 45.9545 46.3575 0.0000 0.0000 0.0000
# 2 45.9545 109.7174 30.2023 0.0000 0.0000 0.0000
# 3 46.3575 30.2023 160.5931 0.0000 0.0000 0.0000
# 4 0.0000 0.0000 0.0000 -137.8063 0.0000 0.0000
# 5 0.0000 0.0000 0.0000 0.0000 12.5647 0.0000
# 6 0.0000 0.0000 0.0000 0.0000 0.0000 12.6675
#
#
#
# Elastic Compliance Matrix: (Units=1/GPa)
#
#
# Indices 1 2 3 4 5 6 
#
# 1 0.013223 -0.004733 -0.002927 0.000000 0.000000 0.000000
# 2 -0.004733 0.011306 -0.000760 0.000000 0.000000 0.000000
# 3 -0.002927 -0.000760 0.007215 0.000000 0.000000 0.000000
# 4 0.000000 0.000000 0.000000 -0.007257 0.000000 0.000000
# 5 0.000000 0.000000 0.000000 0.000000 0.079588 0.000000
# 6 0.000000 0.000000 0.000000 0.000000 0.000000 0.078942
#
#
# Mechanical properties :
#
#
# Convention : Reuss Voigt Hill
#
# Bulk Modulus (GPa) = 67.09540 68.63044 67.86292
# Shear Modulus (GPa) = 24.41110 -5.83944 9.28583
#
# Velocity S-wave (km/s) = 3.43958 -1.68228 2.12140
# Velocity P-wave (km/s) = 6.94923 5.43029 6.23618
#
# Compressibility (1/GPa) = 0.01490415
#
# Stress axis : x y z
#
# Youngs Moduli (GPa) = 75.62569 88.45009 138.60438
#
# Poissons Ratio (x) = 0.41861 0.40569
# Poissons Ratio (y) = 0.35791 0.10535
# Poissons Ratio (z) = 0.22135 0.06723
#
# Static dielectric constant tensor:
#      x y z
#    x 1.795630 0.000000 0.000000 
#    y 0.000000 1.856840 0.000000 
#    z 0.000000 0.000000 2.110420 
# 
# From -- ./inp_files/27564.got.cif
#   From: 2010.05.17/outbox.cif.g08.bks.cpg/sg24_14_cif.got.tgz:27564.got - 2010.06.04 00:33:39.
