data_PCOD9335744
_publ_section_title
;
Structure prediction by ZEFSAII (Michael W. Deem and Ramdas Pophale) SiO2 
 PCOD9335744
Probable space group: I 21 21 21
;
_chemical_formula_sum "Si O2"
_cell_formula_units_Z 56
_cell_length_a 15.714940
_cell_length_b 14.057584
_cell_length_c 11.170201
_cell_angle_alpha 90.000000
_cell_angle_beta 90.000000
_cell_angle_gamma 90.000000
_cell_volume 2467.654779
_symmetry_space_group_name_H-M "I 21 21 21"
_symmetry_group_IT_number 24
_symmetry_cell_setting 'orthorhombic'
loop_
_space_group_symop_operation_xyz
x,y,z
-x,1/2-y,z
x,-y,1/2-z
1/2-x,y,-z
1/2+x,1/2+y,1/2+z
1/2-x,-y,1/2+z
1/2+x,1/2-y,-z
-x,1/2+y,1/2-z
loop_
_atom_site_type_symbol
_atom_site_label
_atom_site_fract_x
_atom_site_fract_y
_atom_site_fract_z
Si Si1 0.783125 0.500000 0.250000
Si Si2 0.416741 0.029919 0.536263
Si Si3 0.927174 0.325054 0.029322
Si Si4 0.492399 0.353787 0.723728
Si Si5 0.797664 0.703392 0.655451
Si Si6 0.592270 0.705060 0.126635
Si Si7 0.250000 0.690688 0.000000
Si Si8 0.697840 0.111467 0.746757
O O1 0.836908 0.525845 0.128990
O O2 0.739424 0.600999 0.294646
O O3 0.488934 0.068271 0.625424
O O4 0.405345 0.100349 0.427520
O O5 0.441812 0.929927 0.480970
O O6 0.000000 0.250000 0.002519
O O7 0.936687 0.345005 0.172231
O O8 0.835046 0.298690 0.979598
O O9 0.500000 0.250000 0.664734
O O10 0.401197 0.374553 0.781025
O O11 0.883720 0.711815 0.734984
O O12 0.747145 0.801422 0.686997
O O13 0.500000 0.750000 0.106350
O O14 0.671642 0.752871 0.057736
O O15 0.207614 0.633668 0.106959
O O16 0.723544 0.000000 0.750000
#
# Coordination Sequence:
#
# PCOD9335744 Si02
#       8
#     4   8   8   8   8   8   4   8
#     4  12  24  44  72 106 142 178 236 306 374 432
#     4  12  22  42  69 107 133 181 237 299 369 427
#     4  11  25  44  63  97 145 180 229 288 363 441
#     4  11  22  44  70 104 136 182 246 301 356 431
#     4  11  26  46  67 101 144 190 237 294 368 444
#     4  11  23  43  75 100 139 187 246 306 351 435
#     4  10  22  44  70 110 138 190 256 302 368 434
#     4  11  24  46  70 101 148 192 246 300 366 448
#
# _framework density 22.693612999999999
#
# number of rings (size 3 to 8) (size 9 to 14) (size 15 to 20)
#    0.000    0.857    1.429    6.857    2.000    1.714 
#   12.857    0.000    1.571    0.000    0.000    0.000 
#    0.000    0.000    0.000    0.000    0.000    0.000 
#
# Total GULP energy -156280.432828 kJ/mol
# GULP energy per Si atom -5581.444030 kJ/mol
# Density = 2.264196 g / cm^3
# Si number density = 22.693613 Si / 1000 Ang^3
#
#
#
# Elastic Constant Matrix: (Units=GPa)
#
#
# Indices 1 2 3 4 5 6 
#
# 1 117.1707 52.3633 19.9560 0.0000 0.0000 0.0000
# 2 52.3633 172.1247 25.6298 0.0000 0.0000 0.0000
# 3 19.9560 25.6298 45.5484 0.0000 0.0000 0.0000
# 4 0.0000 0.0000 0.0000 33.5089 0.0000 0.0000
# 5 0.0000 0.0000 0.0000 0.0000 23.0199 0.0000
# 6 0.0000 0.0000 0.0000 0.0000 0.0000 22.6523
#
#
#
# Elastic Compliance Matrix: (Units=1/GPa)
#
#
# Indices 1 2 3 4 5 6 
#
# 1 0.010236 -0.002670 -0.002982 0.000000 0.000000 0.000000
# 2 -0.002670 0.007037 -0.002790 0.000000 0.000000 0.000000
# 3 -0.002982 -0.002790 0.024831 0.000000 0.000000 0.000000
# 4 0.000000 0.000000 0.000000 0.029843 0.000000 0.000000
# 5 0.000000 0.000000 0.000000 0.000000 0.043441 0.000000
# 6 0.000000 0.000000 0.000000 0.000000 0.000000 0.044146
#
#
# Mechanical properties :
#
#
# Convention : Reuss Voigt Hill
#
# Bulk Modulus (GPa) = 39.65123 58.97133 49.31128
# Shear Modulus (GPa) = 27.05269 31.62920 29.34095
#
# Velocity S-wave (km/s) = 3.45640 3.73734 3.59962
# Velocity P-wave (km/s) = 5.78267 6.68326 6.24921
#
# Compressibility (1/GPa) = 0.02521990
#
# Stress axis : x y z
#
# Youngs Moduli (GPa) = 97.69832 142.09787 40.27174
#
# Poissons Ratio (x) = 0.37937 0.12010
# Poissons Ratio (y) = 0.26083 0.11237
# Poissons Ratio (z) = 0.29136 0.39648
#
# Static dielectric constant tensor:
#      x y z
#    x 1.934230 0.000000 0.000000 
#    y 0.000000 1.956620 0.000000 
#    z 0.000000 0.000000 1.913130 
# 
# From -- ./inp_files/20886.got.cif
#   From: 2010.05.17/outbox.cif.g08.bks.cpg/sg24_11_cif.got.tgz:20886.got - 2010.06.04 00:33:39.
