data_PCOD9335848
_publ_section_title
;
Structure prediction by ZEFSAII (Michael W. Deem and Ramdas Pophale) SiO2 
 PCOD9335848
Probable space group: I 21 21 21
;
_chemical_formula_sum "Si O2"
_cell_formula_units_Z 64
_cell_length_a 19.044999
_cell_length_b 12.325082
_cell_length_c 14.118346
_cell_angle_alpha 90.000000
_cell_angle_beta 90.000000
_cell_angle_gamma 90.000000
_cell_volume 3314.015937
_symmetry_space_group_name_H-M "I 21 21 21"
_symmetry_group_IT_number 24
_symmetry_cell_setting 'orthorhombic'
loop_
_space_group_symop_operation_xyz
x,y,z
-x,1/2-y,z
x,-y,1/2-z
1/2-x,y,-z
1/2+x,1/2+y,1/2+z
1/2-x,-y,1/2+z
1/2+x,1/2-y,-z
-x,1/2+y,1/2-z
loop_
_atom_site_type_symbol
_atom_site_label
_atom_site_fract_x
_atom_site_fract_y
_atom_site_fract_z
Si Si1 0.057492 0.820842 0.003584
Si Si2 0.174469 0.509602 0.638373
Si Si3 0.492952 0.510054 0.136320
Si Si4 0.770433 0.608081 0.775108
Si Si5 0.435692 0.831468 0.498186
Si Si6 0.308039 0.276834 0.428510
Si Si7 0.706053 0.252250 0.091623
Si Si8 0.123516 0.005394 0.356224
O O1 0.116717 0.737084 0.973460
O O2 0.000000 0.750000 0.055932
O O3 0.023392 0.880151 0.911876
O O4 0.090072 0.907408 0.074021
O O5 0.182861 0.500000 0.750000
O O6 0.207380 0.400717 0.595935
O O7 0.208306 0.623226 0.608717
O O8 0.090730 0.503029 0.619674
O O9 0.504460 0.500000 0.250000
O O10 0.530108 0.417710 0.073982
O O11 0.814039 0.500000 0.750000
O O12 0.806770 0.695011 0.841240
O O13 0.762858 0.676501 0.678117
O O14 0.702463 0.554835 0.830841
O O15 0.500000 0.750000 0.526697
O O16 0.374763 0.776075 0.435300
O O17 0.395927 0.894030 0.586041
O O18 0.250000 0.235102 0.500000
O O19 0.750000 0.282388 0.000000
O O20 0.092208 0.000000 0.250000
#
# Coordination Sequence:
#
# PCOD9335848 Si02
#       8
#     8   8   8   8   8   8   8   8
#     4  11  23  39  65  93 127 173 227 275 335 399
#     4  11  22  42  64  93 133 177 217 271 340 413
#     4  10  23  38  61  96 136 168 215 272 340 416
#     4  11  25  41  65  97 133 170 223 278 343 404
#     4  11  24  43  69  99 136 183 229 284 355 415
#     4  12  24  41  65  93 130 177 218 278 338 398
#     4  12  25  42  67  98 137 179 226 282 346 413
#     4  10  23  46  65  94 131 172 232 286 336 401
#
# _framework density 19.311917000000001
#
# number of rings (size 3 to 8) (size 9 to 14) (size 15 to 20)
#    0.000    1.000    5.000    1.875    5.250    1.500 
#    0.000    0.000    0.000    1.500    0.000    0.000 
#    0.000    0.000    0.000    0.000    0.000    0.000 
#
# Total GULP energy -178226.782337 kJ/mol
# GULP energy per Si atom -5569.586948 kJ/mol
# Density = 1.926796 g / cm^3
# Si number density = 19.311917 Si / 1000 Ang^3
#
#
#
# Elastic Constant Matrix: (Units=GPa)
#
#
# Indices 1 2 3 4 5 6 
#
# 1 66.8626 9.8752 12.9934 0.0000 0.0000 0.0000
# 2 9.8752 111.8808 19.2632 0.0000 0.0000 0.0000
# 3 12.9934 19.2632 80.4051 0.0000 0.0000 0.0000
# 4 0.0000 0.0000 0.0000 14.3640 0.0000 0.0000
# 5 0.0000 0.0000 0.0000 0.0000 18.5876 0.0000
# 6 0.0000 0.0000 0.0000 0.0000 0.0000 22.2344
#
#
#
# Elastic Compliance Matrix: (Units=1/GPa)
#
#
# Indices 1 2 3 4 5 6 
#
# 1 0.015543 -0.000980 -0.002277 0.000000 0.000000 0.000000
# 2 -0.000980 0.009384 -0.002090 0.000000 0.000000 0.000000
# 3 -0.002277 -0.002090 0.013306 0.000000 0.000000 0.000000
# 4 0.000000 0.000000 0.000000 0.069619 0.000000 0.000000
# 5 0.000000 0.000000 0.000000 0.000000 0.053799 0.000000
# 6 0.000000 0.000000 0.000000 0.000000 0.000000 0.044975
#
#
# Mechanical properties :
#
#
# Convention : Reuss Voigt Hill
#
# Bulk Modulus (GPa) = 36.31126 38.15691 37.23408
# Shear Modulus (GPa) = 22.07502 25.50497 23.78999
#
# Velocity S-wave (km/s) = 3.38461 3.63807 3.51362
# Velocity P-wave (km/s) = 5.84101 6.11952 5.98189
#
# Compressibility (1/GPa) = 0.02753967
#
# Stress axis : x y z
#
# Youngs Moduli (GPa) = 64.33653 106.55971 75.15586
#
# Poissons Ratio (x) = 0.10442 0.17113
# Poissons Ratio (y) = 0.06304 0.15707
# Poissons Ratio (z) = 0.14650 0.22270
#
# Static dielectric constant tensor:
#      x y z
#    x 1.749780 0.000000 0.000000 
#    y 0.000000 1.747550 0.000000 
#    z 0.000000 0.000000 1.663070 
# 
# From -- ./inp_files/27237.got.cif
#   From: 2010.05.17/outbox.cif.g08.bks.cpg/sg24_14_cif.got.tgz:27237.got - 2010.06.04 00:33:39.
