data_PCOD9335640
_publ_section_title
;
Structure prediction by ZEFSAII (Michael W. Deem and Ramdas Pophale) SiO2 
 PCOD9335640
Probable space group: I 21 21 21
;
_chemical_formula_sum "Si O2"
_cell_formula_units_Z 40
_cell_length_a 7.860987
_cell_length_b 10.174477
_cell_length_c 21.997956
_cell_angle_alpha 90.000000
_cell_angle_beta 90.000000
_cell_angle_gamma 90.000000
_cell_volume 1759.428009
_symmetry_space_group_name_H-M "I 21 21 21"
_symmetry_group_IT_number 24
_symmetry_cell_setting 'orthorhombic'
loop_
_space_group_symop_operation_xyz
x,y,z
-x,1/2-y,z
x,-y,1/2-z
1/2-x,y,-z
1/2+x,1/2+y,1/2+z
1/2-x,-y,1/2+z
1/2+x,1/2-y,-z
-x,1/2+y,1/2-z
loop_
_atom_site_type_symbol
_atom_site_label
_atom_site_fract_x
_atom_site_fract_y
_atom_site_fract_z
Si Si1 0.306558 0.039119 0.380542
Si Si2 0.660345 0.986674 0.085597
Si Si3 0.505551 0.896306 0.966444
Si Si4 0.098612 0.134996 0.268952
Si Si5 0.689353 0.253231 0.158897
O O1 0.502821 0.081656 0.380935
O O2 0.236051 0.079309 0.315219
O O3 0.171998 0.081142 0.432175
O O4 0.308513 0.880423 0.384248
O O5 0.833128 0.905374 0.078749
O O6 0.710244 0.121089 0.119897
O O7 0.567180 0.997232 0.019033
O O8 0.500000 0.750000 0.993511
O O9 0.177819 0.212584 0.211572
O O10 0.000000 0.250000 0.302927
O O11 0.001940 0.000000 0.250000
O O12 0.500000 0.250000 0.186604
#
# Coordination Sequence:
#
# PCOD9335640 Si02
#       5
#     8   8   8   8   8
#     4  10  22  44  69  99 139 179 225 297 354 424
#     4  10  24  43  69  98 137 181 232 290 350 427
#     4  11  25  43  66 102 137 185 237 281 359 429
#     4  10  22  42  69  99 139 187 238 293 357 426
#     4   9  21  45  66  99 136 176 233 288 358 421
#
# _framework density 22.734660999999999
#
# number of rings (size 3 to 8) (size 9 to 14) (size 15 to 20)
#    0.000    2.000    0.000    1.200   11.200    0.000 
#   28.800    1.000    0.000    0.000    0.000    0.000 
#    0.000    0.000    0.000    0.000    0.000    0.000 
#
# Total GULP energy -111494.766936 kJ/mol
# GULP energy per Si atom -5574.738347 kJ/mol
# Density = 2.268292 g / cm^3
# Si number density = 22.734661 Si / 1000 Ang^3
#
#
#
# Elastic Constant Matrix: (Units=GPa)
#
#
# Indices 1 2 3 4 5 6 
#
# 1 80.6293 49.6858 11.6141 0.0000 0.0000 0.0000
# 2 49.6858 130.5412 44.8181 0.0000 0.0000 0.0000
# 3 11.6141 44.8181 67.1858 0.0000 0.0000 0.0000
# 4 0.0000 0.0000 0.0000 43.2441 0.0000 0.0000
# 5 0.0000 0.0000 0.0000 0.0000 25.0979 0.0000
# 6 0.0000 0.0000 0.0000 0.0000 0.0000 17.5927
#
#
#
# Elastic Compliance Matrix: (Units=1/GPa)
#
#
# Indices 1 2 3 4 5 6 
#
# 1 0.016354 -0.006815 0.001719 0.000000 0.000000 0.000000
# 2 -0.006815 0.012776 -0.007344 0.000000 0.000000 0.000000
# 3 0.001719 -0.007344 0.019486 0.000000 0.000000 0.000000
# 4 0.000000 0.000000 0.000000 0.023125 0.000000 0.000000
# 5 0.000000 0.000000 0.000000 0.000000 0.039844 0.000000
# 6 0.000000 0.000000 0.000000 0.000000 0.000000 0.056842
#
#
# Mechanical properties :
#
#
# Convention : Reuss Voigt Hill
#
# Bulk Modulus (GPa) = 42.13056 54.51026 48.32041
# Shear Modulus (GPa) = 24.84855 28.66950 26.75903
#
# Velocity S-wave (km/s) = 3.30961 3.55498 3.43449
# Velocity P-wave (km/s) = 5.75989 6.39369 6.08505
#
# Compressibility (1/GPa) = 0.02373574
#
# Stress axis : x y z
#
# Youngs Moduli (GPa) = 61.14596 78.27328 51.31830
#
# Poissons Ratio (x) = 0.53342 -0.08821
# Poissons Ratio (y) = 0.41670 0.37690
# Poissons Ratio (z) = -0.10511 0.57487
#
# Static dielectric constant tensor:
#      x y z
#    x 1.834770 0.000000 0.000000 
#    y 0.000000 1.882310 0.000000 
#    z 0.000000 0.000000 1.941030 
# 
# From -- ./inp_files/9257.got.cif
#   From: 2010.05.17/outbox.cif.g08.bks.cpg/sg24_5_cif.got.tgz:9257.got - 2010.06.04 00:33:39.
