data_PCOD9335696
_publ_section_title
;
Structure prediction by ZEFSAII (Michael W. Deem and Ramdas Pophale) SiO2 
 PCOD9335696
Probable space group: I 21 21 21
;
_chemical_formula_sum "Si O2"
_cell_formula_units_Z 40
_cell_length_a 12.614973
_cell_length_b 7.552230
_cell_length_c 18.059721
_cell_angle_alpha 90.000000
_cell_angle_beta 90.000000
_cell_angle_gamma 90.000000
_cell_volume 1720.570886
_symmetry_space_group_name_H-M "I 21 21 21"
_symmetry_group_IT_number 24
_symmetry_cell_setting 'orthorhombic'
loop_
_space_group_symop_operation_xyz
x,y,z
-x,1/2-y,z
x,-y,1/2-z
1/2-x,y,-z
1/2+x,1/2+y,1/2+z
1/2-x,-y,1/2+z
1/2+x,1/2-y,-z
-x,1/2+y,1/2-z
loop_
_atom_site_type_symbol
_atom_site_label
_atom_site_fract_x
_atom_site_fract_y
_atom_site_fract_z
Si Si1 0.638906 0.900228 0.172076
Si Si2 0.221401 0.898618 0.328204
Si Si3 0.429531 0.020248 0.387771
Si Si4 0.953498 0.454164 0.055166
Si Si5 0.872763 0.995279 0.330706
O O1 0.554644 0.008557 0.123136
O O2 0.602811 0.698595 0.157138
O O3 0.625815 0.000000 0.250000
O O4 0.764517 0.896884 0.159696
O O5 0.149409 0.978773 0.393195
O O6 0.172012 0.703988 0.326742
O O7 0.212543 0.000000 0.250000
O O8 0.343443 0.887545 0.353988
O O9 0.421979 0.030851 0.475934
O O10 0.000000 0.250000 0.045544
O O11 0.048827 0.536715 0.102923
O O12 0.928056 0.000000 0.250000
#
# Coordination Sequence:
#
# PCOD9335696 Si02
#       5
#     8   8   8   8   8
#     4  10  23  44  66  98 132 172 224 278 335 403
#     4  11  22  41  71  98 132 180 228 281 333 406
#     4  11  24  44  65 100 135 178 223 277 337 405
#     4  10  24  44  66  98 138 181 225 282 349 397
#     4  10  22  43  69  99 133 176 227 281 339 406
#
# _framework density 23.248099
#
# number of rings (size 3 to 8) (size 9 to 14) (size 15 to 20)
#    0.000    1.600    0.000    4.200    2.800    4.000 
#   21.600    0.000    0.000    0.000    0.000    0.000 
#    0.000    0.000    0.000    0.000    0.000    0.000 
#
# Total GULP energy -111545.061451 kJ/mol
# GULP energy per Si atom -5577.253073 kJ/mol
# Density = 2.319519 g / cm^3
# Si number density = 23.248099 Si / 1000 Ang^3
#
#
#
# Elastic Constant Matrix: (Units=GPa)
#
#
# Indices 1 2 3 4 5 6 
#
# 1 34.9234 13.4683 26.2004 0.0000 0.0000 0.0000
# 2 13.4683 69.6801 37.3087 0.0000 0.0000 0.0000
# 3 26.2004 37.3087 136.7618 0.0000 0.0000 0.0000
# 4 0.0000 0.0000 0.0000 4.6812 0.0000 0.0000
# 5 0.0000 0.0000 0.0000 0.0000 47.6004 0.0000
# 6 0.0000 0.0000 0.0000 0.0000 0.0000 19.8597
#
#
#
# Elastic Compliance Matrix: (Units=1/GPa)
#
#
# Indices 1 2 3 4 5 6 
#
# 1 0.034208 -0.003634 -0.005562 0.000000 0.000000 0.000000
# 2 -0.003634 0.017192 -0.003994 0.000000 0.000000 0.000000
# 3 -0.005562 -0.003994 0.009467 0.000000 0.000000 0.000000
# 4 0.000000 0.000000 0.000000 0.213619 0.000000 0.000000
# 5 0.000000 0.000000 0.000000 0.000000 0.021008 0.000000
# 6 0.000000 0.000000 0.000000 0.000000 0.000000 0.050353
#
#
# Mechanical properties :
#
#
# Convention : Reuss Voigt Hill
#
# Bulk Modulus (GPa) = 28.99581 43.92446 36.46013
# Shear Modulus (GPa) = 13.03021 25.38747 19.20884
#
# Velocity S-wave (km/s) = 2.37002 3.30816 2.87758
# Velocity P-wave (km/s) = 4.47088 5.79023 5.17279
#
# Compressibility (1/GPa) = 0.03448775
#
# Stress axis : x y z
#
# Youngs Moduli (GPa) = 29.23250 58.16624 105.62889
#
# Poissons Ratio (x) = 0.21137 0.58753
# Poissons Ratio (y) = 0.10623 0.42187
# Poissons Ratio (z) = 0.16260 0.23231
#
# Static dielectric constant tensor:
#      x y z
#    x 1.910090 0.000000 0.000000 
#    y 0.000000 2.013220 0.000000 
#    z 0.000000 0.000000 1.882780 
# 
# From -- ./inp_files/30061.got.cif
#   From: 2010.05.17/outbox.cif.g08.bks.cpg/sg24_16_cif.got.tgz:30061.got - 2010.06.04 00:33:39.
