data_PCOD9335195
_publ_section_title
;
Structure prediction by ZEFSAII (Michael W. Deem and Ramdas Pophale) SiO2 
 PCOD9335195
Probable space group: I 21 21 21
;
_chemical_formula_sum "Si O2"
_cell_formula_units_Z 56
_cell_length_a 20.959990
_cell_length_b 5.855550
_cell_length_c 19.804750
_cell_angle_alpha 90.000000
_cell_angle_beta 90.000000
_cell_angle_gamma 90.000000
_cell_volume 2430.681913
_symmetry_space_group_name_H-M "I 21 21 21"
_symmetry_group_IT_number 24
_symmetry_cell_setting 'orthorhombic'
loop_
_space_group_symop_operation_xyz
x,y,z
-x,1/2-y,z
x,-y,1/2-z
1/2-x,y,-z
1/2+x,1/2+y,1/2+z
1/2-x,-y,1/2+z
1/2+x,1/2-y,-z
-x,1/2+y,1/2-z
loop_
_atom_site_type_symbol
_atom_site_label
_atom_site_fract_x
_atom_site_fract_y
_atom_site_fract_z
Si Si1 0.572563 0.717475 0.573494
Si Si2 0.274595 0.722608 0.223677
Si Si3 0.895829 0.550485 0.824295
Si Si4 0.813230 0.414005 0.383510
Si Si5 0.837827 0.077145 0.495715
Si Si6 0.444761 0.898435 0.044987
Si Si7 0.792909 0.203563 0.875904
O O1 0.500000 0.750000 0.601007
O O2 0.616225 0.527010 0.611811
O O3 0.562515 0.622570 0.497948
O O4 0.617625 0.934123 0.557231
O O5 0.274251 0.406957 0.199283
O O6 0.279625 0.000000 0.250000
O O7 0.343819 0.744499 0.183815
O O8 0.208901 0.768092 0.181264
O O9 0.919606 0.500000 0.750000
O O10 0.953216 0.573420 0.876200
O O11 0.856400 0.341296 0.857642
O O12 0.800650 0.245894 0.445952
O O13 0.764636 0.624089 0.389632
O O14 0.881740 0.249997 0.537398
O O15 0.695441 0.928041 0.446020
O O16 0.500000 0.750000 0.012410
#
# Coordination Sequence:
#
# PCOD9335195 Si02
#       7
#     8   8   8   8   8   8   8
#     4  11  23  44  65  95 134 175 227 294 348 405
#     4  10  21  42  66  95 138 186 221 275 353 417
#     4   9  19  38  59  86 131 175 224 271 322 403
#     4  10  25  42  65 105 132 180 234 283 347 434
#     4  11  23  42  67  99 137 177 224 282 351 413
#     4  11  21  39  63  91 129 179 231 276 331 403
#     4  10  21  44  66  98 140 177 218 284 345 420
#
# _framework density 23.038800999999999
#
# number of rings (size 3 to 8) (size 9 to 14) (size 15 to 20)
#    0.000    1.714    2.857    2.143    2.000    0.571 
#   10.286    4.286    0.000    0.000   14.857    0.000 
#    0.000    0.000    0.000    0.000    0.000    0.000 
#
# Total GULP energy -156066.844637 kJ/mol
# GULP energy per Si atom -5573.815880 kJ/mol
# Density = 2.298636 g / cm^3
# Si number density = 23.038801 Si / 1000 Ang^3
#
#
#
# Elastic Constant Matrix: (Units=GPa)
#
#
# Indices 1 2 3 4 5 6 
#
# 1 49.8084 22.8484 0.3977 0.0000 0.0000 0.0000
# 2 22.8484 101.9873 18.1353 0.0000 0.0000 0.0000
# 3 0.3977 18.1353 59.7421 0.0000 0.0000 0.0000
# 4 0.0000 0.0000 0.0000 133.1695 0.0000 0.0000
# 5 0.0000 0.0000 0.0000 0.0000 32.6574 0.0000
# 6 0.0000 0.0000 0.0000 0.0000 0.0000 46.4355
#
#
#
# Elastic Compliance Matrix: (Units=1/GPa)
#
#
# Indices 1 2 3 4 5 6 
#
# 1 0.022496 -0.005299 0.001459 0.000000 0.000000 0.000000
# 2 -0.005299 0.011613 -0.003490 0.000000 0.000000 0.000000
# 3 0.001459 -0.003490 0.017788 0.000000 0.000000 0.000000
# 4 0.000000 0.000000 0.000000 0.007509 0.000000 0.000000
# 5 0.000000 0.000000 0.000000 0.000000 0.030621 0.000000
# 6 0.000000 0.000000 0.000000 0.000000 0.000000 0.021535
#
#
# Mechanical properties :
#
#
# Convention : Reuss Voigt Hill
#
# Bulk Modulus (GPa) = 26.85516 32.70005 29.77760
# Shear Modulus (GPa) = 36.06575 53.79625 44.93100
#
# Velocity S-wave (km/s) = 3.96085 4.83746 4.42093
# Velocity P-wave (km/s) = 5.70960 6.73985 6.24600
#
# Compressibility (1/GPa) = 0.03723680
#
# Stress axis : x y z
#
# Youngs Moduli (GPa) = 44.45199 86.11095 56.21670
#
# Poissons Ratio (x) = 0.45633 -0.08201
# Poissons Ratio (y) = 0.23556 0.19619
# Poissons Ratio (z) = -0.06485 0.30052
#
# Static dielectric constant tensor:
#      x y z
#    x 1.766380 0.000000 0.000000 
#    y 0.000000 1.847970 0.000000 
#    z 0.000000 0.000000 1.965830 
# 
# From -- ./inp_files/34262.got.cif
#   From: 2010.05.17/outbox.cif.g08.bks.cpg/sg24_18_cif.got.tgz:34262.got - 2010.06.04 00:33:39.
