data_PCOD9335311
_publ_section_title
;
Structure prediction by ZEFSAII (Michael W. Deem and Ramdas Pophale) SiO2 
 PCOD9335311
Probable space group: I 21 21 21
;
_chemical_formula_sum "Si O2"
_cell_formula_units_Z 64
_cell_length_a 31.221390
_cell_length_b 11.685016
_cell_length_c 9.724678
_cell_angle_alpha 90.000000
_cell_angle_beta 90.000000
_cell_angle_gamma 90.000000
_cell_volume 3547.780773
_symmetry_space_group_name_H-M "I 21 21 21"
_symmetry_group_IT_number 24
_symmetry_cell_setting 'orthorhombic'
loop_
_space_group_symop_operation_xyz
x,y,z
-x,1/2-y,z
x,-y,1/2-z
1/2-x,y,-z
1/2+x,1/2+y,1/2+z
1/2-x,-y,1/2+z
1/2+x,1/2-y,-z
-x,1/2+y,1/2-z
loop_
_atom_site_type_symbol
_atom_site_label
_atom_site_fract_x
_atom_site_fract_y
_atom_site_fract_z
Si Si1 0.541728 0.955588 0.907735
Si Si2 0.155240 0.359891 0.252989
Si Si3 0.660796 0.134600 0.222949
Si Si4 0.887117 0.774222 0.990794
Si Si5 0.246948 0.616718 0.337903
Si Si6 0.455666 0.903400 0.050637
Si Si7 0.538828 0.332998 0.140305
Si Si8 0.096080 0.334005 0.011864
O O1 0.541522 0.000000 0.750000
O O2 0.559446 0.068194 0.987991
O O3 0.576082 0.861882 0.957331
O O4 0.495905 0.900250 0.946792
O O5 0.151654 0.500000 0.250000
O O6 0.150498 0.304678 0.402593
O O7 0.201133 0.326406 0.191214
O O8 0.114900 0.317426 0.163265
O O9 0.631775 0.194812 0.340110
O O10 0.709396 0.179794 0.208697
O O11 0.664624 0.000000 0.250000
O O12 0.636923 0.132613 0.077714
O O13 0.910704 0.650752 0.000067
O O14 0.245049 0.500000 0.250000
O O15 0.250000 0.591363 0.500000
O O16 0.461834 0.835566 0.194193
O O17 0.458771 0.036388 0.092415
O O18 0.500000 0.250000 0.097833
O O19 0.578545 0.275392 0.065410
#
# Coordination Sequence:
#
# PCOD9335311 Si02
#       8
#     8   8   8   8   8   8   8   8
#     4  12  23  39  60  83 123 166 208 250 306 372
#     4  11  21  38  59  86 133 164 201 254 309 379
#     4  11  21  33  60  88 121 160 202 248 311 376
#     4  12  22  38  58  88 121 161 206 254 306 368
#     4  10  22  34  53  90 128 162 202 254 311 383
#     4  11  26  40  58  88 119 160 211 266 303 356
#     4  11  23  41  62  85 116 157 213 264 304 362
#     4  12  20  38  62  85 114 170 200 241 309 372
#
# _framework density 18.039446000000002
#
# number of rings (size 3 to 8) (size 9 to 14) (size 15 to 20)
#    0.000    0.750    7.500    1.125    5.250    1.000 
#    2.250    0.000    0.000    0.000    0.000    5.250 
#    0.000    0.000    0.000    0.000    0.000    0.000 
#
# Total GULP energy -178143.995899 kJ/mol
# GULP energy per Si atom -5566.999872 kJ/mol
# Density = 1.799839 g / cm^3
# Si number density = 18.039446 Si / 1000 Ang^3
#
#
#
# Elastic Constant Matrix: (Units=GPa)
#
#
# Indices 1 2 3 4 5 6 
#
# 1 93.6294 24.4165 28.2385 0.0000 0.0000 0.0000
# 2 24.4165 49.5979 16.6351 0.0000 0.0000 0.0000
# 3 28.2385 16.6351 85.1481 0.0000 0.0000 0.0000
# 4 0.0000 0.0000 0.0000 18.9865 0.0000 0.0000
# 5 0.0000 0.0000 0.0000 0.0000 26.4577 0.0000
# 6 0.0000 0.0000 0.0000 0.0000 0.0000 7.7576
#
#
#
# Elastic Compliance Matrix: (Units=1/GPa)
#
#
# Indices 1 2 3 4 5 6 
#
# 1 0.013062 -0.005326 -0.003291 0.000000 0.000000 0.000000
# 2 -0.005326 0.023748 -0.002873 0.000000 0.000000 0.000000
# 3 -0.003291 -0.002873 0.013397 0.000000 0.000000 0.000000
# 4 0.000000 0.000000 0.000000 0.052669 0.000000 0.000000
# 5 0.000000 0.000000 0.000000 0.000000 0.037796 0.000000
# 6 0.000000 0.000000 0.000000 0.000000 0.000000 0.128906
#
#
# Mechanical properties :
#
#
# Convention : Reuss Voigt Hill
#
# Bulk Modulus (GPa) = 36.73036 40.77285 38.75161
# Shear Modulus (GPa) = 16.57633 21.24603 18.91118
#
# Velocity S-wave (km/s) = 3.03461 3.43557 3.24130
# Velocity P-wave (km/s) = 5.71698 6.19585 5.96123
#
# Compressibility (1/GPa) = 0.02722543
#
# Stress axis : x y z
#
# Youngs Moduli (GPa) = 76.55749 42.10891 74.64316
#
# Poissons Ratio (x) = 0.22429 0.24567
# Poissons Ratio (y) = 0.40778 0.21446
# Poissons Ratio (z) = 0.25197 0.12098
#
# Static dielectric constant tensor:
#      x y z
#    x 1.693610 0.000000 0.000000 
#    y 0.000000 1.736020 0.000000 
#    z 0.000000 0.000000 1.751910 
# 
# From -- ./inp_files/17008.got.cif
#   From: 2010.05.17/outbox.cif.g08.bks.cpg/sg24_9_cif.got.tgz:17008.got - 2010.06.04 00:33:39.
