data_PCOD9335369
_publ_section_title
;
Structure prediction by ZEFSAII (Michael W. Deem and Ramdas Pophale) SiO2 
 PCOD9335369
Probable space group: I 21 21 21
;
_chemical_formula_sum "Si O2"
_cell_formula_units_Z 48
_cell_length_a 28.396840
_cell_length_b 10.041612
_cell_length_c 8.766046
_cell_angle_alpha 90.000000
_cell_angle_beta 90.000000
_cell_angle_gamma 90.000000
_cell_volume 2499.638449
_symmetry_space_group_name_H-M "I 21 21 21"
_symmetry_group_IT_number 24
_symmetry_cell_setting 'orthorhombic'
loop_
_space_group_symop_operation_xyz
x,y,z
-x,1/2-y,z
x,-y,1/2-z
1/2-x,y,-z
1/2+x,1/2+y,1/2+z
1/2-x,-y,1/2+z
1/2+x,1/2-y,-z
-x,1/2+y,1/2-z
loop_
_atom_site_type_symbol
_atom_site_label
_atom_site_fract_x
_atom_site_fract_y
_atom_site_fract_z
Si Si1 0.898789 0.849656 0.505815
Si Si2 0.541323 0.000000 0.750000
Si Si3 0.517015 0.608839 0.004234
Si Si4 0.390363 0.039422 0.928702
Si Si5 0.204875 0.090125 0.894764
Si Si6 0.451171 0.500000 0.250000
Si Si7 0.203510 0.400427 0.894835
O O1 0.926446 0.928841 0.374658
O O2 0.904502 0.694037 0.461449
O O3 0.917745 0.885189 0.677165
O O4 0.845050 0.904352 0.508201
O O5 0.506043 0.098289 0.662628
O O6 0.500000 0.750000 0.066835
O O7 0.487328 0.513534 0.111470
O O8 0.570700 0.561962 0.997342
O O9 0.386436 0.000000 0.750000
O O10 0.340307 0.037162 0.012605
O O11 0.201831 0.244968 0.845655
O O12 0.210912 0.000000 0.750000
O O13 0.250000 0.080490 0.000000
O O14 0.203233 0.500000 0.750000
O O15 0.250000 0.422017 0.000000
#
# Coordination Sequence:
#
# PCOD9335369 Si02
#       7
#     8   4   8   8   8   4   8
#     4  10  22  42  62  89 132 171 214 269 334 386
#     4  10  22  38  59  86 121 172 206 262 308 390
#     4  11  24  38  60  91 123 167 217 261 319 383
#     4  11  23  41  65  93 130 175 219 272 326 405
#     4  10  23  43  67  96 131 171 218 277 338 399
#     4  10  24  38  59  86 127 170 208 274 316 392
#     4  10  22  41  64  96 129 165 217 272 330 395
#
# _framework density 19.202777000000001
#
# number of rings (size 3 to 8) (size 9 to 14) (size 15 to 20)
#    0.000    1.667    1.667    1.500    4.667    3.333 
#    3.000    0.000    0.000    0.000    0.000    0.000 
#    0.000    0.000    0.000    0.000    0.000    0.000 
#
# Total GULP energy -133607.628364 kJ/mol
# GULP energy per Si atom -5566.984515 kJ/mol
# Density = 1.915907 g / cm^3
# Si number density = 19.202777 Si / 1000 Ang^3
#
#
#
# Elastic Constant Matrix: (Units=GPa)
#
#
# Indices 1 2 3 4 5 6 
#
# 1 119.9387 60.4960 23.4147 0.0000 0.0000 0.0000
# 2 60.4960 88.0651 51.3119 0.0000 0.0000 0.0000
# 3 23.4147 51.3119 81.2456 0.0000 0.0000 0.0000
# 4 0.0000 0.0000 0.0000 73.2676 0.0000 0.0000
# 5 0.0000 0.0000 0.0000 0.0000 2.2353 0.0000
# 6 0.0000 0.0000 0.0000 0.0000 0.0000 13.4483
#
#
#
# Elastic Compliance Matrix: (Units=1/GPa)
#
#
# Indices 1 2 3 4 5 6 
#
# 1 0.013218 -0.010855 0.003046 0.000000 0.000000 0.000000
# 2 -0.010855 0.026881 -0.013849 0.000000 0.000000 0.000000
# 3 0.003046 -0.013849 0.020177 0.000000 0.000000 0.000000
# 4 0.000000 0.000000 0.000000 0.013649 0.000000 0.000000
# 5 0.000000 0.000000 0.000000 0.000000 0.447362 0.000000
# 6 0.000000 0.000000 0.000000 0.000000 0.000000 0.074359
#
#
# Mechanical properties :
#
#
# Convention : Reuss Voigt Hill
#
# Bulk Modulus (GPa) = 58.95907 62.18829 60.57368
# Shear Modulus (GPa) = 7.75657 28.05870 17.90764
#
# Velocity S-wave (km/s) = 2.01198 3.82668 3.05709
# Velocity P-wave (km/s) = 6.01394 7.20972 6.63881
#
# Compressibility (1/GPa) = 0.01696092
#
# Stress axis : x y z
#
# Youngs Moduli (GPa) = 75.65395 37.20070 49.56164
#
# Poissons Ratio (x) = 0.40381 -0.15098
# Poissons Ratio (y) = 0.82123 0.68637
# Poissons Ratio (z) = -0.23046 0.51519
#
# Static dielectric constant tensor:
#      x y z
#    x 1.470020 0.000000 0.000000 
#    y 0.000000 1.927560 0.000000 
#    z 0.000000 0.000000 1.688350 
# 
# From -- ./inp_files/16855.got.cif
#   From: 2010.05.17/outbox.cif.g08.bks.cpg/sg24_9_cif.got.tgz:16855.got - 2010.06.04 00:33:39.
