data_PCOD9335766
_publ_section_title
;
Structure prediction by ZEFSAII (Michael W. Deem and Ramdas Pophale) SiO2 
 PCOD9335766
Probable space group: I 21 21 21
;
_chemical_formula_sum "Si O2"
_cell_formula_units_Z 48
_cell_length_a 6.506555
_cell_length_b 20.465074
_cell_length_c 14.837471
_cell_angle_alpha 90.000000
_cell_angle_beta 90.000000
_cell_angle_gamma 90.000000
_cell_volume 1975.715048
_symmetry_space_group_name_H-M "I 21 21 21"
_symmetry_group_IT_number 24
_symmetry_cell_setting 'orthorhombic'
loop_
_space_group_symop_operation_xyz
x,y,z
-x,1/2-y,z
x,-y,1/2-z
1/2-x,y,-z
1/2+x,1/2+y,1/2+z
1/2-x,-y,1/2+z
1/2+x,1/2-y,-z
-x,1/2+y,1/2-z
loop_
_atom_site_type_symbol
_atom_site_label
_atom_site_fract_x
_atom_site_fract_y
_atom_site_fract_z
Si Si1 0.687795 0.703478 0.397248
Si Si2 0.247168 0.558951 0.689631
Si Si3 0.389154 0.913214 0.168784
Si Si4 0.663343 0.805930 0.099459
Si Si5 0.981551 0.331110 0.253315
Si Si6 0.108052 0.951202 0.585623
O O1 0.500000 0.750000 0.374232
O O2 0.750000 0.721102 0.500000
O O3 0.846861 0.711652 0.315748
O O4 0.640280 0.626215 0.399008
O O5 0.335085 0.500000 0.750000
O O6 0.402934 0.617875 0.687162
O O7 0.048784 0.580974 0.748454
O O8 0.140529 0.540393 0.595709
O O9 0.531590 0.873399 0.098327
O O10 0.190473 0.870929 0.190927
O O11 0.324139 0.986575 0.145483
O O12 0.500000 0.750000 0.125218
O O13 0.848291 0.808614 0.172944
O O14 0.750000 0.792619 0.000000
O O15 0.250000 0.963071 0.500000
#
# Coordination Sequence:
#
# PCOD9335766 Si02
#       6
#     8   8   8   8   8   8
#     4  11  27  53  77 115 159 211 277 336 399 477
#     4   9  20  41  70 113 150 194 259 315 386 476
#     4  10  23  46  76 115 152 196 270 319 397 486
#     4  11  29  52  74 117 160 207 267 327 399 490
#     4  11  25  48  85 105 157 215 256 335 402 476
#     4  10  22  44  76 109 159 203 251 334 396 471
#
# _framework density 24.295003000000001
#
# number of rings (size 3 to 8) (size 9 to 14) (size 15 to 20)
#    0.000    1.667    1.667    0.000    7.000    2.000 
#    6.000    3.333    0.000    0.000    0.000    0.000 
#    0.000    0.000    0.000    0.000    0.000    0.000 
#
# Total GULP energy -133944.120702 kJ/mol
# GULP energy per Si atom -5581.005029 kJ/mol
# Density = 2.423971 g / cm^3
# Si number density = 24.295003 Si / 1000 Ang^3
#
#
#
# Elastic Constant Matrix: (Units=GPa)
#
#
# Indices 1 2 3 4 5 6 
#
# 1 163.8486 92.2327 86.1169 0.0000 0.0000 0.0000
# 2 92.2327 98.8612 48.8834 0.0000 0.0000 0.0000
# 3 86.1169 48.8834 126.8406 0.0000 0.0000 0.0000
# 4 0.0000 0.0000 0.0000 14.6055 0.0000 0.0000
# 5 0.0000 0.0000 0.0000 0.0000 43.6701 0.0000
# 6 0.0000 0.0000 0.0000 0.0000 0.0000 -77.3017
#
#
#
# Elastic Compliance Matrix: (Units=1/GPa)
#
#
# Indices 1 2 3 4 5 6 
#
# 1 0.016177 -0.011936 -0.006383 0.000000 0.000000 0.000000
# 2 -0.011936 0.021304 -0.000106 0.000000 0.000000 0.000000
# 3 -0.006383 -0.000106 0.012259 0.000000 0.000000 0.000000
# 4 0.000000 0.000000 0.000000 0.068468 0.000000 0.000000
# 5 0.000000 0.000000 0.000000 0.000000 0.022899 0.000000
# 6 0.000000 0.000000 0.000000 0.000000 0.000000 -0.012936
#
#
# Mechanical properties :
#
#
# Convention : Reuss Voigt Hill
#
# Bulk Modulus (GPa) = 77.59105 93.77961 85.68533
# Shear Modulus (GPa) = 29.53032 7.01593 18.27312
#
# Velocity S-wave (km/s) = 3.49017 1.70120 2.74548
# Velocity P-wave (km/s) = 6.94608 6.52249 6.73762
#
# Compressibility (1/GPa) = 0.01288808
#
# Stress axis : x y z
#
# Youngs Moduli (GPa) = 61.81522 46.94004 81.57503
#
# Poissons Ratio (x) = 0.56029 0.52071
# Poissons Ratio (y) = 0.73785 0.00867
# Poissons Ratio (z) = 0.39458 0.00499
#
# Static dielectric constant tensor:
#      x y z
#    x 1.935980 0.000000 0.000000 
#    y 0.000000 2.069260 0.000000 
#    z 0.000000 0.000000 2.066070 
# 
# From -- ./inp_files/24786.got.cif
#   From: 2010.05.17/outbox.cif.g08.bks.cpg/sg24_13_cif.got.tgz:24786.got - 2010.06.04 00:33:39.
