data_PCOD9335525
_publ_section_title
;
Structure prediction by ZEFSAII (Michael W. Deem and Ramdas Pophale) SiO2 
 PCOD9335525
Probable space group: I 21 21 21
;
_chemical_formula_sum "Si O2"
_cell_formula_units_Z 40
_cell_length_a 15.418937
_cell_length_b 13.784797
_cell_length_c 8.227381
_cell_angle_alpha 90.000000
_cell_angle_beta 90.000000
_cell_angle_gamma 90.000000
_cell_volume 1748.704462
_symmetry_space_group_name_H-M "I 21 21 21"
_symmetry_group_IT_number 24
_symmetry_cell_setting 'orthorhombic'
loop_
_space_group_symop_operation_xyz
x,y,z
-x,1/2-y,z
x,-y,1/2-z
1/2-x,y,-z
1/2+x,1/2+y,1/2+z
1/2-x,-y,1/2+z
1/2+x,1/2-y,-z
-x,1/2+y,1/2-z
loop_
_atom_site_type_symbol
_atom_site_label
_atom_site_fract_x
_atom_site_fract_y
_atom_site_fract_z
Si Si1 0.343194 0.106345 0.062857
Si Si2 0.997715 0.094309 0.354398
Si Si3 0.653404 0.010046 0.058795
Si Si4 0.650668 0.612591 0.064596
Si Si5 0.416088 0.289924 0.941678
O O1 0.347842 0.145158 0.247316
O O2 0.384747 0.000015 0.067350
O O3 0.250000 0.076612 0.000000
O O4 0.365948 0.189500 0.934875
O O5 0.951808 0.162448 0.221747
O O6 0.075121 0.150949 0.446944
O O7 0.030819 0.000000 0.250000
O O8 0.921414 0.052131 0.469838
O O9 0.647082 0.000000 0.250000
O O10 0.750000 0.982471 0.000000
O O11 0.636867 0.123563 0.021122
O O12 0.750000 0.624506 0.000000
O O13 0.500000 0.250000 0.040375
#
# Coordination Sequence:
#
# PCOD9335525 Si02
#       5
#     8   8   8   8   8
#     4  10  22  40  69 101 141 177 228 286 353 414
#     4  10  23  42  70  97 138 186 232 285 348 418
#     4  11  24  46  74 100 138 187 242 287 354 423
#     4  10  23  40  70 106 140 185 229 279 358 432
#     4  11  24  42  67  98 142 180 229 290 350 398
#
# _framework density 22.874075999999999
#
# number of rings (size 3 to 8) (size 9 to 14) (size 15 to 20)
#    0.000    1.600    0.000    4.800   14.000    0.000 
#    3.600    1.000    0.000    0.000    0.000    0.000 
#    0.000    0.000    0.000    0.000    0.000    0.000 
#
# Total GULP energy -111496.333023 kJ/mol
# GULP energy per Si atom -5574.816651 kJ/mol
# Density = 2.282201 g / cm^3
# Si number density = 22.874076 Si / 1000 Ang^3
#
#
#
# Elastic Constant Matrix: (Units=GPa)
#
#
# Indices 1 2 3 4 5 6 
#
# 1 116.7630 3.6819 50.7935 0.0000 0.0000 0.0000
# 2 3.6819 72.0760 19.6030 0.0000 0.0000 0.0000
# 3 50.7935 19.6030 148.9688 0.0000 0.0000 0.0000
# 4 0.0000 0.0000 0.0000 -17.3037 0.0000 0.0000
# 5 0.0000 0.0000 0.0000 0.0000 28.8682 0.0000
# 6 0.0000 0.0000 0.0000 0.0000 0.0000 13.3955
#
#
#
# Elastic Compliance Matrix: (Units=1/GPa)
#
#
# Indices 1 2 3 4 5 6 
#
# 1 0.010069 0.000435 -0.003490 0.000000 0.000000 0.000000
# 2 0.000435 0.014408 -0.002044 0.000000 0.000000 0.000000
# 3 -0.003490 -0.002044 0.008172 0.000000 0.000000 0.000000
# 4 0.000000 0.000000 0.000000 -0.057791 0.000000 0.000000
# 5 0.000000 0.000000 0.000000 0.000000 0.034640 0.000000
# 6 0.000000 0.000000 0.000000 0.000000 0.000000 0.074652
#
#
# Mechanical properties :
#
#
# Convention : Reuss Voigt Hill
#
# Bulk Modulus (GPa) = 44.54447 53.99608 49.27027
# Shear Modulus (GPa) = 49.10006 22.57394 35.83700
#
# Velocity S-wave (km/s) = 4.63810 3.14487 3.96246
# Velocity P-wave (km/s) = 6.94253 6.06993 6.52084
#
# Compressibility (1/GPa) = 0.02244948
#
# Stress axis : x y z
#
# Youngs Moduli (GPa) = 99.31442 69.40573 122.36973
#
# Poissons Ratio (x) = -0.03019 0.42713
# Poissons Ratio (y) = -0.04320 0.25016
# Poissons Ratio (z) = 0.34665 0.14188
#
# Static dielectric constant tensor:
#      x y z
#    x 2.311340 0.000000 0.000000 
#    y 0.000000 2.591040 0.000000 
#    z 0.000000 0.000000 1.905330 
# 
# From -- ./inp_files/12315.got.cif
#   From: 2010.05.17/outbox.cif.g08.bks.cpg/sg24_7_cif.got.tgz:12315.got - 2010.06.04 00:33:39.
