data_PCOD9335737
_publ_section_title
;
Structure prediction by ZEFSAII (Michael W. Deem and Ramdas Pophale) SiO2 
 PCOD9335737
Probable space group: I 21 21 21
;
_chemical_formula_sum "Si O2"
_cell_formula_units_Z 44
_cell_length_a 4.953125
_cell_length_b 13.536129
_cell_length_c 25.236521
_cell_angle_alpha 90.000000
_cell_angle_beta 90.000000
_cell_angle_gamma 90.000000
_cell_volume 1692.011294
_symmetry_space_group_name_H-M "I 21 21 21"
_symmetry_group_IT_number 24
_symmetry_cell_setting 'orthorhombic'
loop_
_space_group_symop_operation_xyz
x,y,z
-x,1/2-y,z
x,-y,1/2-z
1/2-x,y,-z
1/2+x,1/2+y,1/2+z
1/2-x,-y,1/2+z
1/2+x,1/2-y,-z
-x,1/2+y,1/2-z
loop_
_atom_site_type_symbol
_atom_site_label
_atom_site_fract_x
_atom_site_fract_y
_atom_site_fract_z
Si Si1 0.858338 0.161776 0.447994
Si Si2 0.578694 0.645007 0.584299
Si Si3 0.000000 0.750000 0.756348
Si Si4 0.293796 0.483445 0.373144
Si Si5 0.250000 0.001244 0.000000
Si Si6 0.500000 0.750000 0.686341
Si Si7 0.274378 0.942447 0.803619
O O1 0.750000 0.214795 0.500000
O O2 0.636578 0.105205 0.413555
O O3 0.000000 0.250000 0.416521
O O4 0.035636 0.073215 0.473172
O O5 0.500000 0.750000 0.558167
O O6 0.315964 0.578035 0.595679
O O7 0.778355 0.579501 0.548909
O O8 0.647848 0.677122 0.644590
O O9 0.745526 0.791030 0.721688
O O10 0.857198 0.662981 0.789203
O O11 0.537604 0.499343 0.334221
O O12 0.035439 0.441961 0.340753
O O13 0.343497 0.000000 0.750000
#
# Coordination Sequence:
#
# PCOD9335737 Si02
#       7
#     8   8   4   8   4   4   8
#     4  11  25  44  75 103 151 192 243 301 369 437
#     4   9  22  46  69 100 143 186 237 297 361 430
#     4  12  24  44  73 100 144 183 242 294 372 426
#     4  11  26  45  71 109 141 191 241 300 361 438
#     4  10  22  48  66 110 138 188 244 294 360 436
#     4  10  22  44  69 102 138 191 230 294 370 426
#     4  12  26  45  73 105 146 186 245 299 361 432
#
# _framework density 26.004556999999998
#
# number of rings (size 3 to 8) (size 9 to 14) (size 15 to 20)
#    0.545    0.727    0.909    3.818    7.636    0.000 
#   11.455    0.000    0.000    0.000    0.000    0.000 
#    0.000    0.000    0.000    0.000    0.000    0.000 
#
# Total GULP energy -122905.155393 kJ/mol
# GULP energy per Si atom -5586.597972 kJ/mol
# Density = 2.594537 g / cm^3
# Si number density = 26.004557 Si / 1000 Ang^3
#
#
#
# Elastic Constant Matrix: (Units=GPa)
#
#
# Indices 1 2 3 4 5 6 
#
# 1 105.1385 19.7257 43.2509 0.0000 0.0000 0.0000
# 2 19.7257 149.7240 45.9418 0.0000 0.0000 0.0000
# 3 43.2509 45.9418 79.5480 0.0000 0.0000 0.0000
# 4 0.0000 0.0000 0.0000 33.9962 0.0000 0.0000
# 5 0.0000 0.0000 0.0000 0.0000 33.4005 0.0000
# 6 0.0000 0.0000 0.0000 0.0000 0.0000 30.4007
#
#
#
# Elastic Compliance Matrix: (Units=1/GPa)
#
#
# Indices 1 2 3 4 5 6 
#
# 1 0.012285 0.000524 -0.006982 0.000000 0.000000 0.000000
# 2 0.000524 0.008140 -0.004986 0.000000 0.000000 0.000000
# 3 -0.006982 -0.004986 0.019247 0.000000 0.000000 0.000000
# 4 0.000000 0.000000 0.000000 0.029415 0.000000 0.000000
# 5 0.000000 0.000000 0.000000 0.000000 0.029940 0.000000
# 6 0.000000 0.000000 0.000000 0.000000 0.000000 0.032894
#
#
# Mechanical properties :
#
#
# Convention : Reuss Voigt Hill
#
# Bulk Modulus (GPa) = 59.58209 61.36084 60.47147
# Shear Modulus (GPa) = 31.17141 34.59228 32.88185
#
# Velocity S-wave (km/s) = 3.46597 3.65120 3.55979
# Velocity P-wave (km/s) = 6.24333 6.43603 6.34041
#
# Compressibility (1/GPa) = 0.01678357
#
# Stress axis : x y z
#
# Youngs Moduli (GPa) = 81.39854 122.85283 51.95665
#
# Poissons Ratio (x) = -0.06436 0.36277
# Poissons Ratio (y) = -0.04264 0.25905
# Poissons Ratio (z) = 0.56834 0.61253
#
# Static dielectric constant tensor:
#      x y z
#    x 2.036270 0.000000 0.000000 
#    y 0.000000 2.090640 0.000000 
#    z 0.000000 0.000000 2.080660 
# 
# From -- ./inp_files/36434.got.cif
#   From: 2010.05.17/outbox.cif.g08.bks.cpg/sg24_19_cif.got.tgz:36434.got - 2010.06.04 00:33:39.
