data_PCOD9335023
_publ_section_title
;
Structure prediction by ZEFSAII (Michael W. Deem and Ramdas Pophale) SiO2 
 PCOD9335023
Probable space group: I 21 21 21
;
_chemical_formula_sum "Si O2"
_cell_formula_units_Z 52
_cell_length_a 20.496270
_cell_length_b 19.772485
_cell_length_c 5.147691
_cell_angle_alpha 90.000000
_cell_angle_beta 90.000000
_cell_angle_gamma 90.000000
_cell_volume 2086.164534
_symmetry_space_group_name_H-M "I 21 21 21"
_symmetry_group_IT_number 24
_symmetry_cell_setting 'orthorhombic'
loop_
_space_group_symop_operation_xyz
x,y,z
-x,1/2-y,z
x,-y,1/2-z
1/2-x,y,-z
1/2+x,1/2+y,1/2+z
1/2-x,-y,1/2+z
1/2+x,1/2-y,-z
-x,1/2+y,1/2-z
loop_
_atom_site_type_symbol
_atom_site_label
_atom_site_fract_x
_atom_site_fract_y
_atom_site_fract_z
Si Si1 0.423307 0.743986 0.654206
Si Si2 0.143490 0.857085 0.053646
Si Si3 0.395589 0.397862 0.640732
Si Si4 0.964506 0.543429 0.003896
Si Si5 0.805598 0.760186 0.698698
Si Si6 0.688370 0.912267 0.348453
Si Si7 0.250000 0.039431 0.500000
O O1 0.500000 0.750000 0.612313
O O2 0.404880 0.684338 0.858404
O O3 0.377938 0.727474 0.412595
O O4 0.395808 0.816883 0.730328
O O5 0.182294 0.797903 0.905922
O O6 0.086204 0.898736 0.914113
O O7 0.195394 0.913219 0.128720
O O8 0.467764 0.426040 0.605161
O O9 0.349254 0.430039 0.417877
O O10 0.365297 0.411647 0.922949
O O11 0.977884 0.500000 0.750000
O O12 0.937701 0.500000 0.250000
O O13 0.750000 0.734186 0.500000
O O14 0.783970 0.837740 0.741439
O O15 0.750000 0.945395 0.500000
O O16 0.278118 0.000000 0.250000
#
# Coordination Sequence:
#
# PCOD9335023 Si02
#       7
#     8   8   8   8   8   8   4
#     4  11  23  40  67 109 143 184 238 317 393 445
#     4  12  25  44  73  97 146 183 253 303 364 426
#     4  11  22  43  68  99 145 181 228 297 371 446
#     4  12  28  47  70  97 136 193 248 296 358 434
#     4  10  23  39  66 104 145 189 227 295 377 447
#     4  10  21  39  68 106 142 174 220 280 367 446
#     4  12  30  50  72 102 150 208 258 298 348 428
#
# _framework density 24.926124999999999
#
# number of rings (size 3 to 8) (size 9 to 14) (size 15 to 20)
#    0.000    0.923    3.077    3.231    5.385    3.077 
#    0.000    0.000    0.000    9.231    0.000    0.000 
#    0.000    0.000    0.000    0.000    0.000    0.000 
#
# Total GULP energy -145225.391723 kJ/mol
# GULP energy per Si atom -5585.591989 kJ/mol
# Density = 2.486939 g / cm^3
# Si number density = 24.926125 Si / 1000 Ang^3
#
#
#
# Elastic Constant Matrix: (Units=GPa)
#
#
# Indices 1 2 3 4 5 6 
#
# 1 141.2861 26.9239 35.3748 0.0000 0.0000 0.0000
# 2 26.9239 79.9990 28.5807 0.0000 0.0000 0.0000
# 3 35.3748 28.5807 121.2227 0.0000 0.0000 0.0000
# 4 0.0000 0.0000 0.0000 22.8097 0.0000 0.0000
# 5 0.0000 0.0000 0.0000 0.0000 23.2941 0.0000
# 6 0.0000 0.0000 0.0000 0.0000 0.0000 31.5179
#
#
#
# Elastic Compliance Matrix: (Units=1/GPa)
#
#
# Indices 1 2 3 4 5 6 
#
# 1 0.007921 -0.002009 -0.001838 0.000000 0.000000 0.000000
# 2 -0.002009 0.014160 -0.002752 0.000000 0.000000 0.000000
# 3 -0.001838 -0.002752 0.009434 0.000000 0.000000 0.000000
# 4 0.000000 0.000000 0.000000 0.043841 0.000000 0.000000
# 5 0.000000 0.000000 0.000000 0.000000 0.042929 0.000000
# 6 0.000000 0.000000 0.000000 0.000000 0.000000 0.031728
#
#
# Mechanical properties :
#
#
# Convention : Reuss Voigt Hill
#
# Bulk Modulus (GPa) = 54.59474 58.25183 56.42328
# Shear Modulus (GPa) = 29.53043 32.29956 30.91500
#
# Velocity S-wave (km/s) = 3.44571 3.60364 3.52556
# Velocity P-wave (km/s) = 6.14660 6.38244 6.26563
#
# Compressibility (1/GPa) = 0.01831678
#
# Stress axis : x y z
#
# Youngs Moduli (GPa) = 126.24914 70.62355 105.99488
#
# Poissons Ratio (x) = 0.14190 0.19479
# Poissons Ratio (y) = 0.25366 0.29171
# Poissons Ratio (z) = 0.23201 0.19436
#
# Static dielectric constant tensor:
#      x y z
#    x 2.039790 0.000000 0.000000 
#    y 0.000000 2.173550 0.000000 
#    z 0.000000 0.000000 2.059130 
# 
# From -- ./inp_files/5673.got.cif
#   From: 2010.05.17/outbox.cif.g08.bks.cpg/sg24_3_cif.got.tgz:5673.got - 2010.06.04 00:33:39.
