data_PCOD9335683
_publ_section_title
;
Structure prediction by ZEFSAII (Michael W. Deem and Ramdas Pophale) SiO2 
 PCOD9335683
Probable space group: I 21 21 21
;
_chemical_formula_sum "Si O2"
_cell_formula_units_Z 32
_cell_length_a 7.232138
_cell_length_b 10.476704
_cell_length_c 17.910872
_cell_angle_alpha 90.000000
_cell_angle_beta 90.000000
_cell_angle_gamma 90.000000
_cell_volume 1357.088307
_symmetry_space_group_name_H-M "I 21 21 21"
_symmetry_group_IT_number 24
_symmetry_cell_setting 'orthorhombic'
loop_
_space_group_symop_operation_xyz
x,y,z
-x,1/2-y,z
x,-y,1/2-z
1/2-x,y,-z
1/2+x,1/2+y,1/2+z
1/2-x,-y,1/2+z
1/2+x,1/2-y,-z
-x,1/2+y,1/2-z
loop_
_atom_site_type_symbol
_atom_site_label
_atom_site_fract_x
_atom_site_fract_y
_atom_site_fract_z
Si Si1 0.353184 0.388481 0.566338
Si Si2 0.480880 0.444442 0.326621
Si Si3 0.548905 0.397759 0.031522
Si Si4 0.113654 0.130556 0.296544
O O1 0.250000 0.306708 0.500000
O O2 0.419438 0.512250 0.519101
O O3 0.533200 0.372202 0.618979
O O4 0.190883 0.391218 0.627253
O O5 0.406168 0.500000 0.250000
O O6 0.547425 0.555421 0.383018
O O7 0.663035 0.363065 0.304571
O O8 0.500000 0.250000 0.026255
O O9 0.750000 0.416762 0.000000
O O10 0.000000 0.250000 0.261355
O O11 0.078725 0.000000 0.250000
#
# Coordination Sequence:
#
# PCOD9335683 Si02
#       4
#     8   8   8   8
#     4  10  22  43  67 101 144 189 241 303 367 443
#     4  10  22  44  65 103 144 189 244 298 368 442
#     4  11  21  41  72 108 148 192 247 308 373 438
#     4  11  25  48  72 106 145 196 246 309 372 445
#
# _framework density 23.579892999999998
#
# number of rings (size 3 to 8) (size 9 to 14) (size 15 to 20)
#    0.000    1.500    2.500    3.000    0.000    2.000 
#   36.000    0.000    0.000    0.000    0.000    0.000 
#    0.000    0.000    0.000    0.000    0.000    0.000 
#
# Total GULP energy -89161.474163 kJ/mol
# GULP energy per Si atom -5572.592135 kJ/mol
# Density = 2.352622 g / cm^3
# Si number density = 23.579893 Si / 1000 Ang^3
#
#
#
# Elastic Constant Matrix: (Units=GPa)
#
#
# Indices 1 2 3 4 5 6 
#
# 1 148.1157 14.5184 13.6244 0.0000 0.0000 0.0000
# 2 14.5184 112.0366 33.5557 0.0000 0.0000 0.0000
# 3 13.6244 33.5557 153.7566 0.0000 0.0000 0.0000
# 4 0.0000 0.0000 0.0000 14.8680 0.0000 0.0000
# 5 0.0000 0.0000 0.0000 0.0000 44.7146 0.0000
# 6 0.0000 0.0000 0.0000 0.0000 0.0000 19.3283
#
#
#
# Elastic Compliance Matrix: (Units=1/GPa)
#
#
# Indices 1 2 3 4 5 6 
#
# 1 0.006866 -0.000757 -0.000443 0.000000 0.000000 0.000000
# 2 -0.000757 0.009633 -0.002035 0.000000 0.000000 0.000000
# 3 -0.000443 -0.002035 0.006987 0.000000 0.000000 0.000000
# 4 0.000000 0.000000 0.000000 0.067258 0.000000 0.000000
# 5 0.000000 0.000000 0.000000 0.000000 0.022364 0.000000
# 6 0.000000 0.000000 0.000000 0.000000 0.000000 0.051738
#
#
# Mechanical properties :
#
#
# Convention : Reuss Voigt Hill
#
# Bulk Modulus (GPa) = 58.76852 59.70067 59.23459
# Shear Modulus (GPa) = 28.25017 39.26289 33.75653
#
# Velocity S-wave (km/s) = 3.46506 4.08499 3.78773
# Velocity P-wave (km/s) = 6.40204 6.90094 6.65616
#
# Compressibility (1/GPa) = 0.01701591
#
# Stress axis : x y z
#
# Youngs Moduli (GPa) = 145.63557 103.80613 143.11797
#
# Poissons Ratio (x) = 0.07859 0.06343
# Poissons Ratio (y) = 0.11025 0.29129
# Poissons Ratio (z) = 0.06455 0.21128
#
# Static dielectric constant tensor:
#      x y z
#    x 2.121290 0.000000 0.000000 
#    y 0.000000 2.140520 0.000000 
#    z 0.000000 0.000000 1.873170 
# 
# From -- ./inp_files/24357.got.cif
#   From: 2010.05.17/outbox.cif.g08.bks.cpg/sg24_13_cif.got.tgz:24357.got - 2010.06.04 00:33:39.
