data_PCOD9335274
_publ_section_title
;
Structure prediction by ZEFSAII (Michael W. Deem and Ramdas Pophale) SiO2 
 PCOD9335274
Probable space group: I 21 21 21
;
_chemical_formula_sum "Si O2"
_cell_formula_units_Z 32
_cell_length_a 7.695574
_cell_length_b 33.236086
_cell_length_c 5.344473
_cell_angle_alpha 90.000000
_cell_angle_beta 90.000000
_cell_angle_gamma 90.000000
_cell_volume 1366.959917
_symmetry_space_group_name_H-M "I 21 21 21"
_symmetry_group_IT_number 24
_symmetry_cell_setting 'orthorhombic'
loop_
_space_group_symop_operation_xyz
x,y,z
-x,1/2-y,z
x,-y,1/2-z
1/2-x,y,-z
1/2+x,1/2+y,1/2+z
1/2-x,-y,1/2+z
1/2+x,1/2-y,-z
-x,1/2+y,1/2-z
loop_
_atom_site_type_symbol
_atom_site_label
_atom_site_fract_x
_atom_site_fract_y
_atom_site_fract_z
Si Si1 0.250000 0.760617 0.500000
Si Si2 0.250000 0.473668 0.000000
Si Si3 0.972206 0.331691 0.165054
Si Si4 0.448438 0.088801 0.106368
Si Si5 0.750000 0.619405 0.000000
Si Si6 0.250000 0.292705 0.500000
O O1 0.414313 0.790395 0.538845
O O2 0.277136 0.735276 0.244956
O O3 0.230896 0.500000 0.250000
O O4 0.419568 0.445731 0.035561
O O5 0.799354 0.350625 0.281377
O O6 0.096426 0.320865 0.396256
O O7 0.029532 0.368620 0.990638
O O8 0.410340 0.093336 0.402828
O O9 0.250000 0.081292 0.000000
#
# Coordination Sequence:
#
# PCOD9335274 Si02
#       6
#     4   4   8   8   4   4
#     4  12  26  47  64 107 156 208 260 342 407 451
#     4  12  32  52  82 128 167 196 250 325 404 490
#     4  11  25  45  71 104 145 207 272 318 386 478
#     4  10  25  49  82 111 156 212 261 318 387 477
#     4  10  21  44  80 105 145 200 272 315 375 464
#     4  12  31  41  72 106 156 202 264 344 406 439
#
# _framework density 23.409614000000001
#
# number of rings (size 3 to 8) (size 9 to 14) (size 15 to 20)
#    0.000    1.000    3.750    1.500   14.000    5.000 
#    0.000    0.000    0.000    0.000    0.000    0.000 
#    0.000    0.000    0.000    0.000    0.000    0.000 
#
# Total GULP energy -89358.834299 kJ/mol
# GULP energy per Si atom -5584.927144 kJ/mol
# Density = 2.335633 g / cm^3
# Si number density = 23.409614 Si / 1000 Ang^3
#
#
#
# Elastic Constant Matrix: (Units=GPa)
#
#
# Indices 1 2 3 4 5 6 
#
# 1 125.6913 80.7098 55.3607 -0.0029 -0.0024 -0.0007
# 2 80.7098 161.2710 89.1737 -0.0078 -0.0039 -0.0008
# 3 55.3607 89.1737 167.0358 -0.0102 -0.0090 0.0044
# 4 -0.0029 -0.0078 -0.0102 30.1436 -0.0018 -0.0072
# 5 -0.0024 -0.0039 -0.0090 -0.0018 43.8493 -0.0033
# 6 -0.0007 -0.0008 0.0044 -0.0072 -0.0033 35.8477
#
#
#
# Elastic Compliance Matrix: (Units=1/GPa)
#
#
# Indices 1 2 3 4 5 6 
#
# 1 0.011859 -0.005337 -0.001081 -0.000001 0.000000 0.000000
# 2 -0.005337 0.011200 -0.004210 0.000001 0.000000 0.000001
# 3 -0.001081 -0.004210 0.008593 0.000002 0.000001 -0.000001
# 4 -0.000001 0.000001 0.000002 0.033175 0.000001 0.000007
# 5 0.000000 0.000000 0.000001 0.000001 0.022805 0.000002
# 6 0.000000 0.000001 -0.000001 0.000007 0.000002 0.027896
#
#
# Mechanical properties :
#
#
# Convention : Reuss Voigt Hill
#
# Bulk Modulus (GPa) = 96.20389 100.49850 98.35120
# Shear Modulus (GPa) = 35.65057 37.21838 36.43447
#
# Velocity S-wave (km/s) = 3.90667 3.99165 3.94939
# Velocity P-wave (km/s) = 7.84440 8.01673 7.93103
#
# Compressibility (1/GPa) = 0.01039459
#
# Stress axis : x y z
#
# Youngs Moduli (GPa) = 84.32073 89.28655 116.37733
#
# Poissons Ratio (x) = 0.47656 0.12583
# Poissons Ratio (y) = 0.45005 0.48997
# Poissons Ratio (z) = 0.09117 0.37591
#
# Static dielectric constant tensor:
#      x y z
#    x 1.986190 0.000000 -0.000010 
#    y 0.000000 1.867300 0.000000 
#    z -0.000010 0.000000 2.072930 
# 
# From -- ./inp_files/1229.got.cif
#   From: 2010.05.17/outbox.cif.g08.bks.cpg/sg24_1_cif.got.tgz:1229.got - 2010.06.04 00:33:39.
