data_PCOD9335164
_publ_section_title
;
Structure prediction by ZEFSAII (Michael W. Deem and Ramdas Pophale) SiO2 
 PCOD9335164
Probable space group: I 21 21 21
;
_chemical_formula_sum "Si O2"
_cell_formula_units_Z 32
_cell_length_a 16.556464
_cell_length_b 5.375934
_cell_length_c 15.133641
_cell_angle_alpha 90.000000
_cell_angle_beta 90.000000
_cell_angle_gamma 90.000000
_cell_volume 1346.991778
_symmetry_space_group_name_H-M "I 21 21 21"
_symmetry_group_IT_number 24
_symmetry_cell_setting 'orthorhombic'
loop_
_space_group_symop_operation_xyz
x,y,z
-x,1/2-y,z
x,-y,1/2-z
1/2-x,y,-z
1/2+x,1/2+y,1/2+z
1/2-x,-y,1/2+z
1/2+x,1/2-y,-z
-x,1/2+y,1/2-z
loop_
_atom_site_type_symbol
_atom_site_label
_atom_site_fract_x
_atom_site_fract_y
_atom_site_fract_z
Si Si1 0.946866 0.500000 0.250000
Si Si2 0.055648 0.997773 0.444991
Si Si3 0.925108 0.884306 0.661564
Si Si4 0.303814 0.000000 0.250000
Si Si5 0.815896 0.286308 0.569853
O O1 0.000000 0.750000 0.248054
O O2 0.905564 0.501285 0.345899
O O3 0.127980 0.013825 0.517003
O O4 0.000000 0.250000 0.453436
O O5 0.000000 0.750000 0.444394
O O6 0.858404 0.706464 0.702647
O O7 0.000000 0.750000 0.617243
O O8 0.964098 0.000000 0.750000
O O9 0.880616 0.082450 0.601330
O O10 0.271447 0.869277 0.160903
O O11 0.750000 0.194189 0.500000
#
# Coordination Sequence:
#
# PCOD9335164 Si02
#       5
#     4   8   8   4   8
#     4   8  16  37  64  94 131 176 244 306 360 421
#     4  10  23  42  70 104 140 196 260 316 373 450
#     4  10  21  41  72 107 144 193 254 318 386 464
#     4  10  24  43  70 100 151 196 248 310 400 461
#     4  11  27  44  67 110 154 197 255 317 401 470
#
# _framework density 23.756643
#
# number of rings (size 3 to 8) (size 9 to 14) (size 15 to 20)
#    0.000    2.000    1.250    0.000    7.000    2.000 
#    4.500    0.000   27.500    0.000    0.000    0.000 
#    0.000    0.000    0.000    0.000    0.000    0.000 
#
# Total GULP energy -89204.447528 kJ/mol
# GULP energy per Si atom -5575.277970 kJ/mol
# Density = 2.370257 g / cm^3
# Si number density = 23.756643 Si / 1000 Ang^3
#
#
#
# Elastic Constant Matrix: (Units=GPa)
#
#
# Indices 1 2 3 4 5 6 
#
# 1 103.8671 39.5549 62.7442 0.0000 0.0000 0.0000
# 2 39.5549 118.4326 32.7081 0.0000 0.0000 0.0000
# 3 62.7442 32.7081 242.8196 0.0000 0.0000 0.0000
# 4 0.0000 0.0000 0.0000 35.0703 0.0000 0.0000
# 5 0.0000 0.0000 0.0000 0.0000 -1.9633 0.0000
# 6 0.0000 0.0000 0.0000 0.0000 0.0000 -3.4726
#
#
#
# Elastic Compliance Matrix: (Units=1/GPa)
#
#
# Indices 1 2 3 4 5 6 
#
# 1 0.012631 -0.003445 -0.002800 0.000000 0.000000 0.000000
# 2 -0.003445 0.009710 -0.000418 0.000000 0.000000 0.000000
# 3 -0.002800 -0.000418 0.004898 0.000000 0.000000 0.000000
# 4 0.000000 0.000000 0.000000 0.028514 0.000000 0.000000
# 5 0.000000 0.000000 0.000000 0.000000 -0.509353 0.000000
# 6 0.000000 0.000000 0.000000 0.000000 0.000000 -0.287966
#
#
# Mechanical properties :
#
#
# Convention : Reuss Voigt Hill
#
# Bulk Modulus (GPa) = 71.87418 81.68151 76.77785
# Shear Modulus (GPa) = -6.90987 27.93435 10.51224
#
# Velocity S-wave (km/s) = -1.70731 3.43279 2.10584
# Velocity P-wave (km/s) = 5.14135 7.08303 6.18881
#
# Compressibility (1/GPa) = 0.01391320
#
# Stress axis : x y z
#
# Youngs Moduli (GPa) = 79.17007 102.99006 204.16557
#
# Poissons Ratio (x) = 0.35484 0.57161
# Poissons Ratio (y) = 0.27277 0.08526
# Poissons Ratio (z) = 0.22166 0.04301
#
# Static dielectric constant tensor:
#      x y z
#    x 1.868110 0.000000 0.000000 
#    y 0.000000 2.001950 0.000000 
#    z 0.000000 0.000000 1.992840 
# 
# From -- ./inp_files/3104.got.cif
#   From: 2010.05.17/outbox.cif.g08.bks.cpg/sg24_2_cif.got.tgz:3104.got - 2010.06.04 00:33:39.
