data_PCOD9335235
_publ_section_title
;
Structure prediction by ZEFSAII (Michael W. Deem and Ramdas Pophale) SiO2 
 PCOD9335235
Probable space group: I 21 21 21
;
_chemical_formula_sum "Si O2"
_cell_formula_units_Z 44
_cell_length_a 7.261112
_cell_length_b 14.106816
_cell_length_c 17.444758
_cell_angle_alpha 90.000000
_cell_angle_beta 90.000000
_cell_angle_gamma 90.000000
_cell_volume 1786.886989
_symmetry_space_group_name_H-M "I 21 21 21"
_symmetry_group_IT_number 24
_symmetry_cell_setting 'orthorhombic'
loop_
_space_group_symop_operation_xyz
x,y,z
-x,1/2-y,z
x,-y,1/2-z
1/2-x,y,-z
1/2+x,1/2+y,1/2+z
1/2-x,-y,1/2+z
1/2+x,1/2-y,-z
-x,1/2+y,1/2-z
loop_
_atom_site_type_symbol
_atom_site_label
_atom_site_fract_x
_atom_site_fract_y
_atom_site_fract_z
Si Si1 0.858988 0.556904 0.898358
Si Si2 0.522663 0.458161 0.950203
Si Si3 0.820973 0.818274 0.354164
Si Si4 0.750000 0.706837 0.500000
Si Si5 0.302389 0.592296 0.209367
Si Si6 0.781415 0.237466 0.587884
O O1 0.700830 0.478626 0.897288
O O2 0.734535 0.652759 0.900036
O O3 0.005188 0.560713 0.829972
O O4 0.969085 0.534711 0.979560
O O5 0.364072 0.422282 0.893801
O O6 0.573869 0.360493 0.991592
O O7 0.729432 0.763092 0.422653
O O8 0.696391 0.834584 0.280111
O O9 0.000000 0.750000 0.334359
O O10 0.217087 0.500000 0.250000
O O11 0.207653 0.654531 0.142029
O O12 0.750000 0.213201 0.500000
O O13 0.000000 0.250000 0.601652
#
# Coordination Sequence:
#
# PCOD9335235 Si02
#       6
#     8   8   8   4   8   8
#     4   9  19  43  68 101 127 172 235 284 347 399
#     4   9  18  40  76  98 128 181 244 286 334 428
#     4  10  22  43  64 101 140 182 231 280 360 412
#     4   8  18  38  68 100 130 184 228 290 340 404
#     4  11  26  42  59 103 140 175 221 284 348 407
#     4  10  21  43  68  93 126 172 220 272 337 404
#
# _framework density 24.623829000000001
#
# number of rings (size 3 to 8) (size 9 to 14) (size 15 to 20)
#    0.000    2.545    1.818    0.000    2.545    3.636 
#   32.727    0.000    0.000    0.000    0.000    0.000 
#    0.000    0.000    0.000    0.000    0.000    0.000 
#
# Total GULP energy -122502.910869 kJ/mol
# GULP energy per Si atom -5568.314130 kJ/mol
# Density = 2.456778 g / cm^3
# Si number density = 24.623829 Si / 1000 Ang^3
#
#
#
# Elastic Constant Matrix: (Units=GPa)
#
#
# Indices 1 2 3 4 5 6 
#
# 1 59.6137 14.0982 31.6117 0.0000 0.0000 0.0000
# 2 14.0982 121.6797 59.7430 0.0000 0.0000 0.0000
# 3 31.6117 59.7430 172.6418 0.0000 0.0000 0.0000
# 4 0.0000 0.0000 0.0000 7.7937 0.0000 0.0000
# 5 0.0000 0.0000 0.0000 0.0000 46.1937 0.0000
# 6 0.0000 0.0000 0.0000 0.0000 0.0000 12.9479
#
#
#
# Elastic Compliance Matrix: (Units=1/GPa)
#
#
# Indices 1 2 3 4 5 6 
#
# 1 0.018613 -0.000582 -0.003207 0.000000 0.000000 0.000000
# 2 -0.000582 0.009919 -0.003326 0.000000 0.000000 0.000000
# 3 -0.003207 -0.003326 0.007530 0.000000 0.000000 0.000000
# 4 0.000000 0.000000 0.000000 0.128308 0.000000 0.000000
# 5 0.000000 0.000000 0.000000 0.000000 0.021648 0.000000
# 6 0.000000 0.000000 0.000000 0.000000 0.000000 0.077232
#
#
# Mechanical properties :
#
#
# Convention : Reuss Voigt Hill
#
# Bulk Modulus (GPa) = 45.80289 62.76012 54.28150
# Shear Modulus (GPa) = 17.55882 29.95256 23.75569
#
# Velocity S-wave (km/s) = 2.67326 3.49148 3.10940
# Velocity P-wave (km/s) = 5.30753 6.46505 5.91467
#
# Compressibility (1/GPa) = 0.02183268
#
# Stress axis : x y z
#
# Youngs Moduli (GPa) = 53.72663 100.82018 132.79523
#
# Poissons Ratio (x) = 0.05869 0.42583
# Poissons Ratio (y) = 0.03127 0.44165
# Poissons Ratio (z) = 0.17228 0.33531
#
# Static dielectric constant tensor:
#      x y z
#    x 2.007400 0.000000 0.000000 
#    y 0.000000 2.218380 0.000000 
#    z 0.000000 0.000000 1.956170 
# 
# From -- ./inp_files/29430.got.cif
#   From: 2010.05.17/outbox.cif.g08.bks.cpg/sg24_15_cif.got.tgz:29430.got - 2010.06.04 00:33:39.
