data_PCOD9335991
_publ_section_title
;
Structure prediction by ZEFSAII (Michael W. Deem and Ramdas Pophale) SiO2 
 PCOD9335991
Probable space group: I 21 21 21
;
_chemical_formula_sum "Si O2"
_cell_formula_units_Z 32
_cell_length_a 8.358862
_cell_length_b 8.723662
_cell_length_c 18.319527
_cell_angle_alpha 90.000000
_cell_angle_beta 90.000000
_cell_angle_gamma 90.000000
_cell_volume 1335.857835
_symmetry_space_group_name_H-M "I 21 21 21"
_symmetry_group_IT_number 24
_symmetry_cell_setting 'orthorhombic'
loop_
_space_group_symop_operation_xyz
x,y,z
-x,1/2-y,z
x,-y,1/2-z
1/2-x,y,-z
1/2+x,1/2+y,1/2+z
1/2-x,-y,1/2+z
1/2+x,1/2-y,-z
-x,1/2+y,1/2-z
loop_
_atom_site_type_symbol
_atom_site_label
_atom_site_fract_x
_atom_site_fract_y
_atom_site_fract_z
Si Si1 0.571465 0.926809 0.093293
Si Si2 0.709161 0.436099 0.171422
Si Si3 0.394778 0.115999 0.547650
Si Si4 0.179390 0.674650 0.419965
O O1 0.500000 0.750000 0.101620
O O2 0.471530 0.015805 0.154112
O O3 0.751124 0.998652 0.092665
O O4 0.497804 0.972087 0.013567
O O5 0.754541 0.500000 0.250000
O O6 0.816359 0.522384 0.111100
O O7 0.737929 0.262295 0.148434
O O8 0.500000 0.250000 0.578745
O O9 0.250000 0.186889 0.500000
O O10 0.500000 0.750000 0.582356
O O11 0.250000 0.720205 0.500000
#
# Coordination Sequence:
#
# PCOD9335991 Si02
#       4
#     8   8   8   8
#     4  10  23  44  72 102 135 186 250 315 376 446
#     4  11  24  41  63  98 145 191 240 300 379 459
#     4   9  19  38  66  97 133 181 242 302 362 435
#     4  12  25  45  76 111 150 198 257 325 391 462
#
# _framework density 23.954646
#
# number of rings (size 3 to 8) (size 9 to 14) (size 15 to 20)
#    0.000    1.500    0.000    6.000    0.000   17.000 
#    0.000    1.250    0.000    0.000    0.000    0.000 
#    0.000    0.000    0.000    0.000    0.000    0.000 
#
# Total GULP energy -89069.983005 kJ/mol
# GULP energy per Si atom -5566.873938 kJ/mol
# Density = 2.390012 g / cm^3
# Si number density = 23.954646 Si / 1000 Ang^3
#
#
#
# Elastic Constant Matrix: (Units=GPa)
#
#
# Indices 1 2 3 4 5 6 
#
# 1 131.8592 89.9603 14.4595 0.0000 0.0000 0.0000
# 2 89.9603 153.6004 45.4116 0.0000 0.0000 0.0000
# 3 14.4595 45.4116 96.2946 0.0000 0.0000 0.0000
# 4 0.0000 0.0000 0.0000 12.9421 0.0000 0.0000
# 5 0.0000 0.0000 0.0000 0.0000 18.4246 0.0000
# 6 0.0000 0.0000 0.0000 0.0000 0.0000 54.5658
#
#
#
# Elastic Compliance Matrix: (Units=1/GPa)
#
#
# Indices 1 2 3 4 5 6 
#
# 1 0.012921 -0.008127 0.001892 0.000000 0.000000 0.000000
# 2 -0.008127 0.012677 -0.004758 0.000000 0.000000 0.000000
# 3 0.001892 -0.004758 0.012344 0.000000 0.000000 0.000000
# 4 0.000000 0.000000 0.000000 0.077267 0.000000 0.000000
# 5 0.000000 0.000000 0.000000 0.000000 0.054275 0.000000
# 6 0.000000 0.000000 0.000000 0.000000 0.000000 0.018327
#
#
# Mechanical properties :
#
#
# Convention : Reuss Voigt Hill
#
# Bulk Modulus (GPa) = 62.66769 75.71301 69.19035
# Shear Modulus (GPa) = 23.24332 32.64800 27.94566
#
# Velocity S-wave (km/s) = 3.11835 3.69576 3.41927
# Velocity P-wave (km/s) = 6.25965 7.06307 6.67346
#
# Compressibility (1/GPa) = 0.01595719
#
# Stress axis : x y z
#
# Youngs Moduli (GPa) = 77.39386 78.88381 81.00818
#
# Poissons Ratio (x) = 0.64109 -0.15330
# Poissons Ratio (y) = 0.62898 0.38543
# Poissons Ratio (z) = -0.14646 0.37533
#
# Static dielectric constant tensor:
#      x y z
#    x 2.067740 0.000000 0.000000 
#    y 0.000000 2.134060 0.000000 
#    z 0.000000 0.000000 1.860190 
# 
# From -- ./inp_files/10565.got.cif
#   From: 2010.05.17/outbox.cif.g08.bks.cpg/sg24_6_cif.got.tgz:10565.got - 2010.06.04 00:33:39.
