data_PCOD9335622
_publ_section_title
;
Structure prediction by ZEFSAII (Michael W. Deem and Ramdas Pophale) SiO2 
 PCOD9335622
Probable space group: I 21 21 21
;
_chemical_formula_sum "Si O2"
_cell_formula_units_Z 56
_cell_length_a 12.718449
_cell_length_b 15.342943
_cell_length_c 14.117074
_cell_angle_alpha 90.000000
_cell_angle_beta 90.000000
_cell_angle_gamma 90.000000
_cell_volume 2754.783770
_symmetry_space_group_name_H-M "I 21 21 21"
_symmetry_group_IT_number 24
_symmetry_cell_setting 'orthorhombic'
loop_
_space_group_symop_operation_xyz
x,y,z
-x,1/2-y,z
x,-y,1/2-z
1/2-x,y,-z
1/2+x,1/2+y,1/2+z
1/2-x,-y,1/2+z
1/2+x,1/2-y,-z
-x,1/2+y,1/2-z
loop_
_atom_site_type_symbol
_atom_site_label
_atom_site_fract_x
_atom_site_fract_y
_atom_site_fract_z
Si Si1 0.847710 0.417206 0.686562
Si Si2 0.911855 0.879540 0.858718
Si Si3 0.796876 0.966629 0.143673
Si Si4 0.500000 0.750000 0.448468
Si Si5 0.896791 0.209155 0.435631
Si Si6 0.310313 0.253971 0.200586
Si Si7 0.846299 0.148256 0.071131
Si Si8 0.250000 0.862222 0.000000
O O1 0.823960 0.500000 0.750000
O O2 0.799156 0.333863 0.739788
O O3 0.804782 0.419228 0.580002
O O4 0.973330 0.406413 0.675067
O O5 0.827854 0.956509 0.876167
O O6 0.861338 0.822817 0.773997
O O7 0.918710 0.825777 0.956943
O O8 0.846030 0.872886 0.117925
O O9 0.808033 0.000000 0.250000
O O10 0.849911 0.045391 0.088239
O O11 0.399739 0.766851 0.379533
O O12 0.452952 0.678528 0.520800
O O13 0.824836 0.293355 0.447623
O O14 0.000000 0.250000 0.389959
O O15 0.201965 0.295384 0.159316
O O16 0.750000 0.161806 0.000000
#
# Coordination Sequence:
#
# PCOD9335622 Si02
#       8
#     8   8   8   4   8   8   8   4
#     4  12  26  42  70 104 137 182 238 298 347 426
#     4  12  20  42  75 104 131 168 239 306 353 392
#     4  12  24  41  68 107 136 176 233 304 342 408
#     4  10  22  42  66  96 138 188 216 282 368 438
#     4  12  23  42  72 101 140 182 228 290 359 424
#     4  11  20  41  70 101 131 176 238 295 352 411
#     4  10  23  41  64 100 141 177 229 283 365 419
#     4  12  24  48  68 102 146 188 232 286 366 424
#
# _framework density 20.328274
#
# number of rings (size 3 to 8) (size 9 to 14) (size 15 to 20)
#    0.000    0.571    7.143    1.286    0.000    1.143 
#    5.143    0.714    0.000    0.000    0.000    0.000 
#    0.000    0.000    0.000    0.000    0.000    0.000 
#
# Total GULP energy -156270.211400 kJ/mol
# GULP energy per Si atom -5581.078979 kJ/mol
# Density = 2.028201 g / cm^3
# Si number density = 20.328274 Si / 1000 Ang^3
#
#
#
# Elastic Constant Matrix: (Units=GPa)
#
#
# Indices 1 2 3 4 5 6 
#
# 1 57.3437 38.7438 31.6779 0.0000 0.0000 0.0000
# 2 38.7438 86.9054 61.8245 0.0000 0.0000 0.0000
# 3 31.6779 61.8245 108.6454 0.0001 0.0000 0.0000
# 4 0.0000 0.0000 0.0001 32.4723 0.0000 0.0000
# 5 0.0000 0.0000 0.0000 0.0000 21.8118 0.0000
# 6 0.0000 0.0000 0.0000 0.0000 0.0000 32.2802
#
#
#
# Elastic Compliance Matrix: (Units=1/GPa)
#
#
# Indices 1 2 3 4 5 6 
#
# 1 0.025120 -0.010061 -0.001599 0.000000 0.000000 0.000000
# 2 -0.010061 0.023363 -0.010361 0.000000 0.000000 0.000000
# 3 -0.001599 -0.010361 0.015566 0.000000 0.000000 0.000000
# 4 0.000000 0.000000 0.000000 0.030795 0.000000 0.000000
# 5 0.000000 0.000000 0.000000 0.000000 0.045847 0.000000
# 6 0.000000 0.000000 0.000000 0.000000 0.000000 0.030979
#
#
# Mechanical properties :
#
#
# Convention : Reuss Voigt Hill
#
# Bulk Modulus (GPa) = 49.98327 57.48744 53.73535
# Shear Modulus (GPa) = 22.48379 25.35606 23.91993
#
# Velocity S-wave (km/s) = 3.32932 3.53559 3.43400
# Velocity P-wave (km/s) = 6.27858 6.70881 6.49726
#
# Compressibility (1/GPa) = 0.02000669
#
# Stress axis : x y z
#
# Youngs Moduli (GPa) = 39.80913 42.80223 64.24081
#
# Poissons Ratio (x) = 0.43065 0.10271
# Poissons Ratio (y) = 0.40054 0.66561
# Poissons Ratio (z) = 0.06365 0.44348
#
# Static dielectric constant tensor:
#      x y z
#    x 1.693900 0.000000 0.000000 
#    y 0.000000 1.878440 0.000000 
#    z 0.000000 0.000000 1.822340 
# 
# From -- ./inp_files/25862.got.cif
#   From: 2010.05.17/outbox.cif.g08.bks.cpg/sg24_13_cif.got.tgz:25862.got - 2010.06.04 00:33:39.
