data_PCOD9335771
_publ_section_title
;
Structure prediction by ZEFSAII (Michael W. Deem and Ramdas Pophale) SiO2 
 PCOD9335771
Probable space group: I 21 21 21
;
_chemical_formula_sum "Si O2"
_cell_formula_units_Z 36
_cell_length_a 19.074355
_cell_length_b 5.010457
_cell_length_c 18.132609
_cell_angle_alpha 90.000000
_cell_angle_beta 90.000000
_cell_angle_gamma 90.000000
_cell_volume 1732.955846
_symmetry_space_group_name_H-M "I 21 21 21"
_symmetry_group_IT_number 24
_symmetry_cell_setting 'orthorhombic'
loop_
_space_group_symop_operation_xyz
x,y,z
-x,1/2-y,z
x,-y,1/2-z
1/2-x,y,-z
1/2+x,1/2+y,1/2+z
1/2-x,-y,1/2+z
1/2+x,1/2-y,-z
-x,1/2+y,1/2-z
loop_
_atom_site_type_symbol
_atom_site_label
_atom_site_fract_x
_atom_site_fract_y
_atom_site_fract_z
Si Si1 0.312074 0.260252 0.696423
Si Si2 0.949571 0.496602 0.575235
Si Si3 0.846670 0.751390 0.801994
Si Si4 0.500000 0.750000 0.697747
Si Si5 0.426781 0.922075 0.912061
O O1 0.332388 0.500000 0.750000
O O2 0.231832 0.318155 0.671040
O O3 0.362869 0.230680 0.626409
O O4 0.314680 0.000000 0.750000
O O5 0.896378 0.373492 0.635172
O O6 0.915132 0.532442 0.494525
O O7 0.000000 0.250000 0.563171
O O8 0.000000 0.750000 0.595180
O O9 0.837412 0.500000 0.750000
O O10 0.872468 0.000000 0.750000
O O11 0.488017 0.500000 0.750000
O O12 0.561218 0.669726 0.642450
O O13 0.500000 0.750000 0.908903
#
# Coordination Sequence:
#
# PCOD9335771 Si02
#       5
#     8   8   8   4   8
#     4  10  24  38  62  92 128 174 222 268 320 392
#     4  11  24  42  66  94 130 166 211 280 345 401
#     4  10  22  45  66  93 124 164 221 278 334 406
#     4  12  24  36  58  88 130 178 216 264 314 386
#     4  11  25  39  59  96 135 173 219 269 325 401
#
# _framework density 20.773754
#
# number of rings (size 3 to 8) (size 9 to 14) (size 15 to 20)
#    0.000    1.333    2.222    2.000    6.222    2.667 
#    0.000    0.000    0.000   10.667    0.000    0.000 
#    0.000    0.000    0.000    0.000    0.000    0.000 
#
# Total GULP energy -100337.714650 kJ/mol
# GULP energy per Si atom -5574.317481 kJ/mol
# Density = 2.072647 g / cm^3
# Si number density = 20.773754 Si / 1000 Ang^3
#
#
#
# Elastic Constant Matrix: (Units=GPa)
#
#
# Indices 1 2 3 4 5 6 
#
# 1 106.1484 29.0134 95.1569 0.0000 0.0000 0.0000
# 2 29.0134 140.8640 43.3954 0.0000 0.0000 0.0000
# 3 95.1569 43.3954 146.1377 0.0000 0.0000 0.0000
# 4 0.0000 0.0000 0.0000 24.1316 0.0000 0.0000
# 5 0.0000 0.0000 0.0000 0.0000 232.3754 0.0000
# 6 0.0000 0.0000 0.0000 0.0000 0.0000 31.7785
#
#
#
# Elastic Compliance Matrix: (Units=1/GPa)
#
#
# Indices 1 2 3 4 5 6 
#
# 1 0.022633 -0.000134 -0.014698 0.000000 0.000000 0.000000
# 2 -0.000134 0.007815 -0.002233 0.000000 0.000000 0.000000
# 3 -0.014698 -0.002233 0.017076 0.000000 0.000000 0.000000
# 4 0.000000 0.000000 0.000000 0.041439 0.000000 0.000000
# 5 0.000000 0.000000 0.000000 0.000000 0.004303 0.000000
# 6 0.000000 0.000000 0.000000 0.000000 0.000000 0.031468
#
#
# Mechanical properties :
#
#
# Convention : Reuss Voigt Hill
#
# Bulk Modulus (GPa) = 74.65862 80.92015 77.78939
# Shear Modulus (GPa) = 30.61293 72.69607 51.65450
#
# Velocity S-wave (km/s) = 3.84296 5.92201 4.99192
# Velocity P-wave (km/s) = 7.46378 9.26271 8.41148
#
# Compressibility (1/GPa) = 0.01339430
#
# Stress axis : x y z
#
# Youngs Moduli (GPa) = 44.18292 127.96485 58.56020
#
# Poissons Ratio (x) = 0.01712 0.86070
# Poissons Ratio (y) = 0.00591 0.13079
# Poissons Ratio (z) = 0.64939 0.28580
#
# Static dielectric constant tensor:
#      x y z
#    x 1.760730 0.000000 0.000000 
#    y 0.000000 1.794260 0.000000 
#    z 0.000000 0.000000 0.402850 
# 
# From -- ./inp_files/27351.got.cif
#   From: 2010.05.17/outbox.cif.g08.bks.cpg/sg24_14_cif.got.tgz:27351.got - 2010.06.04 00:33:39.
