data_PCOD9335037
_publ_section_title
;
Structure prediction by ZEFSAII (Michael W. Deem and Ramdas Pophale) SiO2 
 PCOD9335037
Probable space group: I 21 21 21
;
_chemical_formula_sum "Si O2"
_cell_formula_units_Z 60
_cell_length_a 23.443873
_cell_length_b 5.048099
_cell_length_c 24.892723
_cell_angle_alpha 90.000000
_cell_angle_beta 90.000000
_cell_angle_gamma 90.000000
_cell_volume 2945.978886
_symmetry_space_group_name_H-M "I 21 21 21"
_symmetry_group_IT_number 24
_symmetry_cell_setting 'orthorhombic'
loop_
_space_group_symop_operation_xyz
x,y,z
-x,1/2-y,z
x,-y,1/2-z
1/2-x,y,-z
1/2+x,1/2+y,1/2+z
1/2-x,-y,1/2+z
1/2+x,1/2-y,-z
-x,1/2+y,1/2-z
loop_
_atom_site_type_symbol
_atom_site_label
_atom_site_fract_x
_atom_site_fract_y
_atom_site_fract_z
Si Si1 0.134053 0.105964 0.084439
Si Si2 0.727511 0.244524 0.712455
Si Si3 0.063542 0.793904 0.911084
Si Si4 0.685726 0.782759 0.115413
Si Si5 0.612001 0.107489 0.648109
Si Si6 0.563468 0.792554 0.484485
Si Si7 0.236481 0.800954 0.561530
Si Si8 0.000000 0.250000 0.286479
O O1 0.110431 0.303992 0.129714
O O2 0.109630 0.209189 0.028172
O O3 0.201775 0.142085 0.086711
O O4 0.118034 0.804322 0.097105
O O5 0.720540 0.500000 0.750000
O O6 0.775409 0.283139 0.666757
O O7 0.667687 0.168971 0.683972
O O8 0.744616 0.000000 0.750000
O O9 0.118227 0.734234 0.874674
O O10 0.000000 0.750000 0.888180
O O11 0.068742 0.587533 0.961179
O O12 0.066592 0.089444 0.934647
O O13 0.700274 0.567031 0.069381
O O14 0.704953 0.065300 0.092238
O O15 0.554579 0.176708 0.678477
O O16 0.500000 0.750000 0.508423
O O17 0.250000 0.733872 0.500000
O O18 0.985035 0.500000 0.250000
#
# Coordination Sequence:
#
# PCOD9335037 Si02
#       8
#     8   8   8   8   8   8   8   4
#     4  12  22  39  57  91 125 162 203 251 307 356
#     4  12  24  43  65  88 121 160 204 261 313 370
#     4  10  21  40  61  89 123 163 205 241 292 367
#     4  12  23  41  62  95 122 160 209 251 308 377
#     4  12  25  41  64  87 120 159 207 262 311 362
#     4  10  22  37  59  86 124 172 206 239 290 362
#     4  12  23  38  62  92 130 164 198 253 306 369
#     4  12  26  46  64  88 112 156 214 268 320 360
#
# _framework density 20.366744000000001
#
# number of rings (size 3 to 8) (size 9 to 14) (size 15 to 20)
#    0.000    0.533    2.667    6.800    1.867    0.000 
#    0.000    0.000    0.000    0.800    0.000    0.000 
#    0.000    0.000    0.000    0.000    0.000    0.000 
#
# Total GULP energy -167895.637945 kJ/mol
# GULP energy per Si atom -5596.521265 kJ/mol
# Density = 2.032039 g / cm^3
# Si number density = 20.366744 Si / 1000 Ang^3
#
#
#
# Elastic Constant Matrix: (Units=GPa)
#
#
# Indices 1 2 3 4 5 6 
#
# 1 144.3786 -21.8118 15.2946 0.0000 0.0000 0.0000
# 2 -21.8118 57.2528 -12.9140 0.0000 0.0000 0.0000
# 3 15.2946 -12.9140 42.2699 0.0000 0.0000 0.0000
# 4 0.0000 0.0000 0.0000 -4.8922 0.0000 0.0000
# 5 0.0000 0.0000 0.0000 0.0000 -11.8546 0.0000
# 6 0.0000 0.0000 0.0000 0.0000 0.0000 21.9265
#
#
#
# Elastic Compliance Matrix: (Units=1/GPa)
#
#
# Indices 1 2 3 4 5 6 
#
# 1 0.007500 0.002411 -0.001977 0.000000 0.000000 0.000000
# 2 0.002411 0.019534 0.005096 0.000000 0.000000 0.000000
# 3 -0.001977 0.005096 0.025930 0.000000 0.000000 0.000000
# 4 0.000000 0.000000 0.000000 -0.204408 0.000000 0.000000
# 5 0.000000 0.000000 0.000000 0.000000 -0.084356 0.000000
# 6 0.000000 0.000000 0.000000 0.000000 0.000000 0.045607
#
#
# Mechanical properties :
#
#
# Convention : Reuss Voigt Hill
#
# Bulk Modulus (GPa) = 15.61923 22.78210 19.20067
# Shear Modulus (GPa) = -27.79145 18.59145 -4.60000
#
# Velocity S-wave (km/s) = -3.69799 3.02459 -1.50449
# Velocity P-wave (km/s) = 3.24775 4.83816 2.53573
#
# Compressibility (1/GPa) = 0.06402362
#
# Stress axis : x y z
#
# Youngs Moduli (GPa) = 133.33410 51.19169 38.56600
#
# Poissons Ratio (x) = -0.12344 0.07625
# Poissons Ratio (y) = -0.32151 -0.19651
# Poissons Ratio (z) = 0.26360 -0.26085
#
# Static dielectric constant tensor:
#      x y z
#    x 1.802000 0.000000 0.000000 
#    y 0.000000 1.707360 0.000000 
#    z 0.000000 0.000000 1.720060 
# 
# From -- ./inp_files/36101.got.cif
#   From: 2010.05.17/outbox.cif.g08.bks.cpg/sg24_19_cif.got.tgz:36101.got - 2010.06.04 00:33:39.
