data_PCOD9335028
_publ_section_title
;
Structure prediction by ZEFSAII (Michael W. Deem and Ramdas Pophale) SiO2 
 PCOD9335028
Probable space group: I 21 21 21
;
_chemical_formula_sum "Si O2"
_cell_formula_units_Z 36
_cell_length_a 12.388847
_cell_length_b 10.376365
_cell_length_c 13.579215
_cell_angle_alpha 90.000000
_cell_angle_beta 90.000000
_cell_angle_gamma 90.000000
_cell_volume 1745.624362
_symmetry_space_group_name_H-M "I 21 21 21"
_symmetry_group_IT_number 24
_symmetry_cell_setting 'orthorhombic'
loop_
_space_group_symop_operation_xyz
x,y,z
-x,1/2-y,z
x,-y,1/2-z
1/2-x,y,-z
1/2+x,1/2+y,1/2+z
1/2-x,-y,1/2+z
1/2+x,1/2-y,-z
-x,1/2+y,1/2-z
loop_
_atom_site_type_symbol
_atom_site_label
_atom_site_fract_x
_atom_site_fract_y
_atom_site_fract_z
Si Si1 0.500000 0.250000 0.314020
Si Si2 0.780005 0.667072 0.330212
Si Si3 0.500000 0.750000 0.564850
Si Si4 0.343452 0.404896 0.068800
Si Si5 0.924688 0.000000 0.750000
Si Si6 0.785942 0.622536 0.887706
O O1 0.485557 0.368481 0.239099
O O2 0.403154 0.189511 0.377480
O O3 0.708084 0.781353 0.375841
O O4 0.775883 0.674093 0.211062
O O5 0.727786 0.532225 0.367812
O O6 0.901477 0.688872 0.371773
O O7 0.444263 0.642064 0.495733
O O8 0.363510 0.513918 0.148900
O O9 0.250000 0.455340 0.000000
O O10 0.750000 0.645630 0.000000
#
# Coordination Sequence:
#
# PCOD9335028 Si02
#       6
#     4   8   4   8   4   8
#     4  12  27  41  74  96 142 180 231 291 362 408
#     4  10  22  44  68 104 136 182 239 287 341 433
#     4  10  21  39  72 100 132 190 229 285 340 432
#     4  10  22  40  66  98 134 177 235 283 349 421
#     4  12  24  42  66 104 130 182 230 298 340 430
#     4  11  24  43  69 102 141 181 229 293 361 414
#
# _framework density 20.622993000000001
#
# number of rings (size 3 to 8) (size 9 to 14) (size 15 to 20)
#    0.000    1.333    2.222    4.000    6.222    1.778 
#    0.000    8.889    0.000    0.000    0.000    0.000 
#    0.000    0.000    0.000    0.000    0.000    0.000 
#
# Total GULP energy -100280.686994 kJ/mol
# GULP energy per Si atom -5571.149277 kJ/mol
# Density = 2.057605 g / cm^3
# Si number density = 20.622993 Si / 1000 Ang^3
#
#
#
# Elastic Constant Matrix: (Units=GPa)
#
#
# Indices 1 2 3 4 5 6 
#
# 1 114.3495 25.4290 53.8108 0.0000 0.0000 0.0000
# 2 25.4290 77.4043 7.5370 0.0000 0.0000 0.0000
# 3 53.8108 7.5370 160.9263 0.0000 0.0000 0.0000
# 4 0.0000 0.0000 0.0000 169.4136 0.0000 0.0000
# 5 0.0000 0.0000 0.0000 0.0000 31.1289 0.0000
# 6 0.0000 0.0000 0.0000 0.0000 0.0000 18.4721
#
#
#
# Elastic Compliance Matrix: (Units=1/GPa)
#
#
# Indices 1 2 3 4 5 6 
#
# 1 0.011168 -0.003320 -0.003579 0.000000 0.000000 0.000000
# 2 -0.003320 0.013966 0.000456 0.000000 0.000000 0.000000
# 3 -0.003579 0.000456 0.007389 0.000000 0.000000 0.000000
# 4 0.000000 0.000000 0.000000 0.005903 0.000000 0.000000
# 5 0.000000 0.000000 0.000000 0.000000 0.032125 0.000000
# 6 0.000000 0.000000 0.000000 0.000000 0.000000 0.054136
#
#
# Mechanical properties :
#
#
# Convention : Reuss Voigt Hill
#
# Bulk Modulus (GPa) = 50.92502 58.47041 54.69772
# Shear Modulus (GPa) = 34.69412 61.52980 48.11196
#
# Velocity S-wave (km/s) = 4.10604 5.46812 4.83528
# Velocity P-wave (km/s) = 6.87214 8.26321 7.59957
#
# Compressibility (1/GPa) = 0.01963671
#
# Stress axis : x y z
#
# Youngs Moduli (GPa) = 89.54493 71.60467 135.33044
#
# Poissons Ratio (x) = 0.23775 0.48431
# Poissons Ratio (y) = 0.29732 -0.06174
# Poissons Ratio (z) = 0.32046 -0.03266
#
# Static dielectric constant tensor:
#      x y z
#    x 1.409800 0.000000 0.000000 
#    y 0.000000 1.956300 0.000000 
#    z 0.000000 0.000000 2.149070 
# 
# From -- ./inp_files/19237.got.cif
#   From: 2010.05.17/outbox.cif.g08.bks.cpg/sg24_10_cif.got.tgz:19237.got - 2010.06.04 00:33:39.
