data_PCOD9335443
_publ_section_title
;
Structure prediction by ZEFSAII (Michael W. Deem and Ramdas Pophale) SiO2 
 PCOD9335443
Probable space group: I 21 21 21
;
_chemical_formula_sum "Si O2"
_cell_formula_units_Z 52
_cell_length_a 16.354254
_cell_length_b 19.861267
_cell_length_c 8.137423
_cell_angle_alpha 90.000000
_cell_angle_beta 90.000000
_cell_angle_gamma 90.000000
_cell_volume 2643.166860
_symmetry_space_group_name_H-M "I 21 21 21"
_symmetry_group_IT_number 24
_symmetry_cell_setting 'orthorhombic'
loop_
_space_group_symop_operation_xyz
x,y,z
-x,1/2-y,z
x,-y,1/2-z
1/2-x,y,-z
1/2+x,1/2+y,1/2+z
1/2-x,-y,1/2+z
1/2+x,1/2-y,-z
-x,1/2+y,1/2-z
loop_
_atom_site_type_symbol
_atom_site_label
_atom_site_fract_x
_atom_site_fract_y
_atom_site_fract_z
Si Si1 0.000000 0.250000 0.453444
Si Si2 0.525808 0.000000 0.750000
Si Si3 0.659023 0.223622 0.370859
Si Si4 0.629152 0.003593 0.076534
Si Si5 0.032923 0.145381 0.188419
Si Si6 0.750000 0.896080 0.000000
Si Si7 0.201520 0.776143 0.338925
Si Si8 0.119533 0.657749 0.522373
O O1 0.918538 0.261521 0.557724
O O2 0.009628 0.314436 0.336775
O O3 0.581507 0.017583 0.589974
O O4 0.472648 0.934211 0.712683
O O5 0.679361 0.161290 0.492799
O O6 0.737671 0.267842 0.315308
O O7 0.632817 0.191039 0.197820
O O8 0.580619 0.000000 0.250000
O O9 0.648726 0.080938 0.033531
O O10 0.704249 0.952454 0.110660
O O11 0.122702 0.177173 0.181636
O O12 0.975283 0.159775 0.031236
O O13 0.250000 0.800531 0.500000
O O14 0.169686 0.701481 0.389990
#
# Coordination Sequence:
#
# PCOD9335443 Si02
#       8
#     4   4   8   8   8   4   8   8
#     4  12  24  40  68  94 132 170 216 274 330 396
#     4  10  26  42  70  90 136 176 224 268 344 398
#     4  11  25  38  62  96 129 165 219 270 325 391
#     4  11  24  39  59  95 139 182 212 256 325 412
#     4  11  22  44  66  94 127 175 217 273 334 395
#     4  12  24  36  58  94 138 170 204 262 324 392
#     4  10  22  39  67  93 123 166 224 280 323 385
#     4  10  22  40  61  93 131 176 217 257 324 404
#
# _framework density 19.673369999999998
#
# number of rings (size 3 to 8) (size 9 to 14) (size 15 to 20)
#    0.000    1.231    3.077    1.846   12.923    0.000 
#    0.000    0.000    3.385    0.000    0.000    0.000 
#    0.000    0.000    0.000    0.000    0.000    0.000 
#
# Total GULP energy -144778.396153 kJ/mol
# GULP energy per Si atom -5568.399852 kJ/mol
# Density = 1.962859 g / cm^3
# Si number density = 19.673370 Si / 1000 Ang^3
#
#
#
# Elastic Constant Matrix: (Units=GPa)
#
#
# Indices 1 2 3 4 5 6 
#
# 1 119.3145 37.9888 52.1705 0.0000 0.0000 0.0000
# 2 37.9888 77.4471 24.7275 0.0000 0.0000 0.0000
# 3 52.1705 24.7275 88.8289 0.0000 0.0000 0.0000
# 4 0.0000 0.0000 0.0000 19.6144 0.0000 0.0000
# 5 0.0000 0.0000 0.0000 0.0000 33.0369 0.0000
# 6 0.0000 0.0000 0.0000 0.0000 0.0000 5.5963
#
#
#
# Elastic Compliance Matrix: (Units=1/GPa)
#
#
# Indices 1 2 3 4 5 6 
#
# 1 0.012365 -0.004112 -0.006118 0.000000 0.000000 0.000000
# 2 -0.004112 0.015539 -0.001911 0.000000 0.000000 0.000000
# 3 -0.006118 -0.001911 0.015382 0.000000 0.000000 0.000000
# 4 0.000000 0.000000 0.000000 0.050983 0.000000 0.000000
# 5 0.000000 0.000000 0.000000 0.000000 0.030269 0.000000
# 6 0.000000 0.000000 0.000000 0.000000 0.000000 0.178691
#
#
# Mechanical properties :
#
#
# Convention : Reuss Voigt Hill
#
# Bulk Modulus (GPa) = 52.61428 57.26267 54.93847
# Shear Modulus (GPa) = 14.97696 23.02976 19.00336
#
# Velocity S-wave (km/s) = 2.76213 3.42512 3.11133
# Velocity P-wave (km/s) = 6.08066 6.69416 6.39477
#
# Compressibility (1/GPa) = 0.01900625
#
# Stress axis : x y z
#
# Youngs Moduli (GPa) = 80.87048 64.35382 65.00910
#
# Poissons Ratio (x) = 0.26463 0.39771
# Poissons Ratio (y) = 0.33255 0.12420
# Poissons Ratio (z) = 0.49474 0.12295
#
# Static dielectric constant tensor:
#      x y z
#    x 1.730330 0.000000 0.000000 
#    y 0.000000 1.676230 0.000000 
#    z 0.000000 0.000000 1.774820 
# 
# From -- ./inp_files/13109.got.cif
#   From: 2010.05.17/outbox.cif.g08.bks.cpg/sg24_7_cif.got.tgz:13109.got - 2010.06.04 00:33:39.
