data_PCOD9335093
_publ_section_title
;
Structure prediction by ZEFSAII (Michael W. Deem and Ramdas Pophale) SiO2 
 PCOD9335093
Probable space group: I 21 21 21
;
_chemical_formula_sum "Si O2"
_cell_formula_units_Z 40
_cell_length_a 8.505288
_cell_length_b 19.183894
_cell_length_c 11.833606
_cell_angle_alpha 90.000000
_cell_angle_beta 90.000000
_cell_angle_gamma 90.000000
_cell_volume 1930.824920
_symmetry_space_group_name_H-M "I 21 21 21"
_symmetry_group_IT_number 24
_symmetry_cell_setting 'orthorhombic'
loop_
_space_group_symop_operation_xyz
x,y,z
-x,1/2-y,z
x,-y,1/2-z
1/2-x,y,-z
1/2+x,1/2+y,1/2+z
1/2-x,-y,1/2+z
1/2+x,1/2-y,-z
-x,1/2+y,1/2-z
loop_
_atom_site_type_symbol
_atom_site_label
_atom_site_fract_x
_atom_site_fract_y
_atom_site_fract_z
Si Si1 0.491029 0.035774 0.010056
Si Si2 0.112367 0.896838 0.909159
Si Si3 0.000000 0.250000 0.669175
Si Si4 0.750000 0.854424 0.500000
Si Si5 0.673671 0.252690 0.806411
Si Si6 0.785578 0.586648 0.330188
O O1 0.621678 0.091260 0.043970
O O2 0.347334 0.058719 0.087949
O O3 0.508793 0.955588 0.046339
O O4 0.440632 0.047005 0.878396
O O5 0.208112 0.917826 0.794378
O O6 0.029396 0.822477 0.894849
O O7 0.250000 0.891164 0.000000
O O8 0.835921 0.240894 0.738122
O O9 0.677162 0.803940 0.594131
O O10 0.500000 0.250000 0.748327
O O11 0.686524 0.331576 0.850685
#
# Coordination Sequence:
#
# PCOD9335093 Si02
#       6
#     8   8   4   4   8   8
#     4  11  22  38  68 100 133 175 217 289 356 411
#     4  11  23  45  72  92 132 188 234 289 345 414
#     4  10  26  48  66  98 130 190 242 282 338 410
#     4  12  22  36  62 112 140 166 228 290 362 416
#     4  11  22  39  69 102 141 182 222 288 349 416
#     4  10  21  40  67  94 130 176 230 268 340 422
#
# _framework density 20.716532000000001
#
# number of rings (size 3 to 8) (size 9 to 14) (size 15 to 20)
#    0.000    1.200    4.000    4.200    1.400    0.000 
#    9.000    0.000    8.800    0.000    0.000    0.000 
#    0.000    0.000    0.000    0.000    0.000    0.000 
#
# Total GULP energy -111415.832393 kJ/mol
# GULP energy per Si atom -5570.791620 kJ/mol
# Density = 2.066938 g / cm^3
# Si number density = 20.716532 Si / 1000 Ang^3
#
#
#
# Elastic Constant Matrix: (Units=GPa)
#
#
# Indices 1 2 3 4 5 6 
#
# 1 76.9835 25.1698 21.5781 0.0000 0.0000 0.0000
# 2 25.1698 170.4151 46.5174 0.0000 0.0000 0.0000
# 3 21.5781 46.5174 90.3114 0.0000 0.0000 0.0000
# 4 0.0000 0.0000 0.0000 15.3915 0.0000 0.0000
# 5 0.0000 0.0000 0.0000 0.0000 8.4207 0.0000
# 6 0.0000 0.0000 0.0000 0.0000 0.0000 37.9743
#
#
#
# Elastic Compliance Matrix: (Units=1/GPa)
#
#
# Indices 1 2 3 4 5 6 
#
# 1 0.014189 -0.001362 -0.002689 0.000000 0.000000 0.000000
# 2 -0.001362 0.006959 -0.003259 0.000000 0.000000 0.000000
# 3 -0.002689 -0.003259 0.013394 0.000000 0.000000 0.000000
# 4 0.000000 0.000000 0.000000 0.064971 0.000000 0.000000
# 5 0.000000 0.000000 0.000000 0.000000 0.118755 0.000000
# 6 0.000000 0.000000 0.000000 0.000000 0.000000 0.026334
#
#
# Mechanical properties :
#
#
# Convention : Reuss Voigt Hill
#
# Bulk Modulus (GPa) = 50.19451 58.24895 54.22173
# Shear Modulus (GPa) = 18.80691 28.65363 23.73027
#
# Velocity S-wave (km/s) = 3.01628 3.72308 3.38816
# Velocity P-wave (km/s) = 6.03427 6.83081 6.44485
#
# Compressibility (1/GPa) = 0.01992250
#
# Stress axis : x y z
#
# Youngs Moduli (GPa) = 70.47901 143.70470 74.66138
#
# Poissons Ratio (x) = 0.19568 0.20074
# Poissons Ratio (y) = 0.09597 0.24332
# Poissons Ratio (z) = 0.18950 0.46832
#
# Static dielectric constant tensor:
#      x y z
#    x 1.860600 0.000000 0.000000 
#    y 0.000000 1.784670 0.000000 
#    z 0.000000 0.000000 1.807440 
# 
# From -- ./inp_files/13864.got.cif
#   From: 2010.05.17/outbox.cif.g08.bks.cpg/sg24_7_cif.got.tgz:13864.got - 2010.06.04 00:33:39.
