data_PCOD9335916
_publ_section_title
;
Structure prediction by ZEFSAII (Michael W. Deem and Ramdas Pophale) SiO2 
 PCOD9335916
Probable space group: I 21 21 21
;
_chemical_formula_sum "Si O2"
_cell_formula_units_Z 56
_cell_length_a 9.079081
_cell_length_b 16.453603
_cell_length_c 17.726428
_cell_angle_alpha 90.000000
_cell_angle_beta 90.000000
_cell_angle_gamma 90.000000
_cell_volume 2648.037530
_symmetry_space_group_name_H-M "I 21 21 21"
_symmetry_group_IT_number 24
_symmetry_cell_setting 'orthorhombic'
loop_
_space_group_symop_operation_xyz
x,y,z
-x,1/2-y,z
x,-y,1/2-z
1/2-x,y,-z
1/2+x,1/2+y,1/2+z
1/2-x,-y,1/2+z
1/2+x,1/2-y,-z
-x,1/2+y,1/2-z
loop_
_atom_site_type_symbol
_atom_site_label
_atom_site_fract_x
_atom_site_fract_y
_atom_site_fract_z
Si Si1 0.866723 0.621708 0.678199
Si Si2 0.175455 0.761551 0.425122
Si Si3 0.136617 0.698884 0.212377
Si Si4 0.205520 0.386585 0.852484
Si Si5 0.067030 0.525832 0.164040
Si Si6 0.739015 0.522375 0.913034
Si Si7 0.867928 0.315455 0.650417
O O1 0.749650 0.684932 0.641718
O O2 0.810341 0.534482 0.651377
O O3 0.886505 0.643601 0.766237
O O4 0.031319 0.622493 0.645244
O O5 0.250000 0.797222 0.500000
O O6 0.231781 0.669962 0.416915
O O7 0.000000 0.750000 0.426384
O O8 0.236795 0.657749 0.276406
O O9 0.226092 0.759327 0.160580
O O10 0.000000 0.750000 0.245199
O O11 0.086782 0.621785 0.165184
O O12 0.284866 0.474303 0.853216
O O13 0.023920 0.500000 0.250000
O O14 0.933048 0.513151 0.107755
O O15 0.820858 0.610045 0.903784
O O16 0.750000 0.496361 0.000000
O O17 0.000000 0.250000 0.634403
#
# Coordination Sequence:
#
# PCOD9335916 Si02
#       7
#     8   8   8   8   8   8   8
#     4  12  24  43  72 103 138 178 234 302 355 428
#     4  12  24  40  64  96 140 187 228 282 356 433
#     4  11  21  40  70 102 131 170 230 294 350 418
#     4  11  23  39  66 103 140 172 232 290 362 423
#     4  10  23  42  69 100 134 178 231 290 351 424
#     4  12  28  47  65  99 143 193 237 286 367 436
#     4  12  24  44  75 103 136 177 240 302 359 418
#
# _framework density 21.147735000000001
#
# number of rings (size 3 to 8) (size 9 to 14) (size 15 to 20)
#    0.000    0.571    4.286    4.286    4.000    2.286 
#    2.571    0.000    0.000    0.000    0.000    0.000 
#    0.000    0.000    0.000    0.000    0.000    0.000 
#
# Total GULP energy -156207.450734 kJ/mol
# GULP energy per Si atom -5578.837526 kJ/mol
# Density = 2.109960 g / cm^3
# Si number density = 21.147735 Si / 1000 Ang^3
#
#
#
# Elastic Constant Matrix: (Units=GPa)
#
#
# Indices 1 2 3 4 5 6 
#
# 1 152.1563 40.0654 11.5947 0.0000 0.0000 0.0000
# 2 40.0654 111.0122 2.2078 0.0000 0.0000 0.0000
# 3 11.5947 2.2078 43.4703 0.0000 0.0000 0.0000
# 4 0.0000 0.0000 0.0000 15.0226 0.0000 0.0000
# 5 0.0000 0.0000 0.0000 0.0000 -0.9439 0.0000
# 6 0.0000 0.0000 0.0000 0.0000 0.0000 26.3379
#
#
#
# Elastic Compliance Matrix: (Units=1/GPa)
#
#
# Indices 1 2 3 4 5 6 
#
# 1 0.007407 -0.002637 -0.001842 0.000000 0.000000 0.000000
# 2 -0.002637 0.009956 0.000198 0.000000 0.000000 0.000000
# 3 -0.001842 0.000198 0.023485 0.000000 0.000000 0.000000
# 4 0.000000 0.000000 0.000000 0.066566 0.000000 0.000000
# 5 0.000000 0.000000 0.000000 0.000000 -1.059417 0.000000
# 6 0.000000 0.000000 0.000000 0.000000 0.000000 0.037968
#
#
# Mechanical properties :
#
#
# Convention : Reuss Voigt Hill
#
# Bulk Modulus (GPa) = 30.97261 46.04161 38.50711
# Shear Modulus (GPa) = -5.58840 24.93470 9.67315
#
# Velocity S-wave (km/s) = -1.62736 3.43749 2.14103
# Velocity P-wave (km/s) = 3.33865 6.12974 4.93560
#
# Compressibility (1/GPa) = 0.03228660
#
# Stress axis : x y z
#
# Youngs Moduli (GPa) = 135.01145 100.44548 42.57961
#
# Poissons Ratio (x) = 0.26483 0.07842
# Poissons Ratio (y) = 0.35597 -0.00841
# Poissons Ratio (z) = 0.24865 -0.01985
#
# Static dielectric constant tensor:
#      x y z
#    x 1.729250 0.000000 0.000000 
#    y 0.000000 1.871700 0.000000 
#    z 0.000000 0.000000 1.875870 
# 
# From -- ./inp_files/32833.got.cif
#   From: 2010.05.17/outbox.cif.g08.bks.cpg/sg24_17_cif.got.tgz:32833.got - 2010.06.04 00:33:39.
