data_PCOD9335863
_publ_section_title
;
Structure prediction by ZEFSAII (Michael W. Deem and Ramdas Pophale) SiO2 
 PCOD9335863
Probable space group: I 21 21 21
;
_chemical_formula_sum "Si O2"
_cell_formula_units_Z 32
_cell_length_a 15.924815
_cell_length_b 10.588063
_cell_length_c 8.667950
_cell_angle_alpha 90.000000
_cell_angle_beta 90.000000
_cell_angle_gamma 90.000000
_cell_volume 1461.528572
_symmetry_space_group_name_H-M "I 21 21 21"
_symmetry_group_IT_number 24
_symmetry_cell_setting 'orthorhombic'
loop_
_space_group_symop_operation_xyz
x,y,z
-x,1/2-y,z
x,-y,1/2-z
1/2-x,y,-z
1/2+x,1/2+y,1/2+z
1/2-x,-y,1/2+z
1/2+x,1/2-y,-z
-x,1/2+y,1/2-z
loop_
_atom_site_type_symbol
_atom_site_label
_atom_site_fract_x
_atom_site_fract_y
_atom_site_fract_z
Si Si1 0.249563 0.863041 0.684851
Si Si2 0.809483 0.119342 0.353231
Si Si3 0.997285 0.384848 0.354569
Si Si4 0.939202 0.636658 0.807150
O O1 0.250000 0.864277 0.500000
O O2 0.302646 0.747532 0.753890
O O3 0.154024 0.843430 0.743899
O O4 0.275545 0.000000 0.750000
O O5 0.750000 0.132475 0.500000
O O6 0.905576 0.092349 0.402225
O O7 0.782161 0.000000 0.250000
O O8 0.970180 0.500000 0.250000
O O9 0.000000 0.250000 0.269781
O O10 0.941750 0.369248 0.507038
O O11 0.969285 0.500000 0.750000
O O12 0.000000 0.750000 0.758980
#
# Coordination Sequence:
#
# PCOD9335863 Si02
#       4
#     8   8   8   8
#     4  11  25  44  67  95 127 167 214 265 321 379
#     4  11  23  40  65  96 131 170 213 261 313 375
#     4  10  23  40  62  93 126 165 210 259 312 373
#     4  10  23  42  64  92 126 166 210 259 314 375
#
# _framework density 21.894887000000001
#
# number of rings (size 3 to 8) (size 9 to 14) (size 15 to 20)
#    0.000    1.500    0.000    4.500    0.000   18.000 
#    0.000    0.000    0.000    0.000    0.000    0.000 
#    0.000    0.000    0.000    0.000    0.000    0.000 
#
# Total GULP energy -89555.795307 kJ/mol
# GULP energy per Si atom -5597.237207 kJ/mol
# Density = 2.184505 g / cm^3
# Si number density = 21.894887 Si / 1000 Ang^3
#
#
#
# Elastic Constant Matrix: (Units=GPa)
#
#
# Indices 1 2 3 4 5 6 
#
# 1 118.5902 22.9934 51.7317 0.0000 0.0000 0.0000
# 2 22.9934 167.7165 46.8360 0.0000 0.0000 0.0000
# 3 51.7317 46.8360 139.7158 0.0000 0.0000 0.0000
# 4 0.0000 0.0000 0.0000 43.9661 0.0000 0.0000
# 5 0.0000 0.0000 0.0000 0.0000 -23.3435 0.0000
# 6 0.0000 0.0000 0.0000 0.0000 0.0000 16.0400
#
#
#
# Elastic Compliance Matrix: (Units=1/GPa)
#
#
# Indices 1 2 3 4 5 6 
#
# 1 0.010078 -0.000375 -0.003606 0.000000 0.000000 0.000000
# 2 -0.000375 0.006592 -0.002071 0.000000 0.000000 0.000000
# 3 -0.003606 -0.002071 0.009187 0.000000 0.000000 0.000000
# 4 0.000000 0.000000 0.000000 0.022745 0.000000 0.000000
# 5 0.000000 0.000000 0.000000 0.000000 -0.042839 0.000000
# 6 0.000000 0.000000 0.000000 0.000000 0.000000 0.062344
#
#
# Mechanical properties :
#
#
# Convention : Reuss Voigt Hill
#
# Bulk Modulus (GPa) = 72.70840 74.34941 73.52890
# Shear Modulus (GPa) = 58.96555 27.62996 43.29776
#
# Velocity S-wave (km/s) = 5.19516 3.55623 4.45177
# Velocity P-wave (km/s) = 8.32263 7.13397 7.75112
#
# Compressibility (1/GPa) = 0.01375357
#
# Stress axis : x y z
#
# Youngs Moduli (GPa) = 99.22569 151.69468 108.85153
#
# Poissons Ratio (x) = 0.05684 0.39251
# Poissons Ratio (y) = 0.03718 0.22545
# Poissons Ratio (z) = 0.35780 0.31418
#
# Static dielectric constant tensor:
#      x y z
#    x 1.822800 0.000000 0.000000 
#    y 0.000000 1.825860 0.000000 
#    z 0.000000 0.000000 1.765760 
# 
# From -- ./inp_files/10218.got.cif
#   From: 2010.05.17/outbox.cif.g08.bks.cpg/sg24_6_cif.got.tgz:10218.got - 2010.06.04 00:33:39.
