data_PCOD9335258
_publ_section_title
;
Structure prediction by ZEFSAII (Michael W. Deem and Ramdas Pophale) SiO2 
 PCOD9335258
Probable space group: I 21 21 21
;
_chemical_formula_sum "Si O2"
_cell_formula_units_Z 32
_cell_length_a 18.503561
_cell_length_b 12.037369
_cell_length_c 7.580816
_cell_angle_alpha 90.000000
_cell_angle_beta 90.000000
_cell_angle_gamma 90.000000
_cell_volume 1688.506923
_symmetry_space_group_name_H-M "I 21 21 21"
_symmetry_group_IT_number 24
_symmetry_cell_setting 'orthorhombic'
loop_
_space_group_symop_operation_xyz
x,y,z
-x,1/2-y,z
x,-y,1/2-z
1/2-x,y,-z
1/2+x,1/2+y,1/2+z
1/2-x,-y,1/2+z
1/2+x,1/2-y,-z
-x,1/2+y,1/2-z
loop_
_atom_site_type_symbol
_atom_site_label
_atom_site_fract_x
_atom_site_fract_y
_atom_site_fract_z
Si Si1 0.250000 0.232252 0.000000
Si Si2 0.078035 0.705169 0.954498
Si Si3 0.984035 0.000000 0.750000
Si Si4 0.702501 0.121978 0.676894
Si Si5 0.376728 0.111574 0.168497
O O1 0.242067 0.308561 0.171953
O O2 0.322802 0.160191 0.024531
O O3 0.063670 0.589104 0.852706
O O4 0.110514 0.795267 0.818363
O O5 0.000000 0.750000 0.009797
O O6 0.130290 0.683983 0.116446
O O7 0.041588 0.932249 0.625873
O O8 0.750000 0.113130 0.500000
O O9 0.686820 0.000000 0.750000
O O10 0.341774 0.000000 0.250000
#
# Coordination Sequence:
#
# PCOD9335258 Si02
#       5
#     4   8   4   8   8
#     4  12  24  42  68  96 134 174 214 270 338 388
#     4  10  21  44  64  94 135 168 220 272 321 390
#     4   8  20  40  70  90 132 176 210 274 330 372
#     4  12  26  43  69  98 131 171 223 277 329 389
#     4   9  21  40  65  98 126 177 210 264 327 386
#
# _framework density 18.951654999999999
#
# number of rings (size 3 to 8) (size 9 to 14) (size 15 to 20)
#    0.750    1.000    3.750    0.000    5.250    2.000 
#    4.500    0.000    0.000    0.000    0.000    0.000 
#    0.000    0.000    0.000    0.000    0.000    0.000 
#
# Total GULP energy -89174.344465 kJ/mol
# GULP energy per Si atom -5573.396529 kJ/mol
# Density = 1.890852 g / cm^3
# Si number density = 18.951655 Si / 1000 Ang^3
#
#
#
# Elastic Constant Matrix: (Units=GPa)
#
#
# Indices 1 2 3 4 5 6 
#
# 1 72.9442 26.1580 33.4109 0.0000 0.0000 0.0000
# 2 26.1580 114.1796 39.1495 0.0000 0.0000 0.0000
# 3 33.4109 39.1495 74.9079 0.0000 0.0000 0.0000
# 4 0.0000 0.0000 0.0000 18.6828 0.0000 0.0000
# 5 0.0000 0.0000 0.0000 0.0000 30.0717 0.0000
# 6 0.0000 0.0000 0.0000 0.0000 0.0000 4.8719
#
#
#
# Elastic Compliance Matrix: (Units=1/GPa)
#
#
# Indices 1 2 3 4 5 6 
#
# 1 0.017472 -0.001621 -0.006946 0.000000 0.000000 0.000000
# 2 -0.001621 0.010821 -0.004932 0.000000 0.000000 0.000000
# 3 -0.006946 -0.004932 0.019025 0.000000 0.000000 0.000000
# 4 0.000000 0.000000 0.000000 0.053525 0.000000 0.000000
# 5 0.000000 0.000000 0.000000 0.000000 0.033254 0.000000
# 6 0.000000 0.000000 0.000000 0.000000 0.000000 0.205258
#
#
# Mechanical properties :
#
#
# Convention : Reuss Voigt Hill
#
# Bulk Modulus (GPa) = 49.21281 51.05205 50.13243
# Shear Modulus (GPa) = 13.40031 21.61284 17.50658
#
# Velocity S-wave (km/s) = 2.66198 3.38067 3.04262
# Velocity P-wave (km/s) = 5.95585 6.49886 6.23327
#
# Compressibility (1/GPa) = 0.02031991
#
# Stress axis : x y z
#
# Youngs Moduli (GPa) = 57.23514 92.41580 52.56146
#
# Poissons Ratio (x) = 0.14983 0.36507
# Poissons Ratio (y) = 0.09279 0.25924
# Poissons Ratio (z) = 0.39753 0.45581
#
# Static dielectric constant tensor:
#      x y z
#    x 1.685960 0.000000 0.000000 
#    y 0.000000 1.659580 0.000000 
#    z 0.000000 0.000000 1.635000 
# 
# From -- ./inp_files/13800.got.cif
#   From: 2010.05.17/outbox.cif.g08.bks.cpg/sg24_7_cif.got.tgz:13800.got - 2010.06.04 00:33:39.
