data_PCOD9335719
_publ_section_title
;
Structure prediction by ZEFSAII (Michael W. Deem and Ramdas Pophale) SiO2 
 PCOD9335719
Probable space group: I 21 21 21
;
_chemical_formula_sum "Si O2"
_cell_formula_units_Z 40
_cell_length_a 11.904350
_cell_length_b 28.832407
_cell_length_c 5.915046
_cell_angle_alpha 90.000000
_cell_angle_beta 90.000000
_cell_angle_gamma 90.000000
_cell_volume 2030.227534
_symmetry_space_group_name_H-M "I 21 21 21"
_symmetry_group_IT_number 24
_symmetry_cell_setting 'orthorhombic'
loop_
_space_group_symop_operation_xyz
x,y,z
-x,1/2-y,z
x,-y,1/2-z
1/2-x,y,-z
1/2+x,1/2+y,1/2+z
1/2-x,-y,1/2+z
1/2+x,1/2-y,-z
-x,1/2+y,1/2-z
loop_
_atom_site_type_symbol
_atom_site_label
_atom_site_fract_x
_atom_site_fract_y
_atom_site_fract_z
Si Si1 0.877022 0.597911 0.402255
Si Si2 0.376039 0.184753 0.582245
Si Si3 0.140902 0.728335 0.364789
Si Si4 0.456849 0.653371 0.290209
Si Si5 0.250000 0.661299 0.000000
Si Si6 0.684638 0.500000 0.750000
O O1 0.750000 0.601085 0.500000
O O2 0.885407 0.546425 0.300930
O O3 0.970954 0.613451 0.584311
O O4 0.882779 0.635789 0.206783
O O5 0.250000 0.193651 0.500000
O O6 0.407630 0.225228 0.754524
O O7 0.459171 0.180442 0.374653
O O8 0.250000 0.746289 0.500000
O O9 0.083140 0.692971 0.537394
O O10 0.180885 0.694854 0.164254
O O11 0.345885 0.636408 0.151966
O O12 0.750000 0.492870 0.500000
#
# Coordination Sequence:
#
# PCOD9335719 Si02
#       6
#     8   8   8   8   4   4
#     4  11  23  41  66  99 139 178 224 286 358 430
#     4  12  23  40  62  93 136 181 227 280 347 416
#     4  10  23  42  58  87 131 183 233 279 326 398
#     4  11  25  41  63  93 137 182 237 284 336 418
#     4  10  22  44  60  86 132 180 236 274 334 394
#     4  10  24  44  72 104 150 184 220 282 366 448
#
# _framework density 19.702224000000001
#
# number of rings (size 3 to 8) (size 9 to 14) (size 15 to 20)
#    0.000    1.200    3.000    2.400    2.800    4.800 
#    3.600    0.000    0.000    0.000    0.000    0.000 
#  135.000    0.000    0.000    0.000    0.000    0.000 
#
# Total GULP energy -111653.539951 kJ/mol
# GULP energy per Si atom -5582.676998 kJ/mol
# Density = 1.965738 g / cm^3
# Si number density = 19.702224 Si / 1000 Ang^3
#
#
#
# Elastic Constant Matrix: (Units=GPa)
#
#
# Indices 1 2 3 4 5 6 
#
# 1 107.5212 57.7154 60.3334 -0.0013 0.0001 0.0012
# 2 57.7154 147.6806 65.0741 -0.0171 0.0018 0.0034
# 3 60.3334 65.0741 130.7491 -0.0752 0.0146 0.0154
# 4 -0.0013 -0.0171 -0.0752 -22.2105 0.0177 0.0102
# 5 0.0001 0.0018 0.0146 0.0177 62.8265 -0.0024
# 6 0.0012 0.0034 0.0154 0.0102 -0.0024 16.6778
#
#
#
# Elastic Compliance Matrix: (Units=1/GPa)
#
#
# Indices 1 2 3 4 5 6 
#
# 1 0.013693 -0.003288 -0.004682 0.000018 0.000001 0.000004
# 2 -0.003288 0.009463 -0.003193 0.000004 0.000000 0.000001
# 3 -0.004682 -0.003193 0.011398 -0.000036 -0.000003 -0.000010
# 4 0.000018 0.000004 -0.000036 -0.045024 0.000013 0.000027
# 5 0.000001 0.000000 -0.000003 0.000013 0.015917 0.000002
# 6 0.000004 0.000001 -0.000010 0.000027 0.000002 0.059960
#
#
# Mechanical properties :
#
#
# Convention : Reuss Voigt Hill
#
# Bulk Modulus (GPa) = 81.77792 83.57741 82.67767
# Shear Modulus (GPa) = 54.46154 24.98063 39.72108
#
# Velocity S-wave (km/s) = 5.26330 3.56463 4.49494
# Velocity P-wave (km/s) = 8.86191 7.71068 8.30626
#
# Compressibility (1/GPa) = 0.01222824
#
# Stress axis : x y z
#
# Youngs Moduli (GPa) = 73.03171 105.67239 87.73825
#
# Poissons Ratio (x) = 0.34748 0.41078
# Poissons Ratio (y) = 0.24015 0.28010
# Poissons Ratio (z) = 0.34192 0.33736
#
# Static dielectric constant tensor:
#      x y z
#    x 1.926260 -0.000010 0.000140 
#    y -0.000010 1.634500 0.000000 
#    z 0.000140 0.000000 1.624930 
# 
# From -- ./inp_files/2502.got.cif
#   From: 2010.05.17/outbox.cif.g08.bks.cpg/sg24_2_cif.got.tgz:2502.got - 2010.06.04 00:33:39.
