data_PCOD9335467
_publ_section_title
;
Structure prediction by ZEFSAII (Michael W. Deem and Ramdas Pophale) SiO2 
 PCOD9335467
Probable space group: I 21 21 21
;
_chemical_formula_sum "Si O2"
_cell_formula_units_Z 48
_cell_length_a 9.695860
_cell_length_b 25.495040
_cell_length_c 8.501430
_cell_angle_alpha 90.000000
_cell_angle_beta 90.000000
_cell_angle_gamma 90.000000
_cell_volume 2101.522368
_symmetry_space_group_name_H-M "I 21 21 21"
_symmetry_group_IT_number 24
_symmetry_cell_setting 'orthorhombic'
loop_
_space_group_symop_operation_xyz
x,y,z
-x,1/2-y,z
x,-y,1/2-z
1/2-x,y,-z
1/2+x,1/2+y,1/2+z
1/2-x,-y,1/2+z
1/2+x,1/2-y,-z
-x,1/2+y,1/2-z
loop_
_atom_site_type_symbol
_atom_site_label
_atom_site_fract_x
_atom_site_fract_y
_atom_site_fract_z
Si Si1 0.408105 0.704884 0.964908
Si Si2 0.952332 0.550263 0.145926
Si Si3 0.800242 0.904828 0.349203
Si Si4 0.754593 0.619715 0.331284
Si Si5 0.520477 0.103957 0.348270
Si Si6 0.990704 0.192816 0.108846
O O1 0.500000 0.750000 0.040275
O O2 0.459121 0.649517 0.024961
O O3 0.250000 0.713409 0.000000
O O4 0.429003 0.705652 0.779585
O O5 0.910629 0.500000 0.250000
O O6 0.090243 0.568453 0.235842
O O7 0.833620 0.591286 0.190510
O O8 0.979959 0.553538 0.957759
O O9 0.750000 0.937721 0.500000
O O10 0.665033 0.897340 0.243107
O O11 0.885073 0.855363 0.429801
O O12 0.750000 0.590293 0.500000
O O13 0.599075 0.623085 0.270166
O O14 0.855184 0.669042 0.371341
O O15 0.000000 0.250000 0.023764
#
# Coordination Sequence:
#
# PCOD9335467 Si02
#       6
#     8   8   8   8   8   8
#     4  11  22  36  64 101 133 172 229 272 318 384
#     4  11  25  45  68  96 125 164 218 274 338 401
#     4  11  23  43  66  95 134 173 217 271 329 393
#     4  11  25  43  64  96 133 175 220 268 332 393
#     4  12  22  42  71  94 131 174 217 270 328 383
#     4  10  22  40  61  92 136 175 223 271 315 380
#
# _framework density 22.840584
#
# number of rings (size 3 to 8) (size 9 to 14) (size 15 to 20)
#    0.000    1.000    5.000    3.000    4.667    3.333 
#    0.000    4.167    0.000    0.000    0.000    0.000 
#    0.000    0.000    0.000    0.000    0.000    0.000 
#
# Total GULP energy -133750.384083 kJ/mol
# GULP energy per Si atom -5572.932670 kJ/mol
# Density = 2.278860 g / cm^3
# Si number density = 22.840584 Si / 1000 Ang^3
#
#
#
# Elastic Constant Matrix: (Units=GPa)
#
#
# Indices 1 2 3 4 5 6 
#
# 1 136.0636 0.0004 -0.2016 0.0000 0.0001 0.0003
# 2 0.0004 34.2293 -9.9300 0.0000 0.0000 -0.0001
# 3 -0.2016 -9.9300 69.4173 0.0019 0.0016 -0.0014
# 4 0.0000 0.0000 0.0019 6.6142 0.0005 -0.0004
# 5 0.0001 0.0000 0.0016 0.0005 17.3022 0.0001
# 6 0.0003 -0.0001 -0.0014 -0.0004 0.0001 0.6693
#
#
#
# Elastic Compliance Matrix: (Units=1/GPa)
#
#
# Indices 1 2 3 4 5 6 
#
# 1 0.007350 0.000006 0.000022 0.000000 0.000000 -0.000003
# 2 0.000006 0.030480 0.004360 -0.000001 0.000000 0.000015
# 3 0.000022 0.004360 0.015029 -0.000004 -0.000001 0.000033
# 4 0.000000 -0.000001 -0.000004 0.151191 -0.000004 0.000081
# 5 0.000000 0.000000 -0.000001 -0.000004 0.057796 -0.000009
# 6 -0.000003 0.000015 0.000033 0.000081 -0.000009 1.494026
#
#
# Mechanical properties :
#
#
# Convention : Reuss Voigt Hill
#
# Bulk Modulus (GPa) = 16.22433 24.38310 20.30371
# Shear Modulus (GPa) = 2.82863 21.57324 12.20093
#
# Velocity S-wave (km/s) = 1.11405 3.07663 2.31374
# Velocity P-wave (km/s) = 2.96201 4.82901 4.00580
#
# Compressibility (1/GPa) = 0.06163584
#
# Stress axis : x y z
#
# Youngs Moduli (GPa) = 136.06298 32.80884 66.53633
#
# Poissons Ratio (x) = -0.00021 -0.00148
# Poissons Ratio (y) = -0.00087 -0.29010
# Poissons Ratio (z) = -0.00303 -0.14305
#
# Static dielectric constant tensor:
#      x y z
#    x 1.920160 0.000000 0.000000 
#    y 0.000000 2.026420 0.000000 
#    z 0.000000 0.000000 1.839270 
# 
# From -- ./inp_files/9755.got.cif
#   From: 2010.05.17/outbox.cif.g08.bks.cpg/sg24_5_cif.got.tgz:9755.got - 2010.06.04 00:33:39.
