data_PCOD9335137
_publ_section_title
;
Structure prediction by ZEFSAII (Michael W. Deem and Ramdas Pophale) SiO2 
 PCOD9335137
Probable space group: I 21 21 21
;
_chemical_formula_sum "Si O2"
_cell_formula_units_Z 56
_cell_length_a 23.957622
_cell_length_b 8.267476
_cell_length_c 12.812365
_cell_angle_alpha 90.000000
_cell_angle_beta 90.000000
_cell_angle_gamma 90.000000
_cell_volume 2537.733155
_symmetry_space_group_name_H-M "I 21 21 21"
_symmetry_group_IT_number 24
_symmetry_cell_setting 'orthorhombic'
loop_
_space_group_symop_operation_xyz
x,y,z
-x,1/2-y,z
x,-y,1/2-z
1/2-x,y,-z
1/2+x,1/2+y,1/2+z
1/2-x,-y,1/2+z
1/2+x,1/2-y,-z
-x,1/2+y,1/2-z
loop_
_atom_site_type_symbol
_atom_site_label
_atom_site_fract_x
_atom_site_fract_y
_atom_site_fract_z
Si Si1 0.423755 0.607994 0.950618
Si Si2 0.185946 0.668324 0.138627
Si Si3 0.139671 0.586628 0.636633
Si Si4 0.457484 0.025747 0.534337
Si Si5 0.337191 0.980676 0.623730
Si Si6 0.449832 0.146403 0.178672
Si Si7 0.767331 0.831339 0.371478
O O1 0.390523 0.520351 0.045828
O O2 0.440524 0.788144 0.987757
O O3 0.481472 0.527312 0.912860
O O4 0.380157 0.632607 0.856469
O O5 0.217418 0.677360 0.248284
O O6 0.209452 0.504126 0.089529
O O7 0.187149 0.845216 0.085026
O O8 0.141985 0.500000 0.750000
O O9 0.100321 0.738518 0.652612
O O10 0.201482 0.653718 0.614881
O O11 0.401656 0.957194 0.588965
O O12 0.470161 0.931117 0.428719
O O13 0.299241 0.829434 0.589863
O O14 0.337143 0.000000 0.750000
O O15 0.500000 0.250000 0.227935
O O16 0.431837 0.000000 0.250000
#
# Coordination Sequence:
#
# PCOD9335137 Si02
#       7
#     8   8   8   8   8   8   8
#     4  10  22  40  69  88 132 168 214 265 331 386
#     4   9  19  41  62  93 127 171 205 268 317 383
#     4  12  24  43  64  92 123 174 220 269 335 386
#     4  10  22  43  65  99 130 169 215 274 325 394
#     4   9  20  40  69  97 134 169 211 264 329 391
#     4  12  26  41  65  92 130 170 220 274 329 385
#     4  10  21  41  66  90 133 168 217 262 324 390
#
# _framework density 22.066938
#
# number of rings (size 3 to 8) (size 9 to 14) (size 15 to 20)
#    0.000    1.714    2.857    1.286    4.000    2.286 
#    5.143    0.000    3.143    0.000    0.000    0.000 
#    0.000    0.000    0.000    0.000    0.000    0.000 
#
# Total GULP energy -156161.496324 kJ/mol
# GULP energy per Si atom -5577.196297 kJ/mol
# Density = 2.201671 g / cm^3
# Si number density = 22.066938 Si / 1000 Ang^3
#
#
#
# Elastic Constant Matrix: (Units=GPa)
#
#
# Indices 1 2 3 4 5 6 
#
# 1 185.8518 59.7662 15.5960 0.0000 0.0000 0.0000
# 2 59.7662 95.3471 -0.8368 0.0000 0.0000 0.0000
# 3 15.5960 -0.8368 49.0268 0.0000 0.0000 0.0000
# 4 0.0000 0.0000 0.0000 7.7108 0.0000 0.0000
# 5 0.0000 0.0000 0.0000 0.0000 37.6117 0.0000
# 6 0.0000 0.0000 0.0000 0.0000 0.0000 56.3018
#
#
#
# Elastic Compliance Matrix: (Units=1/GPa)
#
#
# Indices 1 2 3 4 5 6 
#
# 1 0.006989 -0.004401 -0.002298 0.000000 0.000000 0.000000
# 2 -0.004401 0.013261 0.001626 0.000000 0.000000 0.000000
# 3 -0.002298 0.001626 0.021156 0.000000 0.000000 0.000000
# 4 0.000000 0.000000 0.000000 0.129688 0.000000 0.000000
# 5 0.000000 0.000000 0.000000 0.000000 0.026587 0.000000
# 6 0.000000 0.000000 0.000000 0.000000 0.000000 0.017761
#
#
# Mechanical properties :
#
#
# Convention : Reuss Voigt Hill
#
# Bulk Modulus (GPa) = 31.99008 53.25296 42.62152
# Shear Modulus (GPa) = 21.18571 37.37155 29.27863
#
# Velocity S-wave (km/s) = 3.10185 4.11975 3.64649
# Velocity P-wave (km/s) = 5.23039 6.84212 6.08981
#
# Compressibility (1/GPa) = 0.03125969
#
# Stress axis : x y z
#
# Youngs Moduli (GPa) = 143.08728 75.40981 47.26817
#
# Poissons Ratio (x) = 0.33187 0.10864
# Poissons Ratio (y) = 0.62971 -0.07687
# Poissons Ratio (z) = 0.32886 -0.12264
#
# Static dielectric constant tensor:
#      x y z
#    x 1.810220 0.000000 0.000000 
#    y 0.000000 1.817790 0.000000 
#    z 0.000000 0.000000 1.834700 
# 
# From -- ./inp_files/13134.got.cif
#   From: 2010.05.17/outbox.cif.g08.bks.cpg/sg24_7_cif.got.tgz:13134.got - 2010.06.04 00:33:39.
