data_PCOD9335444
_publ_section_title
;
Structure prediction by ZEFSAII (Michael W. Deem and Ramdas Pophale) SiO2 
 PCOD9335444
Probable space group: I 21 21 21
;
_chemical_formula_sum "Si O2"
_cell_formula_units_Z 48
_cell_length_a 20.428219
_cell_length_b 11.823328
_cell_length_c 8.321795
_cell_angle_alpha 90.000000
_cell_angle_beta 90.000000
_cell_angle_gamma 90.000000
_cell_volume 2009.959266
_symmetry_space_group_name_H-M "I 21 21 21"
_symmetry_group_IT_number 24
_symmetry_cell_setting 'orthorhombic'
loop_
_space_group_symop_operation_xyz
x,y,z
-x,1/2-y,z
x,-y,1/2-z
1/2-x,y,-z
1/2+x,1/2+y,1/2+z
1/2-x,-y,1/2+z
1/2+x,1/2-y,-z
-x,1/2+y,1/2-z
loop_
_atom_site_type_symbol
_atom_site_label
_atom_site_fract_x
_atom_site_fract_y
_atom_site_fract_z
Si Si1 0.364116 0.425344 0.404172
Si Si2 0.120106 0.958192 0.427044
Si Si3 0.750000 0.086394 0.000000
Si Si4 0.873707 0.690916 0.962008
Si Si5 0.353629 0.722801 0.671526
Si Si6 0.466801 0.572506 0.514491
Si Si7 0.000000 0.750000 0.764916
O O1 0.375486 0.500000 0.250000
O O2 0.308279 0.497971 0.482963
O O3 0.341420 0.298267 0.373827
O O4 0.431852 0.450019 0.497062
O O5 0.145375 0.831593 0.446891
O O6 0.040989 0.946933 0.429796
O O7 0.139415 0.000000 0.250000
O O8 0.144184 0.059082 0.542573
O O9 0.783651 0.163411 0.138485
O O10 0.866456 0.733162 0.147379
O O11 0.944530 0.699059 0.879323
O O12 0.415928 0.644649 0.623181
O O13 0.474702 0.650540 0.353968
#
# Coordination Sequence:
#
# PCOD9335444 Si02
#       7
#     8   8   4   8   8   8   4
#     4  11  24  42  62  99 132 174 229 283 339 403
#     4  10  22  39  67  99 138 176 223 282 352 425
#     4  10  26  44  74  82 128 176 236 286 340 384
#     4  11  25  38  65 100 138 170 228 278 344 422
#     4  10  23  45  67  95 129 184 234 284 342 407
#     4  11  22  39  63  94 140 180 218 275 351 411
#     4  12  22  38  60 104 140 184 212 280 346 424
#
# _framework density 23.881080999999998
#
# number of rings (size 3 to 8) (size 9 to 14) (size 15 to 20)
#    0.000    1.333    3.333    1.000    9.333    1.333 
#    0.000    0.833    3.667    0.000    0.000    0.000 
#    0.000    0.000    0.000    0.000    0.000    0.000 
#
# Total GULP energy -133694.808649 kJ/mol
# GULP energy per Si atom -5570.617027 kJ/mol
# Density = 2.382673 g / cm^3
# Si number density = 23.881081 Si / 1000 Ang^3
#
#
#
# Elastic Constant Matrix: (Units=GPa)
#
#
# Indices 1 2 3 4 5 6 
#
# 1 74.7084 21.9669 22.8382 0.0000 0.0000 0.0000
# 2 21.9669 147.7696 13.3310 0.0000 0.0000 0.0000
# 3 22.8382 13.3310 56.6532 0.0000 0.0000 0.0000
# 4 0.0000 0.0000 0.0000 45.0415 0.0000 0.0000
# 5 0.0000 0.0000 0.0000 0.0000 17.9797 0.0000
# 6 0.0000 0.0000 0.0000 0.0000 0.0000 27.6462
#
#
#
# Elastic Compliance Matrix: (Units=1/GPa)
#
#
# Indices 1 2 3 4 5 6 
#
# 1 0.015724 -0.001804 -0.005914 0.000000 0.000000 0.000000
# 2 -0.001804 0.007121 -0.000948 0.000000 0.000000 0.000000
# 3 -0.005914 -0.000948 0.020259 0.000000 0.000000 0.000000
# 4 0.000000 0.000000 0.000000 0.022202 0.000000 0.000000
# 5 0.000000 0.000000 0.000000 0.000000 0.055618 0.000000
# 6 0.000000 0.000000 0.000000 0.000000 0.000000 0.036171
#
#
# Mechanical properties :
#
#
# Convention : Reuss Voigt Hill
#
# Bulk Modulus (GPa) = 38.80424 43.93370 41.36897
# Shear Modulus (GPa) = 27.31975 32.86647 30.09311
#
# Velocity S-wave (km/s) = 3.38596 3.71382 3.55367
# Velocity P-wave (km/s) = 5.61877 6.06850 5.84796
#
# Compressibility (1/GPa) = 0.02577038
#
# Stress axis : x y z
#
# Youngs Moduli (GPa) = 63.59827 140.42935 49.36187
#
# Poissons Ratio (x) = 0.25332 0.29193
# Poissons Ratio (y) = 0.11472 0.04682
# Poissons Ratio (z) = 0.37613 0.13319
#
# Static dielectric constant tensor:
#      x y z
#    x 1.728620 0.000000 0.000000 
#    y 0.000000 2.004460 0.000000 
#    z 0.000000 0.000000 1.949130 
# 
# From -- ./inp_files/15854.got.cif
#   From: 2010.05.17/outbox.cif.g08.bks.cpg/sg24_8_cif.got.tgz:15854.got - 2010.06.04 00:33:39.
