data_PCOD9335381
_publ_section_title
;
Structure prediction by ZEFSAII (Michael W. Deem and Ramdas Pophale) SiO2 
 PCOD9335381
Probable space group: I 21 21 21
;
_chemical_formula_sum "Si O2"
_cell_formula_units_Z 40
_cell_length_a 5.532920
_cell_length_b 22.506352
_cell_length_c 14.590253
_cell_angle_alpha 90.000000
_cell_angle_beta 90.000000
_cell_angle_gamma 90.000000
_cell_volume 1816.863585
_symmetry_space_group_name_H-M "I 21 21 21"
_symmetry_group_IT_number 24
_symmetry_cell_setting 'orthorhombic'
loop_
_space_group_symop_operation_xyz
x,y,z
-x,1/2-y,z
x,-y,1/2-z
1/2-x,y,-z
1/2+x,1/2+y,1/2+z
1/2-x,-y,1/2+z
1/2+x,1/2-y,-z
-x,1/2+y,1/2-z
loop_
_atom_site_type_symbol
_atom_site_label
_atom_site_fract_x
_atom_site_fract_y
_atom_site_fract_z
Si Si1 0.880456 0.583350 0.634105
Si Si2 0.750000 0.888018 0.500000
Si Si3 0.732002 0.103767 0.296608
Si Si4 0.493808 0.820102 0.662282
Si Si5 0.464089 0.000000 0.750000
Si Si6 0.499682 0.817728 0.057600
O O1 0.761491 0.648887 0.640217
O O2 0.684750 0.538731 0.676105
O O3 0.019176 0.575633 0.537911
O O4 0.087559 0.580624 0.709371
O O5 0.663019 0.846485 0.582571
O O6 0.908726 0.155665 0.259710
O O7 0.543243 0.131359 0.367377
O O8 0.892691 0.046269 0.315476
O O9 0.500000 0.750000 0.661045
O O10 0.500000 0.750000 0.096274
O O11 0.250000 0.825364 0.000000
O O12 0.750000 0.820997 0.000000
#
# Coordination Sequence:
#
# PCOD9335381 Si02
#       6
#     8   4   8   8   4   8
#     4  10  22  41  68  94 136 182 234 294 339 432
#     4  10  22  38  62 102 136 182 226 286 368 408
#     4  10  23  41  71  97 132 181 238 285 358 419
#     4  10  23  36  64 101 138 183 226 285 352 435
#     4  10  22  44  72  94 132 192 244 290 340 422
#     4  10  24  43  72 108 145 179 226 299 365 429
#
# _framework density 22.015961999999998
#
# number of rings (size 3 to 8) (size 9 to 14) (size 15 to 20)
#    0.000    2.000    0.000    1.200   11.200    2.400 
#    0.000    0.000   52.800    0.000    0.000    0.000 
#    0.000    0.000    0.000    0.000    0.000    0.000 
#
# Total GULP energy -111555.928266 kJ/mol
# GULP energy per Si atom -5577.796413 kJ/mol
# Density = 2.196585 g / cm^3
# Si number density = 22.015962 Si / 1000 Ang^3
#
#
#
# Elastic Constant Matrix: (Units=GPa)
#
#
# Indices 1 2 3 4 5 6 
#
# 1 111.7205 51.6688 24.4535 0.0000 0.0000 0.0000
# 2 51.6688 132.3836 57.3316 0.0000 0.0000 0.0000
# 3 24.4535 57.3316 49.1547 0.0000 0.0000 0.0000
# 4 0.0000 0.0000 0.0000 5.8799 0.0000 0.0000
# 5 0.0000 0.0000 0.0000 0.0000 38.5043 0.0000
# 6 0.0000 0.0000 0.0000 0.0000 0.0000 -4.5586
#
#
#
# Elastic Compliance Matrix: (Units=1/GPa)
#
#
# Indices 1 2 3 4 5 6 
#
# 1 0.010944 -0.003867 -0.000934 0.000000 0.000000 0.000000
# 2 -0.003867 0.016630 -0.017473 0.000000 0.000000 0.000000
# 3 -0.000934 -0.017473 0.041188 0.000000 0.000000 0.000000
# 4 0.000000 0.000000 0.000000 0.170072 0.000000 0.000000
# 5 0.000000 0.000000 0.000000 0.000000 0.025971 0.000000
# 6 0.000000 0.000000 0.000000 0.000000 0.000000 -0.219363
#
#
# Mechanical properties :
#
#
# Convention : Reuss Voigt Hill
#
# Bulk Modulus (GPa) = 41.29818 62.24075 51.76946
# Shear Modulus (GPa) = 50.98885 18.61876 34.80381
#
# Velocity S-wave (km/s) = 4.81770 2.91124 3.98030
# Velocity P-wave (km/s) = 7.05308 6.29544 6.68500
#
# Compressibility (1/GPa) = 0.02421414
#
# Stress axis : x y z
#
# Youngs Moduli (GPa) = 91.37699 60.13279 24.27881
#
# Poissons Ratio (x) = 0.23251 0.02269
# Poissons Ratio (y) = 0.35332 0.42422
# Poissons Ratio (z) = 0.08539 1.05068
#
# Static dielectric constant tensor:
#      x y z
#    x 1.928860 0.000000 0.000000 
#    y 0.000000 1.783060 0.000000 
#    z 0.000000 0.000000 1.842330 
# 
# From -- ./inp_files/23735.got.cif
#   From: 2010.05.17/outbox.cif.g08.bks.cpg/sg24_12_cif.got.tgz:23735.got - 2010.06.04 00:33:39.
