data_PCOD9335675
_publ_section_title
;
Structure prediction by ZEFSAII (Michael W. Deem and Ramdas Pophale) SiO2 
 PCOD9335675
Probable space group: I 21 21 21
;
_chemical_formula_sum "Si O2"
_cell_formula_units_Z 60
_cell_length_a 26.715039
_cell_length_b 8.450408
_cell_length_c 12.993057
_cell_angle_alpha 90.000000
_cell_angle_beta 90.000000
_cell_angle_gamma 90.000000
_cell_volume 2933.221328
_symmetry_space_group_name_H-M "I 21 21 21"
_symmetry_group_IT_number 24
_symmetry_cell_setting 'orthorhombic'
loop_
_space_group_symop_operation_xyz
x,y,z
-x,1/2-y,z
x,-y,1/2-z
1/2-x,y,-z
1/2+x,1/2+y,1/2+z
1/2-x,-y,1/2+z
1/2+x,1/2-y,-z
-x,1/2+y,1/2-z
loop_
_atom_site_type_symbol
_atom_site_label
_atom_site_fract_x
_atom_site_fract_y
_atom_site_fract_z
Si Si1 0.110107 0.448999 0.863298
Si Si2 0.869249 0.839968 0.186795
Si Si3 0.844657 0.500000 0.250000
Si Si4 0.973207 0.085578 0.359623
Si Si5 0.109124 0.930111 0.638800
Si Si6 0.999934 0.060954 0.930893
Si Si7 0.804860 0.890104 0.002116
Si Si8 0.195140 0.971908 0.016847
O O1 0.125565 0.500000 0.750000
O O2 0.107425 0.259583 0.861146
O O3 0.052490 0.503981 0.884815
O O4 0.152014 0.515227 0.941998
O O5 0.872600 0.672032 0.245881
O O6 0.916830 0.861379 0.112893
O O7 0.870898 0.000000 0.250000
O O8 0.820072 0.859746 0.119863
O O9 0.816505 0.509303 0.139307
O O10 0.000000 0.250000 0.348280
O O11 0.974441 0.000000 0.250000
O O12 0.997097 0.981550 0.448779
O O13 0.052984 0.995726 0.614762
O O14 0.124632 0.000000 0.750000
O O15 0.148104 0.964650 0.547334
O O16 0.000000 0.250000 0.918318
O O17 0.750000 0.965947 0.000000
O O18 0.801139 0.706448 0.968621
O O19 0.250000 0.045992 0.000000
#
# Coordination Sequence:
#
# PCOD9335675 Si02
#       8
#     8   8   4   8   8   8   8   8
#     4  11  23  42  66  95 132 171 221 275 337 406
#     4  10  23  42  64  94 134 173 220 280 338 408
#     4  10  24  42  70  98 132 188 228 280 352 406
#     4  11  24  37  60  92 127 169 215 273 334 405
#     4  11  25  42  68  99 133 176 221 276 338 413
#     4  10  23  42  65  93 131 172 216 275 336 410
#     4  10  22  43  64  93 128 172 222 276 339 395
#     4  10  24  44  68  97 138 177 227 287 339 412
#
# _framework density 20.455327
#
# number of rings (size 3 to 8) (size 9 to 14) (size 15 to 20)
#    0.000    1.600    1.333    1.600    7.467    3.200 
#    2.400    0.000    0.000    0.000    0.000    0.000 
#    0.000    0.000    0.000    0.000    0.000    0.000 
#
# Total GULP energy -167042.223137 kJ/mol
# GULP energy per Si atom -5568.074105 kJ/mol
# Density = 2.040877 g / cm^3
# Si number density = 20.455327 Si / 1000 Ang^3
#
#
#
# Elastic Constant Matrix: (Units=GPa)
#
#
# Indices 1 2 3 4 5 6 
#
# 1 132.0563 36.9296 46.6723 0.0000 0.0000 0.0000
# 2 36.9296 64.6300 15.4746 0.0000 0.0000 0.0000
# 3 46.6723 15.4746 104.5914 0.0000 0.0000 0.0000
# 4 0.0000 0.0000 0.0000 15.2500 0.0000 0.0000
# 5 0.0000 0.0000 0.0000 0.0000 -60.9617 0.0000
# 6 0.0000 0.0000 0.0000 0.0000 0.0000 20.9866
#
#
#
# Elastic Compliance Matrix: (Units=1/GPa)
#
#
# Indices 1 2 3 4 5 6 
#
# 1 0.010334 -0.004977 -0.003875 0.000000 0.000000 0.000000
# 2 -0.004977 0.018438 -0.000507 0.000000 0.000000 0.000000
# 3 -0.003875 -0.000507 0.011365 0.000000 0.000000 0.000000
# 4 0.000000 0.000000 0.000000 0.065574 0.000000 0.000000
# 5 0.000000 0.000000 0.000000 0.000000 -0.016404 0.000000
# 6 0.000000 0.000000 0.000000 0.000000 0.000000 0.047650
#
#
# Mechanical properties :
#
#
# Convention : Reuss Voigt Hill
#
# Bulk Modulus (GPa) = 46.68752 55.49230 51.08991
# Shear Modulus (GPa) = 30.70983 8.53504 19.62243
#
# Velocity S-wave (km/s) = 3.87888 2.04489 3.10059
# Velocity P-wave (km/s) = 6.55245 5.72389 6.15213
#
# Compressibility (1/GPa) = 0.02141900
#
# Stress axis : x y z
#
# Youngs Moduli (GPa) = 96.76926 54.23596 87.98809
#
# Poissons Ratio (x) = 0.26993 0.34095
# Poissons Ratio (y) = 0.48162 0.04461
# Poissons Ratio (z) = 0.37498 0.02750
#
# Static dielectric constant tensor:
#      x y z
#    x 1.834870 0.000000 0.000000 
#    y 0.000000 2.929240 0.000000 
#    z 0.000000 0.000000 1.699610 
# 
# From -- ./inp_files/22974.got.cif
#   From: 2010.05.17/outbox.cif.g08.bks.cpg/sg24_12_cif.got.tgz:22974.got - 2010.06.04 00:33:39.
