data_PCOD9335158
_publ_section_title
;
Structure prediction by ZEFSAII (Michael W. Deem and Ramdas Pophale) SiO2 
 PCOD9335158
Probable space group: I 21 21 21
;
_chemical_formula_sum "Si O2"
_cell_formula_units_Z 32
_cell_length_a 22.190470
_cell_length_b 11.668611
_cell_length_c 5.067978
_cell_angle_alpha 90.000000
_cell_angle_beta 90.000000
_cell_angle_gamma 90.000000
_cell_volume 1312.261489
_symmetry_space_group_name_H-M "I 21 21 21"
_symmetry_group_IT_number 24
_symmetry_cell_setting 'orthorhombic'
loop_
_space_group_symop_operation_xyz
x,y,z
-x,1/2-y,z
x,-y,1/2-z
1/2-x,y,-z
1/2+x,1/2+y,1/2+z
1/2-x,-y,1/2+z
1/2+x,1/2-y,-z
-x,1/2+y,1/2-z
loop_
_atom_site_type_symbol
_atom_site_label
_atom_site_fract_x
_atom_site_fract_y
_atom_site_fract_z
Si Si1 0.420330 0.701116 0.180234
Si Si2 0.706395 0.500000 0.750000
Si Si3 0.513201 0.500000 0.250000
Si Si4 0.283363 0.636707 0.244043
Si Si5 0.588286 0.643027 0.670817
O O1 0.468545 0.600634 0.152644
O O2 0.353104 0.653112 0.189108
O O3 0.425701 0.753831 0.470495
O O4 0.424675 0.798863 0.955537
O O5 0.750000 0.479771 0.500000
O O6 0.657802 0.600813 0.682725
O O7 0.553145 0.543735 0.499565
O O8 0.273182 0.500000 0.250000
O O9 0.250000 0.683737 0.500000
O O10 0.250000 0.691252 0.000000
#
# Coordination Sequence:
#
# PCOD9335158 Si02
#       5
#     8   4   4   8   8
#     4  12  27  49  78 112 153 210 256 319 392 461
#     4  12  27  52  80 110 153 198 248 328 400 452
#     4  12  29  54  76 112 165 212 258 334 390 458
#     4  10  21  41  70 108 150 192 244 306 379 460
#     4  12  29  48  78 114 148 199 270 316 381 474
#
# _framework density 24.385386
#
# number of rings (size 3 to 8) (size 9 to 14) (size 15 to 20)
#    0.000    0.500    1.250    6.000    0.000   17.000 
#    0.000    0.000    0.000    0.000    0.000    0.000 
#    0.000    0.000    0.000    0.000    0.000    0.000 
#
# Total GULP energy -89442.959371 kJ/mol
# GULP energy per Si atom -5590.184961 kJ/mol
# Density = 2.432988 g / cm^3
# Si number density = 24.385386 Si / 1000 Ang^3
#
#
#
# Elastic Constant Matrix: (Units=GPa)
#
#
# Indices 1 2 3 4 5 6 
#
# 1 225.9339 51.2570 102.4942 0.0000 0.0000 0.0000
# 2 51.2570 90.5793 27.7556 0.0000 0.0000 0.0000
# 3 102.4942 27.7556 182.6450 0.0000 0.0000 0.0000
# 4 0.0000 0.0000 0.0000 11.8487 0.0000 0.0000
# 5 0.0000 0.0000 0.0000 0.0000 40.6116 0.0000
# 6 0.0000 0.0000 0.0000 0.0000 0.0000 46.9721
#
#
#
# Elastic Compliance Matrix: (Units=1/GPa)
#
#
# Indices 1 2 3 4 5 6 
#
# 1 0.006507 -0.002689 -0.003243 0.000000 0.000000 0.000000
# 2 -0.002689 0.012690 -0.000420 0.000000 0.000000 0.000000
# 3 -0.003243 -0.000420 0.007359 0.000000 0.000000 0.000000
# 4 0.000000 0.000000 0.000000 0.084398 0.000000 0.000000
# 5 0.000000 0.000000 0.000000 0.000000 0.024624 0.000000
# 6 0.000000 0.000000 0.000000 0.000000 0.000000 0.021289
#
#
# Mechanical properties :
#
#
# Convention : Reuss Voigt Hill
#
# Bulk Modulus (GPa) = 72.18451 95.79688 83.99069
# Shear Modulus (GPa) = 28.70480 41.06322 34.88401
#
# Velocity S-wave (km/s) = 3.43466 4.10802 3.78634
# Velocity P-wave (km/s) = 6.73758 7.86581 7.32345
#
# Compressibility (1/GPa) = 0.01385339
#
# Stress axis : x y z
#
# Youngs Moduli (GPa) = 153.67520 78.80184 135.89193
#
# Poissons Ratio (x) = 0.21186 0.44071
# Poissons Ratio (y) = 0.41317 0.05704
# Poissons Ratio (z) = 0.49838 0.03307
#
# Static dielectric constant tensor:
#      x y z
#    x 1.804070 0.000000 0.000000 
#    y 0.000000 2.064380 0.000000 
#    z 0.000000 0.000000 1.929480 
# 
# From -- ./inp_files/5271.got.cif
#   From: 2010.05.17/outbox.cif.g08.bks.cpg/sg24_3_cif.got.tgz:5271.got - 2010.06.04 00:33:39.
