data_PCOD9335451
_publ_section_title
;
Structure prediction by ZEFSAII (Michael W. Deem and Ramdas Pophale) SiO2 
 PCOD9335451
Probable space group: I 21 21 21
;
_chemical_formula_sum "Si O2"
_cell_formula_units_Z 60
_cell_length_a 11.122822
_cell_length_b 21.670940
_cell_length_c 11.383774
_cell_angle_alpha 90.000000
_cell_angle_beta 90.000000
_cell_angle_gamma 90.000000
_cell_volume 2743.967746
_symmetry_space_group_name_H-M "I 21 21 21"
_symmetry_group_IT_number 24
_symmetry_cell_setting 'orthorhombic'
loop_
_space_group_symop_operation_xyz
x,y,z
-x,1/2-y,z
x,-y,1/2-z
1/2-x,y,-z
1/2+x,1/2+y,1/2+z
1/2-x,-y,1/2+z
1/2+x,1/2-y,-z
-x,1/2+y,1/2-z
loop_
_atom_site_type_symbol
_atom_site_label
_atom_site_fract_x
_atom_site_fract_y
_atom_site_fract_z
Si Si1 0.431275 0.861477 0.661678
Si Si2 0.553681 0.112055 0.597899
Si Si3 0.988603 0.850798 0.837367
Si Si4 0.254663 0.716590 0.123291
Si Si5 0.915855 0.966207 0.411429
Si Si6 0.000000 0.250000 0.002635
Si Si7 0.163212 0.560268 0.673141
Si Si8 0.803773 0.703046 0.679974
O O1 0.467331 0.862092 0.799625
O O2 0.464936 0.930304 0.622301
O O3 0.505529 0.810876 0.584705
O O4 0.293519 0.845425 0.635670
O O5 0.500115 0.118250 0.465809
O O6 0.673409 0.155266 0.605523
O O7 0.583320 0.039265 0.614416
O O8 0.895416 0.796223 0.861736
O O9 0.911120 0.889398 0.742812
O O10 0.108089 0.830658 0.771730
O O11 0.221952 0.750388 0.242827
O O12 0.250000 0.752718 0.000000
O O13 0.892015 0.955208 0.547768
O O14 0.805228 0.930486 0.347947
O O15 0.114681 0.237776 0.916735
O O16 0.153949 0.500000 0.750000
#
# Coordination Sequence:
#
# PCOD9335451 Si02
#       8
#     8   8   8   8   8   4   8   8
#     4  12  27  45  71 100 147 194 239 295 378 429
#     4  11  24  44  73 107 148 187 246 305 371 443
#     4  11  22  42  71 105 141 190 240 306 370 442
#     4  10  22  39  72 107 138 178 235 303 368 421
#     4  11  24  43  72 106 147 188 244 308 367 448
#     4  12  26  52  72 104 140 198 252 308 344 452
#     4  11  21  39  70 103 138 181 240 305 365 424
#     4  12  26  48  73 103 149 190 248 302 368 455
#
# _framework density 21.866147000000002
#
# number of rings (size 3 to 8) (size 9 to 14) (size 15 to 20)
#    0.000    0.800    2.667    4.800    5.600    0.000 
#    4.800    1.333    8.800    0.000    0.000    0.000 
#    0.000    0.000    0.000    0.000    0.000    0.000 
#
# Total GULP energy -167584.797691 kJ/mol
# GULP energy per Si atom -5586.159923 kJ/mol
# Density = 2.181638 g / cm^3
# Si number density = 21.866147 Si / 1000 Ang^3
#
#
#
# Elastic Constant Matrix: (Units=GPa)
#
#
# Indices 1 2 3 4 5 6 
#
# 1 121.4424 45.8216 52.7368 -0.0001 0.0000 0.0000
# 2 45.8216 91.1974 50.9870 0.0004 -0.0001 0.0000
# 3 52.7368 50.9870 171.4900 0.0004 0.0000 0.0000
# 4 -0.0001 0.0004 0.0004 39.9382 0.0000 0.0000
# 5 0.0000 -0.0001 0.0000 0.0000 43.0519 0.0000
# 6 0.0000 0.0000 0.0000 0.0000 0.0000 34.7962
#
#
#
# Elastic Compliance Matrix: (Units=1/GPa)
#
#
# Indices 1 2 3 4 5 6 
#
# 1 0.010721 -0.004250 -0.002033 0.000000 0.000000 0.000000
# 2 -0.004250 0.014836 -0.003104 0.000000 0.000000 0.000000
# 3 -0.002033 -0.003104 0.007379 0.000000 0.000000 0.000000
# 4 0.000000 0.000000 0.000000 0.025039 0.000000 0.000000
# 5 0.000000 0.000000 0.000000 0.000000 0.023228 0.000000
# 6 0.000000 0.000000 0.000000 0.000000 0.000000 0.028739
#
#
# Mechanical properties :
#
#
# Convention : Reuss Voigt Hill
#
# Bulk Modulus (GPa) = 70.61269 75.91341 73.26305
# Shear Modulus (GPa) = 37.47098 39.19622 38.33360
#
# Velocity S-wave (km/s) = 4.14412 4.23845 4.19155
# Velocity P-wave (km/s) = 7.43381 7.66455 7.55006
#
# Compressibility (1/GPa) = 0.01416176
#
# Stress axis : x y z
#
# Youngs Moduli (GPa) = 93.27622 67.40372 135.51170
#
# Poissons Ratio (x) = 0.28645 0.27554
# Poissons Ratio (y) = 0.39641 0.42064
# Poissons Ratio (z) = 0.18966 0.20923
#
# Static dielectric constant tensor:
#      x y z
#    x 1.804550 0.000000 0.000000 
#    y 0.000000 1.800550 0.000000 
#    z 0.000000 0.000000 1.797780 
# 
# From -- ./inp_files/20000.got.cif
#   From: 2010.05.17/outbox.cif.g08.bks.cpg/sg24_10_cif.got.tgz:20000.got - 2010.06.04 00:33:39.
