data_PCOD9335890
_publ_section_title
;
Structure prediction by ZEFSAII (Michael W. Deem and Ramdas Pophale) SiO2 
 PCOD9335890
Probable space group: I 21 21 21
;
_chemical_formula_sum "Si O2"
_cell_formula_units_Z 64
_cell_length_a 22.990306
_cell_length_b 12.238525
_cell_length_c 10.753461
_cell_angle_alpha 90.000000
_cell_angle_beta 90.000000
_cell_angle_gamma 90.000000
_cell_volume 3025.673736
_symmetry_space_group_name_H-M "I 21 21 21"
_symmetry_group_IT_number 24
_symmetry_cell_setting 'orthorhombic'
loop_
_space_group_symop_operation_xyz
x,y,z
-x,1/2-y,z
x,-y,1/2-z
1/2-x,y,-z
1/2+x,1/2+y,1/2+z
1/2-x,-y,1/2+z
1/2+x,1/2-y,-z
-x,1/2+y,1/2-z
loop_
_atom_site_type_symbol
_atom_site_label
_atom_site_fract_x
_atom_site_fract_y
_atom_site_fract_z
Si Si1 0.795040 0.969610 0.606563
Si Si2 0.050582 0.659890 0.334567
Si Si3 0.666626 0.705599 0.692257
Si Si4 0.118519 0.659743 0.918652
Si Si5 0.386273 0.129515 0.566785
Si Si6 0.521373 0.928093 0.937911
Si Si7 0.688966 0.547407 0.460969
Si Si8 0.201207 0.755399 0.707660
O O1 0.750000 0.999542 0.500000
O O2 0.804485 0.839906 0.604376
O O3 0.777763 0.000000 0.750000
O O4 0.850465 0.042932 0.576455
O O5 0.115784 0.708366 0.342276
O O6 0.036049 0.556510 0.422477
O O7 0.045278 0.622094 0.191122
O O8 0.000000 0.750000 0.355729
O O9 0.639976 0.624768 0.795811
O O10 0.678773 0.635295 0.569967
O O11 0.729498 0.749754 0.740529
O O12 0.151325 0.718948 0.804278
O O13 0.128416 0.747312 0.026791
O O14 0.051358 0.627281 0.941703
O O15 0.453857 0.101390 0.565938
O O16 0.357965 0.045879 0.470639
O O17 0.750000 0.493872 0.500000
O O18 0.691434 0.621484 0.338792
#
# Coordination Sequence:
#
# PCOD9335890 Si02
#       8
#     8   8   8   8   8   8   8   8
#     4  10  23  41  68  99 140 176 230 286 348 426
#     4  11  21  39  66 100 142 169 220 285 363 419
#     4  11  22  40  70 104 137 175 214 293 360 410
#     4  11  25  42  68  90 141 181 226 278 344 405
#     4  12  24  42  69 104 137 175 237 282 350 416
#     4  11  24  41  66 103 133 183 224 289 348 418
#     4  10  24  42  69 100 138 180 223 283 340 413
#     4  10  25  46  67  98 138 185 234 278 346 425
#
# _framework density 21.152315000000002
#
# number of rings (size 3 to 8) (size 9 to 14) (size 15 to 20)
#    0.000    1.250    2.500    2.625   10.500    0.500 
#    2.250    0.000   16.500    0.000    0.000    0.000 
#    0.000    0.000    0.000    0.000    0.000    0.000 
#
# Total GULP energy -178454.410653 kJ/mol
# GULP energy per Si atom -5576.700333 kJ/mol
# Density = 2.110417 g / cm^3
# Si number density = 21.152315 Si / 1000 Ang^3
#
#
#
# Elastic Constant Matrix: (Units=GPa)
#
#
# Indices 1 2 3 4 5 6 
#
# 1 125.3380 35.6484 49.2333 0.0000 0.0000 0.0000
# 2 35.6484 77.3074 21.9010 0.0000 0.0000 0.0000
# 3 49.2333 21.9010 41.3318 0.0000 0.0000 0.0000
# 4 0.0000 0.0000 0.0000 21.1284 0.0000 0.0000
# 5 0.0000 0.0000 0.0000 0.0000 20.0574 0.0000
# 6 0.0000 0.0000 0.0000 0.0000 0.0000 44.1642
#
#
#
# Elastic Compliance Matrix: (Units=1/GPa)
#
#
# Indices 1 2 3 4 5 6 
#
# 1 0.015314 -0.002228 -0.017060 0.000000 0.000000 0.000000
# 2 -0.002228 0.015544 -0.005582 0.000000 0.000000 0.000000
# 3 -0.017060 -0.005582 0.047474 0.000000 0.000000 0.000000
# 4 0.000000 0.000000 0.000000 0.047330 0.000000 0.000000
# 5 0.000000 0.000000 0.000000 0.000000 0.049857 0.000000
# 6 0.000000 0.000000 0.000000 0.000000 0.000000 0.022643
#
#
# Mechanical properties :
#
#
# Convention : Reuss Voigt Hill
#
# Bulk Modulus (GPa) = 34.97713 50.83805 42.90759
# Shear Modulus (GPa) = 19.42248 26.21629 22.81939
#
# Velocity S-wave (km/s) = 3.03350 3.52434 3.28809
# Velocity P-wave (km/s) = 5.37040 6.37556 5.89445
#
# Compressibility (1/GPa) = 0.02859011
#
# Stress axis : x y z
#
# Youngs Moduli (GPa) = 65.30160 64.33189 21.06407
#
# Poissons Ratio (x) = 0.14335 0.35936
# Poissons Ratio (y) = 0.14551 0.11759
# Poissons Ratio (z) = 1.11407 0.35912
#
# Static dielectric constant tensor:
#      x y z
#    x 1.760190 0.000000 0.000000 
#    y 0.000000 1.829030 0.000000 
#    z 0.000000 0.000000 1.790800 
# 
# From -- ./inp_files/22733.got.cif
#   From: 2010.05.17/outbox.cif.g08.bks.cpg/sg24_12_cif.got.tgz:22733.got - 2010.06.04 00:33:39.
