data_PCOD9335621
_publ_section_title
;
Structure prediction by ZEFSAII (Michael W. Deem and Ramdas Pophale) SiO2 
 PCOD9335621
Probable space group: I 21 21 21
;
_chemical_formula_sum "Si O2"
_cell_formula_units_Z 56
_cell_length_a 28.421358
_cell_length_b 6.622573
_cell_length_c 14.673922
_cell_angle_alpha 90.000000
_cell_angle_beta 90.000000
_cell_angle_gamma 90.000000
_cell_volume 2761.962549
_symmetry_space_group_name_H-M "I 21 21 21"
_symmetry_group_IT_number 24
_symmetry_cell_setting 'orthorhombic'
loop_
_space_group_symop_operation_xyz
x,y,z
-x,1/2-y,z
x,-y,1/2-z
1/2-x,y,-z
1/2+x,1/2+y,1/2+z
1/2-x,-y,1/2+z
1/2+x,1/2-y,-z
-x,1/2+y,1/2-z
loop_
_atom_site_type_symbol
_atom_site_label
_atom_site_fract_x
_atom_site_fract_y
_atom_site_fract_z
Si Si1 0.109334 0.669039 0.011872
Si Si2 0.179358 0.652910 0.407670
Si Si3 0.750000 0.432776 0.000000
Si Si4 0.749746 0.000000 0.250000
Si Si5 0.595739 0.545372 0.644827
Si Si6 0.052580 0.275257 0.986471
Si Si7 0.281560 0.886965 0.170944
Si Si8 0.113688 0.003791 0.644705
O O1 0.154274 0.533248 0.040677
O O2 0.067700 0.505099 0.004304
O O3 0.105077 0.836876 0.090858
O O4 0.109394 0.792517 0.916579
O O5 0.206488 0.786310 0.482098
O O6 0.216130 0.583662 0.329890
O O7 0.139855 0.799713 0.363601
O O8 0.751957 0.584080 0.917231
O O9 0.715511 0.161413 0.296519
O O10 0.584908 0.500000 0.750000
O O11 0.556770 0.656396 0.582495
O O12 0.000000 0.250000 0.950545
O O13 0.089204 0.169490 0.916015
O O14 0.329840 0.007158 0.155251
O O15 0.253820 0.000000 0.250000
O O16 0.095778 0.000000 0.750000
#
# Coordination Sequence:
#
# PCOD9335621 Si02
#       8
#     8   8   4   4   8   8   8   8
#     4  10  22  42  70  92 136 179 213 278 341 404
#     4  11  25  38  60  97 130 179 233 275 333 393
#     4  12  24  40  60  90 134 172 228 284 328 378
#     4  12  26  38  64  96 128 184 238 284 328 408
#     4  10  22  42  66  95 135 179 216 278 339 405
#     4  10  23  46  68 106 135 166 225 277 340 428
#     4  11  25  43  59  92 135 168 228 287 327 385
#     4  10  24  44  67  96 132 180 221 282 344 393
#
# _framework density 20.275437
#
# number of rings (size 3 to 8) (size 9 to 14) (size 15 to 20)
#    0.000    1.429    1.429    3.429    8.000    6.857 
#    5.143    0.000    0.000    0.000    0.000    0.000 
#    0.000    0.000    0.000    0.000    0.000    0.000 
#
# Total GULP energy -156136.584600 kJ/mol
# GULP energy per Si atom -5576.306593 kJ/mol
# Density = 2.022929 g / cm^3
# Si number density = 20.275437 Si / 1000 Ang^3
#
#
#
# Elastic Constant Matrix: (Units=GPa)
#
#
# Indices 1 2 3 4 5 6 
#
# 1 48.9474 6.8084 15.5950 0.0000 0.0000 0.0000
# 2 6.8084 87.5820 69.7809 0.0000 0.0000 0.0000
# 3 15.5950 69.7809 162.8594 0.0000 0.0000 0.0000
# 4 0.0000 0.0000 0.0000 28.2007 0.0000 0.0000
# 5 0.0000 0.0000 0.0000 0.0000 -58.3222 0.0000
# 6 0.0000 0.0000 0.0000 0.0000 0.0000 13.6314
#
#
#
# Elastic Compliance Matrix: (Units=1/GPa)
#
#
# Indices 1 2 3 4 5 6 
#
# 1 0.021073 -0.000046 -0.001998 0.000000 0.000000 0.000000
# 2 -0.000046 0.017336 -0.007424 0.000000 0.000000 0.000000
# 3 -0.001998 -0.007424 0.009512 0.000000 0.000000 0.000000
# 4 0.000000 0.000000 0.000000 0.035460 0.000000 0.000000
# 5 0.000000 0.000000 0.000000 0.000000 -0.017146 0.000000
# 6 0.000000 0.000000 0.000000 0.000000 0.000000 0.073360
#
#
# Mechanical properties :
#
#
# Convention : Reuss Voigt Hill
#
# Bulk Modulus (GPa) = 34.49957 53.75083 44.12520
# Shear Modulus (GPa) = 29.72757 10.51560 20.12159
#
# Velocity S-wave (km/s) = 3.83324 2.27983 3.15367
# Velocity P-wave (km/s) = 6.05343 5.78775 5.92208
#
# Compressibility (1/GPa) = 0.02898587
#
# Stress axis : x y z
#
# Youngs Moduli (GPa) = 47.45379 57.68242 105.12519
#
# Poissons Ratio (x) = 0.00266 0.21005
# Poissons Ratio (y) = 0.00219 0.78042
# Poissons Ratio (z) = 0.09482 0.42822
#
# Static dielectric constant tensor:
#      x y z
#    x 1.741460 0.000000 0.000000 
#    y 0.000000 1.749230 0.000000 
#    z 0.000000 0.000000 1.759110 
# 
# From -- ./inp_files/28256.got.cif
#   From: 2010.05.17/outbox.cif.g08.bks.cpg/sg24_15_cif.got.tgz:28256.got - 2010.06.04 00:33:39.
