data_PCOD9335936
_publ_section_title
;
Structure prediction by ZEFSAII (Michael W. Deem and Ramdas Pophale) SiO2 
 PCOD9335936
Probable space group: I 21 21 21
;
_chemical_formula_sum "Si O2"
_cell_formula_units_Z 32
_cell_length_a 10.503094
_cell_length_b 25.774016
_cell_length_c 4.964936
_cell_angle_alpha 90.000000
_cell_angle_beta 90.000000
_cell_angle_gamma 90.000000
_cell_volume 1344.042497
_symmetry_space_group_name_H-M "I 21 21 21"
_symmetry_group_IT_number 24
_symmetry_cell_setting 'orthorhombic'
loop_
_space_group_symop_operation_xyz
x,y,z
-x,1/2-y,z
x,-y,1/2-z
1/2-x,y,-z
1/2+x,1/2+y,1/2+z
1/2-x,-y,1/2+z
1/2+x,1/2-y,-z
-x,1/2+y,1/2-z
loop_
_atom_site_type_symbol
_atom_site_label
_atom_site_fract_x
_atom_site_fract_y
_atom_site_fract_z
Si Si1 0.250000 0.294113 0.500000
Si Si2 0.356020 0.396600 0.701963
Si Si3 0.017676 0.102402 0.794350
Si Si4 0.250000 0.034191 0.000000
Si Si5 0.110137 0.219078 0.876454
O O1 0.312855 0.335951 0.703372
O O2 0.144259 0.257329 0.628980
O O3 0.250000 0.421708 0.500000
O O4 0.398718 0.409942 0.003707
O O5 0.480105 0.403934 0.515996
O O6 0.135593 0.068190 0.883425
O O7 0.056073 0.162397 0.822861
O O8 0.297314 0.000000 0.750000
O O9 0.000000 0.250000 0.034337
O O10 0.250000 0.212786 0.000000
#
# Coordination Sequence:
#
# PCOD9335936 Si02
#       5
#     4   8   8   4   8
#     4  10  24  35  60 100 146 196 221 282 334 424
#     4  10  23  43  68 101 142 188 228 279 359 427
#     4  12  24  45  72 101 137 192 237 295 359 427
#     4  12  28  51  76 104 138 182 249 318 364 406
#     4  12  24  39  64  99 148 191 240 284 346 436
#
# _framework density 23.808769000000002
#
# number of rings (size 3 to 8) (size 9 to 14) (size 15 to 20)
#    0.750    0.000    3.750    3.750    3.500    2.000 
#    0.000    0.000    0.000   15.000    0.000    0.000 
#    0.000    0.000    0.000    0.000    0.000    0.000 
#
# Total GULP energy -89340.001098 kJ/mol
# GULP energy per Si atom -5583.750069 kJ/mol
# Density = 2.375458 g / cm^3
# Si number density = 23.808769 Si / 1000 Ang^3
#
#
#
# Elastic Constant Matrix: (Units=GPa)
#
#
# Indices 1 2 3 4 5 6 
#
# 1 86.9906 13.6626 8.9328 -0.0306 0.0156 0.0185
# 2 13.6626 58.1154 11.6980 -0.0516 0.0183 0.0321
# 3 8.9328 11.6980 115.6293 -0.0874 0.0015 0.0614
# 4 -0.0306 -0.0516 -0.0874 28.5516 0.0177 0.0200
# 5 0.0156 0.0183 0.0015 0.0177 47.4847 -0.0062
# 6 0.0185 0.0321 0.0614 0.0200 -0.0062 1.5855
#
#
#
# Elastic Compliance Matrix: (Units=1/GPa)
#
#
# Indices 1 2 3 4 5 6 
#
# 1 0.011984 -0.002686 -0.000654 0.000006 -0.000003 -0.000060
# 2 -0.002686 0.018167 -0.001630 0.000025 -0.000006 -0.000273
# 3 -0.000654 -0.001630 0.008864 0.000024 0.000001 -0.000303
# 4 0.000006 0.000025 0.000024 0.035025 -0.000013 -0.000444
# 5 -0.000003 -0.000006 0.000001 -0.000013 0.021059 0.000083
# 6 -0.000060 -0.000273 -0.000303 -0.000444 0.000083 0.630755
#
#
# Mechanical properties :
#
#
# Convention : Reuss Voigt Hill
#
# Bulk Modulus (GPa) = 34.39370 36.59133 35.49252
# Shear Modulus (GPa) = 6.70703 30.62049 18.66376
#
# Velocity S-wave (km/s) = 1.68023 3.59012 2.80286
# Velocity P-wave (km/s) = 4.27099 5.70854 5.04127
#
# Compressibility (1/GPa) = 0.02907509
#
# Stress axis : x y z
#
# Youngs Moduli (GPa) = 83.44115 55.04517 112.81631
#
# Poissons Ratio (x) = 0.14784 0.07379
# Poissons Ratio (y) = 0.22410 0.18392
# Poissons Ratio (z) = 0.05458 0.08974
#
# Static dielectric constant tensor:
#      x y z
#    x 1.964110 -0.000010 -0.000010 
#    y -0.000010 1.841720 0.000000 
#    z -0.000010 0.000000 1.921470 
# 
# From -- ./inp_files/1969.got.cif
#   From: 2010.05.17/outbox.cif.g08.bks.cpg/sg24_1_cif.got.tgz:1969.got - 2010.06.04 00:33:39.
