data_PCOD9335741
_publ_section_title
;
Structure prediction by ZEFSAII (Michael W. Deem and Ramdas Pophale) SiO2 
 PCOD9335741
Probable space group: I 21 21 21
;
_chemical_formula_sum "Si O2"
_cell_formula_units_Z 40
_cell_length_a 11.070208
_cell_length_b 7.479220
_cell_length_c 19.584820
_cell_angle_alpha 90.000000
_cell_angle_beta 90.000000
_cell_angle_gamma 90.000000
_cell_volume 1621.554962
_symmetry_space_group_name_H-M "I 21 21 21"
_symmetry_group_IT_number 24
_symmetry_cell_setting 'orthorhombic'
loop_
_space_group_symop_operation_xyz
x,y,z
-x,1/2-y,z
x,-y,1/2-z
1/2-x,y,-z
1/2+x,1/2+y,1/2+z
1/2-x,-y,1/2+z
1/2+x,1/2-y,-z
-x,1/2+y,1/2-z
loop_
_atom_site_type_symbol
_atom_site_label
_atom_site_fract_x
_atom_site_fract_y
_atom_site_fract_z
Si Si1 0.500000 0.250000 0.920714
Si Si2 0.620388 0.527726 0.472197
Si Si3 0.750000 0.177491 0.500000
Si Si4 0.405849 0.996536 0.670747
Si Si5 0.000000 0.750000 0.647338
Si Si6 0.324907 0.635559 0.859692
Si Si7 0.352993 0.500000 0.250000
O O1 0.396017 0.193791 0.865975
O O2 0.517779 0.412590 0.973532
O O3 0.750000 0.600972 0.500000
O O4 0.643023 0.314487 0.475968
O O5 0.580916 0.621999 0.401959
O O6 0.782212 0.065994 0.432918
O O7 0.373971 0.000000 0.750000
O O8 0.336946 0.150684 0.630845
O O9 0.546376 0.056689 0.663264
O O10 0.926947 0.877456 0.698240
O O11 0.232234 0.612787 0.799335
#
# Coordination Sequence:
#
# PCOD9335741 Si02
#       7
#     4   8   4   8   4   8   4
#     4  11  20  40  68 100 139 176 236 298 369 440
#     4   9  22  42  72 101 135 190 240 305 365 428
#     4  10  22  44  70 102 140 194 240 304 366 430
#     4  11  23  41  69 108 140 184 239 302 371 452
#     4  11  28  48  70 110 143 200 260 292 373 458
#     4  11  25  44  69 106 143 188 241 304 378 430
#     4  12  30  50  72 104 152 206 246 312 374 444
#
# _framework density 24.667681999999999
#
# number of rings (size 3 to 8) (size 9 to 14) (size 15 to 20)
#    0.600    0.800    3.000    1.200    5.600    4.800 
#    0.000    0.000    0.000    0.000    0.000    0.000 
#    0.000    0.000    0.000    0.000    0.000    0.000 
#
# Total GULP energy -111693.292688 kJ/mol
# GULP energy per Si atom -5584.664634 kJ/mol
# Density = 2.461154 g / cm^3
# Si number density = 24.667682 Si / 1000 Ang^3
#
#
#
# Elastic Constant Matrix: (Units=GPa)
#
#
# Indices 1 2 3 4 5 6 
#
# 1 87.9727 26.8603 53.5348 0.0000 0.0000 0.0000
# 2 26.8603 71.8607 17.9455 0.0000 0.0000 0.0000
# 3 53.5348 17.9455 191.6632 0.0000 0.0000 0.0000
# 4 0.0000 0.0000 0.0000 48.5743 0.0000 0.0000
# 5 0.0000 0.0000 0.0000 0.0000 30.6993 0.0000
# 6 0.0000 0.0000 0.0000 0.0000 0.0000 21.9715
#
#
#
# Elastic Compliance Matrix: (Units=1/GPa)
#
#
# Indices 1 2 3 4 5 6 
#
# 1 0.015102 -0.004701 -0.003778 0.000000 0.000000 0.000000
# 2 -0.004701 0.015713 -0.000158 0.000000 0.000000 0.000000
# 3 -0.003778 -0.000158 0.006288 0.000000 0.000000 0.000000
# 4 0.000000 0.000000 0.000000 0.020587 0.000000 0.000000
# 5 0.000000 0.000000 0.000000 0.000000 0.032574 0.000000
# 6 0.000000 0.000000 0.000000 0.000000 0.000000 0.045514
#
#
# Mechanical properties :
#
#
# Convention : Reuss Voigt Hill
#
# Bulk Modulus (GPa) = 50.43584 60.90864 55.67224
# Shear Modulus (GPa) = 31.31659 37.12609 34.22134
#
# Velocity S-wave (km/s) = 3.56693 3.88371 3.72868
# Velocity P-wave (km/s) = 6.12000 6.69748 6.41524
#
# Compressibility (1/GPa) = 0.01982717
#
# Stress axis : x y z
#
# Youngs Moduli (GPa) = 66.21809 63.64353 159.04498
#
# Poissons Ratio (x) = 0.29920 0.60086
# Poissons Ratio (y) = 0.31131 0.02513
# Poissons Ratio (z) = 0.25017 0.01006
#
# Static dielectric constant tensor:
#      x y z
#    x 1.983790 0.000000 0.000000 
#    y 0.000000 2.086220 0.000000 
#    z 0.000000 0.000000 1.921360 
# 
# From -- ./inp_files/30096.got.cif
#   From: 2010.05.17/outbox.cif.g08.bks.cpg/sg24_16_cif.got.tgz:30096.got - 2010.06.04 00:33:39.
