data_PCOD9335861
_publ_section_title
;
Structure prediction by ZEFSAII (Michael W. Deem and Ramdas Pophale) SiO2 
 PCOD9335861
Probable space group: I 21 21 21
;
_chemical_formula_sum "Si O2"
_cell_formula_units_Z 60
_cell_length_a 8.768534
_cell_length_b 14.686460
_cell_length_c 24.306878
_cell_angle_alpha 90.000000
_cell_angle_beta 90.000000
_cell_angle_gamma 90.000000
_cell_volume 3130.208730
_symmetry_space_group_name_H-M "I 21 21 21"
_symmetry_group_IT_number 24
_symmetry_cell_setting 'orthorhombic'
loop_
_space_group_symop_operation_xyz
x,y,z
-x,1/2-y,z
x,-y,1/2-z
1/2-x,y,-z
1/2+x,1/2+y,1/2+z
1/2-x,-y,1/2+z
1/2+x,1/2-y,-z
-x,1/2+y,1/2-z
loop_
_atom_site_type_symbol
_atom_site_label
_atom_site_fract_x
_atom_site_fract_y
_atom_site_fract_z
Si Si1 0.837241 0.037568 0.686117
Si Si2 0.914421 0.500000 0.250000
Si Si3 0.808546 0.450971 0.062975
Si Si4 0.694188 0.560019 0.160292
Si Si5 0.178102 0.259190 0.710037
Si Si6 0.817685 0.258322 0.938676
Si Si7 0.089663 0.330181 0.224600
Si Si8 0.126265 0.404168 0.112870
O O1 0.790571 0.144289 0.680074
O O2 0.016427 0.035905 0.669625
O O3 0.831174 0.000000 0.750000
O O4 0.729039 0.977840 0.646358
O O5 0.801815 0.497605 0.198571
O O6 0.029553 0.417314 0.255850
O O7 0.745806 0.534785 0.099049
O O8 0.734728 0.356084 0.085246
O O9 0.992251 0.440910 0.072899
O O10 0.750000 0.460648 0.000000
O O11 0.723816 0.664329 0.180951
O O12 0.243428 0.287997 0.769875
O O13 0.000000 0.250000 0.715870
O O14 0.738787 0.169140 0.913704
O O15 0.000000 0.250000 0.938317
O O16 0.750000 0.261890 0.000000
O O17 0.045512 0.349789 0.162554
O O18 0.000000 0.250000 0.253173
#
# Coordination Sequence:
#
# PCOD9335861 Si02
#       8
#     8   4   8   8   8   8   8   8
#     4  11  22  40  62  94 133 174 218 269 334 416
#     4  12  22  36  62  94 130 168 222 272 332 406
#     4  11  24  44  66  92 130 178 230 283 334 399
#     4  11  23  41  64  92 129 178 223 273 340 402
#     4  10  23  40  60  87 131 178 211 267 335 403
#     4  11  23  42  64  92 126 166 214 272 331 388
#     4  12  22  35  56  91 128 166 209 258 323 401
#     4  12  24  38  63  93 132 169 219 270 331 399
#
# _framework density 19.168050999999998
#
# number of rings (size 3 to 8) (size 9 to 14) (size 15 to 20)
#    0.000    0.800    4.667    4.400    0.000    0.533 
#    0.000    0.000    0.000    5.600    0.000    0.000 
#    0.000    0.000    0.000    0.000    0.000    0.000 
#
# Total GULP energy -167011.824420 kJ/mol
# GULP energy per Si atom -5567.060814 kJ/mol
# Density = 1.912442 g / cm^3
# Si number density = 19.168051 Si / 1000 Ang^3
#
#
#
# Elastic Constant Matrix: (Units=GPa)
#
#
# Indices 1 2 3 4 5 6 
#
# 1 129.7901 60.1097 48.0119 0.0000 0.0000 0.0000
# 2 60.1097 127.6350 32.2655 0.0000 0.0000 0.0000
# 3 48.0119 32.2655 88.4561 0.0000 0.0000 0.0000
# 4 0.0000 0.0000 0.0000 13.6140 0.0000 0.0000
# 5 0.0000 0.0000 0.0000 0.0000 32.1498 0.0000
# 6 0.0000 0.0000 0.0000 0.0000 0.0000 32.9927
#
#
#
# Elastic Compliance Matrix: (Units=1/GPa)
#
#
# Indices 1 2 3 4 5 6 
#
# 1 0.011355 -0.004174 -0.004640 0.000000 0.000000 0.000000
# 2 -0.004174 0.010165 -0.001442 0.000000 0.000000 0.000000
# 3 -0.004640 -0.001442 0.014350 0.000000 0.000000 0.000000
# 4 0.000000 0.000000 0.000000 0.073454 0.000000 0.000000
# 5 0.000000 0.000000 0.000000 0.000000 0.031104 0.000000
# 6 0.000000 0.000000 0.000000 0.000000 0.000000 0.030310
#
#
# Mechanical properties :
#
#
# Convention : Reuss Voigt Hill
#
# Bulk Modulus (GPa) = 65.12166 69.62839 67.37503
# Shear Modulus (GPa) = 25.46215 29.45091 27.45653
#
# Velocity S-wave (km/s) = 3.64863 3.92402 3.78883
# Velocity P-wave (km/s) = 7.19707 7.54551 7.37335
#
# Compressibility (1/GPa) = 0.01535587
#
# Stress axis : x y z
#
# Youngs Moduli (GPa) = 88.07021 98.37343 69.68758
#
# Poissons Ratio (x) = 0.41065 0.32337
# Poissons Ratio (y) = 0.36764 0.10050
# Poissons Ratio (z) = 0.40867 0.14187
#
# Static dielectric constant tensor:
#      x y z
#    x 2.897480 0.000000 0.000000 
#    y 0.000000 1.715180 0.000000 
#    z 0.000000 0.000000 1.783950 
# 
# From -- ./inp_files/35255.got.cif
#   From: 2010.05.17/outbox.cif.g08.bks.cpg/sg24_18_cif.got.tgz:35255.got - 2010.06.04 00:33:39.
