data_PCOD9335924
_publ_section_title
;
Structure prediction by ZEFSAII (Michael W. Deem and Ramdas Pophale) SiO2 
 PCOD9335924
Probable space group: I 21 21 21
;
_chemical_formula_sum "Si O2"
_cell_formula_units_Z 40
_cell_length_a 9.350454
_cell_length_b 22.597583
_cell_length_c 7.669747
_cell_angle_alpha 90.000000
_cell_angle_beta 90.000000
_cell_angle_gamma 90.000000
_cell_volume 1620.599597
_symmetry_space_group_name_H-M "I 21 21 21"
_symmetry_group_IT_number 24
_symmetry_cell_setting 'orthorhombic'
loop_
_space_group_symop_operation_xyz
x,y,z
-x,1/2-y,z
x,-y,1/2-z
1/2-x,y,-z
1/2+x,1/2+y,1/2+z
1/2-x,-y,1/2+z
1/2+x,1/2-y,-z
-x,1/2+y,1/2-z
loop_
_atom_site_type_symbol
_atom_site_label
_atom_site_fract_x
_atom_site_fract_y
_atom_site_fract_z
Si Si1 0.250000 0.596490 0.500000
Si Si2 0.835020 0.360338 0.770445
Si Si3 0.996212 0.916155 0.036887
Si Si4 0.549630 0.387868 0.895081
Si Si5 0.371544 0.500000 0.250000
Si Si6 0.000000 0.750000 0.794453
Si Si7 0.250000 0.320176 0.500000
O O1 0.390370 0.631751 0.554631
O O2 0.286076 0.553671 0.338317
O O3 0.670627 0.345553 0.810591
O O4 0.885173 0.383487 0.583446
O O5 0.931065 0.303567 0.809200
O O6 0.885342 0.407118 0.918532
O O7 0.948115 0.970029 0.915705
O O8 0.869704 0.867768 0.065566
O O9 0.041884 0.932608 0.232067
O O10 0.860838 0.777021 0.896515
#
# Coordination Sequence:
#
# PCOD9335924 Si02
#       7
#     4   8   8   8   4   4   4
#     4  12  23  42  70 106 142 190 258 303 386 464
#     4  10  24  49  67 107 148 194 254 316 384 468
#     4  11  23  45  73 103 149 193 255 318 388 449
#     4  11  24  44  73 100 147 198 240 322 387 446
#     4  12  24  44  74 112 138 204 256 314 380 482
#     4  10  24  44  72 112 152 200 268 316 396 486
#     4  10  23  42  72 108 148 196 252 321 388 464
#
# _framework density 24.682223
#
# number of rings (size 3 to 8) (size 9 to 14) (size 15 to 20)
#    0.000    1.200    2.000    3.600    8.400    0.000 
#    7.200    5.000    0.000    0.000    0.000    0.000 
#    0.000    0.000    0.000    0.000    0.000    0.000 
#
# Total GULP energy -111341.728566 kJ/mol
# GULP energy per Si atom -5567.086428 kJ/mol
# Density = 2.462605 g / cm^3
# Si number density = 24.682223 Si / 1000 Ang^3
#
#
#
# Elastic Constant Matrix: (Units=GPa)
#
#
# Indices 1 2 3 4 5 6 
#
# 1 225.8882 52.2670 60.4798 0.0001 0.0001 0.0000
# 2 52.2670 89.7703 32.2554 0.0003 -0.0004 0.0002
# 3 60.4798 32.2554 159.5794 0.0018 0.0013 0.0013
# 4 0.0001 0.0003 0.0018 9.8057 -0.0004 0.0007
# 5 0.0001 -0.0004 0.0013 -0.0004 41.5006 0.0001
# 6 0.0000 0.0002 0.0013 0.0007 0.0001 4.1119
#
#
#
# Elastic Compliance Matrix: (Units=1/GPa)
#
#
# Indices 1 2 3 4 5 6 
#
# 1 0.005443 -0.002618 -0.001534 0.000000 0.000000 0.000001
# 2 -0.002618 0.013271 -0.001690 0.000000 0.000000 0.000000
# 3 -0.001534 -0.001690 0.007189 -0.000001 0.000000 -0.000002
# 4 0.000000 0.000000 -0.000001 0.101981 0.000001 -0.000017
# 5 0.000000 0.000000 0.000000 0.000001 0.024096 0.000000
# 6 0.000001 0.000000 -0.000002 -0.000017 0.000000 0.243198
#
#
# Mechanical properties :
#
#
# Convention : Reuss Voigt Hill
#
# Bulk Modulus (GPa) = 70.32525 85.02692 77.67608
# Shear Modulus (GPa) = 12.14760 33.09936 22.62348
#
# Velocity S-wave (km/s) = 2.22087 3.66597 3.03081
# Velocity P-wave (km/s) = 5.92710 7.24172 6.61714
#
# Compressibility (1/GPa) = 0.01421964
#
# Stress axis : x y z
#
# Youngs Moduli (GPa) = 183.70690 75.35078 139.09332
#
# Poissons Ratio (x) = 0.19729 0.21334
# Poissons Ratio (y) = 0.48099 0.23509
# Poissons Ratio (z) = 0.28177 0.12736
#
# Static dielectric constant tensor:
#      x y z
#    x 2.077820 0.000000 0.000000 
#    y 0.000000 1.926460 0.000000 
#    z 0.000000 0.000000 1.990360 
# 
# From -- ./inp_files/9364.got.cif
#   From: 2010.05.17/outbox.cif.g08.bks.cpg/sg24_5_cif.got.tgz:9364.got - 2010.06.04 00:33:39.
