data_PCOD9335657
_publ_section_title
;
Structure prediction by ZEFSAII (Michael W. Deem and Ramdas Pophale) SiO2 
 PCOD9335657
Probable space group: I 21 21 21
;
_chemical_formula_sum "Si O2"
_cell_formula_units_Z 36
_cell_length_a 5.148901
_cell_length_b 24.990627
_cell_length_c 11.866039
_cell_angle_alpha 90.000000
_cell_angle_beta 90.000000
_cell_angle_gamma 90.000000
_cell_volume 1526.853839
_symmetry_space_group_name_H-M "I 21 21 21"
_symmetry_group_IT_number 24
_symmetry_cell_setting 'orthorhombic'
loop_
_space_group_symop_operation_xyz
x,y,z
-x,1/2-y,z
x,-y,1/2-z
1/2-x,y,-z
1/2+x,1/2+y,1/2+z
1/2-x,-y,1/2+z
1/2+x,1/2-y,-z
-x,1/2+y,1/2-z
loop_
_atom_site_type_symbol
_atom_site_label
_atom_site_fract_x
_atom_site_fract_y
_atom_site_fract_z
Si Si1 0.737780 0.283475 0.831680
Si Si2 0.988043 0.391882 0.930200
Si Si3 0.948344 0.553146 0.795122
Si Si4 0.250000 0.423258 0.500000
Si Si5 0.373604 0.153678 0.616280
O O1 0.500000 0.250000 0.888965
O O2 0.846396 0.336965 0.890655
O O3 0.613892 0.303717 0.714153
O O4 0.000000 0.250000 0.812074
O O5 0.077847 0.424087 0.818640
O O6 0.750000 0.419440 0.000000
O O7 0.250000 0.381458 0.000000
O O8 0.805436 0.500000 0.750000
O O9 0.794765 0.604262 0.838553
O O10 0.103275 0.539757 0.909838
O O11 0.374952 0.379599 0.583991
O O12 0.250000 0.175110 0.500000
#
# Coordination Sequence:
#
# PCOD9335657 Si02
#       5
#     8   8   8   4   8
#     4  11  25  42  71 100 138 185 238 295 356 425
#     4  11  26  46  72 101 145 190 236 298 355 426
#     4  10  24  42  70 104 141 184 239 292 357 433
#     4  10  22  42  72  98 138 186 228 298 360 416
#     4   9  22  41  65  96 141 180 231 294 354 416
#
# _framework density 23.577894000000001
#
# number of rings (size 3 to 8) (size 9 to 14) (size 15 to 20)
#    0.000    1.778    0.000    1.333   17.111    6.222 
#    0.000    0.000    0.000    0.000    0.000    0.000 
#    0.000    0.000    0.000    0.000    0.000    0.000 
#
# Total GULP energy -100259.009247 kJ/mol
# GULP energy per Si atom -5569.944958 kJ/mol
# Density = 2.352423 g / cm^3
# Si number density = 23.577894 Si / 1000 Ang^3
#
#
#
# Elastic Constant Matrix: (Units=GPa)
#
#
# Indices 1 2 3 4 5 6 
#
# 1 97.7825 12.9565 30.6988 0.0000 0.0000 0.0000
# 2 12.9565 56.1675 53.0215 0.0000 0.0000 0.0000
# 3 30.6988 53.0215 110.1476 0.0000 0.0000 0.0000
# 4 0.0000 0.0000 0.0000 28.9157 0.0000 0.0000
# 5 0.0000 0.0000 0.0000 0.0000 48.8571 0.0000
# 6 0.0000 0.0000 0.0000 0.0000 0.0000 22.2285
#
#
#
# Elastic Compliance Matrix: (Units=1/GPa)
#
#
# Indices 1 2 3 4 5 6 
#
# 1 0.011221 0.000667 -0.003448 0.000000 0.000000 0.000000
# 2 0.000667 0.032672 -0.015913 0.000000 0.000000 0.000000
# 3 -0.003448 -0.015913 0.017700 0.000000 0.000000 0.000000
# 4 0.000000 0.000000 0.000000 0.034583 0.000000 0.000000
# 5 0.000000 0.000000 0.000000 0.000000 0.020468 0.000000
# 6 0.000000 0.000000 0.000000 0.000000 0.000000 0.044987
#
#
# Mechanical properties :
#
#
# Convention : Reuss Voigt Hill
#
# Bulk Modulus (GPa) = 41.31633 50.82793 46.07213
# Shear Modulus (GPa) = 24.14434 31.16165 27.65300
#
# Velocity S-wave (km/s) = 3.20351 3.63939 3.42838
# Velocity P-wave (km/s) = 5.58969 6.26614 5.93756
#
# Compressibility (1/GPa) = 0.02420350
#
# Stress axis : x y z
#
# Youngs Moduli (GPa) = 89.11840 30.60749 56.49790
#
# Poissons Ratio (x) = -0.02041 0.19482
# Poissons Ratio (y) = -0.05942 0.89905
# Poissons Ratio (z) = 0.30731 0.48706
#
# Static dielectric constant tensor:
#      x y z
#    x 1.871160 0.000000 0.000000 
#    y 0.000000 1.858610 0.000000 
#    z 0.000000 0.000000 2.012710 
# 
# From -- ./inp_files/2268.got.cif
#   From: 2010.05.17/outbox.cif.g08.bks.cpg/sg24_2_cif.got.tgz:2268.got - 2010.06.04 00:33:39.
