data_PCOD9335391
_publ_section_title
;
Structure prediction by ZEFSAII (Michael W. Deem and Ramdas Pophale) SiO2 
 PCOD9335391
Probable space group: I 21 21 21
;
_chemical_formula_sum "Si O2"
_cell_formula_units_Z 56
_cell_length_a 29.071667
_cell_length_b 6.160781
_cell_length_c 13.256754
_cell_angle_alpha 90.000000
_cell_angle_beta 90.000000
_cell_angle_gamma 90.000000
_cell_volume 2374.339971
_symmetry_space_group_name_H-M "I 21 21 21"
_symmetry_group_IT_number 24
_symmetry_cell_setting 'orthorhombic'
loop_
_space_group_symop_operation_xyz
x,y,z
-x,1/2-y,z
x,-y,1/2-z
1/2-x,y,-z
1/2+x,1/2+y,1/2+z
1/2-x,-y,1/2+z
1/2+x,1/2-y,-z
-x,1/2+y,1/2-z
loop_
_atom_site_type_symbol
_atom_site_label
_atom_site_fract_x
_atom_site_fract_y
_atom_site_fract_z
Si Si1 0.000000 0.750000 0.804197
Si Si2 0.247284 0.649827 0.157615
Si Si3 0.888381 0.224216 0.057899
Si Si4 0.592209 0.062258 0.369052
Si Si5 0.296710 0.286455 0.026666
Si Si6 0.902239 0.000000 0.250000
Si Si7 0.343100 0.871905 0.850803
Si Si8 0.163390 0.907983 0.845272
O O1 0.994112 0.500000 0.750000
O O2 0.954510 0.799697 0.867888
O O3 0.230209 0.500000 0.250000
O O4 0.274906 0.484332 0.086852
O O5 0.205218 0.780698 0.108152
O O6 0.288493 0.806257 0.191751
O O7 0.919470 0.132345 0.150380
O O8 0.876817 0.475539 0.083403
O O9 0.833949 0.146301 0.057117
O O10 0.908044 0.132231 0.951453
O O11 0.634116 0.220444 0.396795
O O12 0.599763 0.000000 0.250000
O O13 0.325545 0.118740 0.091429
O O14 0.250000 0.162245 0.000000
O O15 0.873414 0.180562 0.307706
O O16 0.327801 0.000000 0.750000
O O17 0.135649 0.000000 0.750000
#
# Coordination Sequence:
#
# PCOD9335391 Si02
#       8
#     4   8   8   8   8   4   8   8
#     4  10  24  50  84 124 166 208 250 318 414 536
#     4  12  22  38  57  84 129 191 255 332 382 450
#     4  11  24  43  65 100 139 198 256 323 381 461
#     4  11  24  48  76 113 153 194 253 319 413 498
#     4  12  26  38  55  90 132 187 256 316 382 445
#     4  10  22  44  62  92 134 190 254 310 378 438
#     4  10  22  38  64  84 128 195 263 322 372 442
#     4  12  23  39  62  91 131 189 242 317 389 459
#
# _framework density 23.585501000000001
#
# number of rings (size 3 to 8) (size 9 to 14) (size 15 to 20)
#    0.000    0.857    3.571    3.857    4.000    2.857 
#    0.000    0.000    0.000    0.000    0.000    6.000 
#    0.000    0.000    0.000    0.000    0.000    0.000 
#
# Total GULP energy -155964.173379 kJ/mol
# GULP energy per Si atom -5570.149049 kJ/mol
# Density = 2.353182 g / cm^3
# Si number density = 23.585501 Si / 1000 Ang^3
#
#
#
# Elastic Constant Matrix: (Units=GPa)
#
#
# Indices 1 2 3 4 5 6 
#
# 1 79.0685 29.7894 10.7778 0.0000 0.0000 0.0000
# 2 29.7894 143.8521 59.1371 0.0000 0.0000 0.0000
# 3 10.7778 59.1371 119.7092 0.0000 0.0000 0.0000
# 4 0.0000 0.0000 0.0000 59.3763 0.0000 0.0000
# 5 0.0000 0.0000 0.0000 0.0000 13.3410 0.0000
# 6 0.0000 0.0000 0.0000 0.0000 0.0000 22.2792
#
#
#
# Elastic Compliance Matrix: (Units=1/GPa)
#
#
# Indices 1 2 3 4 5 6 
#
# 1 0.013722 -0.002928 0.000211 0.000000 0.000000 0.000000
# 2 -0.002928 0.009348 -0.004354 0.000000 0.000000 0.000000
# 3 0.000211 -0.004354 0.010486 0.000000 0.000000 0.000000
# 4 0.000000 0.000000 0.000000 0.016842 0.000000 0.000000
# 5 0.000000 0.000000 0.000000 0.000000 0.074957 0.000000
# 6 0.000000 0.000000 0.000000 0.000000 0.000000 0.044885
#
#
# Mechanical properties :
#
#
# Convention : Reuss Voigt Hill
#
# Bulk Modulus (GPa) = 51.51340 60.22651 55.86995
# Shear Modulus (GPa) = 26.19818 35.19434 30.69626
#
# Velocity S-wave (km/s) = 3.33644 3.86709 3.61153
# Velocity P-wave (km/s) = 6.06061 6.74760 6.41331
#
# Compressibility (1/GPa) = 0.01941243
#
# Stress axis : x y z
#
# Youngs Moduli (GPa) = 72.87703 106.97402 95.36857
#
# Poissons Ratio (x) = 0.31326 -0.02014
# Poissons Ratio (y) = 0.21341 0.41527
# Poissons Ratio (z) = -0.01539 0.46580
#
# Static dielectric constant tensor:
#      x y z
#    x 1.889110 0.000000 0.000000 
#    y 0.000000 2.054960 0.000000 
#    z 0.000000 0.000000 2.106890 
# 
# From -- ./inp_files/28238.got.cif
#   From: 2010.05.17/outbox.cif.g08.bks.cpg/sg24_15_cif.got.tgz:28238.got - 2010.06.04 00:33:39.
