data_PCOD9335450
_publ_section_title
;
Structure prediction by ZEFSAII (Michael W. Deem and Ramdas Pophale) SiO2 
 PCOD9335450
Probable space group: I 21 21 21
;
_chemical_formula_sum "Si O2"
_cell_formula_units_Z 40
_cell_length_a 16.690024
_cell_length_b 10.129307
_cell_length_c 9.732716
_cell_angle_alpha 90.000000
_cell_angle_beta 90.000000
_cell_angle_gamma 90.000000
_cell_volume 1645.397170
_symmetry_space_group_name_H-M "I 21 21 21"
_symmetry_group_IT_number 24
_symmetry_cell_setting 'orthorhombic'
loop_
_space_group_symop_operation_xyz
x,y,z
-x,1/2-y,z
x,-y,1/2-z
1/2-x,y,-z
1/2+x,1/2+y,1/2+z
1/2-x,-y,1/2+z
1/2+x,1/2-y,-z
-x,1/2+y,1/2-z
loop_
_atom_site_type_symbol
_atom_site_label
_atom_site_fract_x
_atom_site_fract_y
_atom_site_fract_z
Si Si1 0.831467 0.227127 0.077178
Si Si2 0.314955 0.689898 0.894803
Si Si3 0.577265 0.500000 0.250000
Si Si4 0.644294 0.471230 0.533418
Si Si5 0.500000 0.750000 0.407866
Si Si6 0.974929 0.108470 0.356010
O O1 0.820920 0.168109 0.230813
O O2 0.827238 0.387059 0.082350
O O3 0.750000 0.184039 0.000000
O O4 0.918881 0.210421 0.998156
O O5 0.311381 0.847899 0.903079
O O6 0.401182 0.643379 0.952658
O O7 0.250000 0.635137 0.000000
O O8 0.636451 0.456595 0.371199
O O9 0.526906 0.624108 0.313184
O O10 0.552198 0.453584 0.577145
O O11 0.000000 0.250000 0.293117
O O12 0.949363 0.000000 0.250000
#
# Coordination Sequence:
#
# PCOD9335450 Si02
#       6
#     8   8   4   8   4   8
#     4  11  25  45  75 109 152 194 255 308 375 448
#     4  11  25  40  70 105 150 191 246 308 382 449
#     4  10  24  40  74 108 152 192 256 302 380 448
#     4  10  22  39  70 105 144 190 244 311 363 438
#     4  10  26  46  76 114 152 208 250 316 384 452
#     4  10  22  41  73 103 138 187 249 296 366 448
#
# _framework density 24.31024
#
# number of rings (size 3 to 8) (size 9 to 14) (size 15 to 20)
#    0.000    1.600    0.000    3.600   19.600    0.000 
#    0.000    1.000    4.400    0.000    0.000    0.000 
#    0.000    0.000    0.000    0.000    0.000    0.000 
#
# Total GULP energy -111617.612871 kJ/mol
# GULP energy per Si atom -5580.880644 kJ/mol
# Density = 2.425491 g / cm^3
# Si number density = 24.310240 Si / 1000 Ang^3
#
#
#
# Elastic Constant Matrix: (Units=GPa)
#
#
# Indices 1 2 3 4 5 6 
#
# 1 185.3857 44.7981 65.9208 0.0000 0.0000 0.0000
# 2 44.7981 96.5233 42.2444 0.0000 0.0000 0.0000
# 3 65.9208 42.2444 155.2276 0.0000 0.0000 0.0000
# 4 0.0000 0.0000 0.0000 16.3756 0.0000 0.0000
# 5 0.0000 0.0000 0.0000 0.0000 36.9355 0.0000
# 6 0.0000 0.0000 0.0000 0.0000 0.0000 -24.7908
#
#
#
# Elastic Compliance Matrix: (Units=1/GPa)
#
#
# Indices 1 2 3 4 5 6 
#
# 1 0.006716 -0.002121 -0.002275 0.000000 0.000000 0.000000
# 2 -0.002121 0.012431 -0.002482 0.000000 0.000000 0.000000
# 3 -0.002275 -0.002482 0.008084 0.000000 0.000000 0.000000
# 4 0.000000 0.000000 0.000000 0.061067 0.000000 0.000000
# 5 0.000000 0.000000 0.000000 0.000000 0.027074 0.000000
# 6 0.000000 0.000000 0.000000 0.000000 0.000000 -0.040337
#
#
# Mechanical properties :
#
#
# Convention : Reuss Voigt Hill
#
# Bulk Modulus (GPa) = 74.21667 82.56260 78.38963
# Shear Modulus (GPa) = 53.60127 24.64891 39.12509
#
# Velocity S-wave (km/s) = 4.70071 3.18768 4.01609
# Velocity P-wave (km/s) = 7.74968 6.89813 7.33627
#
# Compressibility (1/GPa) = 0.01347406
#
# Stress axis : x y z
#
# Youngs Moduli (GPa) = 148.90707 80.44348 123.70658
#
# Poissons Ratio (x) = 0.17065 0.28139
# Poissons Ratio (y) = 0.31588 0.30706
# Poissons Ratio (z) = 0.33871 0.19968
#
# Static dielectric constant tensor:
#      x y z
#    x 2.027580 0.000000 0.000000 
#    y 0.000000 1.929540 0.000000 
#    z 0.000000 0.000000 2.107740 
# 
# From -- ./inp_files/13853.got.cif
#   From: 2010.05.17/outbox.cif.g08.bks.cpg/sg24_7_cif.got.tgz:13853.got - 2010.06.04 00:33:39.
