data_PCOD9335842
_publ_section_title
;
Structure prediction by ZEFSAII (Michael W. Deem and Ramdas Pophale) SiO2 
 PCOD9335842
Probable space group: I 21 21 21
;
_chemical_formula_sum "Si O2"
_cell_formula_units_Z 48
_cell_length_a 13.869063
_cell_length_b 8.671291
_cell_length_c 19.784985
_cell_angle_alpha 90.000000
_cell_angle_beta 90.000000
_cell_angle_gamma 90.000000
_cell_volume 2379.395343
_symmetry_space_group_name_H-M "I 21 21 21"
_symmetry_group_IT_number 24
_symmetry_cell_setting 'orthorhombic'
loop_
_space_group_symop_operation_xyz
x,y,z
-x,1/2-y,z
x,-y,1/2-z
1/2-x,y,-z
1/2+x,1/2+y,1/2+z
1/2-x,-y,1/2+z
1/2+x,1/2-y,-z
-x,1/2+y,1/2-z
loop_
_atom_site_type_symbol
_atom_site_label
_atom_site_fract_x
_atom_site_fract_y
_atom_site_fract_z
Si Si1 0.490734 0.932110 0.615772
Si Si2 0.393491 0.500000 0.750000
Si Si3 0.199439 0.885846 0.067034
Si Si4 0.582217 0.880842 0.997666
Si Si5 0.051094 0.581154 0.851860
Si Si6 0.896438 0.500000 0.750000
Si Si7 0.228918 0.270663 0.704085
O O1 0.500000 0.750000 0.618893
O O2 0.536364 0.991121 0.685586
O O3 0.386882 0.006817 0.596360
O O4 0.558355 0.990283 0.555833
O O5 0.323452 0.351771 0.735447
O O6 0.164034 0.724968 0.034249
O O7 0.255634 0.826437 0.133792
O O8 0.250000 0.961241 0.000000
O O9 0.500000 0.750000 0.000794
O O10 0.581728 0.953281 0.071726
O O11 0.151164 0.597846 0.812858
O O12 0.000000 0.750000 0.851561
O O13 0.969925 0.484241 0.813423
O O14 0.826837 0.352474 0.749953
#
# Coordination Sequence:
#
# PCOD9335842 Si02
#       7
#     8   4   8   8   8   4   8
#     4  11  27  43  64 101 142 179 218 290 364 399
#     4  12  27  43  64  96 146 182 230 285 343 412
#     4  11  22  43  74 101 126 180 242 281 329 420
#     4   9  18  39  67  94 123 172 226 277 334 403
#     4   9  18  38  65  95 133 169 226 282 335 403
#     4  10  23  37  66 100 136 182 220 281 353 400
#     4  11  23  40  67 103 132 181 233 284 331 421
#
# _framework density 20.173193000000001
#
# number of rings (size 3 to 8) (size 9 to 14) (size 15 to 20)
#    0.000    1.667    3.333    0.500    7.000    0.000 
#    0.000    6.667    0.000    0.000    0.000    0.000 
#    0.000    0.000    0.000    0.000    0.000    0.000 
#
# Total GULP energy -133620.118165 kJ/mol
# GULP energy per Si atom -5567.504924 kJ/mol
# Density = 2.012728 g / cm^3
# Si number density = 20.173193 Si / 1000 Ang^3
#
#
#
# Elastic Constant Matrix: (Units=GPa)
#
#
# Indices 1 2 3 4 5 6 
#
# 1 108.0636 45.0438 56.1774 0.0000 0.0000 0.0000
# 2 45.0438 57.0913 44.6938 0.0000 0.0000 0.0000
# 3 56.1774 44.6938 144.5453 0.0000 0.0000 0.0000
# 4 0.0000 0.0000 0.0000 25.9689 0.0000 0.0000
# 5 0.0000 0.0000 0.0000 0.0000 25.7696 0.0000
# 6 0.0000 0.0000 0.0000 0.0000 0.0000 24.8415
#
#
#
# Elastic Compliance Matrix: (Units=1/GPa)
#
#
# Indices 1 2 3 4 5 6 
#
# 1 0.014592 -0.009332 -0.002786 0.000000 0.000000 0.000000
# 2 -0.009332 0.029078 -0.005364 0.000000 0.000000 0.000000
# 3 -0.002786 -0.005364 0.009659 0.000000 0.000000 0.000000
# 4 0.000000 0.000000 0.000000 0.038508 0.000000 0.000000
# 5 0.000000 0.000000 0.000000 0.000000 0.038805 0.000000
# 6 0.000000 0.000000 0.000000 0.000000 0.000000 0.040255
#
#
# Mechanical properties :
#
#
# Convention : Reuss Voigt Hill
#
# Bulk Modulus (GPa) = 54.44910 66.83669 60.64289
# Shear Modulus (GPa) = 23.58692 26.23502 24.91097
#
# Velocity S-wave (km/s) = 3.42310 3.61014 3.51786
# Velocity P-wave (km/s) = 6.53245 7.11202 6.82839
#
# Compressibility (1/GPa) = 0.01836578
#
# Stress axis : x y z
#
# Youngs Moduli (GPa) = 68.53223 34.39064 103.52525
#
# Poissons Ratio (x) = 0.32093 0.28838
# Poissons Ratio (y) = 0.63953 0.55532
# Poissons Ratio (z) = 0.19091 0.18448
#
# Static dielectric constant tensor:
#      x y z
#    x 1.740640 0.000000 0.000000 
#    y 0.000000 1.721690 0.000000 
#    z 0.000000 0.000000 1.803760 
# 
# From -- ./inp_files/30757.got.cif
#   From: 2010.05.17/outbox.cif.g08.bks.cpg/sg24_16_cif.got.tgz:30757.got - 2010.06.04 00:33:39.
