data_PCOD9335788
_publ_section_title
;
Structure prediction by ZEFSAII (Michael W. Deem and Ramdas Pophale) SiO2 
 PCOD9335788
Probable space group: I 21 21 21
;
_chemical_formula_sum "Si O2"
_cell_formula_units_Z 28
_cell_length_a 5.057653
_cell_length_b 13.626663
_cell_length_c 14.758261
_cell_angle_alpha 90.000000
_cell_angle_beta 90.000000
_cell_angle_gamma 90.000000
_cell_volume 1017.123601
_symmetry_space_group_name_H-M "I 21 21 21"
_symmetry_group_IT_number 24
_symmetry_cell_setting 'orthorhombic'
loop_
_space_group_symop_operation_xyz
x,y,z
-x,1/2-y,z
x,-y,1/2-z
1/2-x,y,-z
1/2+x,1/2+y,1/2+z
1/2-x,-y,1/2+z
1/2+x,1/2-y,-z
-x,1/2+y,1/2-z
loop_
_atom_site_type_symbol
_atom_site_label
_atom_site_fract_x
_atom_site_fract_y
_atom_site_fract_z
Si Si1 0.854307 0.150509 0.899509
Si Si2 0.369557 0.947149 0.124453
Si Si3 0.500000 0.250000 0.393765
Si Si4 0.141333 0.365644 0.283537
O O1 0.621055 0.139060 0.824465
O O2 0.000000 0.250000 0.870825
O O3 0.044793 0.054482 0.905921
O O4 0.750000 0.165282 0.000000
O O5 0.460248 0.854988 0.058325
O O6 0.076677 0.927783 0.162116
O O7 0.573573 0.918202 0.203389
O O8 0.243760 0.264287 0.330162
#
# Coordination Sequence:
#
# PCOD9335788 Si02
#       4
#     8   8   4   8
#     4  12  28  48  73 122 180 227 263 340 436 527
#     4  10  23  45  76 113 148 208 280 339 402 481
#     4   8  20  40  80 108 142 190 284 348 392 452
#     4  10  22  45  76 114 148 205 280 339 398 476
#
# _framework density 27.528611999999999
#
# number of rings (size 3 to 8) (size 9 to 14) (size 15 to 20)
#    1.714    0.000    1.429    1.714    0.000   11.429 
#    5.143    0.000    0.000    5.143    7.429    0.000 
#    0.000    0.000    0.000    0.000    0.000    0.000 
#
# Total GULP energy -78023.828462 kJ/mol
# GULP energy per Si atom -5573.130604 kJ/mol
# Density = 2.746596 g / cm^3
# Si number density = 27.528612 Si / 1000 Ang^3
#
#
#
# Elastic Constant Matrix: (Units=GPa)
#
#
# Indices 1 2 3 4 5 6 
#
# 1 148.1162 24.9740 7.3865 0.0000 0.0000 0.0000
# 2 24.9740 243.4801 -21.5338 0.0000 0.0000 0.0000
# 3 7.3865 -21.5338 66.9453 0.0000 0.0000 0.0000
# 4 0.0000 0.0000 0.0000 -285.2181 0.0000 0.0000
# 5 0.0000 0.0000 0.0000 0.0000 10.4627 0.0000
# 6 0.0000 0.0000 0.0000 0.0000 0.0000 37.0989
#
#
#
# Elastic Compliance Matrix: (Units=1/GPa)
#
#
# Indices 1 2 3 4 5 6 
#
# 1 0.006938 -0.000802 -0.001024 0.000000 0.000000 0.000000
# 2 -0.000802 0.004320 0.001478 0.000000 0.000000 0.000000
# 3 -0.001024 0.001478 0.015526 0.000000 0.000000 0.000000
# 4 0.000000 0.000000 0.000000 -0.003506 0.000000 0.000000
# 5 0.000000 0.000000 0.000000 0.000000 0.095578 0.000000
# 6 0.000000 0.000000 0.000000 0.000000 0.000000 0.026955
#
#
# Mechanical properties :
#
#
# Convention : Reuss Voigt Hill
#
# Bulk Modulus (GPa) = 38.33064 53.35501 45.84283
# Shear Modulus (GPa) = 32.21618 -17.68364 7.26627
#
# Velocity S-wave (km/s) = 3.42465 -2.53726 1.62643
# Velocity P-wave (km/s) = 5.43983 3.29244 4.49622
#
# Compressibility (1/GPa) = 0.02608879
#
# Stress axis : x y z
#
# Youngs Moduli (GPa) = 144.13899 231.47528 64.40828
#
# Poissons Ratio (x) = 0.18567 0.06592
# Poissons Ratio (y) = 0.11562 -0.09520
# Poissons Ratio (z) = 0.14753 -0.34215
#
# Static dielectric constant tensor:
#      x y z
#    x 2.742930 0.000000 0.000000 
#    y 0.000000 2.964370 0.000000 
#    z 0.000000 0.000000 2.153120 
# 
# From -- ./inp_files/32550.got.cif
#   From: 2010.05.17/outbox.cif.g08.bks.cpg/sg24_17_cif.got.tgz:32550.got - 2010.06.04 00:33:39.
