data_PCOD9335481
_publ_section_title
;
Structure prediction by ZEFSAII (Michael W. Deem and Ramdas Pophale) SiO2 
 PCOD9335481
Probable space group: I 21 21 21
;
_chemical_formula_sum "Si O2"
_cell_formula_units_Z 56
_cell_length_a 12.242222
_cell_length_b 12.675430
_cell_length_c 15.570740
_cell_angle_alpha 90.000000
_cell_angle_beta 90.000000
_cell_angle_gamma 90.000000
_cell_volume 2416.196244
_symmetry_space_group_name_H-M "I 21 21 21"
_symmetry_group_IT_number 24
_symmetry_cell_setting 'orthorhombic'
loop_
_space_group_symop_operation_xyz
x,y,z
-x,1/2-y,z
x,-y,1/2-z
1/2-x,y,-z
1/2+x,1/2+y,1/2+z
1/2-x,-y,1/2+z
1/2+x,1/2-y,-z
-x,1/2+y,1/2-z
loop_
_atom_site_type_symbol
_atom_site_label
_atom_site_fract_x
_atom_site_fract_y
_atom_site_fract_z
Si Si1 0.662767 0.666092 0.798707
Si Si2 0.532293 0.865546 0.560153
Si Si3 0.830740 0.253792 0.570445
Si Si4 0.000000 0.250000 0.709234
Si Si5 0.750000 0.213209 0.000000
Si Si6 0.333379 0.137354 0.159642
Si Si7 0.625411 0.472111 0.469785
Si Si8 0.562675 0.887275 0.756390
O O1 0.747008 0.672323 0.875636
O O2 0.724601 0.622538 0.715752
O O3 0.634987 0.789622 0.783671
O O4 0.547391 0.609682 0.813152
O O5 0.500000 0.750000 0.525688
O O6 0.658968 0.864449 0.538041
O O7 0.460001 0.957643 0.522180
O O8 0.519368 0.863958 0.661614
O O9 0.750000 0.199234 0.500000
O O10 0.909353 0.200635 0.641908
O O11 0.900233 0.347831 0.525886
O O12 0.923630 0.315241 0.775273
O O13 0.797423 0.286377 0.921214
O O14 0.377757 0.027499 0.123292
O O15 0.750000 0.491702 0.500000
O O16 0.619255 0.000000 0.750000
#
# Coordination Sequence:
#
# PCOD9335481 Si02
#       8
#     8   8   8   4   4   8   8   8
#     4  10  22  40  62  95 132 171 217 284 337 402
#     4  12  21  38  61  98 136 169 220 280 343 416
#     4  10  25  45  68  95 131 179 239 284 343 412
#     4  10  24  42  66  94 132 184 222 280 346 416
#     4  12  20  36  64  94 138 184 202 274 362 424
#     4  11  19  37  65  96 133 167 216 268 351 410
#     4  11  22  37  68 106 129 170 227 291 343 410
#     4  11  23  37  61  93 131 173 217 275 345 412
#
# _framework density 23.176926000000002
#
# number of rings (size 3 to 8) (size 9 to 14) (size 15 to 20)
#    0.000    1.143    5.000    1.714    6.000    2.857 
#    0.000    2.857    0.000    0.000    0.000    0.000 
#    0.000    0.000    0.000    0.000    0.000    0.000 
#
# Total GULP energy -156191.770678 kJ/mol
# GULP energy per Si atom -5578.277524 kJ/mol
# Density = 2.312417 g / cm^3
# Si number density = 23.176926 Si / 1000 Ang^3
#
#
#
# Elastic Constant Matrix: (Units=GPa)
#
#
# Indices 1 2 3 4 5 6 
#
# 1 92.5169 14.6449 31.9189 0.0000 0.0000 0.0000
# 2 14.6449 87.1284 5.6077 0.0000 0.0000 0.0000
# 3 31.9189 5.6077 96.6239 0.0000 0.0000 0.0000
# 4 0.0000 0.0000 0.0000 28.3648 0.0000 0.0000
# 5 0.0000 0.0000 0.0000 0.0000 49.6538 0.0000
# 6 0.0000 0.0000 0.0000 0.0000 0.0000 22.1376
#
#
#
# Elastic Compliance Matrix: (Units=1/GPa)
#
#
# Indices 1 2 3 4 5 6 
#
# 1 0.012486 -0.001840 -0.004018 0.000000 0.000000 0.000000
# 2 -0.001840 0.011792 -0.000076 0.000000 0.000000 0.000000
# 3 -0.004018 -0.000076 0.011681 0.000000 0.000000 0.000000
# 4 0.000000 0.000000 0.000000 0.035255 0.000000 0.000000
# 5 0.000000 0.000000 0.000000 0.000000 0.020139 0.000000
# 6 0.000000 0.000000 0.000000 0.000000 0.000000 0.045172
#
#
# Mechanical properties :
#
#
# Convention : Reuss Voigt Hill
#
# Bulk Modulus (GPa) = 41.51123 42.29026 41.90074
# Shear Modulus (GPa) = 31.96431 34.97110 33.46771
#
# Velocity S-wave (km/s) = 3.71771 3.88864 3.80414
# Velocity P-wave (km/s) = 6.03142 6.20067 6.11663
#
# Compressibility (1/GPa) = 0.02408987
#
# Stress axis : x y z
#
# Youngs Moduli (GPa) = 80.08751 84.80658 85.60807
#
# Poissons Ratio (x) = 0.15606 0.34397
# Poissons Ratio (y) = 0.14737 0.00655
# Poissons Ratio (z) = 0.32179 0.00648
#
# Static dielectric constant tensor:
#      x y z
#    x 1.952100 0.000000 0.000000 
#    y 0.000000 1.911970 0.000000 
#    z 0.000000 0.000000 1.918610 
# 
# From -- ./inp_files/25850.got.cif
#   From: 2010.05.17/outbox.cif.g08.bks.cpg/sg24_13_cif.got.tgz:25850.got - 2010.06.04 00:33:39.
