data_PCOD9335050
_publ_section_title
;
Structure prediction by ZEFSAII (Michael W. Deem and Ramdas Pophale) SiO2 
 PCOD9335050
Probable space group: I 21 21 21
;
_chemical_formula_sum "Si O2"
_cell_formula_units_Z 52
_cell_length_a 10.887947
_cell_length_b 26.572508
_cell_length_c 7.264775
_cell_angle_alpha 90.000000
_cell_angle_beta 90.000000
_cell_angle_gamma 90.000000
_cell_volume 2101.845130
_symmetry_space_group_name_H-M "I 21 21 21"
_symmetry_group_IT_number 24
_symmetry_cell_setting 'orthorhombic'
loop_
_space_group_symop_operation_xyz
x,y,z
-x,1/2-y,z
x,-y,1/2-z
1/2-x,y,-z
1/2+x,1/2+y,1/2+z
1/2-x,-y,1/2+z
1/2+x,1/2-y,-z
-x,1/2+y,1/2-z
loop_
_atom_site_type_symbol
_atom_site_label
_atom_site_fract_x
_atom_site_fract_y
_atom_site_fract_z
Si Si1 0.750000 0.302828 0.000000
Si Si2 0.466329 0.504524 0.533450
Si Si3 0.750000 0.817927 0.000000
Si Si4 0.250000 0.970507 0.500000
Si Si5 0.679136 0.616047 0.260109
Si Si6 0.030334 0.604631 0.012383
Si Si7 0.541359 0.886170 0.551715
Si Si8 0.885626 0.222250 0.161549
O O1 0.742579 0.335684 0.814964
O O2 0.639409 0.263991 0.992962
O O3 0.444131 0.500000 0.750000
O O4 0.614958 0.505264 0.499944
O O5 0.426200 0.451230 0.450136
O O6 0.410190 0.559075 0.482315
O O7 0.632703 0.854310 0.038192
O O8 0.714473 0.786069 0.821045
O O9 0.252553 0.935129 0.316599
O O10 0.575262 0.620269 0.420559
O O11 0.602848 0.615126 0.075182
O O12 0.015685 0.605280 0.232129
O O13 0.605318 0.832051 0.562737
O O14 0.000000 0.250000 0.260771
#
# Coordination Sequence:
#
# PCOD9335050 Si02
#       8
#     4   8   4   4   8   8   8   8
#     4  11  24  40  65 102 128 179 228 274 369 418
#     4   9  19  36  62  89 135 173 212 273 335 394
#     4  10  26  44  65 101 131 179 248 276 356 434
#     4   9  20  32  56  99 131 158 220 258 323 410
#     4  10  21  40  63  96 134 165 222 282 326 418
#     4  10  22  42  67  93 136 177 219 285 339 404
#     4   9  20  41  61  92 133 170 219 280 322 405
#     4  11  23  42  67  92 138 179 227 299 343 408
#
# _framework density 24.740167
#
# number of rings (size 3 to 8) (size 9 to 14) (size 15 to 20)
#    0.000    2.154    1.538    0.000    4.308    4.308 
#    0.000    0.769   23.692    0.000    0.000    0.000 
#    0.000    0.000    0.000    0.000    0.000    0.000 
#
# Total GULP energy -144994.338981 kJ/mol
# GULP energy per Si atom -5576.705345 kJ/mol
# Density = 2.468386 g / cm^3
# Si number density = 24.740167 Si / 1000 Ang^3
#
#
#
# Elastic Constant Matrix: (Units=GPa)
#
#
# Indices 1 2 3 4 5 6 
#
# 1 38.4815 6.3693 2.3910 0.0031 0.0003 -0.0008
# 2 6.3693 139.7410 24.0595 0.0072 0.0000 -0.0010
# 3 2.3910 24.0595 69.6497 0.0063 -0.0002 -0.0009
# 4 0.0031 0.0072 0.0063 -16.4931 -0.0025 -0.0020
# 5 0.0003 0.0000 -0.0002 -0.0025 35.8780 0.0006
# 6 -0.0008 -0.0010 -0.0009 -0.0020 0.0006 43.7528
#
#
#
# Elastic Compliance Matrix: (Units=1/GPa)
#
#
# Indices 1 2 3 4 5 6 
#
# 1 0.026202 -0.001105 -0.000518 0.000004 0.000000 0.000000
# 2 -0.001105 0.007655 -0.002606 0.000002 0.000000 0.000000
# 3 -0.000518 -0.002606 0.015276 0.000005 0.000000 0.000000
# 4 0.000004 0.000002 0.000005 -0.060631 -0.000004 -0.000003
# 5 0.000000 0.000000 0.000000 -0.000004 0.027872 0.000000
# 6 0.000000 0.000000 0.000000 -0.000003 0.000000 0.022856
#
#
# Mechanical properties :
#
#
# Convention : Reuss Voigt Hill
#
# Bulk Modulus (GPa) = 24.58578 34.83465 29.71021
# Shear Modulus (GPa) = 81.63856 26.96437 54.30146
#
# Velocity S-wave (km/s) = 5.75065 3.30495 4.69003
# Velocity P-wave (km/s) = 7.35204 5.35484 6.43144
#
# Compressibility (1/GPa) = 0.04067392
#
# Stress axis : x y z
#
# Youngs Moduli (GPa) = 38.16561 130.62968 65.46340
#
# Poissons Ratio (x) = 0.14436 0.03389
# Poissons Ratio (y) = 0.04218 0.17063
# Poissons Ratio (z) = 0.01976 0.34048
#
# Static dielectric constant tensor:
#      x y z
#    x 2.195410 0.000000 0.000010 
#    y 0.000000 2.048980 0.000000 
#    z 0.000010 0.000000 1.997390 
# 
# From -- ./inp_files/11486.got.cif
#   From: 2010.05.17/outbox.cif.g08.bks.cpg/sg24_6_cif.got.tgz:11486.got - 2010.06.04 00:33:39.
