data_PCOD9335918
_publ_section_title
;
Structure prediction by ZEFSAII (Michael W. Deem and Ramdas Pophale) SiO2 
 PCOD9335918
Probable space group: I 21 21 21
;
_chemical_formula_sum "Si O2"
_cell_formula_units_Z 48
_cell_length_a 14.267453
_cell_length_b 9.496074
_cell_length_c 14.319430
_cell_angle_alpha 90.000000
_cell_angle_beta 90.000000
_cell_angle_gamma 90.000000
_cell_volume 1940.064959
_symmetry_space_group_name_H-M "I 21 21 21"
_symmetry_group_IT_number 24
_symmetry_cell_setting 'orthorhombic'
loop_
_space_group_symop_operation_xyz
x,y,z
-x,1/2-y,z
x,-y,1/2-z
1/2-x,y,-z
1/2+x,1/2+y,1/2+z
1/2-x,-y,1/2+z
1/2+x,1/2-y,-z
-x,1/2+y,1/2-z
loop_
_atom_site_type_symbol
_atom_site_label
_atom_site_fract_x
_atom_site_fract_y
_atom_site_fract_z
Si Si1 0.600957 0.735661 0.858434
Si Si2 0.403441 0.732434 0.517378
Si Si3 0.141457 0.948804 0.977607
Si Si4 0.391110 0.411629 0.170736
Si Si5 0.807238 0.656844 0.788152
Si Si6 0.812814 0.010265 0.141506
O O1 0.500000 0.750000 0.808926
O O2 0.697109 0.697904 0.803532
O O3 0.632986 0.882334 0.905916
O O4 0.585328 0.618497 0.937345
O O5 0.500000 0.750000 0.572538
O O6 0.430097 0.634213 0.428576
O O7 0.332333 0.652347 0.585093
O O8 0.369225 0.882821 0.480285
O O9 0.130981 0.863595 0.881795
O O10 0.250000 0.921776 0.000000
O O11 0.445748 0.500000 0.250000
O O12 0.354204 0.269284 0.219857
O O13 0.299031 0.504782 0.146234
O O14 0.803610 0.500000 0.750000
O O15 0.844886 0.000000 0.250000
#
# Coordination Sequence:
#
# PCOD9335918 Si02
#       6
#     8   8   8   8   8   8
#     4  11  24  41  64 102 137 175 227 290 353 398
#     4  12  26  45  67 103 141 179 232 293 355 402
#     4  10  23  42  69  95 132 188 228 280 339 425
#     4  11  23  45  71 100 133 185 238 285 335 425
#     4  11  22  43  70  95 134 181 239 275 339 426
#     4  11  24  43  68  98 136 182 228 280 346 420
#
# _framework density 24.741439
#
# number of rings (size 3 to 8) (size 9 to 14) (size 15 to 20)
#    0.000    1.000    5.000    2.500    4.667    2.667 
#    3.000    0.000    0.000    0.000    0.000    0.000 
#    0.000    0.000    0.000    0.000    0.000    0.000 
#
# Total GULP energy -134118.284060 kJ/mol
# GULP energy per Si atom -5588.261836 kJ/mol
# Density = 2.468513 g / cm^3
# Si number density = 24.741439 Si / 1000 Ang^3
#
#
#
# Elastic Constant Matrix: (Units=GPa)
#
#
# Indices 1 2 3 4 5 6 
#
# 1 35.3094 2.2289 7.1212 0.0000 0.0000 0.0000
# 2 2.2289 113.8409 32.6710 0.0000 0.0000 0.0000
# 3 7.1212 32.6710 101.3611 0.0000 0.0000 0.0000
# 4 0.0000 0.0000 0.0000 45.9239 0.0000 0.0000
# 5 0.0000 0.0000 0.0000 0.0000 3.3248 0.0000
# 6 0.0000 0.0000 0.0000 0.0000 0.0000 10.4069
#
#
#
# Elastic Compliance Matrix: (Units=1/GPa)
#
#
# Indices 1 2 3 4 5 6 
#
# 1 0.028728 0.000018 -0.002024 0.000000 0.000000 0.000000
# 2 0.000018 0.009680 -0.003121 0.000000 0.000000 0.000000
# 3 -0.002024 -0.003121 0.011014 0.000000 0.000000 0.000000
# 4 0.000000 0.000000 0.000000 0.021775 0.000000 0.000000
# 5 0.000000 0.000000 0.000000 0.000000 0.300774 0.000000
# 6 0.000000 0.000000 0.000000 0.000000 0.000000 0.096090
#
#
# Mechanical properties :
#
#
# Convention : Reuss Voigt Hill
#
# Bulk Modulus (GPa) = 25.53126 37.17260 31.35193
# Shear Modulus (GPa) = 10.17562 25.83047 18.00305
#
# Velocity S-wave (km/s) = 2.03020 3.23463 2.70042
# Velocity P-wave (km/s) = 3.97960 5.38586 4.73523
#
# Compressibility (1/GPa) = 0.03916767
#
# Stress axis : x y z
#
# Youngs Moduli (GPa) = 34.80904 103.31021 90.79363
#
# Poissons Ratio (x) = -0.00191 0.18379
# Poissons Ratio (y) = -0.00064 0.28339
# Poissons Ratio (z) = 0.07046 0.32246
#
# Static dielectric constant tensor:
#      x y z
#    x 1.938430 0.000000 0.000000 
#    y 0.000000 1.951490 0.000000 
#    z 0.000000 0.000000 2.057040 
# 
# From -- ./inp_files/27057.got.cif
#   From: 2010.05.17/outbox.cif.g08.bks.cpg/sg24_14_cif.got.tgz:27057.got - 2010.06.04 00:33:39.
