data_PCOD9335011
_publ_section_title
;
Structure prediction by ZEFSAII (Michael W. Deem and Ramdas Pophale) SiO2 
 PCOD9335011
Probable space group: I 21 21 21
;
_chemical_formula_sum "Si O2"
_cell_formula_units_Z 60
_cell_length_a 24.006185
_cell_length_b 12.256573
_cell_length_c 9.280012
_cell_angle_alpha 90.000000
_cell_angle_beta 90.000000
_cell_angle_gamma 90.000000
_cell_volume 2730.490957
_symmetry_space_group_name_H-M "I 21 21 21"
_symmetry_group_IT_number 24
_symmetry_cell_setting 'orthorhombic'
loop_
_space_group_symop_operation_xyz
x,y,z
-x,1/2-y,z
x,-y,1/2-z
1/2-x,y,-z
1/2+x,1/2+y,1/2+z
1/2-x,-y,1/2+z
1/2+x,1/2-y,-z
-x,1/2+y,1/2-z
loop_
_atom_site_type_symbol
_atom_site_label
_atom_site_fract_x
_atom_site_fract_y
_atom_site_fract_z
Si Si1 0.878781 0.795213 0.737798
Si Si2 0.752070 0.799933 0.652736
Si Si3 0.198595 0.061112 0.097717
Si Si4 0.960673 0.947868 0.547832
Si Si5 0.940780 0.224274 0.201098
Si Si6 0.616495 0.879703 0.953548
Si Si7 0.690639 0.000000 0.750000
Si Si8 0.085521 0.894495 0.551710
O O1 0.817262 0.783497 0.672655
O O2 0.919399 0.887686 0.664250
O O3 0.906381 0.681622 0.691525
O O4 0.864966 0.818424 0.903904
O O5 0.750000 0.859331 0.500000
O O6 0.717196 0.687209 0.636735
O O7 0.726449 0.889848 0.756288
O O8 0.192083 0.000000 0.250000
O O9 0.250000 0.019062 0.000000
O O10 0.143166 0.049811 0.998339
O O11 0.952200 0.877924 0.402437
O O12 0.026337 0.951219 0.578813
O O13 0.940545 0.067154 0.508556
O O14 0.894864 0.198067 0.318771
O O15 0.000000 0.250000 0.272922
O O16 0.924319 0.317366 0.088621
O O17 0.652014 0.981297 0.890803
#
# Coordination Sequence:
#
# PCOD9335011 Si02
#       8
#     8   8   8   8   8   8   4   8
#     4  11  23  41  66  98 134 183 228 278 355 422
#     4  11  24  44  72  96 142 188 233 283 355 420
#     4  11  24  49  74  98 134 188 246 304 356 414
#     4  10  21  39  66  93 132 187 225 274 352 421
#     4   9  19  36  61  91 133 179 225 276 343 411
#     4  12  23  38  62 101 149 172 227 292 342 425
#     4  12  26  40  66 112 152 184 226 278 354 438
#     4  10  21  45  71  93 130 189 234 290 357 421
#
# _framework density 21.974070999999999
#
# number of rings (size 3 to 8) (size 9 to 14) (size 15 to 20)
#    0.000    1.333    4.000    3.200    3.733    3.200 
#    4.800    1.333    0.000    0.000    0.000    0.000 
#    0.000    0.000    0.000    0.000    0.000    0.000 
#
# Total GULP energy -167218.343860 kJ/mol
# GULP energy per Si atom -5573.944795 kJ/mol
# Density = 2.192406 g / cm^3
# Si number density = 21.974071 Si / 1000 Ang^3
#
#
#
# Elastic Constant Matrix: (Units=GPa)
#
#
# Indices 1 2 3 4 5 6 
#
# 1 102.1012 10.8158 -5.6977 0.0000 0.0000 0.0000
# 2 10.8158 25.4014 4.8917 0.0000 0.0000 0.0000
# 3 -5.6977 4.8917 77.7930 0.0000 0.0000 0.0000
# 4 0.0000 0.0000 0.0000 27.8804 0.0000 0.0000
# 5 0.0000 0.0000 0.0000 0.0000 18.3335 0.0000
# 6 0.0000 0.0000 0.0000 0.0000 0.0000 29.6807
#
#
#
# Elastic Compliance Matrix: (Units=1/GPa)
#
#
# Indices 1 2 3 4 5 6 
#
# 1 0.010340 -0.004604 0.001047 0.000000 0.000000 0.000000
# 2 -0.004604 0.041901 -0.002972 0.000000 0.000000 0.000000
# 3 0.001047 -0.002972 0.013118 0.000000 0.000000 0.000000
# 4 0.000000 0.000000 0.000000 0.035867 0.000000 0.000000
# 5 0.000000 0.000000 0.000000 0.000000 0.054545 0.000000
# 6 0.000000 0.000000 0.000000 0.000000 0.000000 0.033692
#
#
# Mechanical properties :
#
#
# Convention : Reuss Voigt Hill
#
# Bulk Modulus (GPa) = 19.12040 25.03502 22.07771
# Shear Modulus (GPa) = 22.73178 28.19798 25.46488
#
# Velocity S-wave (km/s) = 3.21983 3.58612 3.40790
# Velocity P-wave (km/s) = 4.74798 5.34460 5.05510
#
# Compressibility (1/GPa) = 0.05230017
#
# Stress axis : x y z
#
# Youngs Moduli (GPa) = 96.70813 23.86588 76.23007
#
# Poissons Ratio (x) = 0.10989 -0.07980
# Poissons Ratio (y) = 0.44529 0.22656
# Poissons Ratio (z) = -0.10124 0.07093
#
# Static dielectric constant tensor:
#      x y z
#    x 1.908650 0.000000 0.000000 
#    y 0.000000 1.835730 0.000000 
#    z 0.000000 0.000000 1.881720 
# 
# From -- ./inp_files/16000.got.cif
#   From: 2010.05.17/outbox.cif.g08.bks.cpg/sg24_8_cif.got.tgz:16000.got - 2010.06.04 00:33:39.
