data_PCOD9335431
_publ_section_title
;
Structure prediction by ZEFSAII (Michael W. Deem and Ramdas Pophale) SiO2 
 PCOD9335431
Probable space group: I 21 21 21
;
_chemical_formula_sum "Si O2"
_cell_formula_units_Z 28
_cell_length_a 20.479902
_cell_length_b 4.703601
_cell_length_c 11.506070
_cell_angle_alpha 90.000000
_cell_angle_beta 90.000000
_cell_angle_gamma 90.000000
_cell_volume 1108.371525
_symmetry_space_group_name_H-M "I 21 21 21"
_symmetry_group_IT_number 24
_symmetry_cell_setting 'orthorhombic'
loop_
_space_group_symop_operation_xyz
x,y,z
-x,1/2-y,z
x,-y,1/2-z
1/2-x,y,-z
1/2+x,1/2+y,1/2+z
1/2-x,-y,1/2+z
1/2+x,1/2-y,-z
-x,1/2+y,1/2-z
loop_
_atom_site_type_symbol
_atom_site_label
_atom_site_fract_x
_atom_site_fract_y
_atom_site_fract_z
Si Si1 0.744311 0.851037 0.127583
Si Si2 0.000000 0.250000 0.826546
Si Si3 0.892004 0.910933 0.965505
Si Si4 0.366531 0.940409 0.619755
O O1 0.760256 0.000000 0.250000
O O2 0.750000 0.997751 0.000000
O O3 0.666093 0.814877 0.122374
O O4 0.706971 0.580522 0.883687
O O5 0.967523 0.500000 0.750000
O O6 0.053264 0.422350 0.898082
O O7 0.910216 0.625031 0.032059
O O8 0.870192 0.122587 0.071768
O O9 0.389049 0.000000 0.750000
#
# Coordination Sequence:
#
# PCOD9335431 Si02
#       4
#     8   4   8   8
#     4  10  22  39  64 100 139 179 226 285 358 429
#     4  12  26  50  74 100 140 188 244 306 356 426
#     4  11  25  44  69 103 140 188 240 293 358 432
#     4  11  23  43  68 101 145 185 230 295 362 437
#
# _framework density 25.262284999999999
#
# number of rings (size 3 to 8) (size 9 to 14) (size 15 to 20)
#    0.000    1.143    0.000    6.857    0.000   19.429 
#    0.000    4.286    0.000    1.714    0.000    0.000 
#    0.000    0.000    0.000    0.000    0.000    0.000 
#
# Total GULP energy -78181.532654 kJ/mol
# GULP energy per Si atom -5584.395190 kJ/mol
# Density = 2.520479 g / cm^3
# Si number density = 25.262285 Si / 1000 Ang^3
#
#
#
# Elastic Constant Matrix: (Units=GPa)
#
#
# Indices 1 2 3 4 5 6 
#
# 1 69.6491 -9.7942 16.7938 0.0000 0.0000 0.0000
# 2 -9.7942 103.5203 15.2962 0.0000 0.0000 0.0000
# 3 16.7938 15.2962 136.0890 0.0000 0.0000 0.0000
# 4 0.0000 0.0000 0.0000 56.0395 0.0000 0.0000
# 5 0.0000 0.0000 0.0000 0.0000 24.2909 0.0000
# 6 0.0000 0.0000 0.0000 0.0000 0.0000 46.9940
#
#
#
# Elastic Compliance Matrix: (Units=1/GPa)
#
#
# Indices 1 2 3 4 5 6 
#
# 1 0.015097 0.001732 -0.002058 0.000000 0.000000 0.000000
# 2 0.001732 0.010022 -0.001340 0.000000 0.000000 0.000000
# 3 -0.002058 -0.001340 0.007753 0.000000 0.000000 0.000000
# 4 0.000000 0.000000 0.000000 0.017845 0.000000 0.000000
# 5 0.000000 0.000000 0.000000 0.000000 0.041168 0.000000
# 6 0.000000 0.000000 0.000000 0.000000 0.000000 0.021279
#
#
# Mechanical properties :
#
#
# Convention : Reuss Voigt Hill
#
# Bulk Modulus (GPa) = 33.85133 39.31665 36.58399
# Shear Modulus (GPa) = 39.57520 44.59573 42.08546
#
# Velocity S-wave (km/s) = 3.96229 4.20612 4.08602
# Velocity P-wave (km/s) = 5.86191 6.25985 6.06415
#
# Compressibility (1/GPa) = 0.02954094
#
# Stress axis : x y z
#
# Youngs Moduli (GPa) = 66.23620 99.78161 128.98718
#
# Poissons Ratio (x) = -0.17287 0.26543
# Poissons Ratio (y) = -0.11475 0.17287
# Poissons Ratio (z) = 0.13630 0.13373
#
# Static dielectric constant tensor:
#      x y z
#    x 2.150900 0.000000 0.000000 
#    y 0.000000 2.005510 0.000000 
#    z 0.000000 0.000000 2.062340 
# 
# From -- ./inp_files/16177.got.cif
#   From: 2010.05.17/outbox.cif.g08.bks.cpg/sg24_9_cif.got.tgz:16177.got - 2010.06.04 00:33:39.
