data_PCOD9335165
_publ_section_title
;
Structure prediction by ZEFSAII (Michael W. Deem and Ramdas Pophale) SiO2 
 PCOD9335165
Probable space group: I 21 21 21
;
_chemical_formula_sum "Si O2"
_cell_formula_units_Z 48
_cell_length_a 24.955645
_cell_length_b 5.845750
_cell_length_c 14.836015
_cell_angle_alpha 90.000000
_cell_angle_beta 90.000000
_cell_angle_gamma 90.000000
_cell_volume 2164.344063
_symmetry_space_group_name_H-M "I 21 21 21"
_symmetry_group_IT_number 24
_symmetry_cell_setting 'orthorhombic'
loop_
_space_group_symop_operation_xyz
x,y,z
-x,1/2-y,z
x,-y,1/2-z
1/2-x,y,-z
1/2+x,1/2+y,1/2+z
1/2-x,-y,1/2+z
1/2+x,1/2-y,-z
-x,1/2+y,1/2-z
loop_
_atom_site_type_symbol
_atom_site_label
_atom_site_fract_x
_atom_site_fract_y
_atom_site_fract_z
Si Si1 0.027080 0.500000 0.250000
Si Si2 0.327812 0.805304 0.502427
Si Si3 0.603335 0.668997 0.085324
Si Si4 0.529860 0.500000 0.250000
Si Si5 0.100919 0.426381 0.411773
Si Si6 0.193179 0.865176 0.158624
Si Si7 0.282119 0.421013 0.406144
O O1 0.060406 0.532957 0.342042
O O2 0.000000 0.750000 0.236179
O O3 0.352415 0.600660 0.560305
O O4 0.296395 0.686563 0.420077
O O5 0.377795 0.937777 0.461729
O O6 0.298366 0.972575 0.571432
O O7 0.566416 0.597108 0.168084
O O8 0.660870 0.792669 0.107035
O O9 0.578144 0.825824 0.005838
O O10 0.500000 0.250000 0.224200
O O11 0.133950 0.232913 0.358556
O O12 0.239172 0.673145 0.163295
O O13 0.194137 0.000000 0.250000
O O14 0.250000 0.374069 0.500000
#
# Coordination Sequence:
#
# PCOD9335165 Si02
#       7
#     4   8   8   4   8   8   8
#     4  12  30  48  72 112 150 188 254 324 372 460
#     4  10  21  41  72  92 152 187 240 291 370 463
#     4  10  25  47  76 106 143 196 252 322 385 457
#     4  12  32  58  82 110 148 200 286 358 398 448
#     4  10  23  45  71 103 146 194 238 301 388 462
#     4  11  23  38  68 106 146 193 240 292 370 470
#     4  11  21  40  64 109 145 194 234 286 383 462
#
# _framework density 22.177620999999998
#
# number of rings (size 3 to 8) (size 9 to 14) (size 15 to 20)
#    0.000    1.333    5.000    1.000   14.000    0.667 
#    0.000    1.667    0.000    0.000    0.000    0.000 
#    0.000    0.000    0.000    0.000    0.000    0.000 
#
# Total GULP energy -133720.607488 kJ/mol
# GULP energy per Si atom -5571.691979 kJ/mol
# Density = 2.212714 g / cm^3
# Si number density = 22.177621 Si / 1000 Ang^3
#
#
#
# Elastic Constant Matrix: (Units=GPa)
#
#
# Indices 1 2 3 4 5 6 
#
# 1 63.0852 17.6413 30.9975 0.0000 0.0000 0.0000
# 2 17.6413 75.2138 10.0134 0.0000 0.0000 0.0000
# 3 30.9975 10.0134 78.2978 0.0000 0.0000 0.0000
# 4 0.0000 0.0000 0.0000 20.6886 0.0000 0.0000
# 5 0.0000 0.0000 0.0000 0.0000 3.5801 0.0000
# 6 0.0000 0.0000 0.0000 0.0000 0.0000 29.7244
#
#
#
# Elastic Compliance Matrix: (Units=1/GPa)
#
#
# Indices 1 2 3 4 5 6 
#
# 1 0.020711 -0.003831 -0.007709 0.000000 0.000000 0.000000
# 2 -0.003831 0.014234 -0.000304 0.000000 0.000000 0.000000
# 3 -0.007709 -0.000304 0.015863 0.000000 0.000000 0.000000
# 4 0.000000 0.000000 0.000000 0.048336 0.000000 0.000000
# 5 0.000000 0.000000 0.000000 0.000000 0.279325 0.000000
# 6 0.000000 0.000000 0.000000 0.000000 0.000000 0.033642
#
#
# Mechanical properties :
#
#
# Convention : Reuss Voigt Hill
#
# Bulk Modulus (GPa) = 36.87384 37.10013 36.98698
# Shear Modulus (GPa) = 11.23999 21.32826 16.28413
#
# Velocity S-wave (km/s) = 2.25370 3.10450 2.71266
# Velocity P-wave (km/s) = 4.84096 5.44201 5.15026
#
# Compressibility (1/GPa) = 0.02711950
#
# Stress axis : x y z
#
# Youngs Moduli (GPa) = 48.28335 70.25191 63.04111
#
# Poissons Ratio (x) = 0.26916 0.48601
# Poissons Ratio (y) = 0.18499 0.01914
# Poissons Ratio (z) = 0.37223 0.02133
#
# Static dielectric constant tensor:
#      x y z
#    x 1.838150 0.000000 0.000000 
#    y 0.000000 1.916570 0.000000 
#    z 0.000000 0.000000 1.791830 
# 
# From -- ./inp_files/28034.got.cif
#   From: 2010.05.17/outbox.cif.g08.bks.cpg/sg24_15_cif.got.tgz:28034.got - 2010.06.04 00:33:39.
