data_PCOD9335145
_publ_section_title
;
Structure prediction by ZEFSAII (Michael W. Deem and Ramdas Pophale) SiO2 
 PCOD9335145
Probable space group: I 21 21 21
;
_chemical_formula_sum "Si O2"
_cell_formula_units_Z 48
_cell_length_a 31.341000
_cell_length_b 13.233376
_cell_length_c 5.146701
_cell_angle_alpha 90.000000
_cell_angle_beta 90.000000
_cell_angle_gamma 90.000000
_cell_volume 2134.580021
_symmetry_space_group_name_H-M "I 21 21 21"
_symmetry_group_IT_number 24
_symmetry_cell_setting 'orthorhombic'
loop_
_space_group_symop_operation_xyz
x,y,z
-x,1/2-y,z
x,-y,1/2-z
1/2-x,y,-z
1/2+x,1/2+y,1/2+z
1/2-x,-y,1/2+z
1/2+x,1/2-y,-z
-x,1/2+y,1/2-z
loop_
_atom_site_type_symbol
_atom_site_label
_atom_site_fract_x
_atom_site_fract_y
_atom_site_fract_z
Si Si1 0.203258 0.927236 0.499373
Si Si2 0.977592 0.146096 0.586551
Si Si3 0.608415 0.607412 0.596849
Si Si4 0.750000 0.073058 0.000000
Si Si5 0.926169 0.818744 0.382296
Si Si6 0.341219 0.571612 0.498840
Si Si7 0.045733 0.000000 0.750000
O O1 0.250000 0.874136 0.500000
O O2 0.157775 0.871340 0.474782
O O3 0.205146 0.000000 0.250000
O O4 0.199876 0.000000 0.750000
O O5 0.941223 0.124176 0.376371
O O6 0.000000 0.250000 0.503490
O O7 0.012733 0.058603 0.567413
O O8 0.959698 0.164663 0.879973
O O9 0.607680 0.500000 0.750000
O O10 0.585430 0.705101 0.713210
O O11 0.577681 0.584147 0.355795
O O12 0.750047 0.000000 0.750000
O O13 0.704613 0.128194 0.001507
O O14 0.881866 0.858540 0.493713
O O15 0.342209 0.500000 0.750000
O O16 0.343002 0.500000 0.250000
#
# Coordination Sequence:
#
# PCOD9335145 Si02
#       7
#     8   8   8   4   8   8   4
#     4   9  18  35  62  94 127 165 211 260 314 381
#     4  12  27  46  65  93 129 165 221 272 323 385
#     4  11  24  44  69  95 132 176 221 267 334 399
#     4   8  16  34  64  92 128 170 212 256 314 392
#     4  12  27  44  65  99 131 167 217 279 326 391
#     4  10  21  41  66  97 133 173 213 265 330 389
#     4  12  26  44  70  90 124 180 220 268 336 398
#
# _framework density 22.486858000000002
#
# number of rings (size 3 to 8) (size 9 to 14) (size 15 to 20)
#    0.000    1.333    2.500    2.500    5.833    0.000 
#    1.500    0.000    0.000    0.000    2.167    0.000 
#    0.000    0.000    0.000    0.000    0.000    0.000 
#
# Total GULP energy -133906.620588 kJ/mol
# GULP energy per Si atom -5579.442525 kJ/mol
# Density = 2.243568 g / cm^3
# Si number density = 22.486858 Si / 1000 Ang^3
#
#
#
# Elastic Constant Matrix: (Units=GPa)
#
#
# Indices 1 2 3 4 5 6 
#
# 1 171.4471 28.3246 18.3485 0.0003 0.0002 -0.0005
# 2 28.3246 40.8051 3.6017 -0.0003 0.0014 -0.0015
# 3 18.3485 3.6017 115.3469 -0.0009 0.0072 -0.0116
# 4 0.0003 -0.0003 -0.0009 16.4156 0.0025 -0.0032
# 5 0.0002 0.0014 0.0072 0.0025 14.3468 0.0063
# 6 -0.0005 -0.0015 -0.0116 -0.0032 0.0063 12.6504
#
#
#
# Elastic Compliance Matrix: (Units=1/GPa)
#
#
# Indices 1 2 3 4 5 6 
#
# 1 0.006684 -0.004559 -0.000921 0.000000 0.000001 -0.000001
# 2 -0.004559 0.027683 -0.000139 0.000001 -0.000003 0.000003
# 3 -0.000921 -0.000139 0.008820 0.000000 -0.000004 0.000008
# 4 0.000000 0.000001 0.000000 0.060918 -0.000011 0.000015
# 5 0.000001 -0.000003 -0.000004 -0.000011 0.069702 -0.000035
# 6 -0.000001 0.000003 0.000008 0.000015 -0.000035 0.079049
#
#
# Mechanical properties :
#
#
# Convention : Reuss Voigt Hill
#
# Bulk Modulus (GPa) = 31.29850 47.57207 39.43529
# Shear Modulus (GPa) = 18.19876 27.17087 22.68481
#
# Velocity S-wave (km/s) = 2.84792 3.47983 3.17961
# Velocity P-wave (km/s) = 4.97624 6.11122 5.57270
#
# Compressibility (1/GPa) = 0.03195041
#
# Stress axis : x y z
#
# Youngs Moduli (GPa) = 149.60217 36.12276 113.37418
#
# Poissons Ratio (x) = 0.16467 0.10441
# Poissons Ratio (y) = 0.68198 0.01579
# Poissons Ratio (z) = 0.13778 0.00503
#
# Static dielectric constant tensor:
#      x y z
#    x 1.880310 0.000000 0.000000 
#    y 0.000000 2.095950 -0.000030 
#    z 0.000000 -0.000030 1.838710 
# 
# From -- ./inp_files/7143.got.cif
#   From: 2010.05.17/outbox.cif.g08.bks.cpg/sg24_4_cif.got.tgz:7143.got - 2010.06.04 00:33:39.
