data_PCOD9335380
_publ_section_title
;
Structure prediction by ZEFSAII (Michael W. Deem and Ramdas Pophale) SiO2 
 PCOD9335380
Probable space group: I 21 21 21
;
_chemical_formula_sum "Si O2"
_cell_formula_units_Z 40
_cell_length_a 14.606858
_cell_length_b 5.365924
_cell_length_c 21.988452
_cell_angle_alpha 90.000000
_cell_angle_beta 90.000000
_cell_angle_gamma 90.000000
_cell_volume 1723.439254
_symmetry_space_group_name_H-M "I 21 21 21"
_symmetry_group_IT_number 24
_symmetry_cell_setting 'orthorhombic'
loop_
_space_group_symop_operation_xyz
x,y,z
-x,1/2-y,z
x,-y,1/2-z
1/2-x,y,-z
1/2+x,1/2+y,1/2+z
1/2-x,-y,1/2+z
1/2+x,1/2-y,-z
-x,1/2+y,1/2-z
loop_
_atom_site_type_symbol
_atom_site_label
_atom_site_fract_x
_atom_site_fract_y
_atom_site_fract_z
Si Si1 0.143510 0.500000 0.250000
Si Si2 0.393740 0.066399 0.565187
Si Si3 0.845339 0.930847 0.467362
Si Si4 0.256941 0.363669 0.637858
Si Si5 0.500000 0.250000 0.838191
Si Si6 0.557984 0.001972 0.323150
O O1 0.206674 0.335487 0.294004
O O2 0.078439 0.659655 0.292905
O O3 0.386391 0.835916 0.519328
O O4 0.462781 0.972283 0.617863
O O5 0.407888 0.326341 0.529666
O O6 0.294871 0.132197 0.597737
O O7 0.750000 0.975285 0.500000
O O8 0.816132 0.923115 0.396267
O O9 0.153040 0.454105 0.641092
O O10 0.500000 0.750000 0.336995
O O11 0.500000 0.250000 0.335096
O O12 0.577213 0.000000 0.250000
#
# Coordination Sequence:
#
# PCOD9335380 Si02
#       6
#     4   8   8   8   4   8
#     4  12  22  38  62 100 146 190 204 282 316 450
#     4  10  23  39  67  95 129 179 218 285 320 419
#     4  10  22  43  67  91 121 174 231 277 336 393
#     4  10  23  40  64  98 127 180 225 260 347 405
#     4  12  22  40  62 108 150 180 230 264 354 400
#     4  10  22  38  61  89 126 163 205 271 321 384
#
# _framework density 23.209403999999999
#
# number of rings (size 3 to 8) (size 9 to 14) (size 15 to 20)
#    1.200    0.400    3.000    1.800    2.800    2.400 
#    3.600    0.000    6.600    0.000    0.000    0.000 
#    0.000    0.000    0.000    0.000    0.000    0.000 
#
# Total GULP energy -111436.542084 kJ/mol
# GULP energy per Si atom -5571.827104 kJ/mol
# Density = 2.315658 g / cm^3
# Si number density = 23.209404 Si / 1000 Ang^3
#
#
#
# Elastic Constant Matrix: (Units=GPa)
#
#
# Indices 1 2 3 4 5 6 
#
# 1 111.3079 43.1026 5.8959 0.0000 0.0000 0.0000
# 2 43.1026 186.5687 8.2721 0.0000 0.0000 0.0000
# 3 5.8959 8.2721 31.6213 0.0000 0.0000 0.0000
# 4 0.0000 0.0000 0.0000 11.4705 0.0000 0.0000
# 5 0.0000 0.0000 0.0000 0.0000 45.8677 0.0000
# 6 0.0000 0.0000 0.0000 0.0000 0.0000 33.5857
#
#
#
# Elastic Compliance Matrix: (Units=1/GPa)
#
#
# Indices 1 2 3 4 5 6 
#
# 1 0.009917 -0.002235 -0.001264 0.000000 0.000000 0.000000
# 2 -0.002235 0.005927 -0.001134 0.000000 0.000000 0.000000
# 3 -0.001264 -0.001134 0.032157 0.000000 0.000000 0.000000
# 4 0.000000 0.000000 0.000000 0.087180 0.000000 0.000000
# 5 0.000000 0.000000 0.000000 0.000000 0.021802 0.000000
# 6 0.000000 0.000000 0.000000 0.000000 0.000000 0.029775
#
#
# Mechanical properties :
#
#
# Convention : Reuss Voigt Hill
#
# Bulk Modulus (GPa) = 25.81725 49.33766 37.57745
# Shear Modulus (GPa) = 23.93106 36.33326 30.13216
#
# Velocity S-wave (km/s) = 3.21455 3.96087 3.60707
# Velocity P-wave (km/s) = 4.99255 6.49783 5.79428
#
# Compressibility (1/GPa) = 0.03873380
#
# Stress axis : x y z
#
# Youngs Moduli (GPa) = 100.84193 168.73217 31.09785
#
# Poissons Ratio (x) = 0.37711 0.03932
# Poissons Ratio (y) = 0.22537 0.03525
# Poissons Ratio (z) = 0.12750 0.19129
#
# Static dielectric constant tensor:
#      x y z
#    x 1.954860 0.000000 0.000000 
#    y 0.000000 1.955410 0.000000 
#    z 0.000000 0.000000 1.892000 
# 
# From -- ./inp_files/37308.got.cif
#   From: 2010.05.17/outbox.cif.g08.bks.cpg/sg24_19_cif.got.tgz:37308.got - 2010.06.04 00:33:39.
