data_PCOD9335521
_publ_section_title
;
Structure prediction by ZEFSAII (Michael W. Deem and Ramdas Pophale) SiO2 
 PCOD9335521
Probable space group: I 21 21 21
;
_chemical_formula_sum "Si O2"
_cell_formula_units_Z 44
_cell_length_a 16.320149
_cell_length_b 8.611266
_cell_length_c 14.510039
_cell_angle_alpha 90.000000
_cell_angle_beta 90.000000
_cell_angle_gamma 90.000000
_cell_volume 2039.199443
_symmetry_space_group_name_H-M "I 21 21 21"
_symmetry_group_IT_number 24
_symmetry_cell_setting 'orthorhombic'
loop_
_space_group_symop_operation_xyz
x,y,z
-x,1/2-y,z
x,-y,1/2-z
1/2-x,y,-z
1/2+x,1/2+y,1/2+z
1/2-x,-y,1/2+z
1/2+x,1/2-y,-z
-x,1/2+y,1/2-z
loop_
_atom_site_type_symbol
_atom_site_label
_atom_site_fract_x
_atom_site_fract_y
_atom_site_fract_z
Si Si1 0.930291 0.877595 0.669264
Si Si2 0.498024 0.933713 0.513531
Si Si3 0.356338 0.500116 0.860616
Si Si4 0.592217 0.682934 0.901853
Si Si5 0.763286 0.281530 0.896538
Si Si6 0.675970 0.500000 0.750000
O O1 0.961320 0.982577 0.582856
O O2 0.853098 0.777432 0.632883
O O3 0.000000 0.750000 0.696775
O O4 0.910067 0.000000 0.750000
O O5 0.500000 0.750000 0.500771
O O6 0.554584 0.950581 0.603346
O O7 0.416259 0.033696 0.531149
O O8 0.353517 0.500000 0.750000
O O9 0.347574 0.669147 0.909443
O O10 0.292428 0.373019 0.893012
O O11 0.500000 0.750000 0.905707
O O12 0.617216 0.617223 0.803410
O O13 0.730422 0.405837 0.822940
O O14 0.750000 0.341954 0.000000
#
# Coordination Sequence:
#
# PCOD9335521 Si02
#       6
#     8   8   8   8   8   4
#     4  11  27  49  75 100 144 207 256 309 364 450
#     4  10  22  40  68 103 144 188 238 299 377 441
#     4  11  21  40  67 103 145 185 234 299 377 443
#     4  10  24  37  68 110 146 184 236 304 381 458
#     4  12  26  50  75 107 149 197 251 312 385 446
#     4  12  26  42  74 110 148 194 248 312 374 462
#
# _framework density 21.577096999999998
#
# number of rings (size 3 to 8) (size 9 to 14) (size 15 to 20)
#    0.000    1.091    3.636    1.636    8.909    2.182 
#    0.000    4.545    0.000    0.000    0.000    0.000 
#    0.000    0.000    0.000    0.000    0.000    0.000 
#
# Total GULP energy -122628.602340 kJ/mol
# GULP energy per Si atom -5574.027379 kJ/mol
# Density = 2.152799 g / cm^3
# Si number density = 21.577097 Si / 1000 Ang^3
#
#
#
# Elastic Constant Matrix: (Units=GPa)
#
#
# Indices 1 2 3 4 5 6 
#
# 1 58.8177 25.4291 7.8813 0.0000 0.0000 0.0000
# 2 25.4291 107.9599 23.6514 0.0000 0.0000 0.0000
# 3 7.8813 23.6514 101.1660 0.0000 0.0000 0.0000
# 4 0.0000 0.0000 0.0000 34.9640 0.0000 0.0000
# 5 0.0000 0.0000 0.0000 0.0000 14.1025 0.0000
# 6 0.0000 0.0000 0.0000 0.0000 0.0000 43.2443
#
#
#
# Elastic Compliance Matrix: (Units=1/GPa)
#
#
# Indices 1 2 3 4 5 6 
#
# 1 0.018949 -0.004363 -0.000456 0.000000 0.000000 0.000000
# 2 -0.004363 0.010767 -0.002177 0.000000 0.000000 0.000000
# 3 -0.000456 -0.002177 0.010429 0.000000 0.000000 0.000000
# 4 0.000000 0.000000 0.000000 0.028601 0.000000 0.000000
# 5 0.000000 0.000000 0.000000 0.000000 0.070909 0.000000
# 6 0.000000 0.000000 0.000000 0.000000 0.000000 0.023124
#
#
# Mechanical properties :
#
#
# Convention : Reuss Voigt Hill
#
# Bulk Modulus (GPa) = 38.23766 42.42971 40.33368
# Shear Modulus (GPa) = 26.95535 32.52761 29.74148
#
# Velocity S-wave (km/s) = 3.53832 3.88687 3.71668
# Velocity P-wave (km/s) = 5.86965 6.31274 6.09522
#
# Compressibility (1/GPa) = 0.02615223
#
# Stress axis : x y z
#
# Youngs Moduli (GPa) = 52.77245 92.87220 95.88351
#
# Poissons Ratio (x) = 0.40524 0.04373
# Poissons Ratio (y) = 0.23027 0.20878
# Poissons Ratio (z) = 0.02407 0.20222
#
# Static dielectric constant tensor:
#      x y z
#    x 1.816690 0.000000 0.000000 
#    y 0.000000 3.513550 0.000000 
#    z 0.000000 0.000000 1.781490 
# 
# From -- ./inp_files/14080.got.cif
#   From: 2010.05.17/outbox.cif.g08.bks.cpg/sg24_8_cif.got.tgz:14080.got - 2010.06.04 00:33:39.
