data_PCOD9335964
_publ_section_title
;
Structure prediction by ZEFSAII (Michael W. Deem and Ramdas Pophale) SiO2 
 PCOD9335964
Probable space group: I 21 21 21
;
_chemical_formula_sum "Si O2"
_cell_formula_units_Z 48
_cell_length_a 5.202223
_cell_length_b 24.423570
_cell_length_c 15.302306
_cell_angle_alpha 90.000000
_cell_angle_beta 90.000000
_cell_angle_gamma 90.000000
_cell_volume 1944.262914
_symmetry_space_group_name_H-M "I 21 21 21"
_symmetry_group_IT_number 24
_symmetry_cell_setting 'orthorhombic'
loop_
_space_group_symop_operation_xyz
x,y,z
-x,1/2-y,z
x,-y,1/2-z
1/2-x,y,-z
1/2+x,1/2+y,1/2+z
1/2-x,-y,1/2+z
1/2+x,1/2-y,-z
-x,1/2+y,1/2-z
loop_
_atom_site_type_symbol
_atom_site_label
_atom_site_fract_x
_atom_site_fract_y
_atom_site_fract_z
Si Si1 0.001632 0.626662 0.452798
Si Si2 0.500000 0.250000 0.926799
Si Si3 0.120471 0.693681 0.847053
Si Si4 0.032110 0.620120 0.241483
Si Si5 0.500000 0.750000 0.311453
Si Si6 0.250000 0.615908 0.000000
Si Si7 0.543571 0.448779 0.312624
Si Si8 0.250000 0.947810 0.000000
O O1 0.750000 0.602863 0.500000
O O2 0.997613 0.691824 0.474422
O O3 0.250000 0.602292 0.500000
O O4 0.021753 0.622949 0.347604
O O5 0.250699 0.251924 0.867495
O O6 0.404664 0.678091 0.807995
O O7 0.000000 0.750000 0.884803
O O8 0.981440 0.697717 0.752630
O O9 0.109259 0.652335 0.926831
O O10 0.273506 0.581527 0.210753
O O11 0.768583 0.593492 0.210896
O O12 0.494034 0.582970 0.963222
O O13 0.561976 0.500000 0.250000
O O14 0.610216 0.469649 0.411317
#
# Coordination Sequence:
#
# PCOD9335964 Si02
#       8
#     8   4   8   8   4   4   8   4
#     4  12  25  42  65 100 142 190 246 301 363 432
#     4  12  22  41  65  92 136 194 252 292 347 425
#     4  10  23  44  66 107 151 202 242 294 360 446
#     4  12  25  49  76 106 151 194 249 315 388 460
#     4  10  24  37  63  94 136 192 246 288 353 429
#     4  12  24  43  70 110 152 200 248 305 352 468
#     4  12  27  51  81 111 143 194 256 325 400 469
#     4  12  24  47  78 108 148 194 254 317 398 454
#
# _framework density 24.688019000000001
#
# number of rings (size 3 to 8) (size 9 to 14) (size 15 to 20)
#    0.500    0.000    5.000    3.000    2.333    2.000 
#    7.500    0.000    0.000    0.000    0.000    0.000 
#    0.000    0.000    0.000    0.000    0.000    0.000 
#
# Total GULP energy -133722.807282 kJ/mol
# GULP energy per Si atom -5571.783637 kJ/mol
# Density = 2.463183 g / cm^3
# Si number density = 24.688019 Si / 1000 Ang^3
#
#
#
# Elastic Constant Matrix: (Units=GPa)
#
#
# Indices 1 2 3 4 5 6 
#
# 1 188.8348 29.4156 52.2539 0.0000 0.0000 0.0000
# 2 29.4156 65.7465 29.8661 0.0000 0.0000 0.0000
# 3 52.2539 29.8661 165.4766 0.0000 0.0000 0.0000
# 4 0.0000 0.0000 0.0000 11.9988 0.0000 0.0000
# 5 0.0000 0.0000 0.0000 0.0000 45.0738 0.0000
# 6 0.0000 0.0000 0.0000 0.0000 0.0000 13.8833
#
#
#
# Elastic Compliance Matrix: (Units=1/GPa)
#
#
# Indices 1 2 3 4 5 6 
#
# 1 0.006034 -0.001998 -0.001545 0.000000 0.000000 0.000000
# 2 -0.001998 0.017230 -0.002479 0.000000 0.000000 0.000000
# 3 -0.001545 -0.002479 0.006978 0.000000 0.000000 0.000000
# 4 0.000000 0.000000 0.000000 0.083342 0.000000 0.000000
# 5 0.000000 0.000000 0.000000 0.000000 0.022186 0.000000
# 6 0.000000 0.000000 0.000000 0.000000 0.000000 0.072029
#
#
# Mechanical properties :
#
#
# Convention : Reuss Voigt Hill
#
# Bulk Modulus (GPa) = 54.94759 71.45878 63.20319
# Shear Modulus (GPa) = 22.13277 34.75932 28.44605
#
# Velocity S-wave (km/s) = 2.99741 3.75633 3.39812
# Velocity P-wave (km/s) = 5.85529 6.91526 6.40723
#
# Compressibility (1/GPa) = 0.01819916
#
# Stress axis : x y z
#
# Youngs Moduli (GPa) = 165.71709 58.03857 143.29959
#
# Poissons Ratio (x) = 0.11596 0.22138
# Poissons Ratio (y) = 0.33111 0.35521
# Poissons Ratio (z) = 0.25602 0.14387
#
# Static dielectric constant tensor:
#      x y z
#    x 1.965790 0.000000 0.000000 
#    y 0.000000 2.108450 0.000000 
#    z 0.000000 0.000000 1.990000 
# 
# From -- ./inp_files/23987.got.cif
#   From: 2010.05.17/outbox.cif.g08.bks.cpg/sg24_12_cif.got.tgz:23987.got - 2010.06.04 00:33:39.
