data_PCOD9335014
_publ_section_title
;
Structure prediction by ZEFSAII (Michael W. Deem and Ramdas Pophale) SiO2 
 PCOD9335014
Probable space group: I 21 21 21
;
_chemical_formula_sum "Si O2"
_cell_formula_units_Z 56
_cell_length_a 10.722094
_cell_length_b 15.639317
_cell_length_c 16.190466
_cell_angle_alpha 90.000000
_cell_angle_beta 90.000000
_cell_angle_gamma 90.000000
_cell_volume 2714.918156
_symmetry_space_group_name_H-M "I 21 21 21"
_symmetry_group_IT_number 24
_symmetry_cell_setting 'orthorhombic'
loop_
_space_group_symop_operation_xyz
x,y,z
-x,1/2-y,z
x,-y,1/2-z
1/2-x,y,-z
1/2+x,1/2+y,1/2+z
1/2-x,-y,1/2+z
1/2+x,1/2-y,-z
-x,1/2+y,1/2-z
loop_
_atom_site_type_symbol
_atom_site_label
_atom_site_fract_x
_atom_site_fract_y
_atom_site_fract_z
Si Si1 0.749508 0.794478 0.723152
Si Si2 0.265053 0.447124 0.908698
Si Si3 0.620542 0.359654 0.271030
Si Si4 0.008063 0.070209 0.394147
Si Si5 0.000000 0.250000 0.296950
Si Si6 0.141723 0.432285 0.688650
Si Si7 0.115099 0.182222 0.534868
Si Si8 0.821416 0.500000 0.250000
O O1 0.737163 0.865195 0.652080
O O2 0.860318 0.726307 0.718688
O O3 0.621262 0.746760 0.739658
O O4 0.780444 0.846478 0.807833
O O5 0.385131 0.510515 0.901710
O O6 0.148623 0.513061 0.893292
O O7 0.250000 0.412919 0.000000
O O8 0.487884 0.406308 0.270305
O O9 0.635429 0.339319 0.368717
O O10 0.728175 0.421247 0.240114
O O11 0.072604 0.099794 0.480249
O O12 0.096379 0.018640 0.330733
O O13 0.990605 0.163417 0.350409
O O14 0.206962 0.500000 0.750000
O O15 0.250000 0.212548 0.500000
O O16 0.000000 0.250000 0.530636
#
# Coordination Sequence:
#
# PCOD9335014 Si02
#       8
#     8   8   8   8   4   8   8   4
#     4  11  23  41  69  99 135 180 234 280 339 415
#     4  11  25  44  71 102 140 180 229 285 346 419
#     4  12  24  42  68  96 141 180 228 280 346 415
#     4  12  24  43  71 101 137 178 230 290 352 408
#     4  12  20  40  68 102 132 170 232 288 336 410
#     4  10  21  39  66  98 129 176 227 279 340 404
#     4  12  25  42  66 104 141 175 223 292 360 413
#     4  12  24  42  68  98 134 182 228 280 342 418
#
# _framework density 20.626771999999999
#
# number of rings (size 3 to 8) (size 9 to 14) (size 15 to 20)
#    0.000    0.571    5.714    3.000    1.000    1.714 
#    0.000    0.000    9.429    0.000    0.000    0.000 
#    0.000    0.000    0.000    0.000    0.000    0.000 
#
# Total GULP energy -156072.989805 kJ/mol
# GULP energy per Si atom -5574.035350 kJ/mol
# Density = 2.057982 g / cm^3
# Si number density = 20.626772 Si / 1000 Ang^3
#
#
#
# Elastic Constant Matrix: (Units=GPa)
#
#
# Indices 1 2 3 4 5 6 
#
# 1 111.9899 54.3117 17.4891 0.0000 0.0000 0.0000
# 2 54.3117 127.3432 53.0899 0.0000 0.0000 0.0000
# 3 17.4891 53.0899 76.6685 0.0000 0.0000 0.0000
# 4 0.0000 0.0000 0.0000 29.0453 0.0000 0.0000
# 5 0.0000 0.0000 0.0000 0.0000 17.2534 0.0000
# 6 0.0000 0.0000 0.0000 0.0000 0.0000 45.0702
#
#
#
# Elastic Compliance Matrix: (Units=1/GPa)
#
#
# Indices 1 2 3 4 5 6 
#
# 1 0.011320 -0.005274 0.001070 0.000000 0.000000 0.000000
# 2 -0.005274 0.013497 -0.008143 0.000000 0.000000 0.000000
# 3 0.001070 -0.008143 0.018438 0.000000 0.000000 0.000000
# 4 0.000000 0.000000 0.000000 0.034429 0.000000 0.000000
# 5 0.000000 0.000000 0.000000 0.000000 0.057959 0.000000
# 6 0.000000 0.000000 0.000000 0.000000 0.000000 0.022188
#
#
# Mechanical properties :
#
#
# Convention : Reuss Voigt Hill
#
# Bulk Modulus (GPa) = 53.87823 62.86476 58.37149
# Shear Modulus (GPa) = 26.49535 31.01452 28.75493
#
# Velocity S-wave (km/s) = 3.58790 3.88184 3.73776
# Velocity P-wave (km/s) = 6.58341 7.11583 6.85479
#
# Compressibility (1/GPa) = 0.01856037
#
# Stress axis : x y z
#
# Youngs Moduli (GPa) = 88.33908 74.09046 54.23614
#
# Poissons Ratio (x) = 0.39075 -0.05802
# Poissons Ratio (y) = 0.46590 0.44165
# Poissons Ratio (z) = -0.09450 0.60332
#
# Static dielectric constant tensor:
#      x y z
#    x 1.818750 0.000000 0.000000 
#    y 0.000000 1.781110 0.000000 
#    z 0.000000 0.000000 1.804710 
# 
# From -- ./inp_files/25869.got.cif
#   From: 2010.05.17/outbox.cif.g08.bks.cpg/sg24_13_cif.got.tgz:25869.got - 2010.06.04 00:33:39.
