data_PCOD9335017
_publ_section_title
;
Structure prediction by ZEFSAII (Michael W. Deem and Ramdas Pophale) SiO2 
 PCOD9335017
Probable space group: I 21 21 21
;
_chemical_formula_sum "Si O2"
_cell_formula_units_Z 48
_cell_length_a 13.243973
_cell_length_b 18.446725
_cell_length_c 8.943876
_cell_angle_alpha 90.000000
_cell_angle_beta 90.000000
_cell_angle_gamma 90.000000
_cell_volume 2185.059812
_symmetry_space_group_name_H-M "I 21 21 21"
_symmetry_group_IT_number 24
_symmetry_cell_setting 'orthorhombic'
loop_
_space_group_symop_operation_xyz
x,y,z
-x,1/2-y,z
x,-y,1/2-z
1/2-x,y,-z
1/2+x,1/2+y,1/2+z
1/2-x,-y,1/2+z
1/2+x,1/2-y,-z
-x,1/2+y,1/2-z
loop_
_atom_site_type_symbol
_atom_site_label
_atom_site_fract_x
_atom_site_fract_y
_atom_site_fract_z
Si Si1 0.647766 0.301542 0.066845
Si Si2 0.145382 0.800562 0.914929
Si Si3 0.361563 0.642605 0.072173
Si Si4 0.357910 0.966914 0.081534
Si Si5 0.584688 0.146711 0.075562
Si Si6 0.445485 0.503139 0.573404
O O1 0.668434 0.291204 0.241021
O O2 0.632706 0.219671 0.006524
O O3 0.537021 0.338494 0.063623
O O4 0.750000 0.336167 0.000000
O O5 0.096583 0.723760 0.963226
O O6 0.104071 0.882658 0.921237
O O7 0.250000 0.805723 0.000000
O O8 0.380047 0.636329 0.251825
O O9 0.250000 0.646067 0.000000
O O10 0.404569 0.570591 0.997369
O O11 0.354310 0.000000 0.250000
O O12 0.250000 0.970475 0.000000
O O13 0.439593 0.009068 0.984006
O O14 0.610239 0.074166 0.987454
O O15 0.440635 0.500000 0.750000
#
# Coordination Sequence:
#
# PCOD9335017 Si02
#       6
#     8   8   8   8   8   8
#     4  10  21  39  67  95 130 176 221 279 354 418
#     4   9  20  37  62  93 121 164 220 271 333 409
#     4  10  22  43  68  92 124 172 225 285 348 407
#     4  11  23  41  65  94 133 176 222 282 347 417
#     4  10  23  42  63  96 133 173 229 286 342 416
#     4  12  26  40  60  94 131 175 227 284 347 415
#
# _framework density 21.967361
#
# number of rings (size 3 to 8) (size 9 to 14) (size 15 to 20)
#    0.000    1.667    0.000    4.000    0.000   13.333 
#    0.000    1.667    0.000    2.000    0.000    0.000 
#    0.000    0.000    0.000    0.000    0.000    0.000 
#
# Total GULP energy -133784.514570 kJ/mol
# GULP energy per Si atom -5574.354774 kJ/mol
# Density = 2.191736 g / cm^3
# Si number density = 21.967361 Si / 1000 Ang^3
#
#
#
# Elastic Constant Matrix: (Units=GPa)
#
#
# Indices 1 2 3 4 5 6 
#
# 1 95.7679 24.3288 22.9023 0.0000 0.0000 0.0000
# 2 24.3288 177.0998 55.9912 0.0000 0.0000 0.0000
# 3 22.9023 55.9912 79.5185 0.0000 0.0000 0.0001
# 4 0.0000 0.0000 0.0000 21.7278 0.0000 0.0000
# 5 0.0000 0.0000 0.0000 0.0000 34.0375 0.0000
# 6 0.0000 0.0000 0.0001 0.0000 0.0000 65.8614
#
#
#
# Elastic Compliance Matrix: (Units=1/GPa)
#
#
# Indices 1 2 3 4 5 6 
#
# 1 0.011276 -0.000672 -0.002775 0.000000 0.000000 0.000000
# 2 -0.000672 0.007304 -0.004949 0.000000 0.000000 0.000000
# 3 -0.002775 -0.004949 0.016860 0.000000 0.000000 0.000000
# 4 0.000000 0.000000 0.000000 0.046024 0.000000 0.000000
# 5 0.000000 0.000000 0.000000 0.000000 0.029379 0.000000
# 6 0.000000 0.000000 0.000000 0.000000 0.000000 0.015183
#
#
# Mechanical properties :
#
#
# Convention : Reuss Voigt Hill
#
# Bulk Modulus (GPa) = 53.62462 62.09231 57.85847
# Shear Modulus (GPa) = 33.54957 40.93627 37.24292
#
# Velocity S-wave (km/s) = 3.91224 4.32152 4.12196
# Velocity P-wave (km/s) = 6.69862 7.29573 7.00354
#
# Compressibility (1/GPa) = 0.01864815
#
# Stress axis : x y z
#
# Youngs Moduli (GPa) = 88.68309 136.92025 59.31335
#
# Poissons Ratio (x) = 0.09199 0.16457
# Poissons Ratio (y) = 0.05958 0.29355
# Poissons Ratio (z) = 0.24606 0.67763
#
# Static dielectric constant tensor:
#      x y z
#    x 1.970880 0.000000 0.000000 
#    y 0.000000 1.883680 0.000000 
#    z 0.000000 0.000000 1.670020 
# 
# From -- ./inp_files/12821.got.cif
#   From: 2010.05.17/outbox.cif.g08.bks.cpg/sg24_7_cif.got.tgz:12821.got - 2010.06.04 00:33:39.
