data_PCOD9335654
_publ_section_title
;
Structure prediction by ZEFSAII (Michael W. Deem and Ramdas Pophale) SiO2 
 PCOD9335654
Probable space group: I 21 21 21
;
_chemical_formula_sum "Si O2"
_cell_formula_units_Z 32
_cell_length_a 7.516702
_cell_length_b 22.950807
_cell_length_c 9.630332
_cell_angle_alpha 90.000000
_cell_angle_beta 90.000000
_cell_angle_gamma 90.000000
_cell_volume 1661.370724
_symmetry_space_group_name_H-M "I 21 21 21"
_symmetry_group_IT_number 24
_symmetry_cell_setting 'orthorhombic'
loop_
_space_group_symop_operation_xyz
x,y,z
-x,1/2-y,z
x,-y,1/2-z
1/2-x,y,-z
1/2+x,1/2+y,1/2+z
1/2-x,-y,1/2+z
1/2+x,1/2-y,-z
-x,1/2+y,1/2-z
loop_
_atom_site_type_symbol
_atom_site_label
_atom_site_fract_x
_atom_site_fract_y
_atom_site_fract_z
Si Si1 0.250000 0.704146 0.500000
Si Si2 0.174448 0.408571 0.859527
Si Si3 0.589970 0.135504 0.608401
Si Si4 0.000000 0.750000 0.273905
Si Si5 0.606563 0.500000 0.250000
Si Si6 0.750000 0.567629 0.000000
O O1 0.126321 0.656585 0.582206
O O2 0.337587 0.742761 0.618455
O O3 0.320248 0.399665 0.737782
O O4 0.016903 0.447600 0.804223
O O5 0.250000 0.437972 0.000000
O O6 0.750000 0.147509 0.500000
O O7 0.509533 0.193479 0.677908
O O8 0.428979 0.104149 0.528869
O O9 0.724107 0.473441 0.369460
#
# Coordination Sequence:
#
# PCOD9335654 Si02
#       6
#     4   8   8   4   4   4
#     4   8  20  40  65 100 123 176 224 272 322 410
#     4   9  22  43  68  90 135 177 219 274 338 397
#     4  11  24  48  66 101 139 174 223 288 341 400
#     4  10  22  42  72  96 134 180 224 272 356 396
#     4  12  26  42  68 100 130 184 224 278 338 404
#     4  12  30  42  67 106 131 178 236 278 332 424
#
# _framework density 19.261203999999999
#
# number of rings (size 3 to 8) (size 9 to 14) (size 15 to 20)
#    0.750    1.000    2.500    0.000    8.750    2.000 
#    0.000    0.000    0.000    0.000    0.000    0.000 
#    0.000    0.000    0.000    0.000    0.000    0.000 
#
# Total GULP energy -89139.253578 kJ/mol
# GULP energy per Si atom -5571.203349 kJ/mol
# Density = 1.921736 g / cm^3
# Si number density = 19.261204 Si / 1000 Ang^3
#
#
#
# Elastic Constant Matrix: (Units=GPa)
#
#
# Indices 1 2 3 4 5 6 
#
# 1 72.3704 58.1841 42.9976 -0.0001 0.0000 0.0000
# 2 58.1841 85.6520 53.3801 -0.0001 0.0000 0.0000
# 3 42.9976 53.3801 137.4849 -0.0002 -0.0001 0.0000
# 4 -0.0001 -0.0001 -0.0002 33.7779 0.0000 0.0000
# 5 0.0000 0.0000 -0.0001 0.0000 40.1922 0.0000
# 6 0.0000 0.0000 0.0000 0.0000 0.0000 25.9687
#
#
#
# Elastic Compliance Matrix: (Units=1/GPa)
#
#
# Indices 1 2 3 4 5 6 
#
# 1 0.030855 -0.019717 -0.001994 0.000000 0.000000 0.000000
# 2 -0.019717 0.028002 -0.004706 0.000000 0.000000 0.000000
# 3 -0.001994 -0.004706 0.009724 0.000000 0.000000 0.000000
# 4 0.000000 0.000000 0.000000 0.029605 0.000000 0.000000
# 5 0.000000 0.000000 0.000000 0.000000 0.024880 0.000000
# 6 0.000000 0.000000 0.000000 0.000000 0.000000 0.038508
#
#
# Mechanical properties :
#
#
# Convention : Reuss Voigt Hill
#
# Bulk Modulus (GPa) = 63.50468 67.18124 65.34296
# Shear Modulus (GPa) = 22.76283 29.38415 26.07349
#
# Velocity S-wave (km/s) = 3.44146 3.91008 3.68323
# Velocity P-wave (km/s) = 6.98808 7.43907 7.21710
#
# Compressibility (1/GPa) = 0.01574687
#
# Stress axis : x y z
#
# Youngs Moduli (GPa) = 32.41010 35.71221 102.83582
#
# Poissons Ratio (x) = 0.70413 0.20508
# Poissons Ratio (y) = 0.63903 0.48391
# Poissons Ratio (z) = 0.06463 0.16805
#
# Static dielectric constant tensor:
#      x y z
#    x 1.672390 0.000000 0.000000 
#    y 0.000000 1.669120 0.000000 
#    z 0.000000 0.000000 1.673340 
# 
# From -- ./inp_files/9025.got.cif
#   From: 2010.05.17/outbox.cif.g08.bks.cpg/sg24_5_cif.got.tgz:9025.got - 2010.06.04 00:33:39.
