data_PCOD9335406
_publ_section_title
;
Structure prediction by ZEFSAII (Michael W. Deem and Ramdas Pophale) SiO2 
 PCOD9335406
Probable space group: I 21 21 21
;
_chemical_formula_sum "Si O2"
_cell_formula_units_Z 56
_cell_length_a 7.615192
_cell_length_b 19.840657
_cell_length_c 15.893604
_cell_angle_alpha 90.000000
_cell_angle_beta 90.000000
_cell_angle_gamma 90.000000
_cell_volume 2401.371184
_symmetry_space_group_name_H-M "I 21 21 21"
_symmetry_group_IT_number 24
_symmetry_cell_setting 'orthorhombic'
loop_
_space_group_symop_operation_xyz
x,y,z
-x,1/2-y,z
x,-y,1/2-z
1/2-x,y,-z
1/2+x,1/2+y,1/2+z
1/2-x,-y,1/2+z
1/2+x,1/2-y,-z
-x,1/2+y,1/2-z
loop_
_atom_site_type_symbol
_atom_site_label
_atom_site_fract_x
_atom_site_fract_y
_atom_site_fract_z
Si Si1 0.550308 0.064801 0.288691
Si Si2 0.796610 0.228144 0.594153
Si Si3 0.451273 0.681243 0.466933
Si Si4 0.146906 0.646580 0.246910
Si Si5 0.500000 0.250000 0.875523
Si Si6 0.788492 0.368329 0.338370
Si Si7 0.584425 0.033000 0.060076
Si Si8 0.750000 0.537452 0.000000
O O1 0.717842 0.086712 0.232931
O O2 0.402461 0.121736 0.296573
O O3 0.451599 0.000000 0.250000
O O4 0.613846 0.028839 0.374714
O O5 0.750000 0.206753 0.500000
O O6 0.740287 0.173287 0.661952
O O7 0.691182 0.294562 0.621786
O O8 0.000000 0.250000 0.596357
O O9 0.500000 0.750000 0.417798
O O10 0.250000 0.685350 0.500000
O O11 0.558368 0.692705 0.555786
O O12 0.468967 0.610945 0.419513
O O13 0.127176 0.707656 0.313460
O O14 0.951742 0.621940 0.223951
O O15 0.779532 0.417804 0.417443
O O16 0.418931 0.007677 0.008547
O O17 0.750000 0.038564 0.000000
#
# Coordination Sequence:
#
# PCOD9335406 Si02
#       8
#     8   8   8   8   4   8   8   4
#     4  11  27  44  66 100 140 187 235 289 365 439
#     4  12  23  40  69 103 141 188 234 296 357 435
#     4   9  22  43  68 100 130 176 238 296 359 432
#     4  12  24  44  70 101 147 184 233 302 369 434
#     4  10  24  42  70 106 138 182 242 294 378 432
#     4  11  22  43  60 101 135 175 236 277 354 422
#     4  10  22  43  67  96 131 179 240 283 356 425
#     4  10  22  38  66  90 134 174 226 290 322 432
#
# _framework density 23.320011000000001
#
# number of rings (size 3 to 8) (size 9 to 14) (size 15 to 20)
#    0.429    0.857    3.571    1.714    5.000    1.143 
#    7.714    0.714    0.000    0.000    0.000    0.000 
#    0.000    0.000    0.000    0.000    0.000    0.000 
#
# Total GULP energy -156134.587883 kJ/mol
# GULP energy per Si atom -5576.235282 kJ/mol
# Density = 2.326693 g / cm^3
# Si number density = 23.320011 Si / 1000 Ang^3
#
#
#
# Elastic Constant Matrix: (Units=GPa)
#
#
# Indices 1 2 3 4 5 6 
#
# 1 118.4452 35.6244 20.2537 0.0000 0.0000 0.0000
# 2 35.6244 77.5715 2.6129 0.0000 0.0000 0.0000
# 3 20.2537 2.6129 69.9420 0.0000 0.0000 0.0000
# 4 0.0000 0.0000 0.0000 25.9254 0.0000 0.0000
# 5 0.0000 0.0000 0.0000 0.0000 23.0430 0.0000
# 6 0.0000 0.0000 0.0000 0.0000 0.0000 42.6532
#
#
#
# Elastic Compliance Matrix: (Units=1/GPa)
#
#
# Indices 1 2 3 4 5 6 
#
# 1 0.010321 -0.004645 -0.002815 0.000000 0.000000 0.000000
# 2 -0.004645 0.014998 0.000785 0.000000 0.000000 0.000000
# 3 -0.002815 0.000785 0.015083 0.000000 0.000000 0.000000
# 4 0.000000 0.000000 0.000000 0.038572 0.000000 0.000000
# 5 0.000000 0.000000 0.000000 0.000000 0.043397 0.000000
# 6 0.000000 0.000000 0.000000 0.000000 0.000000 0.023445
#
#
# Mechanical properties :
#
#
# Convention : Reuss Voigt Hill
#
# Bulk Modulus (GPa) = 36.96626 42.54897 39.75762
# Shear Modulus (GPa) = 29.72908 32.15551 30.94229
#
# Velocity S-wave (km/s) = 3.57435 3.71736 3.64655
# Velocity P-wave (km/s) = 5.73766 6.05890 5.90047
#
# Compressibility (1/GPa) = 0.02705169
#
# Stress axis : x y z
#
# Youngs Moduli (GPa) = 96.88762 66.67478 66.29769
#
# Poissons Ratio (x) = 0.30972 0.18665
# Poissons Ratio (y) = 0.45006 -0.05203
# Poissons Ratio (z) = 0.27277 -0.05233
#
# Static dielectric constant tensor:
#      x y z
#    x 1.887000 0.000000 0.000000 
#    y 0.000000 1.955170 0.000000 
#    z 0.000000 0.000000 1.965270 
# 
# From -- ./inp_files/29786.got.cif
#   From: 2010.05.17/outbox.cif.g08.bks.cpg/sg24_15_cif.got.tgz:29786.got - 2010.06.04 00:33:39.
