data_PCOD9335969
_publ_section_title
;
Structure prediction by ZEFSAII (Michael W. Deem and Ramdas Pophale) SiO2 
 PCOD9335969
Probable space group: I 21 21 21
;
_chemical_formula_sum "Si O2"
_cell_formula_units_Z 56
_cell_length_a 21.528427
_cell_length_b 8.001203
_cell_length_c 15.225863
_cell_angle_alpha 90.000000
_cell_angle_beta 90.000000
_cell_angle_gamma 90.000000
_cell_volume 2622.705371
_symmetry_space_group_name_H-M "I 21 21 21"
_symmetry_group_IT_number 24
_symmetry_cell_setting 'orthorhombic'
loop_
_space_group_symop_operation_xyz
x,y,z
-x,1/2-y,z
x,-y,1/2-z
1/2-x,y,-z
1/2+x,1/2+y,1/2+z
1/2-x,-y,1/2+z
1/2+x,1/2-y,-z
-x,1/2+y,1/2-z
loop_
_atom_site_type_symbol
_atom_site_label
_atom_site_fract_x
_atom_site_fract_y
_atom_site_fract_z
Si Si1 0.310614 0.295816 0.556139
Si Si2 0.618388 0.527278 0.486515
Si Si3 0.125061 0.649632 0.399192
Si Si4 0.216833 0.307562 0.247506
Si Si5 0.979477 0.070325 0.979293
Si Si6 0.153458 0.173006 0.798401
Si Si7 0.055199 0.375088 0.680467
O O1 0.250000 0.326982 0.500000
O O2 0.341662 0.478056 0.569728
O O3 0.292429 0.238290 0.654787
O O4 0.346828 0.146191 0.506632
O O5 0.638250 0.674464 0.552855
O O6 0.545346 0.483563 0.494090
O O7 0.628958 0.622824 0.394273
O O8 0.150877 0.684926 0.302304
O O9 0.054932 0.609400 0.429337
O O10 0.237614 0.500000 0.250000
O O11 0.274036 0.221983 0.197918
O O12 0.000000 0.250000 0.940196
O O13 0.934689 0.976087 0.910173
O O14 0.112963 0.298334 0.735744
O O15 0.149311 0.000000 0.750000
O O16 0.024838 0.500000 0.750000
O O17 0.000000 0.250000 0.659212
#
# Coordination Sequence:
#
# PCOD9335969 Si02
#       7
#     8   8   8   8   8   8   8
#     4  11  26  42  72 106 138 183 237 286 356 441
#     4  11  25  44  71 103 139 187 239 295 356 424
#     4  10  25  44  72  94 140 181 231 297 353 417
#     4  10  25  46  68 101 141 180 237 291 360 429
#     4  10  23  44  67  97 135 184 242 293 358 426
#     4  12  26  41  64 103 144 180 234 292 360 430
#     4  12  23  37  63  95 143 184 226 288 354 430
#
# _framework density 21.351997000000001
#
# number of rings (size 3 to 8) (size 9 to 14) (size 15 to 20)
#    0.000    1.143    0.000    5.571   14.000    0.000 
#    0.000    0.000   28.286    0.000    0.000    0.000 
#    0.000    0.000    0.000    0.000    0.000    0.000 
#
# Total GULP energy -156080.776478 kJ/mol
# GULP energy per Si atom -5574.313446 kJ/mol
# Density = 2.130340 g / cm^3
# Si number density = 21.351997 Si / 1000 Ang^3
#
#
#
# Elastic Constant Matrix: (Units=GPa)
#
#
# Indices 1 2 3 4 5 6 
#
# 1 82.9006 16.9617 50.1344 0.0000 0.0000 0.0000
# 2 16.9617 78.0121 6.8560 0.0000 0.0000 0.0000
# 3 50.1344 6.8560 104.2700 0.0000 0.0000 0.0000
# 4 0.0000 0.0000 0.0000 31.2936 0.0000 0.0000
# 5 0.0000 0.0000 0.0000 0.0000 32.2100 0.0000
# 6 0.0000 0.0000 0.0000 0.0000 0.0000 25.4405
#
#
#
# Elastic Compliance Matrix: (Units=1/GPa)
#
#
# Indices 1 2 3 4 5 6 
#
# 1 0.017734 -0.003125 -0.008321 0.000000 0.000000 0.000000
# 2 -0.003125 0.013444 0.000618 0.000000 0.000000 0.000000
# 3 -0.008321 0.000618 0.013551 0.000000 0.000000 0.000000
# 4 0.000000 0.000000 0.000000 0.031955 0.000000 0.000000
# 5 0.000000 0.000000 0.000000 0.000000 0.031046 0.000000
# 6 0.000000 0.000000 0.000000 0.000000 0.000000 0.039307
#
#
# Mechanical properties :
#
#
# Convention : Reuss Voigt Hill
#
# Bulk Modulus (GPa) = 43.33975 45.89856 44.61915
# Shear Modulus (GPa) = 28.34719 30.53753 29.44236
#
# Velocity S-wave (km/s) = 3.64760 3.78590 3.71739
# Velocity P-wave (km/s) = 6.17104 6.37601 6.27436
#
# Compressibility (1/GPa) = 0.02307351
#
# Stress axis : x y z
#
# Youngs Moduli (GPa) = 56.38764 74.38521 73.79580
#
# Poissons Ratio (x) = 0.23242 0.61409
# Poissons Ratio (y) = 0.17619 -0.04563
# Poissons Ratio (z) = 0.46923 -0.04600
#
# Static dielectric constant tensor:
#      x y z
#    x 1.794150 0.000000 0.000000 
#    y 0.000000 1.834970 0.000000 
#    z 0.000000 0.000000 1.685170 
# 
# From -- ./inp_files/27515.got.cif
#   From: 2010.05.17/outbox.cif.g08.bks.cpg/sg24_14_cif.got.tgz:27515.got - 2010.06.04 00:33:39.
