data_PCOD9335399
_publ_section_title
;
Structure prediction by ZEFSAII (Michael W. Deem and Ramdas Pophale) SiO2 
 PCOD9335399
Probable space group: I 21 21 21
;
_chemical_formula_sum "Si O2"
_cell_formula_units_Z 44
_cell_length_a 8.783785
_cell_length_b 16.108532
_cell_length_c 13.947750
_cell_angle_alpha 90.000000
_cell_angle_beta 90.000000
_cell_angle_gamma 90.000000
_cell_volume 1973.521289
_symmetry_space_group_name_H-M "I 21 21 21"
_symmetry_group_IT_number 24
_symmetry_cell_setting 'orthorhombic'
loop_
_space_group_symop_operation_xyz
x,y,z
-x,1/2-y,z
x,-y,1/2-z
1/2-x,y,-z
1/2+x,1/2+y,1/2+z
1/2-x,-y,1/2+z
1/2+x,1/2-y,-z
-x,1/2+y,1/2-z
loop_
_atom_site_type_symbol
_atom_site_label
_atom_site_fract_x
_atom_site_fract_y
_atom_site_fract_z
Si Si1 0.500000 0.750000 0.361002
Si Si2 0.500000 0.250000 0.438561
Si Si3 0.963235 0.364230 0.221494
Si Si4 0.413947 0.934388 0.048701
Si Si5 0.208523 0.000000 0.750000
Si Si6 0.762334 0.784373 0.210928
Si Si7 0.566328 0.390292 0.989789
O O1 0.643418 0.773082 0.296501
O O2 0.522800 0.669644 0.424828
O O3 0.477371 0.156543 0.478272
O O4 0.656287 0.231672 0.380047
O O5 0.832535 0.433938 0.212846
O O6 0.873296 0.293218 0.277105
O O7 0.128067 0.364750 0.274455
O O8 0.992631 0.350392 0.108919
O O9 0.387725 0.957088 0.163015
O O10 0.494024 0.015785 0.004283
O O11 0.250000 0.933143 0.000000
O O12 0.750000 0.393561 0.000000
#
# Coordination Sequence:
#
# PCOD9335399 Si02
#       7
#     4   4   8   8   4   8   8
#     4  11  20  36  62  99 136 164 202 281 356 405
#     4  11  24  46  68  97 134 186 228 279 322 395
#     4  11  21  39  64  94 129 170 221 277 334 398
#     4  11  24  45  71  98 129 184 234 272 332 408
#     4  12  20  42  70  92 128 180 218 284 336 392
#     4  10  22  38  64  99 127 169 223 270 343 402
#     4  11  21  37  64  98 129 171 221 274 342 409
#
# _framework density 22.295172999999998
#
# number of rings (size 3 to 8) (size 9 to 14) (size 15 to 20)
#    0.000    1.091    7.273    1.091    2.545    0.000 
#    6.545    0.000    0.000    0.000    0.000    0.000 
#    0.000    0.000    0.000    0.000    0.000    0.000 
#
# Total GULP energy -122474.403793 kJ/mol
# GULP energy per Si atom -5567.018354 kJ/mol
# Density = 2.224443 g / cm^3
# Si number density = 22.295173 Si / 1000 Ang^3
#
#
#
# Elastic Constant Matrix: (Units=GPa)
#
#
# Indices 1 2 3 4 5 6 
#
# 1 72.4902 10.6126 2.5147 0.0000 0.0000 0.0000
# 2 10.6126 122.7309 -2.3376 0.0000 0.0000 0.0000
# 3 2.5147 -2.3376 38.1289 0.0000 0.0000 0.0000
# 4 0.0000 0.0000 0.0000 30.4346 0.0000 0.0000
# 5 0.0000 0.0000 0.0000 0.0000 4.6641 0.0000
# 6 0.0000 0.0000 0.0000 0.0000 0.0000 37.4563
#
#
#
# Elastic Compliance Matrix: (Units=1/GPa)
#
#
# Indices 1 2 3 4 5 6 
#
# 1 0.014010 -0.001230 -0.000999 0.000000 0.000000 0.000000
# 2 -0.001230 0.008266 0.000588 0.000000 0.000000 0.000000
# 3 -0.000999 0.000588 0.026329 0.000000 0.000000 0.000000
# 4 0.000000 0.000000 0.000000 0.032857 0.000000 0.000000
# 5 0.000000 0.000000 0.000000 0.000000 0.214402 0.000000
# 6 0.000000 0.000000 0.000000 0.000000 0.000000 0.026698
#
#
# Mechanical properties :
#
#
# Convention : Reuss Voigt Hill
#
# Bulk Modulus (GPa) = 22.06527 28.32547 25.19537
# Shear Modulus (GPa) = 14.66481 29.34837 22.00659
#
# Velocity S-wave (km/s) = 2.56746 3.63210 3.14515
# Velocity P-wave (km/s) = 4.32522 5.50653 4.95123
#
# Compressibility (1/GPa) = 0.04532008
#
# Stress axis : x y z
#
# Youngs Moduli (GPa) = 71.37868 120.98478 37.98126
#
# Poissons Ratio (x) = 0.14887 0.03796
# Poissons Ratio (y) = 0.08783 -0.02233
# Poissons Ratio (z) = 0.07134 -0.07113
#
# Static dielectric constant tensor:
#      x y z
#    x 1.843270 0.000000 0.000000 
#    y 0.000000 1.959280 0.000000 
#    z 0.000000 0.000000 1.908220 
# 
# From -- ./inp_files/29453.got.cif
#   From: 2010.05.17/outbox.cif.g08.bks.cpg/sg24_15_cif.got.tgz:29453.got - 2010.06.04 00:33:39.
