data_PCOD9335812
_publ_section_title
;
Structure prediction by ZEFSAII (Michael W. Deem and Ramdas Pophale) SiO2 
 PCOD9335812
Probable space group: I 21 21 21
;
_chemical_formula_sum "Si O2"
_cell_formula_units_Z 16
_cell_length_a 6.564811
_cell_length_b 7.408594
_cell_length_c 10.408952
_cell_angle_alpha 90.000000
_cell_angle_beta 90.000000
_cell_angle_gamma 90.000000
_cell_volume 506.249991
_symmetry_space_group_name_H-M "I 21 21 21"
_symmetry_group_IT_number 24
_symmetry_cell_setting 'orthorhombic'
loop_
_space_group_symop_operation_xyz
x,y,z
-x,1/2-y,z
x,-y,1/2-z
1/2-x,y,-z
1/2+x,1/2+y,1/2+z
1/2-x,-y,1/2+z
1/2+x,1/2-y,-z
-x,1/2+y,1/2-z
loop_
_atom_site_type_symbol
_atom_site_label
_atom_site_fract_x
_atom_site_fract_y
_atom_site_fract_z
Si Si1 0.207690 0.325708 0.819268
Si Si2 0.413084 0.927080 0.904051
O O1 0.116554 0.500000 0.750000
O O2 0.305680 0.176756 0.719755
O O3 0.399864 0.566395 0.616394
O O4 0.000000 0.250000 0.878314
O O5 0.500000 0.750000 0.975780
O O6 0.250000 0.009862 0.000000
#
# Coordination Sequence:
#
# PCOD9335812 Si02
#       2
#     8   8
#     4  10  23  44  80 124 168 224 284 355 435 509
#     4  10  22  46  82 124 169 224 286 353 433 521
#
# _framework density 31.604938000000001
#
# number of rings (size 3 to 8) (size 9 to 14) (size 15 to 20)
#    0.000    2.000    0.000    1.500    0.000   10.000 
#    0.000    2.500    0.000  153.000    0.000    0.000 
#    0.000    0.000    0.000    0.000    0.000    0.000 
#
# Total GULP energy -44624.171940 kJ/mol
# GULP energy per Si atom -5578.021493 kJ/mol
# Density = 3.153300 g / cm^3
# Si number density = 31.604938 Si / 1000 Ang^3
#
#
#
# Elastic Constant Matrix: (Units=GPa)
#
#
# Indices 1 2 3 4 5 6 
#
# 1 370.1247 159.2875 152.9259 0.0000 0.0000 0.0000
# 2 159.2875 288.6512 66.4415 0.0000 0.0000 0.0000
# 3 152.9259 66.4415 141.2902 0.0000 0.0000 0.0000
# 4 0.0000 0.0000 0.0000 19.1314 0.0000 0.0000
# 5 0.0000 0.0000 0.0000 0.0000 5.7758 0.0000
# 6 0.0000 0.0000 0.0000 0.0000 0.0000 79.2374
#
#
#
# Elastic Compliance Matrix: (Units=1/GPa)
#
#
# Indices 1 2 3 4 5 6 
#
# 1 0.005716 -0.001940 -0.005274 0.000000 0.000000 0.000000
# 2 -0.001940 0.004543 -0.000037 0.000000 0.000000 0.000000
# 3 -0.005274 -0.000037 0.012804 0.000000 0.000000 0.000000
# 4 0.000000 0.000000 0.000000 0.052270 0.000000 0.000000
# 5 0.000000 0.000000 0.000000 0.000000 0.173136 0.000000
# 6 0.000000 0.000000 0.000000 0.000000 0.000000 0.012620
#
#
# Mechanical properties :
#
#
# Convention : Reuss Voigt Hill
#
# Bulk Modulus (GPa) = 116.81207 173.04177 144.92692
# Shear Modulus (GPa) = 17.95686 48.92301 33.43993
#
# Velocity S-wave (km/s) = 2.38621 3.93867 3.25631
# Velocity P-wave (km/s) = 6.68074 8.69221 7.75200
#
# Compressibility (1/GPa) = 0.00856076
#
# Stress axis : x y z
#
# Youngs Moduli (GPa) = 174.94660 220.09493 78.10346
#
# Poissons Ratio (x) = 0.42704 0.41195
# Poissons Ratio (y) = 0.33944 0.00285
# Poissons Ratio (z) = 0.92273 0.00804
#
# Static dielectric constant tensor:
#      x y z
#    x 2.341550 0.000000 0.000000 
#    y 0.000000 2.407350 0.000000 
#    z 0.000000 0.000000 3.085840 
# 
# From -- ./inp_files/565.got.cif
#   From: 2010.05.17/outbox.cif.g08.bks.cpg/sg24_1_cif.got.tgz:565.got - 2010.06.04 00:33:39.
