data_PCOD9335454
_publ_section_title
;
Structure prediction by ZEFSAII (Michael W. Deem and Ramdas Pophale) SiO2 
 PCOD9335454
Probable space group: I 21 21 21
;
_chemical_formula_sum "Si O2"
_cell_formula_units_Z 36
_cell_length_a 14.678111
_cell_length_b 25.420649
_cell_length_c 5.124189
_cell_angle_alpha 90.000000
_cell_angle_beta 90.000000
_cell_angle_gamma 90.000000
_cell_volume 1911.973821
_symmetry_space_group_name_H-M "I 21 21 21"
_symmetry_group_IT_number 24
_symmetry_cell_setting 'orthorhombic'
loop_
_space_group_symop_operation_xyz
x,y,z
-x,1/2-y,z
x,-y,1/2-z
1/2-x,y,-z
1/2+x,1/2+y,1/2+z
1/2-x,-y,1/2+z
1/2+x,1/2-y,-z
-x,1/2+y,1/2-z
loop_
_atom_site_type_symbol
_atom_site_label
_atom_site_fract_x
_atom_site_fract_y
_atom_site_fract_z
Si Si1 0.311904 0.562364 0.248836
Si Si2 0.914595 0.335447 0.194735
Si Si3 0.529208 0.854905 0.208123
Si Si4 0.750000 0.679513 0.000000
Si Si5 0.154347 0.740355 0.606716
O O1 0.332123 0.500000 0.250000
O O2 0.250000 0.574560 0.500000
O O3 0.402779 0.596266 0.228490
O O4 0.250000 0.574458 0.000000
O O5 0.816575 0.352339 0.309757
O O6 0.986764 0.345600 0.423597
O O7 0.895486 0.274434 0.116675
O O8 0.951404 0.360527 0.928588
O O9 0.588257 0.803556 0.284037
O O10 0.686281 0.717358 0.176337
O O11 0.250000 0.717517 0.500000
#
# Coordination Sequence:
#
# PCOD9335454 Si02
#       5
#     8   8   8   4   8
#     4  10  22  42  64  89 124 157 194 244 301 356
#     4  11  24  37  54  83 117 156 196 247 281 352
#     4  12  24  35  60  87 115 155 203 240 288 343
#     4  10  22  40  50  76 118 162 188 234 288 340
#     4  10  23  35  54  77 122 159 193 227 284 346
#
# _framework density 18.828709
#
# number of rings (size 3 to 8) (size 9 to 14) (size 15 to 20)
#    0.000    1.333    2.222    2.667   10.889    0.000 
#    0.000    0.000    0.000    0.000    0.000    3.111 
#    3.333    0.000    0.000    0.000    0.000    0.000 
#
# Total GULP energy -100555.240250 kJ/mol
# GULP energy per Si atom -5586.402236 kJ/mol
# Density = 1.878585 g / cm^3
# Si number density = 18.828709 Si / 1000 Ang^3
#
#
#
# Elastic Constant Matrix: (Units=GPa)
#
#
# Indices 1 2 3 4 5 6 
#
# 1 84.6640 40.1539 39.5599 0.0010 0.0018 0.0001
# 2 40.1539 45.5059 28.3110 0.0015 0.0000 -0.0002
# 3 39.5599 28.3110 132.5449 0.0221 -0.0170 -0.0035
# 4 0.0010 0.0015 0.0221 30.5508 0.0074 -0.0025
# 5 0.0018 0.0000 -0.0170 0.0074 14.3180 0.0013
# 6 0.0001 -0.0002 -0.0035 -0.0025 0.0013 28.3190
#
#
#
# Elastic Compliance Matrix: (Units=1/GPa)
#
#
# Indices 1 2 3 4 5 6 
#
# 1 0.021104 -0.016957 -0.002677 0.000002 -0.000006 0.000000
# 2 -0.016957 0.038967 -0.003262 0.000001 -0.000002 0.000000
# 3 -0.002677 -0.003262 0.009040 -0.000006 0.000011 0.000001
# 4 0.000002 0.000001 -0.000006 0.032732 -0.000017 0.000003
# 5 -0.000006 -0.000002 0.000011 -0.000017 0.069842 -0.000003
# 6 0.000000 0.000000 0.000001 0.000003 -0.000003 0.035312
#
#
# Mechanical properties :
#
#
# Convention : Reuss Voigt Hill
#
# Bulk Modulus (GPa) = 42.88174 53.19605 48.03889
# Shear Modulus (GPa) = 19.18915 24.95023 22.06969
#
# Velocity S-wave (km/s) = 3.19587 3.64416 3.42735
# Velocity P-wave (km/s) = 6.03674 6.78384 6.42116
#
# Compressibility (1/GPa) = 0.02331995
#
# Stress axis : x y z
#
# Youngs Moduli (GPa) = 47.38341 25.66255 110.61448
#
# Poissons Ratio (x) = 0.43516 0.29612
# Poissons Ratio (y) = 0.80347 0.36085
# Poissons Ratio (z) = 0.12685 0.08372
#
# Static dielectric constant tensor:
#      x y z
#    x 1.686980 0.000000 0.000020 
#    y 0.000000 1.621110 0.000000 
#    z 0.000020 0.000000 1.696150 
# 
# From -- ./inp_files/3463.got.cif
#   From: 2010.05.17/outbox.cif.g08.bks.cpg/sg24_2_cif.got.tgz:3463.got - 2010.06.04 00:33:39.
