data_PCOD9335111
_publ_section_title
;
Structure prediction by ZEFSAII (Michael W. Deem and Ramdas Pophale) SiO2 
 PCOD9335111
Probable space group: I 21 21 21
;
_chemical_formula_sum "Si O2"
_cell_formula_units_Z 48
_cell_length_a 13.647740
_cell_length_b 6.064975
_cell_length_c 26.346702
_cell_angle_alpha 90.000000
_cell_angle_beta 90.000000
_cell_angle_gamma 90.000000
_cell_volume 2180.800884
_symmetry_space_group_name_H-M "I 21 21 21"
_symmetry_group_IT_number 24
_symmetry_cell_setting 'orthorhombic'
loop_
_space_group_symop_operation_xyz
x,y,z
-x,1/2-y,z
x,-y,1/2-z
1/2-x,y,-z
1/2+x,1/2+y,1/2+z
1/2-x,-y,1/2+z
1/2+x,1/2-y,-z
-x,1/2+y,1/2-z
loop_
_atom_site_type_symbol
_atom_site_label
_atom_site_fract_x
_atom_site_fract_y
_atom_site_fract_z
Si Si1 0.093793 0.109291 0.037769
Si Si2 0.425915 0.041441 0.650495
Si Si3 0.250000 0.398468 0.000000
Si Si4 0.384680 0.758630 0.049845
Si Si5 0.211724 0.244759 0.657937
Si Si6 0.819366 0.500000 0.750000
Si Si7 0.176482 0.643841 0.297214
O O1 0.190029 0.260566 0.041988
O O2 0.000000 0.250000 0.020676
O O3 0.061815 0.999249 0.090471
O O4 0.123915 0.938567 0.994446
O O5 0.500000 0.250000 0.664912
O O6 0.317938 0.133590 0.659355
O O7 0.405358 0.794175 0.675087
O O8 0.332497 0.543761 0.027028
O O9 0.500000 0.750000 0.059597
O O10 0.331902 0.798029 0.102916
O O11 0.249456 0.493698 0.669140
O O12 0.140583 0.128805 0.700141
O O13 0.750888 0.308906 0.770949
O O14 0.133585 0.500000 0.250000
#
# Coordination Sequence:
#
# PCOD9335111 Si02
#       7
#     8   8   4   8   8   4   8
#     4  12  26  44  66  99 142 190 238 283 353 436
#     4  11  24  37  65 100 141 189 237 289 349 429
#     4  12  24  44  70  92 142 196 226 292 358 408
#     4  12  25  44  67 105 142 180 238 299 348 430
#     4  10  21  40  70  91 136 182 233 292 358 416
#     4   8  18  40  68  92 128 172 232 294 356 422
#     4   9  19  40  70  97 131 186 238 289 357 424
#
# _framework density 22.010262000000001
#
# number of rings (size 3 to 8) (size 9 to 14) (size 15 to 20)
#    0.000    1.333    1.667    4.000    4.667    1.333 
#    0.000    0.000   62.333    0.000    0.000    0.000 
#    0.000    0.000    0.000    0.000    0.000    0.000 
#
# Total GULP energy -133622.204326 kJ/mol
# GULP energy per Si atom -5567.591847 kJ/mol
# Density = 2.196017 g / cm^3
# Si number density = 22.010262 Si / 1000 Ang^3
#
#
#
# Elastic Constant Matrix: (Units=GPa)
#
#
# Indices 1 2 3 4 5 6 
#
# 1 61.5126 20.7749 -6.8642 0.0000 0.0000 0.0000
# 2 20.7749 114.5038 49.1433 0.0000 0.0000 0.0000
# 3 -6.8642 49.1433 117.1710 0.0000 0.0000 0.0000
# 4 0.0000 0.0000 0.0000 65.4984 0.0000 0.0000
# 5 0.0000 0.0000 0.0000 0.0000 -12.1858 0.0000
# 6 0.0000 0.0000 0.0000 0.0000 0.0000 18.2997
#
#
#
# Elastic Compliance Matrix: (Units=1/GPa)
#
#
# Indices 1 2 3 4 5 6 
#
# 1 0.018132 -0.004568 0.002978 0.000000 0.000000 0.000000
# 2 -0.004568 0.011801 -0.005217 0.000000 0.000000 0.000000
# 3 0.002978 -0.005217 0.010897 0.000000 0.000000 0.000000
# 4 0.000000 0.000000 0.000000 0.015268 0.000000 0.000000
# 5 0.000000 0.000000 0.000000 0.000000 -0.082063 0.000000
# 6 0.000000 0.000000 0.000000 0.000000 0.000000 0.054646
#
#
# Mechanical properties :
#
#
# Convention : Reuss Voigt Hill
#
# Bulk Modulus (GPa) = 36.74280 46.58836 41.66558
# Shear Modulus (GPa) = 97.33923 29.66470 63.50197
#
# Velocity S-wave (km/s) = 6.65736 3.67518 5.37715
# Velocity P-wave (km/s) = 8.70768 6.26273 7.58438
#
# Compressibility (1/GPa) = 0.02721622
#
# Stress axis : x y z
#
# Youngs Moduli (GPa) = 55.15152 84.73679 91.76688
#
# Poissons Ratio (x) = 0.38707 -0.27329
# Poissons Ratio (y) = 0.25192 0.47877
# Poissons Ratio (z) = -0.16424 0.44209
#
# Static dielectric constant tensor:
#      x y z
#    x 1.746210 0.000000 0.000000 
#    y 0.000000 2.158700 0.000000 
#    z 0.000000 0.000000 1.940600 
# 
# From -- ./inp_files/37377.got.cif
#   From: 2010.05.17/outbox.cif.g08.bks.cpg/sg24_19_cif.got.tgz:37377.got - 2010.06.04 00:33:39.
