data_PCOD9335172
_publ_section_title
;
Structure prediction by ZEFSAII (Michael W. Deem and Ramdas Pophale) SiO2 
 PCOD9335172
Probable space group: I 21 21 21
;
_chemical_formula_sum "Si O2"
_cell_formula_units_Z 40
_cell_length_a 19.793580
_cell_length_b 12.190648
_cell_length_c 7.995685
_cell_angle_alpha 90.000000
_cell_angle_beta 90.000000
_cell_angle_gamma 90.000000
_cell_volume 1929.331337
_symmetry_space_group_name_H-M "I 21 21 21"
_symmetry_group_IT_number 24
_symmetry_cell_setting 'orthorhombic'
loop_
_space_group_symop_operation_xyz
x,y,z
-x,1/2-y,z
x,-y,1/2-z
1/2-x,y,-z
1/2+x,1/2+y,1/2+z
1/2-x,-y,1/2+z
1/2+x,1/2-y,-z
-x,1/2+y,1/2-z
loop_
_atom_site_type_symbol
_atom_site_label
_atom_site_fract_x
_atom_site_fract_y
_atom_site_fract_z
Si Si1 0.038602 0.858835 0.455018
Si Si2 0.669830 0.747332 0.453870
Si Si3 0.500000 0.250000 0.640014
Si Si4 0.394035 0.313340 0.377560
Si Si5 0.493155 0.500000 0.250000
Si Si6 0.173947 0.513705 0.444991
O O1 0.118529 0.832518 0.450045
O O2 0.000000 0.750000 0.528939
O O3 0.006923 0.853600 0.268068
O O4 0.029418 0.960464 0.579723
O O5 0.750000 0.733953 0.500000
O O6 0.648821 0.743735 0.256965
O O7 0.643710 0.869883 0.502463
O O8 0.434809 0.250472 0.521351
O O9 0.449188 0.393987 0.295345
O O10 0.347495 0.403830 0.464240
O O11 0.165632 0.500000 0.250000
O O12 0.250000 0.529796 0.500000
#
# Coordination Sequence:
#
# PCOD9335172 Si02
#       6
#     8   8   4   8   4   8
#     4  10  21  42  58  96 128 174 222 281 332 401
#     4  11  21  39  62  90 132 171 218 276 348 416
#     4  10  24  36  62  88 142 168 228 276 340 416
#     4  12  20  36  55  93 121 176 214 271 338 405
#     4  12  22  36  70  84 128 172 230 270 334 400
#     4  11  21  32  52  83 123 164 203 258 326 408
#
# _framework density 20.732572000000001
#
# number of rings (size 3 to 8) (size 9 to 14) (size 15 to 20)
#    0.600    0.400    4.000    4.800    2.800    0.000 
#    0.000    0.000    0.000    2.400    0.000    0.000 
#    0.000    0.000    0.000    0.000    0.000    0.000 
#
# Total GULP energy -111390.926959 kJ/mol
# GULP energy per Si atom -5569.546348 kJ/mol
# Density = 2.068538 g / cm^3
# Si number density = 20.732572 Si / 1000 Ang^3
#
#
#
# Elastic Constant Matrix: (Units=GPa)
#
#
# Indices 1 2 3 4 5 6 
#
# 1 100.6939 20.2571 40.7472 0.0000 0.0000 0.0000
# 2 20.2571 23.8608 20.4629 0.0000 0.0000 0.0000
# 3 40.7472 20.4629 128.5945 0.0000 0.0000 0.0000
# 4 0.0000 0.0000 0.0000 36.9119 0.0000 0.0000
# 5 0.0000 0.0000 0.0000 0.0000 35.4629 0.0000
# 6 0.0000 0.0000 0.0000 0.0000 0.0000 13.5653
#
#
#
# Elastic Compliance Matrix: (Units=1/GPa)
#
#
# Indices 1 2 3 4 5 6 
#
# 1 0.012727 -0.008507 -0.002679 0.000000 0.000000 0.000000
# 2 -0.008507 0.054219 -0.005932 0.000000 0.000000 0.000000
# 3 -0.002679 -0.005932 0.009569 0.000000 0.000000 0.000000
# 4 0.000000 0.000000 0.000000 0.027092 0.000000 0.000000
# 5 0.000000 0.000000 0.000000 0.000000 0.028198 0.000000
# 6 0.000000 0.000000 0.000000 0.000000 0.000000 0.073717
#
#
# Mechanical properties :
#
#
# Convention : Reuss Voigt Hill
#
# Bulk Modulus (GPa) = 23.65248 46.23150 34.94199
# Shear Modulus (GPa) = 19.69655 28.63350 24.16503
#
# Velocity S-wave (km/s) = 3.08560 3.72033 3.41773
# Velocity P-wave (km/s) = 4.91199 6.38763 5.69779
#
# Compressibility (1/GPa) = 0.04227886
#
# Stress axis : x y z
#
# Youngs Moduli (GPa) = 78.57600 18.44359 104.50179
#
# Poissons Ratio (x) = 0.15690 0.27995
# Poissons Ratio (y) = 0.66845 0.61993
# Poissons Ratio (z) = 0.21050 0.10941
#
# Static dielectric constant tensor:
#      x y z
#    x 1.793130 0.000000 0.000000 
#    y 0.000000 1.978640 0.000000 
#    z 0.000000 0.000000 1.822130 
# 
# From -- ./inp_files/14025.got.cif
#   From: 2010.05.17/outbox.cif.g08.bks.cpg/sg24_8_cif.got.tgz:14025.got - 2010.06.04 00:33:39.
