data_PCOD9335759
_publ_section_title
;
Structure prediction by ZEFSAII (Michael W. Deem and Ramdas Pophale) SiO2 
 PCOD9335759
Probable space group: I 21 21 21
;
_chemical_formula_sum "Si O2"
_cell_formula_units_Z 28
_cell_length_a 11.644789
_cell_length_b 13.289104
_cell_length_c 7.511148
_cell_angle_alpha 90.000000
_cell_angle_beta 90.000000
_cell_angle_gamma 90.000000
_cell_volume 1162.341230
_symmetry_space_group_name_H-M "I 21 21 21"
_symmetry_group_IT_number 24
_symmetry_cell_setting 'orthorhombic'
loop_
_space_group_symop_operation_xyz
x,y,z
-x,1/2-y,z
x,-y,1/2-z
1/2-x,y,-z
1/2+x,1/2+y,1/2+z
1/2-x,-y,1/2+z
1/2+x,1/2-y,-z
-x,1/2+y,1/2-z
loop_
_atom_site_type_symbol
_atom_site_label
_atom_site_fract_x
_atom_site_fract_y
_atom_site_fract_z
Si Si1 0.347036 0.902381 0.357637
Si Si2 0.035755 0.586316 0.368728
Si Si3 0.234268 0.294164 0.214358
Si Si4 0.750000 0.952085 0.000000
O O1 0.250000 0.931539 0.500000
O O2 0.455602 0.871113 0.477510
O O3 0.290411 0.813023 0.241643
O O4 0.381230 0.000000 0.250000
O O5 0.973342 0.500000 0.250000
O O6 0.100159 0.675955 0.263279
O O7 0.142206 0.520255 0.445719
O O8 0.288938 0.380219 0.337396
O O9 0.250000 0.296191 0.000000
#
# Coordination Sequence:
#
# PCOD9335759 Si02
#       4
#     8   8   8   4
#     4  11  26  44  69  98 143 178 225 279 349 402
#     4  10  22  45  72 100 135 180 227 283 338 406
#     4  10  23  42  71 100 135 176 233 275 333 404
#     4  10  22  44  74 102 132 180 234 280 328 412
#
# _framework density 24.089310999999999
#
# number of rings (size 3 to 8) (size 9 to 14) (size 15 to 20)
#    0.000    1.714    1.429    0.857    6.000    4.571 
#    0.000    0.000    0.000    0.000    0.000    0.000 
#    0.000    0.000    0.000    0.000    0.000    0.000 
#
# Total GULP energy -78101.681981 kJ/mol
# GULP energy per Si atom -5578.691570 kJ/mol
# Density = 2.403448 g / cm^3
# Si number density = 24.089311 Si / 1000 Ang^3
#
#
#
# Elastic Constant Matrix: (Units=GPa)
#
#
# Indices 1 2 3 4 5 6 
#
# 1 79.2321 45.2440 11.0177 0.0000 0.0000 0.0000
# 2 45.2440 139.5880 20.2414 0.0000 0.0000 0.0000
# 3 11.0177 20.2414 48.9184 0.0000 0.0000 0.0000
# 4 0.0000 0.0000 0.0000 29.1943 0.0000 0.0000
# 5 0.0000 0.0000 0.0000 0.0000 29.2684 0.0000
# 6 0.0000 0.0000 0.0000 0.0000 0.0000 22.5863
#
#
#
# Elastic Compliance Matrix: (Units=1/GPa)
#
#
# Indices 1 2 3 4 5 6 
#
# 1 0.015592 -0.004835 -0.001511 0.000000 0.000000 0.000000
# 2 -0.004835 0.009120 -0.002685 0.000000 0.000000 0.000000
# 3 -0.001511 -0.002685 0.021894 0.000000 0.000000 0.000000
# 4 0.000000 0.000000 0.000000 0.034253 0.000000 0.000000
# 5 0.000000 0.000000 0.000000 0.000000 0.034167 0.000000
# 6 0.000000 0.000000 0.000000 0.000000 0.000000 0.044275
#
#
# Mechanical properties :
#
#
# Convention : Reuss Voigt Hill
#
# Bulk Modulus (GPa) = 35.03331 46.74941 40.89136
# Shear Modulus (GPa) = 26.75563 28.95883 27.85723
#
# Velocity S-wave (km/s) = 3.33631 3.47096 3.40430
# Velocity P-wave (km/s) = 5.42365 5.95921 5.69773
#
# Compressibility (1/GPa) = 0.02854426
#
# Stress axis : x y z
#
# Youngs Moduli (GPa) = 64.13542 109.64561 45.67561
#
# Poissons Ratio (x) = 0.53009 0.06903
# Poissons Ratio (y) = 0.31007 0.12263
# Poissons Ratio (z) = 0.09693 0.29439
#
# Static dielectric constant tensor:
#      x y z
#    x 1.952760 0.000000 0.000000 
#    y 0.000000 2.054060 0.000000 
#    z 0.000000 0.000000 2.016020 
# 
# From -- ./inp_files/10100.got.cif
#   From: 2010.05.17/outbox.cif.g08.bks.cpg/sg24_6_cif.got.tgz:10100.got - 2010.06.04 00:33:39.
