data_PCOD9335596
_publ_section_title
;
Structure prediction by ZEFSAII (Michael W. Deem and Ramdas Pophale) SiO2 
 PCOD9335596
Probable space group: I 21 21 21
;
_chemical_formula_sum "Si O2"
_cell_formula_units_Z 40
_cell_length_a 14.688239
_cell_length_b 8.917454
_cell_length_c 12.619183
_cell_angle_alpha 90.000000
_cell_angle_beta 90.000000
_cell_angle_gamma 90.000000
_cell_volume 1652.881987
_symmetry_space_group_name_H-M "I 21 21 21"
_symmetry_group_IT_number 24
_symmetry_cell_setting 'orthorhombic'
loop_
_space_group_symop_operation_xyz
x,y,z
-x,1/2-y,z
x,-y,1/2-z
1/2-x,y,-z
1/2+x,1/2+y,1/2+z
1/2-x,-y,1/2+z
1/2+x,1/2-y,-z
-x,1/2+y,1/2-z
loop_
_atom_site_type_symbol
_atom_site_label
_atom_site_fract_x
_atom_site_fract_y
_atom_site_fract_z
Si Si1 0.620095 0.637977 0.576652
Si Si2 0.793314 0.512253 0.636681
Si Si3 0.932979 0.014469 0.080847
Si Si4 0.267626 0.677211 0.879870
Si Si5 0.433410 0.609562 0.158078
O O1 0.710722 0.628515 0.646079
O O2 0.645770 0.568354 0.460833
O O3 0.536158 0.540598 0.620724
O O4 0.600274 0.814054 0.569399
O O5 0.839929 0.500000 0.750000
O O6 0.739134 0.357159 0.614508
O O7 0.863663 0.904450 0.144546
O O8 0.940541 0.951240 0.961458
O O9 0.173877 0.640458 0.820311
O O10 0.250000 0.621082 0.000000
O O11 0.500000 0.750000 0.161994
O O12 0.462260 0.500000 0.250000
#
# Coordination Sequence:
#
# PCOD9335596 Si02
#       5
#     8   8   8   8   8
#     4  10  23  44  68  98 134 185 235 289 342 420
#     4  11  24  41  71 100 138 179 226 288 355 418
#     4  10  24  43  68  93 137 187 234 284 351 415
#     4  10  22  42  63  96 133 182 219 278 350 411
#     4  11  26  40  65 103 139 178 229 292 352 420
#
# _framework density 24.200156
#
# number of rings (size 3 to 8) (size 9 to 14) (size 15 to 20)
#    0.000    1.600    2.000    1.200   16.800    1.600 
#    0.000    5.000    0.000    0.000    0.000    0.000 
#    0.000    0.000    0.000    0.000    0.000    0.000 
#
# Total GULP energy -111666.850356 kJ/mol
# GULP energy per Si atom -5583.342518 kJ/mol
# Density = 2.414508 g / cm^3
# Si number density = 24.200156 Si / 1000 Ang^3
#
#
#
# Elastic Constant Matrix: (Units=GPa)
#
#
# Indices 1 2 3 4 5 6 
#
# 1 171.8265 56.6915 13.4018 0.0000 0.0000 0.0000
# 2 56.6915 105.6094 12.8255 0.0000 0.0000 0.0000
# 3 13.4018 12.8255 80.5238 0.0000 0.0000 0.0000
# 4 0.0000 0.0000 0.0000 27.0361 0.0000 0.0000
# 5 0.0000 0.0000 0.0000 0.0000 0.2208 0.0000
# 6 0.0000 0.0000 0.0000 0.0000 0.0000 42.3325
#
#
#
# Elastic Compliance Matrix: (Units=1/GPa)
#
#
# Indices 1 2 3 4 5 6 
#
# 1 0.007099 -0.003740 -0.000586 0.000000 0.000000 0.000000
# 2 -0.003740 0.011626 -0.001229 0.000000 0.000000 0.000000
# 3 -0.000586 -0.001229 0.012712 0.000000 0.000000 0.000000
# 4 0.000000 0.000000 0.000000 0.036988 0.000000 0.000000
# 5 0.000000 0.000000 0.000000 0.000000 4.529795 0.000000
# 6 0.000000 0.000000 0.000000 0.000000 0.000000 0.023622
#
#
# Mechanical properties :
#
#
# Convention : Reuss Voigt Hill
#
# Bulk Modulus (GPa) = 49.19541 58.19968 53.69755
# Shear Modulus (GPa) = 1.07765 32.25395 16.66580
#
# Velocity S-wave (km/s) = 0.66804 3.65471 2.62709
# Velocity P-wave (km/s) = 4.57905 6.47385 5.60707
#
# Compressibility (1/GPa) = 0.02032710
#
# Stress axis : x y z
#
# Youngs Moduli (GPa) = 140.85648 86.01640 78.66586
#
# Poissons Ratio (x) = 0.32169 0.04609
# Poissons Ratio (y) = 0.52678 0.09670
# Poissons Ratio (z) = 0.08253 0.10574
#
# Static dielectric constant tensor:
#      x y z
#    x 2.000370 0.000000 0.000000 
#    y 0.000000 1.951550 0.000000 
#    z 0.000000 0.000000 1.891930 
# 
# From -- ./inp_files/26300.got.cif
#   From: 2010.05.17/outbox.cif.g08.bks.cpg/sg24_14_cif.got.tgz:26300.got - 2010.06.04 00:33:39.
