data_PCOD9335983
_publ_section_title
;
Structure prediction by ZEFSAII (Michael W. Deem and Ramdas Pophale) SiO2 
 PCOD9335983
Probable space group: I 21 21 21
;
_chemical_formula_sum "Si O2"
_cell_formula_units_Z 48
_cell_length_a 13.907259
_cell_length_b 14.859184
_cell_length_c 9.065203
_cell_angle_alpha 90.000000
_cell_angle_beta 90.000000
_cell_angle_gamma 90.000000
_cell_volume 1873.328918
_symmetry_space_group_name_H-M "I 21 21 21"
_symmetry_group_IT_number 24
_symmetry_cell_setting 'orthorhombic'
loop_
_space_group_symop_operation_xyz
x,y,z
-x,1/2-y,z
x,-y,1/2-z
1/2-x,y,-z
1/2+x,1/2+y,1/2+z
1/2-x,-y,1/2+z
1/2+x,1/2-y,-z
-x,1/2+y,1/2-z
loop_
_atom_site_type_symbol
_atom_site_label
_atom_site_fract_x
_atom_site_fract_y
_atom_site_fract_z
Si Si1 0.115283 0.257778 0.500680
Si Si2 0.500000 0.250000 0.032249
Si Si3 0.250000 0.404887 0.000000
Si Si4 0.916374 0.613976 0.768085
Si Si5 0.242393 0.000000 0.250000
Si Si6 0.750000 0.423188 0.000000
Si Si7 0.324677 0.746387 0.669326
Si Si8 0.607581 0.958143 0.097547
O O1 0.136550 0.183405 0.623961
O O2 0.158799 0.243630 0.341226
O O3 0.138186 0.357962 0.555496
O O4 0.000000 0.250000 0.485537
O O5 0.472354 0.169983 0.144861
O O6 0.418083 0.284128 0.922538
O O7 0.247551 0.331525 0.866860
O O8 0.157470 0.470986 0.012939
O O9 0.827252 0.565995 0.680470
O O10 0.992744 0.556526 0.865414
O O11 0.189862 0.006439 0.401036
O O12 0.806865 0.342976 0.096863
O O13 0.645700 0.000000 0.250000
#
# Coordination Sequence:
#
# PCOD9335983 Si02
#       8
#     8   4   4   8   4   4   8   8
#     4  10  23  44  69  97 133 176 238 285 347 421
#     4  12  20  46  74  94 136 188 246 284 346 438
#     4  11  28  40  67 106 152 174 223 298 378 431
#     4  11  23  44  76  97 130 193 245 290 342 438
#     4  12  26  46  68 106 134 188 242 304 350 418
#     4  11  28  46  65 102 148 182 237 298 376 409
#     4  11  25  46  69 101 142 193 225 297 369 431
#     4  11  23  43  67 103 140 179 234 286 351 429
#
# _framework density 25.622838000000002
#
# number of rings (size 3 to 8) (size 9 to 14) (size 15 to 20)
#    0.000    1.000    5.833    1.000    4.667    0.000 
#    0.000    0.000    0.000    0.000    0.000    0.000 
#    0.000    0.000    0.000    0.000    0.000    0.000 
#
# Total GULP energy -133635.067076 kJ/mol
# GULP energy per Si atom -5568.127795 kJ/mol
# Density = 2.556452 g / cm^3
# Si number density = 25.622838 Si / 1000 Ang^3
#
#
#
# Elastic Constant Matrix: (Units=GPa)
#
#
# Indices 1 2 3 4 5 6 
#
# 1 100.1375 28.4847 22.1970 0.0000 0.0000 0.0000
# 2 28.4847 99.1896 50.8413 0.0000 0.0000 0.0000
# 3 22.1970 50.8413 186.7358 0.0000 0.0000 0.0000
# 4 0.0000 0.0000 0.0000 21.2254 0.0000 0.0000
# 5 0.0000 0.0000 0.0000 0.0000 41.8925 0.0000
# 6 0.0000 0.0000 0.0000 0.0000 0.0000 39.1497
#
#
#
# Elastic Compliance Matrix: (Units=1/GPa)
#
#
# Indices 1 2 3 4 5 6 
#
# 1 0.010917 -0.002871 -0.000516 0.000000 0.000000 0.000000
# 2 -0.002871 0.012472 -0.003054 0.000000 0.000000 0.000000
# 3 -0.000516 -0.003054 0.006248 0.000000 0.000000 0.000000
# 4 0.000000 0.000000 0.000000 0.047113 0.000000 0.000000
# 5 0.000000 0.000000 0.000000 0.000000 0.023871 0.000000
# 6 0.000000 0.000000 0.000000 0.000000 0.000000 0.025543
#
#
# Mechanical properties :
#
#
# Convention : Reuss Voigt Hill
#
# Bulk Modulus (GPa) = 59.68446 65.45656 62.57051
# Shear Modulus (GPa) = 34.57075 39.42284 36.99680
#
# Velocity S-wave (km/s) = 3.67715 3.92673 3.80399
# Velocity P-wave (km/s) = 6.43216 6.79416 6.61563
#
# Compressibility (1/GPa) = 0.01675478
#
# Stress axis : x y z
#
# Youngs Moduli (GPa) = 91.59823 80.18211 160.04869
#
# Poissons Ratio (x) = 0.23017 0.08261
# Poissons Ratio (y) = 0.26294 0.48884
# Poissons Ratio (z) = 0.04728 0.24490
#
# Static dielectric constant tensor:
#      x y z
#    x 2.139630 0.000000 0.000000 
#    y 0.000000 2.274980 0.000000 
#    z 0.000000 0.000000 2.661810 
# 
# From -- ./inp_files/14247.got.cif
#   From: 2010.05.17/outbox.cif.g08.bks.cpg/sg24_8_cif.got.tgz:14247.got - 2010.06.04 00:33:39.
