data_PCOD9335040
_publ_section_title
;
Structure prediction by ZEFSAII (Michael W. Deem and Ramdas Pophale) SiO2 
 PCOD9335040
Probable space group: I 21 21 21
;
_chemical_formula_sum "Si O2"
_cell_formula_units_Z 40
_cell_length_a 8.400592
_cell_length_b 25.733040
_cell_length_c 7.851245
_cell_angle_alpha 90.000000
_cell_angle_beta 90.000000
_cell_angle_gamma 90.000000
_cell_volume 1697.225379
_symmetry_space_group_name_H-M "I 21 21 21"
_symmetry_group_IT_number 24
_symmetry_cell_setting 'orthorhombic'
loop_
_space_group_symop_operation_xyz
x,y,z
-x,1/2-y,z
x,-y,1/2-z
1/2-x,y,-z
1/2+x,1/2+y,1/2+z
1/2-x,-y,1/2+z
1/2+x,1/2-y,-z
-x,1/2+y,1/2-z
loop_
_atom_site_type_symbol
_atom_site_label
_atom_site_fract_x
_atom_site_fract_y
_atom_site_fract_z
Si Si1 0.170708 0.944142 0.734361
Si Si2 0.937103 0.696303 0.033307
Si Si3 0.375366 0.159703 0.877086
Si Si4 0.573372 0.073084 0.939734
Si Si5 0.431415 0.416911 0.536224
O O1 0.273115 0.891135 0.699823
O O2 0.053711 0.950659 0.571159
O O3 0.256320 0.000000 0.750000
O O4 0.063206 0.937631 0.903881
O O5 0.935043 0.697759 0.236165
O O6 0.000000 0.750000 0.956837
O O7 0.042925 0.645058 0.003818
O O8 0.750000 0.687345 0.000000
O O9 0.527675 0.133838 0.964726
O O10 0.250000 0.185312 0.000000
O O11 0.554628 0.066689 0.735485
O O12 0.750000 0.060432 0.000000
O O13 0.250000 0.431434 0.500000
#
# Coordination Sequence:
#
# PCOD9335040 Si02
#       5
#     8   8   8   8   8
#     4  11  23  42  65  95 132 183 228 275 340 403
#     4  11  22  41  67  98 126 170 227 279 348 412
#     4   9  21  44  64  90 135 169 220 283 333 415
#     4  10  21  40  61  92 130 172 221 275 331 398
#     4  11  22  41  67  90 137 178 217 286 341 399
#
# _framework density 23.567876999999999
#
# number of rings (size 3 to 8) (size 9 to 14) (size 15 to 20)
#    0.000    1.600    4.000    0.600    0.000    1.600 
#   21.600    5.000    0.000    0.000    0.000    0.000 
#    0.000    0.000    0.000    0.000    0.000    0.000 
#
# Total GULP energy -111410.379813 kJ/mol
# GULP energy per Si atom -5570.518991 kJ/mol
# Density = 2.351424 g / cm^3
# Si number density = 23.567877 Si / 1000 Ang^3
#
#
#
# Elastic Constant Matrix: (Units=GPa)
#
#
# Indices 1 2 3 4 5 6 
#
# 1 108.9350 17.3430 9.6763 -0.0002 -0.0002 0.0002
# 2 17.3430 101.3003 15.0728 0.0007 -0.0001 0.0002
# 3 9.6763 15.0728 80.9164 -0.0031 -0.0033 0.0007
# 4 -0.0002 0.0007 -0.0031 13.8379 -0.0006 -0.0001
# 5 -0.0002 -0.0001 -0.0033 -0.0006 42.4926 -0.0002
# 6 0.0002 0.0002 0.0007 -0.0001 -0.0002 19.9602
#
#
#
# Elastic Compliance Matrix: (Units=1/GPa)
#
#
# Indices 1 2 3 4 5 6 
#
# 1 0.009494 -0.001498 -0.000856 0.000000 0.000000 0.000000
# 2 -0.001498 0.010389 -0.001756 -0.000001 0.000000 0.000000
# 3 -0.000856 -0.001756 0.012788 0.000003 0.000001 0.000000
# 4 0.000000 -0.000001 0.000003 0.072265 0.000001 0.000000
# 5 0.000000 0.000000 0.000001 0.000001 0.023533 0.000000
# 6 0.000000 0.000000 0.000000 0.000000 0.000000 0.050100
#
#
# Mechanical properties :
#
#
# Convention : Reuss Voigt Hill
#
# Bulk Modulus (GPa) = 40.89868 41.70399 41.30133
# Shear Modulus (GPa) = 25.64871 31.86212 28.75541
#
# Velocity S-wave (km/s) = 3.30250 3.68085 3.49680
# Velocity P-wave (km/s) = 5.65095 5.98319 5.81944
#
# Compressibility (1/GPa) = 0.02445067
#
# Stress axis : x y z
#
# Youngs Moduli (GPa) = 105.32589 96.25182 78.19847
#
# Poissons Ratio (x) = 0.14419 0.06696
# Poissons Ratio (y) = 0.15778 0.13733
# Poissons Ratio (z) = 0.09019 0.16903
#
# Static dielectric constant tensor:
#      x y z
#    x 1.934620 0.000000 0.000000 
#    y 0.000000 1.914220 0.000000 
#    z 0.000000 0.000000 1.871200 
# 
# From -- ./inp_files/9250.got.cif
#   From: 2010.05.17/outbox.cif.g08.bks.cpg/sg24_5_cif.got.tgz:9250.got - 2010.06.04 00:33:39.
