data_PCOD9335477
_publ_section_title
;
Structure prediction by ZEFSAII (Michael W. Deem and Ramdas Pophale) SiO2 
 PCOD9335477
Probable space group: I 21 21 21
;
_chemical_formula_sum "Si O2"
_cell_formula_units_Z 36
_cell_length_a 10.768557
_cell_length_b 11.133818
_cell_length_c 14.591901
_cell_angle_alpha 90.000000
_cell_angle_beta 90.000000
_cell_angle_gamma 90.000000
_cell_volume 1749.498214
_symmetry_space_group_name_H-M "I 21 21 21"
_symmetry_group_IT_number 24
_symmetry_cell_setting 'orthorhombic'
loop_
_space_group_symop_operation_xyz
x,y,z
-x,1/2-y,z
x,-y,1/2-z
1/2-x,y,-z
1/2+x,1/2+y,1/2+z
1/2-x,-y,1/2+z
1/2+x,1/2-y,-z
-x,1/2+y,1/2-z
loop_
_atom_site_type_symbol
_atom_site_label
_atom_site_fract_x
_atom_site_fract_y
_atom_site_fract_z
Si Si1 0.353120 0.272063 0.824432
Si Si2 0.821671 0.983103 0.084453
Si Si3 0.750000 0.366946 0.000000
Si Si4 0.733544 0.725602 0.135233
Si Si5 0.581478 0.411436 0.495872
O O1 0.500000 0.250000 0.810051
O O2 0.339470 0.415237 0.839586
O O3 0.303065 0.208110 0.915672
O O4 0.273610 0.218841 0.740479
O O5 0.743543 0.866904 0.113946
O O6 0.750000 0.042577 0.000000
O O7 0.949239 0.932117 0.041988
O O8 0.861019 0.458295 0.973885
O O9 0.607869 0.666763 0.095461
O O10 0.837204 0.655728 0.074368
#
# Coordination Sequence:
#
# PCOD9335477 Si02
#       5
#     8   8   4   8   8
#     4  12  23  40  68  99 133 169 234 291 341 421
#     4  12  22  39  70  92 131 177 221 277 345 407
#     4  10  22  40  62  92 134 180 210 284 368 400
#     4  10  23  39  68  95 124 171 227 280 342 408
#     4  10  22  42  64  94 138 171 219 276 355 413
#
# _framework density 20.57733
#
# number of rings (size 3 to 8) (size 9 to 14) (size 15 to 20)
#    0.000    1.333    5.556    2.667    0.000    3.556 
#    0.000    0.000   19.556    0.000    0.000    0.000 
#    0.000    0.000    0.000    0.000    0.000    0.000 
#
# Total GULP energy -100416.516766 kJ/mol
# GULP energy per Si atom -5578.695376 kJ/mol
# Density = 2.053049 g / cm^3
# Si number density = 20.577330 Si / 1000 Ang^3
#
#
#
# Elastic Constant Matrix: (Units=GPa)
#
#
# Indices 1 2 3 4 5 6 
#
# 1 32.0892 22.5308 34.4841 0.0000 0.0000 0.0000
# 2 22.5308 126.1484 50.7652 0.0000 0.0000 0.0000
# 3 34.4841 50.7652 137.0732 0.0000 0.0000 0.0000
# 4 0.0000 0.0000 0.0000 -0.2133 0.0000 0.0000
# 5 0.0000 0.0000 0.0000 0.0000 3.7813 0.0000
# 6 0.0000 0.0000 0.0000 0.0000 0.0000 22.9287
#
#
#
# Elastic Compliance Matrix: (Units=1/GPa)
#
#
# Indices 1 2 3 4 5 6 
#
# 1 0.044392 -0.004036 -0.009673 0.000000 0.000000 0.000000
# 2 -0.004036 0.009682 -0.002571 0.000000 0.000000 0.000000
# 3 -0.009673 -0.002571 0.010681 0.000000 0.000000 0.000000
# 4 0.000000 0.000000 0.000000 -4.687517 0.000000 0.000000
# 5 0.000000 0.000000 0.000000 0.000000 0.264461 0.000000
# 6 0.000000 0.000000 0.000000 0.000000 0.000000 0.043613
#
#
# Mechanical properties :
#
#
# Convention : Reuss Voigt Hill
#
# Bulk Modulus (GPa) = 31.05972 56.76344 43.91158
# Shear Modulus (GPa) = -1.17058 17.80139 8.31540
#
# Velocity S-wave (km/s) = -0.75505 2.94444 2.01242
# Velocity P-wave (km/s) = 3.79035 6.26139 5.17551
#
# Compressibility (1/GPa) = 0.03219604
#
# Stress axis : x y z
#
# Youngs Moduli (GPa) = 22.52656 103.27942 93.62501
#
# Poissons Ratio (x) = 0.41683 0.90565
# Poissons Ratio (y) = 0.09092 0.24067
# Poissons Ratio (z) = 0.21790 0.26549
#
# Static dielectric constant tensor:
#      x y z
#    x 1.783830 0.000000 0.000000 
#    y 0.000000 1.758400 0.000000 
#    z 0.000000 0.000000 1.750110 
# 
# From -- ./inp_files/25547.got.cif
#   From: 2010.05.17/outbox.cif.g08.bks.cpg/sg24_13_cif.got.tgz:25547.got - 2010.06.04 00:33:39.
