data_PCOD9335329
_publ_section_title
;
Structure prediction by ZEFSAII (Michael W. Deem and Ramdas Pophale) SiO2 
 PCOD9335329
Probable space group: I 21 21 21
;
_chemical_formula_sum "Si O2"
_cell_formula_units_Z 44
_cell_length_a 29.267890
_cell_length_b 14.905499
_cell_length_c 5.345214
_cell_angle_alpha 90.000000
_cell_angle_beta 90.000000
_cell_angle_gamma 90.000000
_cell_volume 2331.862998
_symmetry_space_group_name_H-M "I 21 21 21"
_symmetry_group_IT_number 24
_symmetry_cell_setting 'orthorhombic'
loop_
_space_group_symop_operation_xyz
x,y,z
-x,1/2-y,z
x,-y,1/2-z
1/2-x,y,-z
1/2+x,1/2+y,1/2+z
1/2-x,-y,1/2+z
1/2+x,1/2-y,-z
-x,1/2+y,1/2-z
loop_
_atom_site_type_symbol
_atom_site_label
_atom_site_fract_x
_atom_site_fract_y
_atom_site_fract_z
Si Si1 0.840267 0.667911 0.355969
Si Si2 0.902946 0.500000 0.250000
Si Si3 0.000000 0.750000 0.437933
Si Si4 0.448723 0.393710 0.286917
Si Si5 0.750000 0.439554 0.000000
Si Si6 0.380047 0.249602 0.346968
Si Si7 0.539976 0.637920 0.966311
O O1 0.872472 0.580033 0.350547
O O2 0.790631 0.624525 0.401553
O O3 0.853110 0.728032 0.594286
O O4 0.851479 0.717849 0.092196
O O5 0.936411 0.542558 0.049171
O O6 0.025992 0.667664 0.576244
O O7 0.039412 0.799684 0.277997
O O8 0.445701 0.500000 0.250000
O O9 0.399998 0.349928 0.350282
O O10 0.486632 0.376506 0.497575
O O11 0.762511 0.500000 0.750000
O O12 0.427548 0.192016 0.346473
#
# Coordination Sequence:
#
# PCOD9335329 Si02
#       7
#     8   4   4   8   4   8   8
#     4  11  25  41  66  88 134 169 202 275 326 407
#     4  10  22  36  54  90 118 176 214 246 316 382
#     4  12  20  42  50  82 126 174 226 290 320 374
#     4  12  24  36  61  86 122 182 230 284 315 374
#     4  12  24  44  68 108 134 160 222 266 346 424
#     4  11  23  42  58  87 128 173 217 264 327 386
#     4  11  22  35  54  79 124 172 221 265 313 369
#
# _framework density 18.869033999999999
#
# number of rings (size 3 to 8) (size 9 to 14) (size 15 to 20)
#    0.000    0.727    4.545    4.364    5.091    0.000 
#    0.000    0.000    0.000    0.000    0.000    2.545 
#    0.000    0.000    0.000    0.000    0.000    0.000 
#
# Total GULP energy -122571.311929 kJ/mol
# GULP energy per Si atom -5571.423270 kJ/mol
# Density = 1.882609 g / cm^3
# Si number density = 18.869034 Si / 1000 Ang^3
#
#
#
# Elastic Constant Matrix: (Units=GPa)
#
#
# Indices 1 2 3 4 5 6 
#
# 1 87.9141 30.0389 35.9630 0.0000 0.0000 0.0001
# 2 30.0389 98.5080 46.3839 0.0000 0.0000 0.0000
# 3 35.9630 46.3839 103.6731 0.0000 -0.0001 0.0000
# 4 0.0000 0.0000 0.0000 5.0469 0.0000 0.0001
# 5 0.0000 0.0000 -0.0001 0.0000 29.4346 -0.0001
# 6 0.0001 0.0000 0.0000 0.0001 -0.0001 -118.4823
#
#
#
# Elastic Compliance Matrix: (Units=1/GPa)
#
#
# Indices 1 2 3 4 5 6 
#
# 1 0.013711 -0.002460 -0.003656 0.000000 0.000000 0.000000
# 2 -0.002460 0.013302 -0.005098 0.000000 0.000000 0.000000
# 3 -0.003656 -0.005098 0.013195 0.000000 0.000000 0.000000
# 4 0.000000 0.000000 0.000000 0.198143 0.000000 0.000000
# 5 0.000000 0.000000 0.000000 0.000000 0.033974 0.000000
# 6 0.000000 0.000000 0.000000 0.000000 0.000000 -0.008440
#
#
# Mechanical properties :
#
#
# Convention : Reuss Voigt Hill
#
# Bulk Modulus (GPa) = 56.24119 57.20743 56.72431
# Shear Modulus (GPa) = 17.10938 -4.95288 6.07825
#
# Velocity S-wave (km/s) = 3.01449 -1.62190 1.79674
# Velocity P-wave (km/s) = 6.47973 5.18426 5.86786
#
# Compressibility (1/GPa) = 0.01778056
#
# Stress axis : x y z
#
# Youngs Moduli (GPa) = 72.93658 75.17646 75.78772
#
# Poissons Ratio (x) = 0.18490 0.27705
# Poissons Ratio (y) = 0.17939 0.38638
# Poissons Ratio (z) = 0.26663 0.38326
#
# Static dielectric constant tensor:
#      x y z
#    x 1.718190 0.000000 0.000000 
#    y 0.000000 1.692860 0.000000 
#    z 0.000000 0.000000 2.589660 
# 
# From -- ./inp_files/7683.got.cif
#   From: 2010.05.17/outbox.cif.g08.bks.cpg/sg24_4_cif.got.tgz:7683.got - 2010.06.04 00:33:39.
