data_PCOD9335628
_publ_section_title
;
Structure prediction by ZEFSAII (Michael W. Deem and Ramdas Pophale) SiO2 
 PCOD9335628
Probable space group: I 21 21 21
;
_chemical_formula_sum "Si O2"
_cell_formula_units_Z 28
_cell_length_a 33.759779
_cell_length_b 5.000121
_cell_length_c 7.731942
_cell_angle_alpha 90.000000
_cell_angle_beta 90.000000
_cell_angle_gamma 90.000000
_cell_volume 1305.174850
_symmetry_space_group_name_H-M "I 21 21 21"
_symmetry_group_IT_number 24
_symmetry_cell_setting 'orthorhombic'
loop_
_space_group_symop_operation_xyz
x,y,z
-x,1/2-y,z
x,-y,1/2-z
1/2-x,y,-z
1/2+x,1/2+y,1/2+z
1/2-x,-y,1/2+z
1/2+x,1/2-y,-z
-x,1/2+y,1/2-z
loop_
_atom_site_type_symbol
_atom_site_label
_atom_site_fract_x
_atom_site_fract_y
_atom_site_fract_z
Si Si1 0.643627 0.019171 0.046334
Si Si2 0.281538 0.739062 0.858815
Si Si3 0.971798 0.500000 0.250000
Si Si4 0.408443 0.020687 0.454694
O O1 0.628015 0.316699 0.011205
O O2 0.652926 0.000000 0.250000
O O3 0.607165 0.818877 0.011583
O O4 0.680681 0.908771 0.941453
O O5 0.261438 0.500000 0.750000
O O6 0.292784 0.000000 0.750000
O O7 0.250000 0.832218 0.000000
O O8 0.943809 0.545322 0.416288
O O9 0.000000 0.250000 0.282037
O O10 0.418463 0.000000 0.250000
#
# Coordination Sequence:
#
# PCOD9335628 Si02
#       4
#     8   8   4   8
#     4  10  22  42  67  95 128 171 224 281 330 398
#     4  12  26  42  65  97 135 180 225 282 345 401
#     4  12  26  42  66 100 136 176 220 282 338 412
#     4  10  23  42  67  97 132 173 223 277 336 406
#
# _framework density 21.453067000000001
#
# number of rings (size 3 to 8) (size 9 to 14) (size 15 to 20)
#    0.000    1.143    0.000    5.143    6.000    4.571 
#    0.000    0.000    0.000    0.000    0.000    0.000 
#    0.000    0.000    0.000    0.000    0.000    0.000 
#
# Total GULP energy -78342.316331 kJ/mol
# GULP energy per Si atom -5595.879738 kJ/mol
# Density = 2.140424 g / cm^3
# Si number density = 21.453067 Si / 1000 Ang^3
#
#
#
# Elastic Constant Matrix: (Units=GPa)
#
#
# Indices 1 2 3 4 5 6 
#
# 1 89.2413 8.6244 70.2310 0.0000 0.0000 0.0000
# 2 8.6244 106.5114 34.4421 0.0000 0.0000 0.0000
# 3 70.2310 34.4421 95.6160 0.0000 0.0000 0.0000
# 4 0.0000 0.0000 0.0000 34.0183 0.0000 0.0000
# 5 0.0000 0.0000 0.0000 0.0000 23.3690 0.0000
# 6 0.0000 0.0000 0.0000 0.0000 0.0000 27.1914
#
#
#
# Elastic Compliance Matrix: (Units=1/GPa)
#
#
# Indices 1 2 3 4 5 6 
#
# 1 0.028817 0.005106 -0.023006 0.000000 0.000000 0.000000
# 2 0.005106 0.011531 -0.007904 0.000000 0.000000 0.000000
# 3 -0.023006 -0.007904 0.030203 0.000000 0.000000 0.000000
# 4 0.000000 0.000000 0.000000 0.029396 0.000000 0.000000
# 5 0.000000 0.000000 0.000000 0.000000 0.042792 0.000000
# 6 0.000000 0.000000 0.000000 0.000000 0.000000 0.036776
#
#
# Mechanical properties :
#
#
# Convention : Reuss Voigt Hill
#
# Bulk Modulus (GPa) = 52.78664 57.55152 55.16908
# Shear Modulus (GPa) = 21.05816 28.78715 24.92266
#
# Velocity S-wave (km/s) = 3.13644 3.66712 3.41211
# Velocity P-wave (km/s) = 6.14617 6.69443 6.42615
#
# Compressibility (1/GPa) = 0.01894419
#
# Stress axis : x y z
#
# Youngs Moduli (GPa) = 34.70172 86.72202 33.10884
#
# Poissons Ratio (x) = -0.44279 0.76169
# Poissons Ratio (y) = -0.17718 0.26169
# Poissons Ratio (z) = 0.79833 0.68544
#
# Static dielectric constant tensor:
#      x y z
#    x 1.725110 0.000000 0.000000 
#    y 0.000000 1.717790 0.000000 
#    z 0.000000 0.000000 1.812220 
# 
# From -- ./inp_files/16169.got.cif
#   From: 2010.05.17/outbox.cif.g08.bks.cpg/sg24_9_cif.got.tgz:16169.got - 2010.06.04 00:33:39.
