data_PCOD9335556
_publ_section_title
;
Structure prediction by ZEFSAII (Michael W. Deem and Ramdas Pophale) SiO2 
 PCOD9335556
Probable space group: I 21 21 21
;
_chemical_formula_sum "Si O2"
_cell_formula_units_Z 32
_cell_length_a 4.979192
_cell_length_b 8.156544
_cell_length_c 36.598339
_cell_angle_alpha 90.000000
_cell_angle_beta 90.000000
_cell_angle_gamma 90.000000
_cell_volume 1486.368292
_symmetry_space_group_name_H-M "I 21 21 21"
_symmetry_group_IT_number 24
_symmetry_cell_setting 'orthorhombic'
loop_
_space_group_symop_operation_xyz
x,y,z
-x,1/2-y,z
x,-y,1/2-z
1/2-x,y,-z
1/2+x,1/2+y,1/2+z
1/2-x,-y,1/2+z
1/2+x,1/2-y,-z
-x,1/2+y,1/2-z
loop_
_atom_site_type_symbol
_atom_site_label
_atom_site_fract_x
_atom_site_fract_y
_atom_site_fract_z
Si Si1 0.897421 0.434851 0.290236
Si Si2 0.497418 0.440450 0.526649
Si Si3 0.402673 0.561305 0.332168
Si Si4 0.737059 0.142406 0.906671
O O1 0.830676 0.500000 0.250000
O O2 0.638016 0.452139 0.315591
O O3 0.000000 0.250000 0.287856
O O4 0.138311 0.538396 0.308066
O O5 0.500000 0.250000 0.538888
O O6 0.250000 0.457606 0.500000
O O7 0.423539 0.555349 0.560596
O O8 0.750000 0.475938 0.500000
O O9 0.500000 0.750000 0.331124
O O10 0.342013 0.524214 0.374689
O O11 0.500000 0.250000 0.888508
O O12 0.000000 0.250000 0.918283
#
# Coordination Sequence:
#
# PCOD9335556 Si02
#       4
#     8   8   8   8
#     4  12  25  43  67  97 130 171 219 268 323 383
#     4  10  22  41  65  94 129 168 211 263 321 381
#     4  11  23  43  66  94 132 172 214 267 325 383
#     4  11  23  41  66  97 130 169 214 266 325 383
#
# _framework density 21.528984999999999
#
# number of rings (size 3 to 8) (size 9 to 14) (size 15 to 20)
#    0.000    1.000    0.000    8.250    0.000    3.000 
#    0.000   10.000    0.000    0.000    0.000    0.000 
#    0.000    0.000    0.000    0.000    0.000    0.000 
#
# Total GULP energy -89441.989640 kJ/mol
# GULP energy per Si atom -5590.124353 kJ/mol
# Density = 2.147998 g / cm^3
# Si number density = 21.528985 Si / 1000 Ang^3
#
#
#
# Elastic Constant Matrix: (Units=GPa)
#
#
# Indices 1 2 3 4 5 6 
#
# 1 173.3622 31.1144 59.8298 0.0000 0.0000 0.0000
# 2 31.1144 60.0722 63.8503 0.0000 0.0000 0.0000
# 3 59.8298 63.8503 124.0462 0.0000 -0.0001 0.0000
# 4 0.0000 0.0000 0.0000 32.8856 -0.0001 0.0000
# 5 0.0000 0.0000 -0.0001 -0.0001-1347.5555 0.0000
# 6 0.0000 0.0000 0.0000 0.0000 0.0000 26.3491
#
#
#
# Elastic Compliance Matrix: (Units=1/GPa)
#
#
# Indices 1 2 3 4 5 6 
#
# 1 0.006920 -0.000081 -0.003296 0.000000 0.000000 0.000000
# 2 -0.000081 0.036757 -0.018881 0.000000 0.000000 0.000000
# 3 -0.003296 -0.018881 0.019370 0.000000 0.000000 0.000000
# 4 0.000000 0.000000 0.000000 0.030408 0.000000 0.000000
# 5 0.000000 0.000000 0.000000 0.000000 -0.000742 0.000000
# 6 0.000000 0.000000 0.000000 0.000000 0.000000 0.037952
#
#
# Mechanical properties :
#
#
# Convention : Reuss Voigt Hill
#
# Bulk Modulus (GPa) = 53.96307 74.11884 64.04095
# Shear Modulus (GPa) = 27.56981 -244.15174 -108.29097
#
# Velocity S-wave (km/s) = 3.58242 -10.66078 -7.09995
# Velocity P-wave (km/s) = 6.49856 10.81823 6.11567
#
# Compressibility (1/GPa) = 0.01853119
#
# Stress axis : x y z
#
# Youngs Moduli (GPa) = 144.50148 27.20593 51.62683
#
# Poissons Ratio (x) = 0.00220 0.17017
# Poissons Ratio (y) = 0.01170 0.97475
# Poissons Ratio (z) = 0.47630 0.51367
#
# Static dielectric constant tensor:
#      x y z
#    x 1.762370 0.000000 0.000000 
#    y 0.000000 7.156770 0.000000 
#    z 0.000000 0.000000 1.750250 
# 
# From -- ./inp_files/37714.got.cif
#   From: 2010.05.17/outbox.cif.g08.bks.cpg/sg24_19_cif.got.tgz:37714.got - 2010.06.04 00:33:39.
