data_PCOD9335118
_publ_section_title
;
Structure prediction by ZEFSAII (Michael W. Deem and Ramdas Pophale) SiO2 
 PCOD9335118
Probable space group: I 21 21 21
;
_chemical_formula_sum "Si O2"
_cell_formula_units_Z 60
_cell_length_a 10.798777
_cell_length_b 9.386405
_cell_length_c 29.497112
_cell_angle_alpha 90.000000
_cell_angle_beta 90.000000
_cell_angle_gamma 90.000000
_cell_volume 2989.877253
_symmetry_space_group_name_H-M "I 21 21 21"
_symmetry_group_IT_number 24
_symmetry_cell_setting 'orthorhombic'
loop_
_space_group_symop_operation_xyz
x,y,z
-x,1/2-y,z
x,-y,1/2-z
1/2-x,y,-z
1/2+x,1/2+y,1/2+z
1/2-x,-y,1/2+z
1/2+x,1/2-y,-z
-x,1/2+y,1/2-z
loop_
_atom_site_type_symbol
_atom_site_label
_atom_site_fract_x
_atom_site_fract_y
_atom_site_fract_z
Si Si1 0.716194 0.309406 0.685925
Si Si2 0.416171 0.386544 0.834602
Si Si3 0.382534 0.850789 0.545734
Si Si4 0.679396 0.002253 0.196729
Si Si5 0.045836 0.910203 0.864546
Si Si6 0.571439 0.500000 0.750000
Si Si7 0.536506 0.604053 0.895968
Si Si8 0.886041 0.644978 0.562116
O O1 0.742674 0.143693 0.691192
O O2 0.842732 0.384619 0.670790
O O3 0.657130 0.374822 0.730825
O O4 0.620610 0.342961 0.645707
O O5 0.500000 0.250000 0.847220
O O6 0.273236 0.373230 0.819560
O O7 0.486255 0.445312 0.790288
O O8 0.430516 0.504388 0.874092
O O9 0.500000 0.750000 0.554087
O O10 0.252890 0.788589 0.565299
O O11 0.387496 0.882634 0.492004
O O12 0.392678 0.999877 0.571062
O O13 0.563833 0.987874 0.163046
O O14 0.643973 0.000000 0.250000
O O15 0.000000 0.750000 0.878132
O O16 0.092998 0.007215 0.906161
O O17 0.500000 0.750000 0.919979
O O18 0.000000 0.750000 0.572449
#
# Coordination Sequence:
#
# PCOD9335118 Si02
#       8
#     8   8   8   8   8   4   8   8
#     4  10  21  41  57  86 122 168 209 269 313 378
#     4  11  22  35  57  89 122 161 205 263 320 373
#     4  10  22  42  69  97 131 166 213 266 324 394
#     4  11  22  39  61  87 129 166 220 259 319 378
#     4  10  23  42  65  89 125 173 213 264 320 389
#     4  10  22  32  60  76 122 160 214 260 324 360
#     4  11  21  37  64  91 124 157 203 262 326 373
#     4  10  22  44  67  95 131 171 211 263 325 395
#
# _framework density 20.067713000000001
#
# number of rings (size 3 to 8) (size 9 to 14) (size 15 to 20)
#    0.000    1.600    3.333    1.200    0.933    2.667 
#    2.400    0.000    0.000    0.000    0.000    0.000 
#    0.000    0.000    0.000    0.000    0.000    0.000 
#
# Total GULP energy -167374.074463 kJ/mol
# GULP energy per Si atom -5579.135815 kJ/mol
# Density = 2.002204 g / cm^3
# Si number density = 20.067713 Si / 1000 Ang^3
#
#
#
# Elastic Constant Matrix: (Units=GPa)
#
#
# Indices 1 2 3 4 5 6 
#
# 1 129.5132 37.8054 32.9057 0.0000 0.0000 0.0000
# 2 37.8054 68.9181 29.0276 0.0000 0.0000 0.0000
# 3 32.9057 29.0276 67.1067 0.0000 0.0000 0.0000
# 4 0.0000 0.0000 0.0000 24.9554 0.0000 0.0000
# 5 0.0000 0.0000 0.0000 0.0000 5.8391 0.0000
# 6 0.0000 0.0000 0.0000 0.0000 0.0000 31.8183
#
#
#
# Elastic Compliance Matrix: (Units=1/GPa)
#
#
# Indices 1 2 3 4 5 6 
#
# 1 0.009660 -0.004040 -0.002989 0.000000 0.000000 0.000000
# 2 -0.004040 0.019432 -0.006425 0.000000 0.000000 0.000000
# 3 -0.002989 -0.006425 0.019146 0.000000 0.000000 0.000000
# 4 0.000000 0.000000 0.000000 0.040071 0.000000 0.000000
# 5 0.000000 0.000000 0.000000 0.000000 0.171258 0.000000
# 6 0.000000 0.000000 0.000000 0.000000 0.000000 0.031428
#
#
# Mechanical properties :
#
#
# Convention : Reuss Voigt Hill
#
# Bulk Modulus (GPa) = 46.88019 51.66839 49.27429
# Shear Modulus (GPa) = 15.38395 23.57587 19.47991
#
# Velocity S-wave (km/s) = 2.77176 3.43128 3.11900
# Velocity P-wave (km/s) = 5.80132 6.44214 6.13011
#
# Compressibility (1/GPa) = 0.02133097
#
# Stress axis : x y z
#
# Youngs Moduli (GPa) = 103.51972 51.46123 52.22915
#
# Poissons Ratio (x) = 0.20790 0.15612
# Poissons Ratio (y) = 0.41822 0.33555
# Poissons Ratio (z) = 0.30944 0.33061
#
# Static dielectric constant tensor:
#      x y z
#    x 1.774850 0.000000 0.000000 
#    y 0.000000 1.743630 0.000000 
#    z 0.000000 0.000000 1.697980 
# 
# From -- ./inp_files/38597.got.cif
#   From: 2010.05.17/outbox.cif.g08.bks.cpg/sg24_20_cif.got.tgz:38597.got - 2010.06.04 00:33:39.
