data_PCOD9335478
_publ_section_title
;
Structure prediction by ZEFSAII (Michael W. Deem and Ramdas Pophale) SiO2 
 PCOD9335478
Probable space group: I 21 21 21
;
_chemical_formula_sum "Si O2"
_cell_formula_units_Z 48
_cell_length_a 22.696080
_cell_length_b 18.960530
_cell_length_c 5.032530
_cell_angle_alpha 90.000000
_cell_angle_beta 90.000000
_cell_angle_gamma 90.000000
_cell_volume 2165.647154
_symmetry_space_group_name_H-M "I 21 21 21"
_symmetry_group_IT_number 24
_symmetry_cell_setting 'orthorhombic'
loop_
_space_group_symop_operation_xyz
x,y,z
-x,1/2-y,z
x,-y,1/2-z
1/2-x,y,-z
1/2+x,1/2+y,1/2+z
1/2-x,-y,1/2+z
1/2+x,1/2-y,-z
-x,1/2+y,1/2-z
loop_
_atom_site_type_symbol
_atom_site_label
_atom_site_fract_x
_atom_site_fract_y
_atom_site_fract_z
Si Si1 0.086960 0.693592 0.242317
Si Si2 0.897391 0.583396 0.798057
Si Si3 0.750000 0.740100 0.000000
Si Si4 0.187131 0.648523 0.637275
Si Si5 0.148233 0.160524 0.213624
Si Si6 0.483196 0.330461 0.253685
Si Si7 0.792703 0.000000 0.750000
O O1 0.143879 0.667502 0.400672
O O2 0.099890 0.777339 0.238572
O O3 0.035549 0.671986 0.446819
O O4 0.071442 0.660825 0.957552
O O5 0.898347 0.500000 0.750000
O O6 0.860934 0.628454 0.577828
O O7 0.963369 0.616105 0.795322
O O8 0.867450 0.599977 0.078083
O O9 0.797953 0.789597 0.847463
O O10 0.711485 0.693855 0.793698
O O11 0.250000 0.637887 0.500000
O O12 0.170735 0.571749 0.744470
O O13 0.500000 0.250000 0.321124
O O14 0.750000 0.008241 0.500000
#
# Coordination Sequence:
#
# PCOD9335478 Si02
#       7
#     8   8   4   8   8   8   4
#     4  12  23  40  70 107 132 178 235 302 337 403
#     4  12  27  48  74 101 142 191 231 290 377 441
#     4  12  24  42  72 110 144 182 248 308 340 416
#     4  11  23  40  68 100 146 190 243 280 360 422
#     4  12  24  44  73 108 138 181 239 292 357 423
#     4  12  23  43  73 101 137 171 239 295 354 410
#     4  10  22  40  62  92 138 194 230 266 342 428
#
# _framework density 22.164275
#
# number of rings (size 3 to 8) (size 9 to 14) (size 15 to 20)
#    0.000    0.333    5.833    4.000    0.000    0.000 
#    1.500    1.667    3.667    0.000    0.000    0.000 
#    0.000    0.000    0.000    0.000    0.000    0.000 
#
# Total GULP energy -134202.952420 kJ/mol
# GULP energy per Si atom -5591.789684 kJ/mol
# Density = 2.211383 g / cm^3
# Si number density = 22.164275 Si / 1000 Ang^3
#
#
#
# Elastic Constant Matrix: (Units=GPa)
#
#
# Indices 1 2 3 4 5 6 
#
# 1 81.8977 35.5111 6.6501 0.0000 0.0000 0.0000
# 2 35.5111 128.0384 14.9671 0.0000 0.0000 0.0000
# 3 6.6501 14.9671 83.3392 0.0000 0.0000 0.0000
# 4 0.0000 0.0000 0.0000 31.0810 0.0000 0.0000
# 5 0.0000 0.0000 0.0000 0.0000 44.7129 0.0000
# 6 0.0000 0.0000 0.0000 0.0000 0.0000 24.3837
#
#
#
# Elastic Compliance Matrix: (Units=1/GPa)
#
#
# Indices 1 2 3 4 5 6 
#
# 1 0.013894 -0.003804 -0.000426 0.000000 0.000000 0.000000
# 2 -0.003804 0.009019 -0.001316 0.000000 0.000000 0.000000
# 3 -0.000426 -0.001316 0.012269 0.000000 0.000000 0.000000
# 4 0.000000 0.000000 0.000000 0.032174 0.000000 0.000000
# 5 0.000000 0.000000 0.000000 0.000000 0.022365 0.000000
# 6 0.000000 0.000000 0.000000 0.000000 0.000000 0.041011
#
#
# Mechanical properties :
#
#
# Convention : Reuss Voigt Hill
#
# Bulk Modulus (GPa) = 41.50825 45.28130 43.39477
# Shear Modulus (GPa) = 33.36573 35.77864 34.57219
#
# Velocity S-wave (km/s) = 3.88414 4.02213 3.95374
# Velocity P-wave (km/s) = 6.23567 6.48415 6.36112
#
# Compressibility (1/GPa) = 0.02409160
#
# Stress axis : x y z
#
# Youngs Moduli (GPa) = 71.97230 110.87728 81.50293
#
# Poissons Ratio (x) = 0.42175 0.03468
# Poissons Ratio (y) = 0.27377 0.10728
# Poissons Ratio (z) = 0.03063 0.14594
#
# Static dielectric constant tensor:
#      x y z
#    x 1.881080 0.000000 0.000000 
#    y 0.000000 1.836260 0.000000 
#    z 0.000000 0.000000 1.855980 
# 
# From -- ./inp_files/6426.got.cif
#   From: 2010.05.17/outbox.cif.g08.bks.cpg/sg24_4_cif.got.tgz:6426.got - 2010.06.04 00:33:39.
