data_PCOD9335370
_publ_section_title
;
Structure prediction by ZEFSAII (Michael W. Deem and Ramdas Pophale) SiO2 
 PCOD9335370
Probable space group: I 21 21 21
;
_chemical_formula_sum "Si O2"
_cell_formula_units_Z 64
_cell_length_a 10.780397
_cell_length_b 27.667221
_cell_length_c 10.146630
_cell_angle_alpha 90.000000
_cell_angle_beta 90.000000
_cell_angle_gamma 90.000000
_cell_volume 3026.370658
_symmetry_space_group_name_H-M "I 21 21 21"
_symmetry_group_IT_number 24
_symmetry_cell_setting 'orthorhombic'
loop_
_space_group_symop_operation_xyz
x,y,z
-x,1/2-y,z
x,-y,1/2-z
1/2-x,y,-z
1/2+x,1/2+y,1/2+z
1/2-x,-y,1/2+z
1/2+x,1/2-y,-z
-x,1/2+y,1/2-z
loop_
_atom_site_type_symbol
_atom_site_label
_atom_site_fract_x
_atom_site_fract_y
_atom_site_fract_z
Si Si1 0.437070 0.893955 0.753967
Si Si2 0.257399 0.809237 0.658392
Si Si3 0.121127 0.363310 0.478279
Si Si4 0.099287 0.458743 0.854691
Si Si5 0.848575 0.242539 0.387821
Si Si6 0.720660 0.540803 0.147344
Si Si7 0.043060 0.125508 0.722451
Si Si8 0.390040 0.461920 0.863010
O O1 0.361605 0.848835 0.698214
O O2 0.342181 0.936399 0.786812
O O3 0.533108 0.913332 0.648724
O O4 0.517392 0.885144 0.884271
O O5 0.250000 0.801311 0.500000
O O6 0.299022 0.763975 0.749648
O O7 0.129266 0.833833 0.710861
O O8 0.250000 0.392334 0.500000
O O9 0.161800 0.314901 0.401840
O O10 0.055360 0.353669 0.618057
O O11 0.076515 0.500000 0.750000
O O12 0.246052 0.448920 0.852022
O O13 0.025902 0.409781 0.825267
O O14 0.074786 0.482541 0.995771
O O15 0.750000 0.262569 0.500000
O O16 0.000000 0.250000 0.405710
O O17 0.678738 0.500000 0.250000
O O18 0.629089 0.586921 0.143533
O O19 0.750000 0.522926 0.000000
O O20 0.418496 0.500000 0.750000
#
# Coordination Sequence:
#
# PCOD9335370 Si02
#       8
#     8   8   8   8   8   8   8   8
#     4  11  22  39  66  91 136 175 230 278 343 415
#     4  11  25  43  70 102 136 180 219 285 367 435
#     4  11  23  40  71 102 127 175 233 293 349 420
#     4  10  22  39  60  90 135 183 235 282 333 398
#     4  11  23  45  74 105 137 174 229 291 357 435
#     4  11  24  39  61  96 133 181 226 278 335 395
#     4  11  23  41  68  97 137 178 231 285 346 415
#     4  10  22  38  59  91 133 186 231 283 335 396
#
# _framework density 21.147444
#
# number of rings (size 3 to 8) (size 9 to 14) (size 15 to 20)
#    0.000    1.250    2.500    3.000    1.750    5.000 
#    0.000    3.125    2.750    0.000    0.000    0.000 
#    0.000    0.000    0.000    0.000    0.000    0.000 
#
# Total GULP energy -178574.775856 kJ/mol
# GULP energy per Si atom -5580.461745 kJ/mol
# Density = 2.109931 g / cm^3
# Si number density = 21.147444 Si / 1000 Ang^3
#
#
#
# Elastic Constant Matrix: (Units=GPa)
#
#
# Indices 1 2 3 4 5 6 
#
# 1 116.9011 29.7699 60.1291 -0.0020 -0.0221 0.0004
# 2 29.7699 52.8636 28.7454 -0.0002 -0.0023 0.0000
# 3 60.1291 28.7454 156.6439 -0.0027 -0.0481 0.0003
# 4 -0.0020 -0.0002 -0.0027 -11.4589 -0.0121 -0.0003
# 5 -0.0221 -0.0023 -0.0481 -0.0121 80.2254 0.0035
# 6 0.0004 0.0000 0.0003 -0.0003 0.0035 35.9290
#
#
#
# Elastic Compliance Matrix: (Units=1/GPa)
#
#
# Indices 1 2 3 4 5 6 
#
# 1 0.011568 -0.004554 -0.003605 -0.000001 0.000001 0.000000
# 2 -0.004554 0.022807 -0.002437 0.000001 -0.000002 0.000000
# 3 -0.003605 -0.002437 0.008215 -0.000001 0.000004 0.000000
# 4 -0.000001 0.000001 -0.000001 -0.087269 -0.000013 -0.000001
# 5 0.000001 -0.000002 0.000004 -0.000013 0.012465 -0.000001
# 6 0.000000 0.000000 0.000000 -0.000001 -0.000001 0.027833
#
#
# Mechanical properties :
#
#
# Convention : Reuss Voigt Hill
#
# Bulk Modulus (GPa) = 46.73484 62.63302 54.68393
# Shear Modulus (GPa) = 208.82809 34.79006 121.80908
#
# Velocity S-wave (km/s) = 9.94801 4.06041 7.59769
# Velocity P-wave (km/s) = 12.41363 7.18778 10.14303
#
# Compressibility (1/GPa) = 0.02139731
#
# Stress axis : x y z
#
# Youngs Moduli (GPa) = 86.44371 43.84709 121.73105
#
# Poissons Ratio (x) = 0.19970 0.43881
# Poissons Ratio (y) = 0.39370 0.29665
# Poissons Ratio (z) = 0.31161 0.10685
#
# Static dielectric constant tensor:
#      x y z
#    x 1.899560 0.000000 0.000000 
#    y 0.000000 1.714750 0.000000 
#    z 0.000000 0.000000 1.778740 
# 
# From -- ./inp_files/11636.got.cif
#   From: 2010.05.17/outbox.cif.g08.bks.cpg/sg24_6_cif.got.tgz:11636.got - 2010.06.04 00:33:39.
