data_PCOD9335567
_publ_section_title
;
Structure prediction by ZEFSAII (Michael W. Deem and Ramdas Pophale) SiO2 
 PCOD9335567
Probable space group: I 21 21 21
;
_chemical_formula_sum "Si O2"
_cell_formula_units_Z 40
_cell_length_a 8.584078
_cell_length_b 15.189072
_cell_length_c 12.779662
_cell_angle_alpha 90.000000
_cell_angle_beta 90.000000
_cell_angle_gamma 90.000000
_cell_volume 1666.265735
_symmetry_space_group_name_H-M "I 21 21 21"
_symmetry_group_IT_number 24
_symmetry_cell_setting 'orthorhombic'
loop_
_space_group_symop_operation_xyz
x,y,z
-x,1/2-y,z
x,-y,1/2-z
1/2-x,y,-z
1/2+x,1/2+y,1/2+z
1/2-x,-y,1/2+z
1/2+x,1/2-y,-z
-x,1/2+y,1/2-z
loop_
_atom_site_type_symbol
_atom_site_label
_atom_site_fract_x
_atom_site_fract_y
_atom_site_fract_z
Si Si1 0.930006 0.615325 0.078288
Si Si2 0.372575 0.393776 0.763138
Si Si3 0.897525 0.337101 0.651294
Si Si4 0.957335 0.149436 0.855693
Si Si5 0.593476 0.413551 0.944650
O O1 0.783463 0.670412 0.121498
O O2 0.877306 0.513724 0.090919
O O3 0.077181 0.636584 0.148754
O O4 0.963490 0.623115 0.955960
O O5 0.355251 0.500000 0.750000
O O6 0.214379 0.355707 0.808142
O O7 0.512706 0.371364 0.843724
O O8 0.000000 0.250000 0.665387
O O9 0.925918 0.383019 0.763187
O O10 0.000000 0.250000 0.885106
O O11 0.971458 0.091914 0.959907
O O12 0.750000 0.377505 0.000000
#
# Coordination Sequence:
#
# PCOD9335567 Si02
#       5
#     8   8   8   8   8
#     4  10  22  43  66  99 134 178 228 273 336 401
#     4  10  24  41  68 101 135 177 227 282 336 405
#     4  10  22  41  66  98 136 178 221 275 338 402
#     4  11  26  44  65 100 139 180 226 282 344 404
#     4  11  22  42  70  99 133 178 224 280 336 403
#
# _framework density 24.005776000000001
#
# number of rings (size 3 to 8) (size 9 to 14) (size 15 to 20)
#    0.000    1.600    2.000    1.800    2.800    8.800 
#    0.000    5.000    0.000    0.000    0.000    0.000 
#    0.000    0.000    0.000    0.000    0.000    0.000 
#
# Total GULP energy -111730.608418 kJ/mol
# GULP energy per Si atom -5586.530421 kJ/mol
# Density = 2.395114 g / cm^3
# Si number density = 24.005776 Si / 1000 Ang^3
#
#
#
# Elastic Constant Matrix: (Units=GPa)
#
#
# Indices 1 2 3 4 5 6 
#
# 1 76.3184 33.0418 -0.0859 0.0000 0.0000 0.0000
# 2 33.0418 64.6513 10.5600 0.0001 0.0000 0.0000
# 3 -0.0859 10.5600 95.8801 0.0003 0.0000 0.0000
# 4 0.0000 0.0001 0.0003 63.1161 0.0000 0.0000
# 5 0.0000 0.0000 0.0000 0.0000 44.5332 0.0000
# 6 0.0000 0.0000 0.0000 0.0000 0.0000 21.9291
#
#
#
# Elastic Compliance Matrix: (Units=1/GPa)
#
#
# Indices 1 2 3 4 5 6 
#
# 1 0.016917 -0.008807 0.000985 0.000000 0.000000 0.000000
# 2 -0.008807 0.020336 -0.002248 0.000000 0.000000 0.000000
# 3 0.000985 -0.002248 0.010678 0.000000 0.000000 0.000000
# 4 0.000000 0.000000 0.000000 0.015844 0.000000 0.000000
# 5 0.000000 0.000000 0.000000 0.000000 0.022455 0.000000
# 6 0.000000 0.000000 0.000000 0.000000 0.000000 0.045601
#
#
# Mechanical properties :
#
#
# Convention : Reuss Voigt Hill
#
# Bulk Modulus (GPa) = 35.98132 35.98684 35.98408
# Shear Modulus (GPa) = 31.01087 38.80462 34.90774
#
# Velocity S-wave (km/s) = 3.59807 4.02490 3.81745
# Velocity P-wave (km/s) = 5.68178 6.05171 5.86966
#
# Compressibility (1/GPa) = 0.02779220
#
# Stress axis : x y z
#
# Youngs Moduli (GPa) = 59.11217 49.17470 93.64941
#
# Poissons Ratio (x) = 0.43307 -0.09226
# Poissons Ratio (y) = 0.52059 0.21049
# Poissons Ratio (z) = -0.05823 0.11053
#
# Static dielectric constant tensor:
#      x y z
#    x 1.908700 0.000000 0.000000 
#    y 0.000000 1.958090 0.000000 
#    z 0.000000 0.000000 1.934630 
# 
# From -- ./inp_files/24541.got.cif
#   From: 2010.05.17/outbox.cif.g08.bks.cpg/sg24_13_cif.got.tgz:24541.got - 2010.06.04 00:33:39.
