data_PCOD9335781
_publ_section_title
;
Structure prediction by ZEFSAII (Michael W. Deem and Ramdas Pophale) SiO2 
 PCOD9335781
Probable space group: I 21 21 21
;
_chemical_formula_sum "Si O2"
_cell_formula_units_Z 40
_cell_length_a 12.287962
_cell_length_b 7.514186
_cell_length_c 16.288206
_cell_angle_alpha 90.000000
_cell_angle_beta 90.000000
_cell_angle_gamma 90.000000
_cell_volume 1503.955734
_symmetry_space_group_name_H-M "I 21 21 21"
_symmetry_group_IT_number 24
_symmetry_cell_setting 'orthorhombic'
loop_
_space_group_symop_operation_xyz
x,y,z
-x,1/2-y,z
x,-y,1/2-z
1/2-x,y,-z
1/2+x,1/2+y,1/2+z
1/2-x,-y,1/2+z
1/2+x,1/2-y,-z
-x,1/2+y,1/2-z
loop_
_atom_site_type_symbol
_atom_site_label
_atom_site_fract_x
_atom_site_fract_y
_atom_site_fract_z
Si Si1 0.746698 0.943111 0.408155
Si Si2 0.152863 0.877216 0.044295
Si Si3 0.973761 0.034270 0.154041
Si Si4 0.000497 0.440163 0.613260
Si Si5 0.706988 0.597460 0.332509
O O1 0.750000 0.864473 0.500000
O O2 0.863404 0.032951 0.392244
O O3 0.748743 0.795659 0.336151
O O4 0.625798 0.017090 0.397936
O O5 0.243379 0.007584 0.086161
O O6 0.250000 0.753174 0.000000
O O7 0.070045 0.909636 0.120778
O O8 0.062664 0.912048 0.973320
O O9 0.000000 0.250000 0.137266
O O10 0.961914 0.000000 0.250000
O O11 0.000000 0.250000 0.657651
O O12 0.922945 0.579586 0.658103
O O13 0.740214 0.500000 0.250000
#
# Coordination Sequence:
#
# PCOD9335781 Si02
#       5
#     8   8   8   8   8
#     4  12  25  47  79 107 145 203 255 304 374 461
#     4  10  22  45  73 102 138 195 244 294 369 444
#     4  12  27  46  74 109 150 189 246 311 378 443
#     4  11  26  46  72 107 146 194 252 312 364 443
#     4  11  25  44  73 103 146 191 250 305 376 442
#
# _framework density 26.596526000000001
#
# number of rings (size 3 to 8) (size 9 to 14) (size 15 to 20)
#    0.000    0.800    4.000    3.000    0.000    7.200 
#    3.600    0.000    0.000    0.000    0.000    0.000 
#    0.000    0.000    0.000    0.000    0.000    0.000 
#
# Total GULP energy -111424.403369 kJ/mol
# GULP energy per Si atom -5571.220168 kJ/mol
# Density = 2.653599 g / cm^3
# Si number density = 26.596526 Si / 1000 Ang^3
#
#
#
# Elastic Constant Matrix: (Units=GPa)
#
#
# Indices 1 2 3 4 5 6 
#
# 1 274.1198 40.4383 61.8476 0.0000 0.0000 0.0000
# 2 40.4383 39.1713 16.0677 0.0000 0.0000 0.0000
# 3 61.8476 16.0677 142.6754 0.0000 0.0000 0.0000
# 4 0.0000 0.0000 0.0000 74.9560 0.0000 0.0000
# 5 0.0000 0.0000 0.0000 0.0000 16.0953 0.0000
# 6 0.0000 0.0000 0.0000 0.0000 0.0000 34.2024
#
#
#
# Elastic Compliance Matrix: (Units=1/GPa)
#
#
# Indices 1 2 3 4 5 6 
#
# 1 0.004601 -0.004123 -0.001530 0.000000 0.000000 0.000000
# 2 -0.004123 0.030459 -0.001643 0.000000 0.000000 0.000000
# 3 -0.001530 -0.001643 0.007857 0.000000 0.000000 0.000000
# 4 0.000000 0.000000 0.000000 0.013341 0.000000 0.000000
# 5 0.000000 0.000000 0.000000 0.000000 0.062130 0.000000
# 6 0.000000 0.000000 0.000000 0.000000 0.000000 0.029238
#
#
# Mechanical properties :
#
#
# Convention : Reuss Voigt Hill
#
# Bulk Modulus (GPa) = 35.30387 76.96373 56.13380
# Shear Modulus (GPa) = 29.12728 47.55828 38.34278
#
# Velocity S-wave (km/s) = 3.31290 4.23323 3.80102
# Velocity P-wave (km/s) = 5.28549 7.27282 6.35729
#
# Compressibility (1/GPa) = 0.02832551
#
# Stress axis : x y z
#
# Youngs Moduli (GPa) = 217.32050 32.83121 127.26909
#
# Poissons Ratio (x) = 0.13535 0.19477
# Poissons Ratio (y) = 0.89592 0.20912
# Poissons Ratio (z) = 0.33259 0.05395
#
# Static dielectric constant tensor:
#      x y z
#    x 2.141910 0.000000 0.000000 
#    y 0.000000 2.999740 0.000000 
#    z 0.000000 0.000000 2.551450 
# 
# From -- ./inp_files/30053.got.cif
#   From: 2010.05.17/outbox.cif.g08.bks.cpg/sg24_16_cif.got.tgz:30053.got - 2010.06.04 00:33:39.
