data_PCOD9335620
_publ_section_title
;
Structure prediction by ZEFSAII (Michael W. Deem and Ramdas Pophale) SiO2 
 PCOD9335620
Probable space group: I 21 21 21
;
_chemical_formula_sum "Si O2"
_cell_formula_units_Z 56
_cell_length_a 29.089484
_cell_length_b 5.358877
_cell_length_c 15.597039
_cell_angle_alpha 90.000000
_cell_angle_beta 90.000000
_cell_angle_gamma 90.000000
_cell_volume 2431.375100
_symmetry_space_group_name_H-M "I 21 21 21"
_symmetry_group_IT_number 24
_symmetry_cell_setting 'orthorhombic'
loop_
_space_group_symop_operation_xyz
x,y,z
-x,1/2-y,z
x,-y,1/2-z
1/2-x,y,-z
1/2+x,1/2+y,1/2+z
1/2-x,-y,1/2+z
1/2+x,1/2-y,-z
-x,1/2+y,1/2-z
loop_
_atom_site_type_symbol
_atom_site_label
_atom_site_fract_x
_atom_site_fract_y
_atom_site_fract_z
Si Si1 0.428963 0.762117 0.406565
Si Si2 0.547573 0.884914 0.836753
Si Si3 0.192936 0.575440 0.347588
Si Si4 0.246144 0.928937 0.102218
Si Si5 0.500000 0.250000 0.968074
Si Si6 0.116838 0.605350 0.037045
Si Si7 0.849027 0.353145 0.622601
Si Si8 0.407078 0.500000 0.250000
O O1 0.467623 0.897736 0.463768
O O2 0.414600 0.532066 0.466948
O O3 0.439755 0.655196 0.313572
O O4 0.383674 0.918839 0.388247
O O5 0.500000 0.750000 0.813466
O O6 0.585617 0.743290 0.894297
O O7 0.567101 0.000000 0.750000
O O8 0.530628 0.095035 0.902476
O O9 0.182721 0.500000 0.250000
O O10 0.217768 0.841439 0.357257
O O11 0.146798 0.578635 0.404698
O O12 0.223859 0.343175 0.381620
O O13 0.297177 0.924207 0.142819
O O14 0.250000 0.976647 0.000000
O O15 0.151402 0.746604 0.974425
O O16 0.873293 0.170924 0.691547
#
# Coordination Sequence:
#
# PCOD9335620 Si02
#       8
#     8   8   8   8   4   8   8   4
#     4  10  22  42  66  95 132 175 233 275 357 413
#     4  11  21  39  66 101 137 177 230 280 343 420
#     4  12  27  46  66 109 142 187 240 298 360 425
#     4  12  26  45  74  99 141 191 240 294 359 430
#     4  10  22  42  66  98 132 180 220 284 340 426
#     4  10  23  42  66  95 139 184 228 288 355 425
#     4  11  23  43  68  96 130 184 230 292 353 424
#     4  10  24  40  64 100 130 172 234 286 350 418
#
# _framework density 23.032233000000002
#
# number of rings (size 3 to 8) (size 9 to 14) (size 15 to 20)
#    0.000    1.143    2.143    3.429    5.000    1.143 
#    2.571    0.000    0.000    0.000    0.000    0.000 
#    0.000    0.000    0.000    0.000    0.000    0.000 
#
# Total GULP energy -156244.946926 kJ/mol
# GULP energy per Si atom -5580.176676 kJ/mol
# Density = 2.297981 g / cm^3
# Si number density = 23.032233 Si / 1000 Ang^3
#
#
#
# Elastic Constant Matrix: (Units=GPa)
#
#
# Indices 1 2 3 4 5 6 
#
# 1 58.2963 -3.6898 31.2180 0.0000 0.0000 0.0000
# 2 -3.6898 38.6878 13.1940 0.0000 0.0000 0.0000
# 3 31.2180 13.1940 157.1731 0.0000 0.0000 0.0000
# 4 0.0000 0.0000 0.0000 -29.1672 0.0000 0.0000
# 5 0.0000 0.0000 0.0000 0.0000 29.0420 0.0000
# 6 0.0000 0.0000 0.0000 0.0000 0.0000 33.6303
#
#
#
# Elastic Compliance Matrix: (Units=1/GPa)
#
#
# Indices 1 2 3 4 5 6 
#
# 1 0.019594 0.003290 -0.004168 0.000000 0.000000 0.000000
# 2 0.003290 0.027162 -0.002934 0.000000 0.000000 0.000000
# 3 -0.004168 -0.002934 0.007437 0.000000 0.000000 0.000000
# 4 0.000000 0.000000 0.000000 -0.034285 0.000000 0.000000
# 5 0.000000 0.000000 0.000000 0.000000 0.034433 0.000000
# 6 0.000000 0.000000 0.000000 0.000000 0.000000 0.029735
#
#
# Mechanical properties :
#
#
# Convention : Reuss Voigt Hill
#
# Bulk Modulus (GPa) = 21.47312 37.28907 29.38109
# Shear Modulus (GPa) = 46.63229 20.93001 33.78115
#
# Velocity S-wave (km/s) = 4.50450 3.01778 3.83389
# Velocity P-wave (km/s) = 6.03302 5.32614 5.69056
#
# Compressibility (1/GPa) = 0.04656985
#
# Stress axis : x y z
#
# Youngs Moduli (GPa) = 51.03612 36.81579 134.47121
#
# Poissons Ratio (x) = -0.12113 0.56047
# Poissons Ratio (y) = -0.16792 0.39449
# Poissons Ratio (z) = 0.21272 0.10800
#
# Static dielectric constant tensor:
#      x y z
#    x 1.985770 0.000000 0.000000 
#    y 0.000000 1.908780 0.000000 
#    z 0.000000 0.000000 1.877860 
# 
# From -- ./inp_files/24119.got.cif
#   From: 2010.05.17/outbox.cif.g08.bks.cpg/sg24_13_cif.got.tgz:24119.got - 2010.06.04 00:33:39.
