data_PCOD9335956
_publ_section_title
;
Structure prediction by ZEFSAII (Michael W. Deem and Ramdas Pophale) SiO2 
 PCOD9335956
Probable space group: I 21 21 21
;
_chemical_formula_sum "Si O2"
_cell_formula_units_Z 20
_cell_length_a 5.129625
_cell_length_b 4.852539
_cell_length_c 29.834030
_cell_angle_alpha 90.000000
_cell_angle_beta 90.000000
_cell_angle_gamma 90.000000
_cell_volume 742.619885
_symmetry_space_group_name_H-M "I 21 21 21"
_symmetry_group_IT_number 24
_symmetry_cell_setting 'orthorhombic'
loop_
_space_group_symop_operation_xyz
x,y,z
-x,1/2-y,z
x,-y,1/2-z
1/2-x,y,-z
1/2+x,1/2+y,1/2+z
1/2-x,-y,1/2+z
1/2+x,1/2-y,-z
-x,1/2+y,1/2-z
loop_
_atom_site_type_symbol
_atom_site_label
_atom_site_fract_x
_atom_site_fract_y
_atom_site_fract_z
Si Si1 0.250000 0.056121 0.500000
Si Si2 0.253742 0.048139 0.401782
Si Si3 0.796292 0.500000 0.750000
Si Si4 0.000000 0.250000 0.171260
O O1 0.500000 0.250000 0.500318
O O2 0.252680 0.915425 0.451623
O O3 0.500000 0.250000 0.396579
O O4 0.000000 0.250000 0.396746
O O5 0.225722 0.807860 0.365365
O O6 0.605266 0.470695 0.792422
O O7 0.000000 0.750000 0.753064
#
# Coordination Sequence:
#
# PCOD9335956 Si02
#       4
#     4   8   4   4
#     4   8  16  38  66 104 152 204 252 320 394 476
#     4  10  23  43  74 110 156 206 263 327 401 485
#     4  12  30  52  80 114 166 216 278 350 416 484
#     4  12  28  46  76 114 152 216 272 338 412 484
#
# _framework density 26.931677000000001
#
# number of rings (size 3 to 8) (size 9 to 14) (size 15 to 20)
#    0.000    1.600    0.000    2.400   14.000    0.000 
#    0.000   12.000    0.000    0.000    0.000    0.000 
#    0.000    0.000    0.000    0.000    0.000    0.000 
#
# Total GULP energy -55778.669713 kJ/mol
# GULP energy per Si atom -5577.866971 kJ/mol
# Density = 2.687038 g / cm^3
# Si number density = 26.931677 Si / 1000 Ang^3
#
#
#
# Elastic Constant Matrix: (Units=GPa)
#
#
# Indices 1 2 3 4 5 6 
#
# 1 237.4773 84.5357 45.4226 0.0000 0.0000 0.0000
# 2 84.5357 142.6189 52.1297 0.0000 0.0000 0.0000
# 3 45.4226 52.1297 292.5507 0.0000 0.0000 0.0000
# 4 0.0000 0.0000 0.0000 -90.3395 0.0000 0.0000
# 5 0.0000 0.0000 0.0000 0.0000 40.4220 0.0000
# 6 0.0000 0.0000 0.0000 0.0000 0.0000 71.5899
#
#
#
# Elastic Compliance Matrix: (Units=1/GPa)
#
#
# Indices 1 2 3 4 5 6 
#
# 1 0.005359 -0.003073 -0.000285 0.000000 0.000000 0.000000
# 2 -0.003073 0.009262 -0.001173 0.000000 0.000000 0.000000
# 3 -0.000285 -0.001173 0.003671 0.000000 0.000000 0.000000
# 4 0.000000 0.000000 0.000000 -0.011069 0.000000 0.000000
# 5 0.000000 0.000000 0.000000 0.000000 0.024739 0.000000
# 6 0.000000 0.000000 0.000000 0.000000 0.000000 0.013968
#
#
# Mechanical properties :
#
#
# Convention : Reuss Voigt Hill
#
# Bulk Modulus (GPa) = 108.32467 115.20256 111.76361
# Shear Modulus (GPa) = 86.10538 37.03842 61.57190
#
# Velocity S-wave (km/s) = 5.66049 3.71249 4.78664
# Velocity P-wave (km/s) = 9.11213 7.82595 8.49342
#
# Compressibility (1/GPa) = 0.00923151
#
# Stress axis : x y z
#
# Youngs Moduli (GPa) = 186.59851 107.97084 272.37070
#
# Poissons Ratio (x) = 0.33174 0.07751
# Poissons Ratio (y) = 0.57333 0.31957
# Poissons Ratio (z) = 0.05310 0.12668
#
# Static dielectric constant tensor:
#      x y z
#    x 2.084660 0.000000 0.000000 
#    y 0.000000 2.173840 0.000000 
#    z 0.000000 0.000000 2.106840 
# 
# From -- ./inp_files/339.got.cif
#   From: 2010.05.17/outbox.cif.g08.bks.cpg/sg24_1_cif.got.tgz:339.got - 2010.06.04 00:33:39.
