data_PCOD9335566
_publ_section_title
;
Structure prediction by ZEFSAII (Michael W. Deem and Ramdas Pophale) SiO2 
 PCOD9335566
Probable space group: I 21 21 21
;
_chemical_formula_sum "Si O2"
_cell_formula_units_Z 24
_cell_length_a 4.661683
_cell_length_b 17.052714
_cell_length_c 12.424922
_cell_angle_alpha 90.000000
_cell_angle_beta 90.000000
_cell_angle_gamma 90.000000
_cell_volume 987.711060
_symmetry_space_group_name_H-M "I 21 21 21"
_symmetry_group_IT_number 24
_symmetry_cell_setting 'orthorhombic'
loop_
_space_group_symop_operation_xyz
x,y,z
-x,1/2-y,z
x,-y,1/2-z
1/2-x,y,-z
1/2+x,1/2+y,1/2+z
1/2-x,-y,1/2+z
1/2+x,1/2-y,-z
-x,1/2+y,1/2-z
loop_
_atom_site_type_symbol
_atom_site_label
_atom_site_fract_x
_atom_site_fract_y
_atom_site_fract_z
Si Si1 0.355015 0.412432 0.764507
Si Si2 0.871297 0.662498 0.619086
Si Si3 0.493875 0.667399 0.081856
O O1 0.467390 0.500000 0.750000
O O2 0.621341 0.355393 0.792628
O O3 0.159040 0.393774 0.660278
O O4 0.128163 0.398109 0.859320
O O5 0.750000 0.651006 0.500000
O O6 0.000000 0.750000 0.622803
O O7 0.500000 0.750000 0.146895
O O8 0.250000 0.692171 0.000000
O O9 0.750000 0.641693 0.000000
#
# Coordination Sequence:
#
# PCOD9335566 Si02
#       3
#     8   8   8
#     4  12  26  44  70 106 148 191 238 302 376 439
#     4  12  26  47  74 105 142 195 255 305 360 433
#     4  10  22  41  66  97 133 180 237 291 348 422
#
# _framework density 24.298604000000001
#
# number of rings (size 3 to 8) (size 9 to 14) (size 15 to 20)
#    0.000    0.667    0.000    8.000    0.000    9.333 
#    0.000    0.000    0.000    0.000    0.000    0.000 
#    0.000    0.000    0.000    0.000    0.000    0.000 
#
# Total GULP energy -66958.908504 kJ/mol
# GULP energy per Si atom -5579.909042 kJ/mol
# Density = 2.424330 g / cm^3
# Si number density = 24.298604 Si / 1000 Ang^3
#
#
#
# Elastic Constant Matrix: (Units=GPa)
#
#
# Indices 1 2 3 4 5 6 
#
# 1 141.8857 34.3447 15.0385 0.0001 0.0000 0.0000
# 2 34.3447 117.0164 31.5317 0.0003 0.0000 0.0000
# 3 15.0385 31.5317 67.3308 0.0006 0.0003 0.0000
# 4 0.0001 0.0003 0.0006 126.1197 0.0006 0.0001
# 5 0.0000 0.0000 0.0003 0.0006 -3.9528 0.0000
# 6 0.0000 0.0000 0.0000 0.0001 0.0000 39.3933
#
#
#
# Elastic Compliance Matrix: (Units=1/GPa)
#
#
# Indices 1 2 3 4 5 6 
#
# 1 0.007620 -0.002035 -0.000749 0.000000 0.000000 0.000000
# 2 -0.002035 0.010323 -0.004380 0.000000 0.000000 0.000000
# 3 -0.000749 -0.004380 0.017071 0.000000 0.000001 0.000000
# 4 0.000000 0.000000 0.000000 0.007929 0.000001 0.000000
# 5 0.000000 0.000000 0.000001 0.000001 -0.252988 0.000000
# 6 0.000000 0.000000 0.000000 0.000000 0.000000 0.025385
#
#
# Mechanical properties :
#
#
# Convention : Reuss Voigt Hill
#
# Bulk Modulus (GPa) = 48.34144 54.22917 51.28531
# Shear Modulus (GPa) = -30.59267 48.66658 9.03695
#
# Velocity S-wave (km/s) = -3.55213 4.48018 1.93060
# Velocity P-wave (km/s) = 1.76477 7.00921 5.11094
#
# Compressibility (1/GPa) = 0.02068619
#
# Stress axis : x y z
#
# Youngs Moduli (GPa) = 131.23678 96.86887 58.58036
#
# Poissons Ratio (x) = 0.19709 0.04388
# Poissons Ratio (y) = 0.26701 0.25658
# Poissons Ratio (z) = 0.09831 0.42429
#
# Static dielectric constant tensor:
#      x y z
#    x 1.836450 0.000000 0.000000 
#    y 0.000000 2.023590 0.000000 
#    z 0.000000 0.000000 1.972100 
# 
# From -- ./inp_files/17244.got.cif
#   From: 2010.05.17/outbox.cif.g08.bks.cpg/sg24_9_cif.got.tgz:17244.got - 2010.06.04 00:33:39.
