data_PCOD9335840
_publ_section_title
;
Structure prediction by ZEFSAII (Michael W. Deem and Ramdas Pophale) SiO2 
 PCOD9335840
Probable space group: I 21 21 21
;
_chemical_formula_sum "Si O2"
_cell_formula_units_Z 48
_cell_length_a 8.909444
_cell_length_b 13.211679
_cell_length_c 18.285359
_cell_angle_alpha 90.000000
_cell_angle_beta 90.000000
_cell_angle_gamma 90.000000
_cell_volume 2152.346097
_symmetry_space_group_name_H-M "I 21 21 21"
_symmetry_group_IT_number 24
_symmetry_cell_setting 'orthorhombic'
loop_
_space_group_symop_operation_xyz
x,y,z
-x,1/2-y,z
x,-y,1/2-z
1/2-x,y,-z
1/2+x,1/2+y,1/2+z
1/2-x,-y,1/2+z
1/2+x,1/2-y,-z
-x,1/2+y,1/2-z
loop_
_atom_site_type_symbol
_atom_site_label
_atom_site_fract_x
_atom_site_fract_y
_atom_site_fract_z
Si Si1 0.799246 0.207924 0.266414
Si Si2 0.222006 0.599524 0.381314
Si Si3 0.479915 0.363316 0.009447
Si Si4 0.925099 0.586546 0.192404
Si Si5 0.441439 0.566519 0.183583
Si Si6 0.806921 0.468828 0.573232
O O1 0.833207 0.170564 0.184118
O O2 0.815823 0.327093 0.274832
O O3 0.635898 0.166494 0.286062
O O4 0.922256 0.151209 0.317839
O O5 0.357030 0.650128 0.426724
O O6 0.303746 0.503286 0.345414
O O7 0.096989 0.576372 0.442326
O O8 0.500000 0.250000 0.980421
O O9 0.618226 0.425240 0.044548
O O10 0.962004 0.500000 0.250000
O O11 0.835062 0.533352 0.127016
O O12 0.510747 0.500000 0.250000
O O13 0.558184 0.580896 0.118727
O O14 0.750000 0.414738 0.500000
#
# Coordination Sequence:
#
# PCOD9335840 Si02
#       6
#     8   8   8   8   8   8
#     4  10  23  42  71  93 131 181 236 277 341 405
#     4   9  20  40  65  97 127 184 222 273 340 431
#     4  10  23  37  62  99 145 175 219 272 367 420
#     4  11  25  42  66 103 134 173 232 292 339 398
#     4   9  19  44  67  94 131 180 225 270 338 415
#     4  11  26  41  63  97 138 178 224 286 344 399
#
# _framework density 22.301245999999999
#
# number of rings (size 3 to 8) (size 9 to 14) (size 15 to 20)
#    0.000    2.000    0.000    2.000   11.667    0.667 
#    0.000    3.333    0.000    0.000    0.000    0.000 
#    0.000    0.000    0.000    0.000    0.000    0.000 
#
# Total GULP energy -133931.756901 kJ/mol
# GULP energy per Si atom -5580.489871 kJ/mol
# Density = 2.225049 g / cm^3
# Si number density = 22.301246 Si / 1000 Ang^3
#
#
#
# Elastic Constant Matrix: (Units=GPa)
#
#
# Indices 1 2 3 4 5 6 
#
# 1 82.7522 39.2351 44.5471 0.0000 0.0000 0.0000
# 2 39.2351 61.4867 15.9547 0.0000 0.0000 0.0000
# 3 44.5471 15.9547 101.9587 0.0000 0.0000 0.0000
# 4 0.0000 0.0000 0.0000 16.1492 0.0000 0.0000
# 5 0.0000 0.0000 0.0000 0.0000 25.6057 0.0000
# 6 0.0000 0.0000 0.0000 0.0000 0.0000 18.0678
#
#
#
# Elastic Compliance Matrix: (Units=1/GPa)
#
#
# Indices 1 2 3 4 5 6 
#
# 1 0.021910 -0.011983 -0.007697 0.000000 0.000000 0.000000
# 2 -0.011983 0.023506 0.001557 0.000000 0.000000 0.000000
# 3 -0.007697 0.001557 0.012927 0.000000 0.000000 0.000000
# 4 0.000000 0.000000 0.000000 0.061923 0.000000 0.000000
# 5 0.000000 0.000000 0.000000 0.000000 0.039054 0.000000
# 6 0.000000 0.000000 0.000000 0.000000 0.000000 0.055347
#
#
# Mechanical properties :
#
#
# Convention : Reuss Voigt Hill
#
# Bulk Modulus (GPa) = 45.25633 49.51905 47.38769
# Shear Modulus (GPa) = 19.35896 21.72860 20.54378
#
# Velocity S-wave (km/s) = 2.94949 3.12480 3.03841
# Velocity P-wave (km/s) = 5.65125 5.93902 5.79692
#
# Compressibility (1/GPa) = 0.02209636
#
# Stress axis : x y z
#
# Youngs Moduli (GPa) = 45.64229 42.54206 77.35574
#
# Poissons Ratio (x) = 0.50979 0.59544
# Poissons Ratio (y) = 0.54694 -0.12047
# Poissons Ratio (z) = 0.35133 -0.06625
#
# Static dielectric constant tensor:
#      x y z
#    x 1.891840 0.000000 0.000000 
#    y 0.000000 1.846570 0.000000 
#    z 0.000000 0.000000 1.812040 
# 
# From -- ./inp_files/29473.got.cif
#   From: 2010.05.17/outbox.cif.g08.bks.cpg/sg24_15_cif.got.tgz:29473.got - 2010.06.04 00:33:39.
