data_PCOD9335789
_publ_section_title
;
Structure prediction by ZEFSAII (Michael W. Deem and Ramdas Pophale) SiO2 
 PCOD9335789
Probable space group: I 21 21 21
;
_chemical_formula_sum "Si O2"
_cell_formula_units_Z 24
_cell_length_a 7.517995
_cell_length_b 16.356858
_cell_length_c 7.351048
_cell_angle_alpha 90.000000
_cell_angle_beta 90.000000
_cell_angle_gamma 90.000000
_cell_volume 903.964082
_symmetry_space_group_name_H-M "I 21 21 21"
_symmetry_group_IT_number 24
_symmetry_cell_setting 'orthorhombic'
loop_
_space_group_symop_operation_xyz
x,y,z
-x,1/2-y,z
x,-y,1/2-z
1/2-x,y,-z
1/2+x,1/2+y,1/2+z
1/2-x,-y,1/2+z
1/2+x,1/2-y,-z
-x,1/2+y,1/2-z
loop_
_atom_site_type_symbol
_atom_site_label
_atom_site_fract_x
_atom_site_fract_y
_atom_site_fract_z
Si Si1 0.519491 0.157220 0.128158
Si Si2 0.573199 0.556365 0.088116
Si Si3 0.076121 0.656785 0.238493
O O1 0.500000 0.250000 0.075069
O O2 0.376394 0.132222 0.278322
O O3 0.712512 0.155857 0.222580
O O4 0.507545 0.117002 0.929851
O O5 0.490509 0.500000 0.250000
O O6 0.750000 0.521158 0.000000
O O7 0.462667 0.595924 0.926877
O O8 0.000000 0.750000 0.202435
#
# Coordination Sequence:
#
# PCOD9335789 Si02
#       3
#     8   8   8
#     4  10  22  45  77 108 139 177 227 293 351 415
#     4  12  28  44  66  98 143 192 236 281 346 412
#     4  10  22  45  77 109 138 176 231 290 352 416
#
# _framework density 26.549724999999999
#
# number of rings (size 3 to 8) (size 9 to 14) (size 15 to 20)
#    0.000    1.333    0.000    4.000    4.667    2.667 
#   12.000    1.667    0.000    0.000    0.000    0.000 
#    0.000    0.000    0.000    0.000    0.000    0.000 
#
# Total GULP energy -66991.088209 kJ/mol
# GULP energy per Si atom -5582.590684 kJ/mol
# Density = 2.648930 g / cm^3
# Si number density = 26.549725 Si / 1000 Ang^3
#
#
#
# Elastic Constant Matrix: (Units=GPa)
#
#
# Indices 1 2 3 4 5 6 
#
# 1 117.4126 55.3219 76.7979 0.0000 -0.0001 0.0000
# 2 55.3219 84.2199 68.2304 0.0003 0.0001 0.0000
# 3 76.7979 68.2304 253.2035 0.0001 -0.0001 0.0001
# 4 0.0000 0.0003 0.0001 48.9152 0.0000 -0.0001
# 5 -0.0001 0.0001 -0.0001 0.0000 23.3411 0.0000
# 6 0.0000 0.0000 0.0001 -0.0001 0.0000 41.5162
#
#
#
# Elastic Compliance Matrix: (Units=1/GPa)
#
#
# Indices 1 2 3 4 5 6 
#
# 1 0.013174 -0.006929 -0.002129 0.000000 0.000000 0.000000
# 2 -0.006929 0.018834 -0.002974 0.000000 0.000000 0.000000
# 3 -0.002129 -0.002974 0.005396 0.000000 0.000000 0.000000
# 4 0.000000 0.000000 0.000000 0.020444 0.000000 0.000000
# 5 0.000000 0.000000 0.000000 0.000000 0.042843 0.000000
# 6 0.000000 0.000000 0.000000 0.000000 0.000000 0.024087
#
#
# Mechanical properties :
#
#
# Convention : Reuss Voigt Hill
#
# Bulk Modulus (GPa) = 74.95170 95.05958 85.00564
# Shear Modulus (GPa) = 32.61824 39.72023 36.16923
#
# Velocity S-wave (km/s) = 3.50890 3.87210 3.69497
# Velocity P-wave (km/s) = 6.68644 7.47482 7.09160
#
# Compressibility (1/GPa) = 0.01334193
#
# Stress axis : x y z
#
# Youngs Moduli (GPa) = 75.90624 53.09430 185.31291
#
# Poissons Ratio (x) = 0.36791 0.39445
# Poissons Ratio (y) = 0.52598 0.55104
# Poissons Ratio (z) = 0.16157 0.15788
#
# Static dielectric constant tensor:
#      x y z
#    x 2.076470 0.000000 0.000000 
#    y 0.000000 2.493600 0.000000 
#    z 0.000000 0.000000 2.097450 
# 
# From -- ./inp_files/8693.got.cif
#   From: 2010.05.17/outbox.cif.g08.bks.cpg/sg24_5_cif.got.tgz:8693.got - 2010.06.04 00:33:39.
