data_PCOD9335578
_publ_section_title
;
Structure prediction by ZEFSAII (Michael W. Deem and Ramdas Pophale) SiO2 
 PCOD9335578
Probable space group: I 21 21 21
;
_chemical_formula_sum "Si O2"
_cell_formula_units_Z 56
_cell_length_a 20.349177
_cell_length_b 11.790335
_cell_length_c 9.724338
_cell_angle_alpha 90.000000
_cell_angle_beta 90.000000
_cell_angle_gamma 90.000000
_cell_volume 2333.098315
_symmetry_space_group_name_H-M "I 21 21 21"
_symmetry_group_IT_number 24
_symmetry_cell_setting 'orthorhombic'
loop_
_space_group_symop_operation_xyz
x,y,z
-x,1/2-y,z
x,-y,1/2-z
1/2-x,y,-z
1/2+x,1/2+y,1/2+z
1/2-x,-y,1/2+z
1/2+x,1/2-y,-z
-x,1/2+y,1/2-z
loop_
_atom_site_type_symbol
_atom_site_label
_atom_site_fract_x
_atom_site_fract_y
_atom_site_fract_z
Si Si1 0.458154 0.867269 0.368225
Si Si2 0.811823 0.046596 0.902850
Si Si3 0.364369 0.863632 0.780327
Si Si4 0.724322 0.598964 0.141160
Si Si5 0.085099 0.191288 0.572248
Si Si6 0.556565 0.046128 0.407352
Si Si7 0.329224 0.794768 0.490596
O O1 0.500000 0.750000 0.389156
O O2 0.450482 0.874928 0.200509
O O3 0.498747 0.961621 0.453098
O O4 0.382295 0.874075 0.414594
O O5 0.873861 0.986721 0.972537
O O6 0.798829 0.000000 0.750000
O O7 0.750000 0.033030 0.000000
O O8 0.831421 0.178756 0.904596
O O9 0.289110 0.832503 0.819170
O O10 0.366584 0.793537 0.638468
O O11 0.365306 0.000000 0.750000
O O12 0.412062 0.842777 0.910311
O O13 0.713738 0.500000 0.250000
O O14 0.661253 0.675030 0.115164
O O15 0.750000 0.544252 0.000000
O O16 0.941185 0.180892 0.577835
O O17 0.565257 0.000000 0.250000
O O18 0.250000 0.815984 0.500000
#
# Coordination Sequence:
#
# PCOD9335578 Si02
#       7
#     8   8   8   8   8   8   8
#     4  12  23  45  76 104 149 204 266 329 393 487
#     4  10  22  41  69 108 155 203 259 321 386 478
#     4  10  24  45  69 110 158 196 258 320 399 484
#     4   9  20  40  69 109 149 195 251 320 398 471
#     4  11  24  43  71 107 149 203 258 329 395 473
#     4  11  23  42  68 105 149 193 264 324 391 486
#     4  11  24  45  77 112 152 203 259 322 401 479
#
# _framework density 24.002417999999999
#
# number of rings (size 3 to 8) (size 9 to 14) (size 15 to 20)
#    0.000    1.429    2.857    1.714    0.000   16.000 
#    0.000    1.429    0.000    0.000    0.000    0.000 
#    0.000    0.000    0.000    0.000    0.000    0.429 
#
# Total GULP energy -156038.290238 kJ/mol
# GULP energy per Si atom -5572.796080 kJ/mol
# Density = 2.394779 g / cm^3
# Si number density = 24.002418 Si / 1000 Ang^3
#
#
#
# Elastic Constant Matrix: (Units=GPa)
#
#
# Indices 1 2 3 4 5 6 
#
# 1 138.0213 52.5494 28.9152 0.0000 0.0000 0.0000
# 2 52.5494 103.6572 38.3348 0.0000 0.0000 0.0000
# 3 28.9152 38.3348 149.7419 0.0000 0.0000 0.0000
# 4 0.0000 0.0000 0.0000 33.5127 0.0000 0.0000
# 5 0.0000 0.0000 0.0000 0.0000 30.1809 0.0000
# 6 0.0000 0.0000 0.0000 0.0000 0.0000 30.3272
#
#
#
# Elastic Compliance Matrix: (Units=1/GPa)
#
#
# Indices 1 2 3 4 5 6 
#
# 1 0.009032 -0.004345 -0.000632 0.000000 0.000000 0.000000
# 2 -0.004345 0.012746 -0.002424 0.000000 0.000000 0.000000
# 3 -0.000632 -0.002424 0.007421 0.000000 0.000000 0.000000
# 4 0.000000 0.000000 0.000000 0.029839 0.000000 0.000000
# 5 0.000000 0.000000 0.000000 0.000000 0.033134 0.000000
# 6 0.000000 0.000000 0.000000 0.000000 0.000000 0.032974
#
#
# Mechanical properties :
#
#
# Convention : Reuss Voigt Hill
#
# Bulk Modulus (GPa) = 69.45791 70.11324 69.78558
# Shear Modulus (GPa) = 34.54308 36.91224 35.72766
#
# Velocity S-wave (km/s) = 3.79773 3.92580 3.86230
# Velocity P-wave (km/s) = 6.94486 7.05858 7.00195
#
# Compressibility (1/GPa) = 0.01439721
#
# Stress axis : x y z
#
# Youngs Moduli (GPa) = 110.71807 78.45304 134.75778
#
# Poissons Ratio (x) = 0.34089 0.08512
# Poissons Ratio (y) = 0.48109 0.32667
# Poissons Ratio (z) = 0.06994 0.19018
#
# Static dielectric constant tensor:
#      x y z
#    x 2.087260 0.000000 0.000000 
#    y 0.000000 1.969390 0.000000 
#    z 0.000000 0.000000 2.133690 
# 
# From -- ./inp_files/15233.got.cif
#   From: 2010.05.17/outbox.cif.g08.bks.cpg/sg24_8_cif.got.tgz:15233.got - 2010.06.04 00:33:39.
