data_PCOD9335197
_publ_section_title
;
Structure prediction by ZEFSAII (Michael W. Deem and Ramdas Pophale) SiO2 
 PCOD9335197
Probable space group: I 21 21 21
;
_chemical_formula_sum "Si O2"
_cell_formula_units_Z 56
_cell_length_a 15.520853
_cell_length_b 10.906793
_cell_length_c 15.193967
_cell_angle_alpha 90.000000
_cell_angle_beta 90.000000
_cell_angle_gamma 90.000000
_cell_volume 2572.076226
_symmetry_space_group_name_H-M "I 21 21 21"
_symmetry_group_IT_number 24
_symmetry_cell_setting 'orthorhombic'
loop_
_space_group_symop_operation_xyz
x,y,z
-x,1/2-y,z
x,-y,1/2-z
1/2-x,y,-z
1/2+x,1/2+y,1/2+z
1/2-x,-y,1/2+z
1/2+x,1/2-y,-z
-x,1/2+y,1/2-z
loop_
_atom_site_type_symbol
_atom_site_label
_atom_site_fract_x
_atom_site_fract_y
_atom_site_fract_z
Si Si1 0.046571 0.130966 0.563599
Si Si2 0.397363 0.766516 0.662742
Si Si3 0.117386 0.448979 0.653432
Si Si4 0.104832 0.047530 0.382880
Si Si5 0.347662 0.445690 0.972290
Si Si6 0.082123 0.393137 0.319224
Si Si7 0.269183 0.225965 0.399232
O O1 0.068510 0.039657 0.483313
O O2 0.140175 0.154183 0.603580
O O3 0.000000 0.250000 0.518024
O O4 0.977254 0.108354 0.639560
O O5 0.500000 0.750000 0.655383
O O6 0.376617 0.909860 0.650691
O O7 0.362215 0.675967 0.586471
O O8 0.376431 0.714249 0.760080
O O9 0.125534 0.500000 0.750000
O O10 0.111952 0.541602 0.569620
O O11 0.197453 0.353774 0.643562
O O12 0.190194 0.131909 0.380116
O O13 0.021125 0.106340 0.334509
O O14 0.377430 0.560871 0.911072
O O15 0.250000 0.451086 0.000000
O O16 0.096256 0.500000 0.250000
O O17 0.250000 0.259535 0.500000
#
# Coordination Sequence:
#
# PCOD9335197 Si02
#       7
#     8   8   8   8   8   8   8
#     4   9  19  40  70  98 139 199 248 292 357 451
#     4  11  22  43  73 110 146 187 240 302 387 451
#     4  11  22  43  68 100 143 196 261 302 360 434
#     4  11  20  43  73 109 148 184 235 304 386 448
#     4  11  24  44  68 101 145 196 246 300 357 440
#     4  10  21  42  67 104 143 189 227 289 374 464
#     4   9  21  41  71 107 140 190 248 305 367 440
#
# _framework density 21.772292
#
# number of rings (size 3 to 8) (size 9 to 14) (size 15 to 20)
#    0.000    1.714    4.286    0.429    0.000    4.000 
#    7.714    7.143    0.000    3.429    0.000    0.000 
#    0.000    0.000    0.000    0.000    0.000    0.000 
#
# Total GULP energy -155923.299900 kJ/mol
# GULP energy per Si atom -5568.689282 kJ/mol
# Density = 2.172274 g / cm^3
# Si number density = 21.772292 Si / 1000 Ang^3
#
#
#
# Elastic Constant Matrix: (Units=GPa)
#
#
# Indices 1 2 3 4 5 6 
#
# 1 158.9889 66.0761 57.6243 0.0000 0.0000 0.0000
# 2 66.0761 130.3883 99.4008 0.0000 0.0000 0.0000
# 3 57.6243 99.4008 158.9354 0.0000 0.0000 0.0000
# 4 0.0000 0.0000 0.0000 20.5796 0.0000 0.0000
# 5 0.0000 0.0000 0.0000 0.0000 7.4755 0.0000
# 6 0.0000 0.0000 0.0000 0.0000 0.0000 26.0893
#
#
#
# Elastic Compliance Matrix: (Units=1/GPa)
#
#
# Indices 1 2 3 4 5 6 
#
# 1 0.008008 -0.003526 -0.000698 0.000000 0.000000 0.000000
# 2 -0.003526 0.016211 -0.008860 0.000000 0.000000 0.000000
# 3 -0.000698 -0.008860 0.012086 0.000000 0.000000 0.000000
# 4 0.000000 0.000000 0.000000 0.048592 0.000000 0.000000
# 5 0.000000 0.000000 0.000000 0.000000 0.133770 0.000000
# 6 0.000000 0.000000 0.000000 0.000000 0.000000 0.038330
#
#
# Mechanical properties :
#
#
# Convention : Reuss Voigt Hill
#
# Bulk Modulus (GPa) = 98.65271 99.39056 99.02163
# Shear Modulus (GPa) = 17.44930 25.84297 21.64613
#
# Velocity S-wave (km/s) = 2.83405 3.44897 3.15652
# Velocity P-wave (km/s) = 7.49124 7.84918 7.67230
#
# Compressibility (1/GPa) = 0.01013657
#
# Stress axis : x y z
#
# Youngs Moduli (GPa) = 124.87158 61.68818 82.73873
#
# Poissons Ratio (x) = 0.21751 0.05778
# Poissons Ratio (y) = 0.44029 0.73306
# Poissons Ratio (z) = 0.08720 0.54656
#
# Static dielectric constant tensor:
#      x y z
#    x 1.947400 0.000000 0.000000 
#    y 0.000000 1.919700 0.000000 
#    z 0.000000 0.000000 1.848950 
# 
# From -- ./inp_files/26646.got.cif
#   From: 2010.05.17/outbox.cif.g08.bks.cpg/sg24_14_cif.got.tgz:26646.got - 2010.06.04 00:33:39.
