data_PCOD9335623
_publ_section_title
;
Structure prediction by ZEFSAII (Michael W. Deem and Ramdas Pophale) SiO2 
 PCOD9335623
Probable space group: I 21 21 21
;
_chemical_formula_sum "Si O2"
_cell_formula_units_Z 40
_cell_length_a 10.221497
_cell_length_b 9.591090
_cell_length_c 20.010857
_cell_angle_alpha 90.000000
_cell_angle_beta 90.000000
_cell_angle_gamma 90.000000
_cell_volume 1961.770322
_symmetry_space_group_name_H-M "I 21 21 21"
_symmetry_group_IT_number 24
_symmetry_cell_setting 'orthorhombic'
loop_
_space_group_symop_operation_xyz
x,y,z
-x,1/2-y,z
x,-y,1/2-z
1/2-x,y,-z
1/2+x,1/2+y,1/2+z
1/2-x,-y,1/2+z
1/2+x,1/2-y,-z
-x,1/2+y,1/2-z
loop_
_atom_site_type_symbol
_atom_site_label
_atom_site_fract_x
_atom_site_fract_y
_atom_site_fract_z
Si Si1 0.639128 0.863685 0.296798
Si Si2 0.615843 0.847846 0.607637
Si Si3 0.543736 0.513563 0.405829
Si Si4 0.250000 0.838566 0.500000
Si Si5 0.103897 0.378641 0.475750
Si Si6 0.000000 0.750000 0.817021
O O1 0.766731 0.843282 0.340075
O O2 0.615703 0.754542 0.238056
O O3 0.644943 0.000000 0.250000
O O4 0.522905 0.888647 0.350451
O O5 0.500000 0.750000 0.635323
O O6 0.655601 0.762051 0.541266
O O7 0.598493 0.011089 0.586283
O O8 0.669659 0.571826 0.445016
O O9 0.441964 0.477031 0.463720
O O10 0.551514 0.369398 0.365905
O O11 0.250000 0.331065 0.500000
O O12 0.000000 0.250000 0.468447
#
# Coordination Sequence:
#
# PCOD9335623 Si02
#       6
#     8   8   8   4   8   4
#     4  10  22  43  66  91 136 193 233 279 334 416
#     4  12  24  43  68 101 135 181 232 286 356 420
#     4  11  22  40  68 104 138 175 235 287 356 411
#     4  12  24  38  70 110 138 172 232 298 360 426
#     4  12  25  42  67 103 141 174 220 297 365 417
#     4  10  22  42  66  96 140 192 236 282 334 420
#
# _framework density 20.389747
#
# number of rings (size 3 to 8) (size 9 to 14) (size 15 to 20)
#    0.000    0.800    6.000    1.200    1.400    0.000 
#    0.000    3.000    0.000    0.000    0.000    0.000 
#    0.000    0.000    0.000    0.000    0.000    0.000 
#
# Total GULP energy -111345.625629 kJ/mol
# GULP energy per Si atom -5567.281281 kJ/mol
# Density = 2.034334 g / cm^3
# Si number density = 20.389747 Si / 1000 Ang^3
#
#
#
# Elastic Constant Matrix: (Units=GPa)
#
#
# Indices 1 2 3 4 5 6 
#
# 1 111.6018 68.5817 52.6354 0.0000 0.0000 0.0000
# 2 68.5817 121.2441 59.1859 0.0000 0.0000 0.0000
# 3 52.6354 59.1859 128.9766 0.0000 0.0000 0.0000
# 4 0.0000 0.0000 0.0000 125.0836 0.0000 0.0000
# 5 0.0000 0.0000 0.0000 0.0000 35.8642 0.0000
# 6 0.0000 0.0000 0.0000 0.0000 0.0000 34.6320
#
#
#
# Elastic Compliance Matrix: (Units=1/GPa)
#
#
# Indices 1 2 3 4 5 6 
#
# 1 0.014463 -0.006830 -0.002768 0.000000 0.000000 0.000000
# 2 -0.006830 0.013854 -0.003570 0.000000 0.000000 0.000000
# 3 -0.002768 -0.003570 0.010521 0.000000 0.000000 0.000000
# 4 0.000000 0.000000 0.000000 0.007995 0.000000 0.000000
# 5 0.000000 0.000000 0.000000 0.000000 0.027883 0.000000
# 6 0.000000 0.000000 0.000000 0.000000 0.000000 0.028875
#
#
# Mechanical properties :
#
#
# Convention : Reuss Voigt Hill
#
# Bulk Modulus (GPa) = 79.98742 80.29208 80.13975
# Shear Modulus (GPa) = 37.28712 51.21058 44.24885
#
# Velocity S-wave (km/s) = 4.28099 5.01701 4.66354
# Velocity P-wave (km/s) = 7.98438 8.54545 8.26967
#
# Compressibility (1/GPa) = 0.01250197
#
# Stress axis : x y z
#
# Youngs Moduli (GPa) = 69.14173 72.18226 95.04430
#
# Poissons Ratio (x) = 0.49298 0.26311
# Poissons Ratio (y) = 0.47221 0.33932
# Poissons Ratio (z) = 0.19141 0.25770
#
# Static dielectric constant tensor:
#      x y z
#    x 1.827840 0.000000 0.000000 
#    y 0.000000 1.811620 0.000000 
#    z 0.000000 0.000000 1.650440 
# 
# From -- ./inp_files/30081.got.cif
#   From: 2010.05.17/outbox.cif.g08.bks.cpg/sg24_16_cif.got.tgz:30081.got - 2010.06.04 00:33:39.
