data_PCOD9335355
_publ_section_title
;
Structure prediction by ZEFSAII (Michael W. Deem and Ramdas Pophale) SiO2 
 PCOD9335355
Probable space group: I 21 21 21
;
_chemical_formula_sum "Si O2"
_cell_formula_units_Z 48
_cell_length_a 23.712306
_cell_length_b 5.475708
_cell_length_c 17.724255
_cell_angle_alpha 90.000000
_cell_angle_beta 90.000000
_cell_angle_gamma 90.000000
_cell_volume 2301.346756
_symmetry_space_group_name_H-M "I 21 21 21"
_symmetry_group_IT_number 24
_symmetry_cell_setting 'orthorhombic'
loop_
_space_group_symop_operation_xyz
x,y,z
-x,1/2-y,z
x,-y,1/2-z
1/2-x,y,-z
1/2+x,1/2+y,1/2+z
1/2-x,-y,1/2+z
1/2+x,1/2-y,-z
-x,1/2+y,1/2-z
loop_
_atom_site_type_symbol
_atom_site_label
_atom_site_fract_x
_atom_site_fract_y
_atom_site_fract_z
Si Si1 0.350972 0.051065 0.927729
Si Si2 0.253285 0.838655 0.823053
Si Si3 0.466793 0.000220 0.840320
Si Si4 0.160733 0.914420 0.594302
Si Si5 0.934691 0.750881 0.701824
Si Si6 0.234420 0.448900 0.078083
O O1 0.327243 0.328989 0.927108
O O2 0.300570 0.912220 0.885141
O O3 0.407554 0.011302 0.882354
O O4 0.358275 0.976940 0.014615
O O5 0.259053 0.551942 0.836939
O O6 0.264682 0.000000 0.750000
O O7 0.189466 0.893398 0.849245
O O8 0.500000 0.750000 0.859134
O O9 0.500000 0.250000 0.858936
O O10 0.457674 0.000000 0.750000
O O11 0.110904 0.770838 0.635318
O O12 0.215116 0.748436 0.575554
O O13 0.928497 0.500000 0.750000
O O14 0.000000 0.750000 0.674954
O O15 0.926218 0.000000 0.750000
O O16 0.250000 0.593626 0.000000
#
# Coordination Sequence:
#
# PCOD9335355 Si02
#       6
#     8   8   8   8   8   8
#     4  10  22  40  60  91 126 165 212 265 324 386
#     4  11  22  36  60  92 125 167 213 264 325 391
#     4  10  23  44  67  94 126 168 217 270 323 381
#     4  10  22  37  61  91 127 165 213 265 320 387
#     4  10  23  43  65  92 127 168 213 264 319 380
#     4   9  20  38  59  89 127 165 203 263 327 389
#
# _framework density 20.857351000000001
#
# number of rings (size 3 to 8) (size 9 to 14) (size 15 to 20)
#    0.000    2.000    0.000    3.500    7.000    2.667 
#    3.000    2.500    0.000    0.000    0.000    0.000 
#    0.000    0.000    0.000    0.000    0.000    0.000 
#
# Total GULP energy -133670.269833 kJ/mol
# GULP energy per Si atom -5569.594576 kJ/mol
# Density = 2.080988 g / cm^3
# Si number density = 20.857351 Si / 1000 Ang^3
#
#
#
# Elastic Constant Matrix: (Units=GPa)
#
#
# Indices 1 2 3 4 5 6 
#
# 1 158.1654 32.1372 51.6733 0.0000 0.0000 0.0000
# 2 32.1372 70.5682 22.9731 0.0000 0.0000 0.0000
# 3 51.6733 22.9731 59.9502 0.0000 0.0000 0.0000
# 4 0.0000 0.0000 0.0000 19.2350 0.0000 0.0000
# 5 0.0000 0.0000 0.0000 0.0000 23.6605 0.0000
# 6 0.0000 0.0000 0.0000 0.0000 0.0000 23.0250
#
#
#
# Elastic Compliance Matrix: (Units=1/GPa)
#
#
# Indices 1 2 3 4 5 6 
#
# 1 0.008996 -0.001797 -0.007065 0.000000 0.000000 0.000000
# 2 -0.001797 0.016549 -0.004793 0.000000 0.000000 0.000000
# 3 -0.007065 -0.004793 0.024607 0.000000 0.000000 0.000000
# 4 0.000000 0.000000 0.000000 0.051989 0.000000 0.000000
# 5 0.000000 0.000000 0.000000 0.000000 0.042264 0.000000
# 6 0.000000 0.000000 0.000000 0.000000 0.000000 0.043431
#
#
# Mechanical properties :
#
#
# Convention : Reuss Voigt Hill
#
# Bulk Modulus (GPa) = 43.77907 55.80567 49.79237
# Shear Modulus (GPa) = 22.44562 25.31079 23.87821
#
# Velocity S-wave (km/s) = 3.28403 3.48734 3.38721
# Velocity P-wave (km/s) = 5.95106 6.55968 6.26277
#
# Compressibility (1/GPa) = 0.02284197
#
# Stress axis : x y z
#
# Youngs Moduli (GPa) = 111.16257 60.42566 40.63869
#
# Poissons Ratio (x) = 0.10857 0.28713
# Poissons Ratio (y) = 0.19972 0.19478
# Poissons Ratio (z) = 0.78540 0.28963
#
# Static dielectric constant tensor:
#      x y z
#    x 1.682190 0.000000 0.000000 
#    y 0.000000 2.232750 0.000000 
#    z 0.000000 0.000000 1.842020 
# 
# From -- ./inp_files/31510.got.cif
#   From: 2010.05.17/outbox.cif.g08.bks.cpg/sg24_16_cif.got.tgz:31510.got - 2010.06.04 00:33:39.
