data_PCOD9335046
_publ_section_title
;
Structure prediction by ZEFSAII (Michael W. Deem and Ramdas Pophale) SiO2 
 PCOD9335046
Probable space group: I 21 21 21
;
_chemical_formula_sum "Si O2"
_cell_formula_units_Z 36
_cell_length_a 5.128789
_cell_length_b 13.431043
_cell_length_c 25.234723
_cell_angle_alpha 90.000000
_cell_angle_beta 90.000000
_cell_angle_gamma 90.000000
_cell_volume 1738.293530
_symmetry_space_group_name_H-M "I 21 21 21"
_symmetry_group_IT_number 24
_symmetry_cell_setting 'orthorhombic'
loop_
_space_group_symop_operation_xyz
x,y,z
-x,1/2-y,z
x,-y,1/2-z
1/2-x,y,-z
1/2+x,1/2+y,1/2+z
1/2-x,-y,1/2+z
1/2+x,1/2-y,-z
-x,1/2+y,1/2-z
loop_
_atom_site_type_symbol
_atom_site_label
_atom_site_fract_x
_atom_site_fract_y
_atom_site_fract_z
Si Si1 0.970923 0.541565 0.190854
Si Si2 0.983048 0.007881 0.870082
Si Si3 0.368860 0.651225 0.052314
Si Si4 0.751809 0.820206 0.559856
Si Si5 0.000000 0.750000 0.141487
O O1 0.949534 0.500000 0.250000
O O2 0.761855 0.477053 0.157043
O O3 0.271486 0.531287 0.172429
O O4 0.899609 0.658292 0.178254
O O5 0.822586 0.096168 0.897735
O O6 0.041205 0.928364 0.916830
O O7 0.500000 0.750000 0.029898
O O8 0.191712 0.695292 0.099770
O O9 0.250000 0.602286 0.000000
O O10 0.500000 0.750000 0.569185
O O11 0.750000 0.862487 0.500000
O O12 0.000000 0.750000 0.560663
#
# Coordination Sequence:
#
# PCOD9335046 Si02
#       5
#     8   8   8   8   4
#     4  11  24  43  64  90 124 169 218 269 322 371
#     4  11  23  41  65  93 128 165 214 268 316 389
#     4  11  20  35  61  96 129 164 202 249 328 405
#     4  10  21  40  63  92 130 168 207 259 318 378
#     4  10  22  40  60  88 132 164 206 268 318 376
#
# _framework density 20.709966000000001
#
# number of rings (size 3 to 8) (size 9 to 14) (size 15 to 20)
#    0.000    1.333    3.333    2.667    0.000    0.000 
#    6.000    3.333    0.000    0.000    0.000    0.000 
#    0.000    0.000    0.000    0.000    0.000    0.000 
#
# Total GULP energy -100237.868414 kJ/mol
# GULP energy per Si atom -5568.770467 kJ/mol
# Density = 2.066283 g / cm^3
# Si number density = 20.709966 Si / 1000 Ang^3
#
#
#
# Elastic Constant Matrix: (Units=GPa)
#
#
# Indices 1 2 3 4 5 6 
#
# 1 84.9912 5.0266 12.8822 0.0000 0.0000 0.0000
# 2 5.0266 72.6811 39.4699 0.0000 0.0000 0.0000
# 3 12.8822 39.4699 117.4865 0.0000 0.0000 0.0000
# 4 0.0000 0.0000 0.0000 28.4439 0.0000 0.0000
# 5 0.0000 0.0000 0.0000 0.0000 30.5378 0.0000
# 6 0.0000 0.0000 0.0000 0.0000 0.0000 2.7033
#
#
#
# Elastic Compliance Matrix: (Units=1/GPa)
#
#
# Indices 1 2 3 4 5 6 
#
# 1 0.011966 -0.000141 -0.001265 0.000000 0.000000 0.000000
# 2 -0.000141 0.016831 -0.005639 0.000000 0.000000 0.000000
# 3 -0.001265 -0.005639 0.010545 0.000000 0.000000 0.000000
# 4 0.000000 0.000000 0.000000 0.035157 0.000000 0.000000
# 5 0.000000 0.000000 0.000000 0.000000 0.032746 0.000000
# 6 0.000000 0.000000 0.000000 0.000000 0.000000 0.369924
#
#
# Mechanical properties :
#
#
# Convention : Reuss Voigt Hill
#
# Bulk Modulus (GPa) = 39.59990 43.32402 41.46196
# Shear Modulus (GPa) = 10.00651 26.85566 18.43108
#
# Velocity S-wave (km/s) = 2.20051 3.60495 2.98646
# Velocity P-wave (km/s) = 5.06152 6.18808 5.65294
#
# Compressibility (1/GPa) = 0.02525259
#
# Stress axis : x y z
#
# Youngs Moduli (GPa) = 83.57050 59.41523 94.83447
#
# Poissons Ratio (x) = 0.00836 0.11994
# Poissons Ratio (y) = 0.01176 0.53476
# Poissons Ratio (z) = 0.10570 0.33504
#
# Static dielectric constant tensor:
#      x y z
#    x 1.784850 0.000000 0.000000 
#    y 0.000000 1.756990 0.000000 
#    z 0.000000 0.000000 1.855360 
# 
# From -- ./inp_files/2267.got.cif
#   From: 2010.05.17/outbox.cif.g08.bks.cpg/sg24_2_cif.got.tgz:2267.got - 2010.06.04 00:33:39.
