data_PCOD9335531
_publ_section_title
;
Structure prediction by ZEFSAII (Michael W. Deem and Ramdas Pophale) SiO2 
 PCOD9335531
Probable space group: I 21 21 21
;
_chemical_formula_sum "Si O2"
_cell_formula_units_Z 52
_cell_length_a 13.843254
_cell_length_b 20.253383
_cell_length_c 8.654551
_cell_angle_alpha 90.000000
_cell_angle_beta 90.000000
_cell_angle_gamma 90.000000
_cell_volume 2426.500049
_symmetry_space_group_name_H-M "I 21 21 21"
_symmetry_group_IT_number 24
_symmetry_cell_setting 'orthorhombic'
loop_
_space_group_symop_operation_xyz
x,y,z
-x,1/2-y,z
x,-y,1/2-z
1/2-x,y,-z
1/2+x,1/2+y,1/2+z
1/2-x,-y,1/2+z
1/2+x,1/2-y,-z
-x,1/2+y,1/2-z
loop_
_atom_site_type_symbol
_atom_site_label
_atom_site_fract_x
_atom_site_fract_y
_atom_site_fract_z
Si Si1 0.342796 0.834102 0.888698
Si Si2 0.711105 0.391343 0.146583
Si Si3 0.887629 0.256606 0.898465
Si Si4 0.310382 0.562171 0.845974
Si Si5 0.588393 0.500000 0.250000
Si Si6 0.812156 0.791133 0.272762
Si Si7 0.967476 0.536037 0.088264
O O1 0.301869 0.857374 0.724044
O O2 0.361571 0.756170 0.857298
O O3 0.421279 0.890105 0.926959
O O4 0.250000 0.837612 0.000000
O O5 0.639066 0.333709 0.096217
O O6 0.657006 0.437343 0.262537
O O7 0.750000 0.431063 0.000000
O O8 0.802502 0.227433 0.788703
O O9 0.000000 0.250000 0.854113
O O10 0.865331 0.224906 0.065431
O O11 0.269336 0.500000 0.750000
O O12 0.315418 0.631434 0.757357
O O13 0.419131 0.543852 0.888631
O O14 0.250000 0.572432 0.000000
O O15 0.542314 0.502194 0.422361
O O16 0.931228 0.500000 0.250000
#
# Coordination Sequence:
#
# PCOD9335531 Si02
#       7
#     8   8   8   8   4   8   8
#     4  11  21  40  65  98 143 171 219 290 354 425
#     4  11  22  40  62 103 141 182 231 280 354 424
#     4  10  22  40  70 103 136 180 232 296 352 427
#     4  11  28  50  72  98 136 188 241 304 358 422
#     4  12  26  40  72 104 148 198 232 288 358 436
#     4  10  23  44  68 103 135 182 234 293 366 419
#     4  11  27  44  69 108 141 190 246 291 358 430
#
# _framework density 21.430043000000001
#
# number of rings (size 3 to 8) (size 9 to 14) (size 15 to 20)
#    0.000    1.231    4.615    1.385    8.615    2.462 
#    0.000    0.000    0.000    0.000    0.000    0.000 
#    0.000    0.000    0.000    0.000    0.000    0.000 
#
# Total GULP energy -144885.091256 kJ/mol
# GULP energy per Si atom -5572.503510 kJ/mol
# Density = 2.138127 g / cm^3
# Si number density = 21.430043 Si / 1000 Ang^3
#
#
#
# Elastic Constant Matrix: (Units=GPa)
#
#
# Indices 1 2 3 4 5 6 
#
# 1 44.9826 -8.7405 -8.3032 0.0000 0.0000 -0.0004
# 2 -8.7405 115.2702 25.7915 0.0000 0.0000 -0.0004
# 3 -8.3032 25.7915 68.3238 0.0000 0.0000 -0.0024
# 4 0.0000 0.0000 0.0000 31.6164 0.0000 0.0000
# 5 0.0000 0.0000 0.0000 0.0000 23.5014 0.0003
# 6 -0.0004 -0.0004 -0.0024 0.0000 0.0003 2146.5055
#
#
#
# Elastic Compliance Matrix: (Units=1/GPa)
#
#
# Indices 1 2 3 4 5 6 
#
# 1 0.022896 0.001216 0.002323 0.000000 0.000000 0.000000
# 2 0.001216 0.009540 -0.003454 0.000000 0.000000 0.000000
# 3 0.002323 -0.003454 0.016222 0.000000 0.000000 0.000000
# 4 0.000000 0.000000 0.000000 0.031629 0.000000 0.000000
# 5 0.000000 0.000000 0.000000 0.000000 0.042551 0.000000
# 6 0.000000 0.000000 0.000000 0.000000 0.000000 0.000466
#
#
# Mechanical properties :
#
#
# Convention : Reuss Voigt Hill
#
# Bulk Modulus (GPa) = 20.47894 27.34135 23.91015
# Shear Modulus (GPa) = 35.86573 454.97990 245.42282
#
# Velocity S-wave (km/s) = 4.09543 14.58665 10.71314
# Velocity P-wave (km/s) = 5.65157 17.21859 12.81445
#
# Compressibility (1/GPa) = 0.04883065
#
# Stress axis : x y z
#
# Youngs Moduli (GPa) = 43.67575 104.81943 61.64386
#
# Poissons Ratio (x) = -0.12749 -0.14322
# Poissons Ratio (y) = -0.05312 0.21289
# Poissons Ratio (z) = -0.10147 0.36200
#
# Static dielectric constant tensor:
#      x y z
#    x 1.758940 0.000000 0.000000 
#    y 0.000000 1.900570 0.000000 
#    z 0.000000 0.000000 1.603020 
# 
# From -- ./inp_files/13079.got.cif
#   From: 2010.05.17/outbox.cif.g08.bks.cpg/sg24_7_cif.got.tgz:13079.got - 2010.06.04 00:33:39.
