data_PCOD9335099
_publ_section_title
;
Structure prediction by ZEFSAII (Michael W. Deem and Ramdas Pophale) SiO2 
 PCOD9335099
Probable space group: I 21 21 21
;
_chemical_formula_sum "Si O2"
_cell_formula_units_Z 56
_cell_length_a 9.095832
_cell_length_b 20.531791
_cell_length_c 13.839964
_cell_angle_alpha 90.000000
_cell_angle_beta 90.000000
_cell_angle_gamma 90.000000
_cell_volume 2584.664784
_symmetry_space_group_name_H-M "I 21 21 21"
_symmetry_group_IT_number 24
_symmetry_cell_setting 'orthorhombic'
loop_
_space_group_symop_operation_xyz
x,y,z
-x,1/2-y,z
x,-y,1/2-z
1/2-x,y,-z
1/2+x,1/2+y,1/2+z
1/2-x,-y,1/2+z
1/2+x,1/2-y,-z
-x,1/2+y,1/2-z
loop_
_atom_site_type_symbol
_atom_site_label
_atom_site_fract_x
_atom_site_fract_y
_atom_site_fract_z
Si Si1 0.620411 0.654593 0.885293
Si Si2 0.550084 0.926875 0.726547
Si Si3 0.670825 0.741652 0.725659
Si Si4 0.447642 0.890017 0.088738
Si Si5 0.306497 0.883939 0.605299
Si Si6 0.640698 0.869684 0.277239
Si Si7 0.049207 0.971704 0.642420
O O1 0.514942 0.620466 0.808357
O O2 0.661347 0.724690 0.840029
O O3 0.774263 0.615199 0.886459
O O4 0.545415 0.650455 0.989664
O O5 0.475502 0.902630 0.626815
O O6 0.723488 0.919170 0.732221
O O7 0.507161 0.000000 0.750000
O O8 0.500000 0.750000 0.693403
O O9 0.729175 0.676667 0.674374
O O10 0.778008 0.801346 0.703970
O O11 0.545015 0.865325 0.178639
O O12 0.484708 0.966832 0.074398
O O13 0.250000 0.866284 0.500000
O O14 0.215296 0.948258 0.631672
O O15 0.542194 0.904441 0.359353
O O16 0.027910 0.000000 0.750000
#
# Coordination Sequence:
#
# PCOD9335099 Si02
#       7
#     8   8   8   8   8   8   8
#     4  10  22  40  65  95 132 183 217 284 334 413
#     4  11  21  38  65  92 127 175 216 271 360 401
#     4  11  22  47  63  89 138 180 232 271 347 420
#     4  10  22  40  64 104 135 165 232 281 342 416
#     4  11  24  41  68  95 119 177 225 281 332 411
#     4  11  22  42  66  92 138 183 218 282 349 412
#     4  10  21  40  67  98 132 165 220 283 348 414
#
# _framework density 21.666253000000001
#
# number of rings (size 3 to 8) (size 9 to 14) (size 15 to 20)
#    0.000    1.429    2.857    6.000    4.000    2.857 
#    7.714    0.714    0.000    0.000    0.000    0.000 
#    0.000    0.000    0.000    0.000    0.000    0.000 
#
# Total GULP energy -156183.686883 kJ/mol
# GULP energy per Si atom -5577.988817 kJ/mol
# Density = 2.161694 g / cm^3
# Si number density = 21.666253 Si / 1000 Ang^3
#
#
#
# Elastic Constant Matrix: (Units=GPa)
#
#
# Indices 1 2 3 4 5 6 
#
# 1 81.4343 -18.4348 14.2883 0.0000 0.0000 0.0000
# 2 -18.4348 78.1397 -6.6440 0.0000 0.0000 0.0000
# 3 14.2883 -6.6440 68.0893 0.0001 0.0000 0.0000
# 4 0.0000 0.0000 0.0001 15.9981 0.0000 0.0000
# 5 0.0000 0.0000 0.0000 0.0000 1.1149 0.0000
# 6 0.0000 0.0000 0.0000 0.0000 0.0000 43.6430
#
#
#
# Elastic Compliance Matrix: (Units=1/GPa)
#
#
# Indices 1 2 3 4 5 6 
#
# 1 0.013389 0.002944 -0.002522 0.000000 0.000000 0.000000
# 2 0.002944 0.013552 0.000705 0.000000 0.000000 0.000000
# 3 -0.002522 0.000705 0.015285 0.000000 0.000000 0.000000
# 4 0.000000 0.000000 0.000000 0.062507 0.000000 0.000000
# 5 0.000000 0.000000 0.000000 0.000000 0.896927 0.000000
# 6 0.000000 0.000000 0.000000 0.000000 0.000000 0.022913
#
#
# Mechanical properties :
#
#
# Convention : Reuss Voigt Hill
#
# Bulk Modulus (GPa) = 22.48271 22.89804 22.69037
# Shear Modulus (GPa) = 4.82092 28.04814 16.43453
#
# Velocity S-wave (km/s) = 1.49329 3.60189 2.75713
# Velocity P-wave (km/s) = 3.65685 5.28107 4.54215
#
# Compressibility (1/GPa) = 0.04447863
#
# Stress axis : x y z
#
# Youngs Moduli (GPa) = 74.68868 73.78918 65.42518
#
# Poissons Ratio (x) = -0.21726 0.16502
# Poissons Ratio (y) = -0.21990 -0.04609
# Poissons Ratio (z) = 0.18839 -0.05199
#
# Static dielectric constant tensor:
#      x y z
#    x 1.817390 0.000000 0.000000 
#    y 0.000000 1.844810 0.000000 
#    z 0.000000 0.000000 1.820320 
# 
# From -- ./inp_files/25051.got.cif
#   From: 2010.05.17/outbox.cif.g08.bks.cpg/sg24_13_cif.got.tgz:25051.got - 2010.06.04 00:33:39.
