data_PCOD9335064
_publ_section_title
;
Structure prediction by ZEFSAII (Michael W. Deem and Ramdas Pophale) SiO2 
 PCOD9335064
Probable space group: I 21 21 21
;
_chemical_formula_sum "Si O2"
_cell_formula_units_Z 48
_cell_length_a 14.619172
_cell_length_b 17.917673
_cell_length_c 8.980888
_cell_angle_alpha 90.000000
_cell_angle_beta 90.000000
_cell_angle_gamma 90.000000
_cell_volume 2352.467664
_symmetry_space_group_name_H-M "I 21 21 21"
_symmetry_group_IT_number 24
_symmetry_cell_setting 'orthorhombic'
loop_
_space_group_symop_operation_xyz
x,y,z
-x,1/2-y,z
x,-y,1/2-z
1/2-x,y,-z
1/2+x,1/2+y,1/2+z
1/2-x,-y,1/2+z
1/2+x,1/2-y,-z
-x,1/2+y,1/2-z
loop_
_atom_site_type_symbol
_atom_site_label
_atom_site_fract_x
_atom_site_fract_y
_atom_site_fract_z
Si Si1 0.330483 0.952725 0.101930
Si Si2 0.142511 0.687112 0.177585
Si Si3 0.500000 0.250000 0.240080
Si Si4 0.808990 0.919734 0.746956
Si Si5 0.147749 0.300848 0.985303
Si Si6 0.020582 0.392741 0.553906
Si Si7 0.250000 0.809037 0.000000
O O1 0.431489 0.943385 0.032251
O O2 0.339063 0.000000 0.250000
O O3 0.250000 0.987154 0.000000
O O4 0.206178 0.867244 0.882354
O O5 0.236899 0.639916 0.190010
O O6 0.111504 0.700440 0.346979
O O7 0.065179 0.640944 0.093458
O O8 0.173537 0.758643 0.080406
O O9 0.505374 0.322469 0.342309
O O10 0.413216 0.257546 0.132363
O O11 0.840677 0.883620 0.589661
O O12 0.896329 0.929470 0.853953
O O13 0.762108 0.000000 0.750000
O O14 0.250000 0.269669 0.000000
#
# Coordination Sequence:
#
# PCOD9335064 Si02
#       7
#     8   8   4   8   8   8   4
#     4  10  25  47  65  92 128 178 237 284 344 408
#     4  11  21  40  65 108 131 171 228 278 354 423
#     4  10  22  40  58  96 126 168 218 286 334 404
#     4  10  21  40  64  96 143 176 207 271 348 425
#     4   9  22  37  59  93 137 161 223 267 337 404
#     4  11  21  38  69  90 131 175 228 269 349 413
#     4  10  22  42  70  96 132 174 226 294 346 418
#
# _framework density 20.404105999999999
#
# number of rings (size 3 to 8) (size 9 to 14) (size 15 to 20)
#    0.500    1.333    1.667    1.500    4.667    6.000 
#    3.000    4.167    0.000    0.000    0.000    0.000 
#    0.000    0.000    0.000    0.000    0.000    0.000 
#
# Total GULP energy -133850.453642 kJ/mol
# GULP energy per Si atom -5577.102235 kJ/mol
# Density = 2.035767 g / cm^3
# Si number density = 20.404106 Si / 1000 Ang^3
#
#
#
# Elastic Constant Matrix: (Units=GPa)
#
#
# Indices 1 2 3 4 5 6 
#
# 1 104.6753 4.6309 34.5724 0.0000 0.0000 0.0000
# 2 4.6309 66.7445 22.1970 0.0000 0.0000 0.0000
# 3 34.5724 22.1970 127.6609 0.0000 0.0000 0.0000
# 4 0.0000 0.0000 0.0000 20.0420 0.0000 0.0000
# 5 0.0000 0.0000 0.0000 0.0000 35.8854 0.0000
# 6 0.0000 0.0000 0.0000 0.0000 0.0000 -2.1572
#
#
#
# Elastic Compliance Matrix: (Units=1/GPa)
#
#
# Indices 1 2 3 4 5 6 
#
# 1 0.010495 0.000230 -0.002882 0.000000 0.000000 0.000000
# 2 0.000230 0.015907 -0.002828 0.000000 0.000000 0.000000
# 3 -0.002882 -0.002828 0.009106 0.000000 0.000000 0.000000
# 4 0.000000 0.000000 0.000000 0.049895 0.000000 0.000000
# 5 0.000000 0.000000 0.000000 0.000000 0.027866 0.000000
# 6 0.000000 0.000000 0.000000 0.000000 0.000000 -0.463565
#
#
# Mechanical properties :
#
#
# Convention : Reuss Voigt Hill
#
# Bulk Modulus (GPa) = 40.73730 46.87568 43.80649
# Shear Modulus (GPa) = -15.09880 26.59940 5.75030
#
# Velocity S-wave (km/s) = -2.72322 3.61450 1.68057
# Velocity P-wave (km/s) = 3.18130 6.35948 5.02810
#
# Compressibility (1/GPa) = 0.02454753
#
# Stress axis : x y z
#
# Youngs Moduli (GPa) = 95.28228 62.86500 109.82286
#
# Poissons Ratio (x) = -0.01448 0.31654
# Poissons Ratio (y) = -0.02195 0.31060
# Poissons Ratio (z) = 0.27463 0.17780
#
# Static dielectric constant tensor:
#      x y z
#    x 1.761210 0.000000 0.000000 
#    y 0.000000 1.747930 0.000000 
#    z 0.000000 0.000000 1.751460 
# 
# From -- ./inp_files/12843.got.cif
#   From: 2010.05.17/outbox.cif.g08.bks.cpg/sg24_7_cif.got.tgz:12843.got - 2010.06.04 00:33:39.
