data_PCOD9335943
_publ_section_title
;
Structure prediction by ZEFSAII (Michael W. Deem and Ramdas Pophale) SiO2 
 PCOD9335943
Probable space group: I 21 21 21
;
_chemical_formula_sum "Si O2"
_cell_formula_units_Z 48
_cell_length_a 14.734179
_cell_length_b 17.185318
_cell_length_c 7.780161
_cell_angle_alpha 90.000000
_cell_angle_beta 90.000000
_cell_angle_gamma 90.000000
_cell_volume 1970.026638
_symmetry_space_group_name_H-M "I 21 21 21"
_symmetry_group_IT_number 24
_symmetry_cell_setting 'orthorhombic'
loop_
_space_group_symop_operation_xyz
x,y,z
-x,1/2-y,z
x,-y,1/2-z
1/2-x,y,-z
1/2+x,1/2+y,1/2+z
1/2-x,-y,1/2+z
1/2+x,1/2-y,-z
-x,1/2+y,1/2-z
loop_
_atom_site_type_symbol
_atom_site_label
_atom_site_fract_x
_atom_site_fract_y
_atom_site_fract_z
Si Si1 0.897277 0.912935 0.730432
Si Si2 0.277731 0.670270 0.698704
Si Si3 0.455136 0.584673 0.670668
Si Si4 0.212945 0.081734 0.809667
Si Si5 0.943441 0.322359 0.681485
Si Si6 0.872366 0.326987 0.308288
O O1 0.817655 0.853207 0.782821
O O2 0.935204 0.910284 0.534078
O O3 0.984577 0.891946 0.843705
O O4 0.861701 0.000000 0.750000
O O5 0.250000 0.659490 0.500000
O O6 0.359538 0.613266 0.749897
O O7 0.318869 0.755451 0.723976
O O8 0.476699 0.500000 0.750000
O O9 0.537548 0.642925 0.713836
O O10 0.136996 0.147665 0.799505
O O11 0.298621 0.103883 0.690887
O O12 0.172798 0.000000 0.750000
O O13 0.250000 0.075811 0.000000
O O14 0.901038 0.302458 0.498434
O O15 0.000000 0.250000 0.753549
#
# Coordination Sequence:
#
# PCOD9335943 Si02
#       6
#     8   8   8   8   8   8
#     4  11  24  43  68 100 139 179 225 279 339 406
#     4  10  23  43  70 101 136 180 228 282 340 402
#     4  11  23  42  69 101 136 179 227 279 340 403
#     4  12  26  47  74 103 138 179 228 285 344 407
#     4  12  26  45  69 102 140 181 228 280 340 405
#     4  12  24  44  70 101 138 178 228 281 338 405
#
# _framework density 24.365152999999999
#
# number of rings (size 3 to 8) (size 9 to 14) (size 15 to 20)
#    0.000    0.667    0.000    8.000    0.000    4.000 
#    0.000    6.667    0.000    0.000    0.000    0.000 
#    0.000    0.000    0.000    0.000    0.000    0.000 
#
# Total GULP energy -134450.193861 kJ/mol
# GULP energy per Si atom -5602.091411 kJ/mol
# Density = 2.430970 g / cm^3
# Si number density = 24.365153 Si / 1000 Ang^3
#
#
#
# Elastic Constant Matrix: (Units=GPa)
#
#
# Indices 1 2 3 4 5 6 
#
# 1 166.2969 61.7705 40.0492 0.0000 0.0000 0.0000
# 2 61.7705 112.5386 27.0905 0.0000 0.0000 0.0000
# 3 40.0492 27.0905 60.9197 0.0000 0.0000 0.0000
# 4 0.0000 0.0000 0.0000 32.2869 0.0000 0.0000
# 5 0.0000 0.0000 0.0000 0.0000 69.2102 0.0000
# 6 0.0000 0.0000 0.0000 0.0000 0.0000 56.9509
#
#
#
# Elastic Compliance Matrix: (Units=1/GPa)
#
#
# Indices 1 2 3 4 5 6 
#
# 1 0.008282 -0.003623 -0.003834 0.000000 0.000000 0.000000
# 2 -0.003623 0.011536 -0.002748 0.000000 0.000000 0.000000
# 3 -0.003834 -0.002748 0.020157 0.000000 0.000000 0.000000
# 4 0.000000 0.000000 0.000000 0.030972 0.000000 0.000000
# 5 0.000000 0.000000 0.000000 0.000000 0.014449 0.000000
# 6 0.000000 0.000000 0.000000 0.000000 0.000000 0.017559
#
#
# Mechanical properties :
#
#
# Convention : Reuss Voigt Hill
#
# Bulk Modulus (GPa) = 51.10933 66.39731 58.75332
# Shear Modulus (GPa) = 38.49470 45.74595 42.12032
#
# Velocity S-wave (km/s) = 3.97912 4.33773 4.16229
# Velocity P-wave (km/s) = 6.49100 7.23864 6.87499
#
# Compressibility (1/GPa) = 0.01956590
#
# Stress axis : x y z
#
# Youngs Moduli (GPa) = 120.73710 86.68443 49.60953
#
# Poissons Ratio (x) = 0.31408 0.19019
# Poissons Ratio (y) = 0.43746 0.13633
# Poissons Ratio (z) = 0.46287 0.23821
#
# Static dielectric constant tensor:
#      x y z
#    x 1.907360 0.000000 0.000000 
#    y 0.000000 1.941950 0.000000 
#    z 0.000000 0.000000 1.926320 
# 
# From -- ./inp_files/12790.got.cif
#   From: 2010.05.17/outbox.cif.g08.bks.cpg/sg24_7_cif.got.tgz:12790.got - 2010.06.04 00:33:39.
