data_PCOD9335692
_publ_section_title
;
Structure prediction by ZEFSAII (Michael W. Deem and Ramdas Pophale) SiO2 
 PCOD9335692
Probable space group: I 21 21 21
;
_chemical_formula_sum "Si O2"
_cell_formula_units_Z 48
_cell_length_a 8.736290
_cell_length_b 13.165236
_cell_length_c 17.458796
_cell_angle_alpha 90.000000
_cell_angle_beta 90.000000
_cell_angle_gamma 90.000000
_cell_volume 2008.029002
_symmetry_space_group_name_H-M "I 21 21 21"
_symmetry_group_IT_number 24
_symmetry_cell_setting 'orthorhombic'
loop_
_space_group_symop_operation_xyz
x,y,z
-x,1/2-y,z
x,-y,1/2-z
1/2-x,y,-z
1/2+x,1/2+y,1/2+z
1/2-x,-y,1/2+z
1/2+x,1/2-y,-z
-x,1/2+y,1/2-z
loop_
_atom_site_type_symbol
_atom_site_label
_atom_site_fract_x
_atom_site_fract_y
_atom_site_fract_z
Si Si1 0.324562 0.911267 0.141296
Si Si2 0.893171 0.592417 0.531964
Si Si3 0.075236 0.000000 0.250000
Si Si4 0.500000 0.750000 0.052393
Si Si5 0.874281 0.925627 0.392202
Si Si6 0.750000 0.907823 0.000000
Si Si7 0.421167 0.500000 0.250000
Si Si8 0.382402 0.317934 0.157609
O O1 0.369148 0.805299 0.103043
O O2 0.470583 0.948972 0.188099
O O3 0.317421 0.994240 0.073276
O O4 0.185463 0.922617 0.201678
O O5 0.750000 0.652797 0.500000
O O6 0.008060 0.576205 0.462987
O O7 0.986666 0.648139 0.597893
O O8 0.974196 0.050309 0.183226
O O9 0.597871 0.836512 0.007239
O O10 0.779455 0.819123 0.386118
O O11 0.765523 0.018659 0.424872
O O12 0.331383 0.410206 0.211986
O O13 0.500000 0.250000 0.207841
#
# Coordination Sequence:
#
# PCOD9335692 Si02
#       8
#     8   8   4   4   8   4   4   8
#     4  10  22  43  69 107 146 209 243 311 385 460
#     4  11  21  42  74  97 146 197 251 306 378 446
#     4  11  25  42  82 104 154 208 258 314 408 468
#     4  12  26  40  76 118 160 194 278 312 386 494
#     4  12  23  47  72 111 151 201 257 320 396 452
#     4  12  26  44  76 120 154 212 250 336 394 468
#     4   9  21  44  66  92 146 204 238 310 388 452
#     4  11  24  43  73 105 144 194 256 320 389 467
#
# _framework density 23.904038
#
# number of rings (size 3 to 8) (size 9 to 14) (size 15 to 20)
#    0.000    1.000    5.000    1.500    4.667    1.333 
#    0.000    0.000    7.333    0.000    0.000    0.000 
#    0.000    0.000    0.000    0.000    0.000    0.000 
#
# Total GULP energy -133693.011401 kJ/mol
# GULP energy per Si atom -5570.542142 kJ/mol
# Density = 2.384963 g / cm^3
# Si number density = 23.904038 Si / 1000 Ang^3
#
#
#
# Elastic Constant Matrix: (Units=GPa)
#
#
# Indices 1 2 3 4 5 6 
#
# 1 102.2077 12.8541 -0.6907 0.0000 0.0000 0.0000
# 2 12.8541 77.9584 18.0604 0.0000 0.0000 0.0000
# 3 -0.6907 18.0604 82.1349 0.0000 0.0000 0.0000
# 4 0.0000 0.0000 0.0000 19.1245 0.0000 0.0000
# 5 0.0000 0.0000 0.0000 0.0000 58.7835 0.0000
# 6 0.0000 0.0000 0.0000 0.0000 0.0000 -84.7684
#
#
#
# Elastic Compliance Matrix: (Units=1/GPa)
#
#
# Indices 1 2 3 4 5 6 
#
# 1 0.010008 -0.001759 0.000471 0.000000 0.000000 0.000000
# 2 -0.001759 0.013825 -0.003055 0.000000 0.000000 0.000000
# 3 0.000471 -0.003055 0.012851 0.000000 0.000000 0.000000
# 4 0.000000 0.000000 0.000000 0.052289 0.000000 0.000000
# 5 0.000000 0.000000 0.000000 0.000000 0.017012 0.000000
# 6 0.000000 0.000000 0.000000 0.000000 0.000000 -0.011797
#
#
# Mechanical properties :
#
#
# Convention : Reuss Voigt Hill
#
# Bulk Modulus (GPa) = 35.71664 35.86095 35.78879
# Shear Modulus (GPa) = 44.56056 14.09974 29.33015
#
# Velocity S-wave (km/s) = 4.32226 2.43131 3.50665
# Velocity P-wave (km/s) = 6.31532 4.78710 5.60355
#
# Compressibility (1/GPa) = 0.02799816
#
# Stress axis : x y z
#
# Youngs Moduli (GPa) = 99.91565 72.33209 77.81640
#
# Poissons Ratio (x) = 0.12726 -0.03665
# Poissons Ratio (y) = 0.17579 0.23771
# Poissons Ratio (z) = -0.04706 0.22096
#
# Static dielectric constant tensor:
#      x y z
#    x 2.395120 0.000000 0.000000 
#    y 0.000000 1.955710 0.000000 
#    z 0.000000 0.000000 2.026290 
# 
# From -- ./inp_files/14243.got.cif
#   From: 2010.05.17/outbox.cif.g08.bks.cpg/sg24_8_cif.got.tgz:14243.got - 2010.06.04 00:33:39.
