data_PCOD9335166
_publ_section_title
;
Structure prediction by ZEFSAII (Michael W. Deem and Ramdas Pophale) SiO2 
 PCOD9335166
Probable space group: I 21 21 21
;
_chemical_formula_sum "Si O2"
_cell_formula_units_Z 64
_cell_length_a 23.588069
_cell_length_b 9.553168
_cell_length_c 13.029250
_cell_angle_alpha 90.000000
_cell_angle_beta 90.000000
_cell_angle_gamma 90.000000
_cell_volume 2936.021435
_symmetry_space_group_name_H-M "I 21 21 21"
_symmetry_group_IT_number 24
_symmetry_cell_setting 'orthorhombic'
loop_
_space_group_symop_operation_xyz
x,y,z
-x,1/2-y,z
x,-y,1/2-z
1/2-x,y,-z
1/2+x,1/2+y,1/2+z
1/2-x,-y,1/2+z
1/2+x,1/2-y,-z
-x,1/2+y,1/2-z
loop_
_atom_site_type_symbol
_atom_site_label
_atom_site_fract_x
_atom_site_fract_y
_atom_site_fract_z
Si Si1 0.361840 0.221997 0.888456
Si Si2 0.552792 0.650923 0.032967
Si Si3 0.315274 0.527571 0.497907
Si Si4 0.321986 0.765447 0.090593
Si Si5 0.750990 0.539500 0.367408
Si Si6 0.554709 0.656690 0.786852
Si Si7 0.056145 0.839278 0.580044
Si Si8 0.839343 0.226110 0.820069
O O1 0.309762 0.111936 0.903433
O O2 0.390422 0.206189 0.777223
O O3 0.343255 0.382164 0.911205
O O4 0.408634 0.188266 0.974981
O O5 0.500000 0.750000 0.057200
O O6 0.561640 0.655417 0.909426
O O7 0.613562 0.686113 0.079526
O O8 0.538336 0.498865 0.074466
O O9 0.250000 0.568188 0.500000
O O10 0.316185 0.359514 0.492177
O O11 0.341028 0.591135 0.392967
O O12 0.317669 0.702221 0.205362
O O13 0.279900 0.899524 0.088259
O O14 0.762303 0.500000 0.250000
O O15 0.704378 0.662171 0.368365
O O16 0.500000 0.750000 0.761361
O O17 0.543273 0.500000 0.750000
O O18 0.099370 0.798940 0.670854
O O19 0.000000 0.750000 0.584309
#
# Coordination Sequence:
#
# PCOD9335166 Si02
#       8
#     8   8   8   8   8   8   8   8
#     4  11  23  42  73  97 140 186 242 287 366 439
#     4  11  26  43  66 103 143 178 240 306 357 415
#     4  11  24  44  66 101 139 183 225 283 357 431
#     4  11  25  46  68 104 142 180 236 300 359 422
#     4  10  21  41  73 102 136 182 236 292 351 430
#     4  11  24  44  71 100 141 189 240 301 363 439
#     4  11  24  41  70 100 132 187 240 282 354 433
#     4  10  22  46  72  96 142 185 227 291 357 431
#
# _framework density 21.798206
#
# number of rings (size 3 to 8) (size 9 to 14) (size 15 to 20)
#    0.000    1.250    3.750    1.125    3.500    2.500 
#    2.250    0.000    0.000    0.000    0.000    0.000 
#    0.000    0.000    0.000    0.000    0.000    0.000 
#
# Total GULP energy -178773.110789 kJ/mol
# GULP energy per Si atom -5586.659712 kJ/mol
# Density = 2.174859 g / cm^3
# Si number density = 21.798206 Si / 1000 Ang^3
#
#
#
# Elastic Constant Matrix: (Units=GPa)
#
#
# Indices 1 2 3 4 5 6 
#
# 1 113.4986 40.6082 27.6697 0.0000 0.0000 0.0000
# 2 40.6082 137.1195 18.6128 0.0000 0.0000 0.0000
# 3 27.6697 18.6128 41.6979 0.0000 0.0000 0.0000
# 4 0.0000 0.0000 0.0000 -48.5631 0.0000 0.0000
# 5 0.0000 0.0000 0.0000 0.0000 33.8829 0.0000
# 6 0.0000 0.0000 0.0000 0.0000 0.0000 21.3455
#
#
#
# Elastic Compliance Matrix: (Units=1/GPa)
#
#
# Indices 1 2 3 4 5 6 
#
# 1 0.011244 -0.002467 -0.006360 0.000000 0.000000 0.000000
# 2 -0.002467 0.008304 -0.002070 0.000000 0.000000 0.000000
# 3 -0.006360 -0.002070 0.029126 0.000000 0.000000 0.000000
# 4 0.000000 0.000000 0.000000 -0.020592 0.000000 0.000000
# 5 0.000000 0.000000 0.000000 0.000000 0.029513 0.000000
# 6 0.000000 0.000000 0.000000 0.000000 0.000000 0.046848
#
#
# Mechanical properties :
#
#
# Convention : Reuss Voigt Hill
#
# Bulk Modulus (GPa) = 37.20084 51.78861 44.49472
# Shear Modulus (GPa) = 36.98279 15.02810 26.00545
#
# Velocity S-wave (km/s) = 4.12345 2.62853 3.45774
# Velocity P-wave (km/s) = 6.30662 5.74648 6.03305
#
# Compressibility (1/GPa) = 0.02688111
#
# Stress axis : x y z
#
# Youngs Moduli (GPa) = 88.93890 120.41853 34.33310
#
# Poissons Ratio (x) = 0.29701 0.21836
# Poissons Ratio (y) = 0.21937 0.07107
# Poissons Ratio (z) = 0.56566 0.24928
#
# Static dielectric constant tensor:
#      x y z
#    x 3.648040 0.000000 0.000000 
#    y 0.000000 1.790140 0.000000 
#    z 0.000000 0.000000 1.877280 
# 
# From -- ./inp_files/27890.got.cif
#   From: 2010.05.17/outbox.cif.g08.bks.cpg/sg24_14_cif.got.tgz:27890.got - 2010.06.04 00:33:39.
