data_PCOD9335405
_publ_section_title
;
Structure prediction by ZEFSAII (Michael W. Deem and Ramdas Pophale) SiO2 
 PCOD9335405
Probable space group: I 21 21 21
;
_chemical_formula_sum "Si O2"
_cell_formula_units_Z 40
_cell_length_a 5.157627
_cell_length_b 18.240299
_cell_length_c 17.003316
_cell_angle_alpha 90.000000
_cell_angle_beta 90.000000
_cell_angle_gamma 90.000000
_cell_volume 1599.615155
_symmetry_space_group_name_H-M "I 21 21 21"
_symmetry_group_IT_number 24
_symmetry_cell_setting 'orthorhombic'
loop_
_space_group_symop_operation_xyz
x,y,z
-x,1/2-y,z
x,-y,1/2-z
1/2-x,y,-z
1/2+x,1/2+y,1/2+z
1/2-x,-y,1/2+z
1/2+x,1/2-y,-z
-x,1/2+y,1/2-z
loop_
_atom_site_type_symbol
_atom_site_label
_atom_site_fract_x
_atom_site_fract_y
_atom_site_fract_z
Si Si1 0.000000 0.750000 0.891125
Si Si2 0.757351 0.302269 0.914770
Si Si3 0.500000 0.750000 0.783676
Si Si4 0.160147 0.504472 0.416473
Si Si5 0.667056 0.588751 0.109680
Si Si6 0.886040 0.397172 0.212597
O O1 0.747179 0.756710 0.838372
O O2 0.930278 0.668470 0.924276
O O3 0.500000 0.250000 0.911793
O O4 0.810116 0.365911 0.851903
O O5 0.000000 0.250000 0.909127
O O6 0.750000 0.338964 0.000000
O O7 0.531238 0.822006 0.732525
O O8 0.250000 0.540652 0.500000
O O9 0.413815 0.460441 0.392068
O O10 0.920180 0.447580 0.430748
O O11 0.063964 0.550298 0.340233
O O12 0.755971 0.587076 0.203055
#
# Coordination Sequence:
#
# PCOD9335405 Si02
#       6
#     4   8   4   8   8   8
#     4  10  22  44  74 108 140 174 234 326 392 432
#     4  10  23  40  62 101 150 190 230 282 351 439
#     4  10  22  38  66 110 148 180 236 302 368 442
#     4  12  29  51  73 108 158 209 254 318 394 463
#     4  11  26  48  78 110 143 195 265 325 388 468
#     4  11  25  45  75 108 148 198 249 306 368 449
#
# _framework density 25.006012999999999
#
# number of rings (size 3 to 8) (size 9 to 14) (size 15 to 20)
#    0.000    1.200    1.000    3.600    5.600   15.200 
#    0.000    2.000    0.000    1.200    0.000    0.000 
#    0.000    0.000    0.000    0.000    0.000    0.000 
#
# Total GULP energy -111476.345759 kJ/mol
# GULP energy per Si atom -5573.817288 kJ/mol
# Density = 2.494910 g / cm^3
# Si number density = 25.006013 Si / 1000 Ang^3
#
#
#
# Elastic Constant Matrix: (Units=GPa)
#
#
# Indices 1 2 3 4 5 6 
#
# 1 168.6841 53.8297 40.1550 0.0000 0.0000 0.0000
# 2 53.8297 109.8074 20.5450 0.0000 0.0000 0.0000
# 3 40.1550 20.5450 107.6493 0.0000 0.0000 0.0000
# 4 0.0000 0.0000 0.0000 17.5566 0.0000 0.0000
# 5 0.0000 0.0000 0.0000 0.0000 27.9041 0.0000
# 6 0.0000 0.0000 0.0000 0.0000 0.0000 44.7439
#
#
#
# Elastic Compliance Matrix: (Units=1/GPa)
#
#
# Indices 1 2 3 4 5 6 
#
# 1 0.007486 -0.003264 -0.002170 0.000000 0.000000 0.000000
# 2 -0.003264 0.010867 -0.000856 0.000000 0.000000 0.000000
# 3 -0.002170 -0.000856 0.010262 0.000000 0.000000 0.000000
# 4 0.000000 0.000000 0.000000 0.056959 0.000000 0.000000
# 5 0.000000 0.000000 0.000000 0.000000 0.035837 0.000000
# 6 0.000000 0.000000 0.000000 0.000000 0.000000 0.022349
#
#
# Mechanical properties :
#
#
# Convention : Reuss Voigt Hill
#
# Bulk Modulus (GPa) = 62.36156 68.35560 65.35858
# Shear Modulus (GPa) = 30.92411 36.14831 33.53621
#
# Velocity S-wave (km/s) = 3.52044 3.80621 3.66611
# Velocity P-wave (km/s) = 6.44340 6.83457 6.64187
#
# Compressibility (1/GPa) = 0.01603552
#
# Stress axis : x y z
#
# Youngs Moduli (GPa) = 133.57731 92.02023 97.44526
#
# Poissons Ratio (x) = 0.30035 0.21142
# Poissons Ratio (y) = 0.43600 0.08346
# Poissons Ratio (z) = 0.28981 0.07881
#
# Static dielectric constant tensor:
#      x y z
#    x 1.951570 0.000000 0.000000 
#    y 0.000000 2.070900 0.000000 
#    z 0.000000 0.000000 2.155510 
# 
# From -- ./inp_files/28727.got.cif
#   From: 2010.05.17/outbox.cif.g08.bks.cpg/sg24_15_cif.got.tgz:28727.got - 2010.06.04 00:33:39.
