data_PCOD9335793
_publ_section_title
;
Structure prediction by ZEFSAII (Michael W. Deem and Ramdas Pophale) SiO2 
 PCOD9335793
Probable space group: I 21 21 21
;
_chemical_formula_sum "Si O2"
_cell_formula_units_Z 44
_cell_length_a 14.972392
_cell_length_b 17.443513
_cell_length_c 6.863931
_cell_angle_alpha 90.000000
_cell_angle_beta 90.000000
_cell_angle_gamma 90.000000
_cell_volume 1792.660509
_symmetry_space_group_name_H-M "I 21 21 21"
_symmetry_group_IT_number 24
_symmetry_cell_setting 'orthorhombic'
loop_
_space_group_symop_operation_xyz
x,y,z
-x,1/2-y,z
x,-y,1/2-z
1/2-x,y,-z
1/2+x,1/2+y,1/2+z
1/2-x,-y,1/2+z
1/2+x,1/2-y,-z
-x,1/2+y,1/2-z
loop_
_atom_site_type_symbol
_atom_site_label
_atom_site_fract_x
_atom_site_fract_y
_atom_site_fract_z
Si Si1 0.041130 0.168632 0.886870
Si Si2 0.384254 0.081901 0.731884
Si Si3 0.191446 0.500000 0.750000
Si Si4 0.700190 0.848684 0.796676
Si Si5 0.449482 0.411016 0.472195
Si Si6 0.761337 0.312913 0.790960
O O1 0.132682 0.186534 0.766448
O O2 0.000000 0.250000 0.950781
O O3 0.973051 0.129351 0.733222
O O4 0.067170 0.116418 0.073560
O O5 0.459357 0.064548 0.570486
O O6 0.311136 0.143160 0.662697
O O7 0.337088 0.000000 0.750000
O O8 0.253199 0.574376 0.717089
O O9 0.123919 0.476030 0.576776
O O10 0.720251 0.771649 0.684910
O O11 0.750000 0.834016 0.000000
O O12 0.598981 0.859815 0.863509
O O13 0.750000 0.354251 0.000000
#
# Coordination Sequence:
#
# PCOD9335793 Si02
#       6
#     8   8   4   8   8   8
#     4  11  25  47  74 110 154 195 259 317 383 462
#     4  11  27  47  72 110 150 200 259 311 383 462
#     4  10  22  46  66 110 148 184 246 306 380 452
#     4  10  23  42  71 105 143 191 246 300 385 455
#     4  11  25  43  76 106 148 203 245 313 386 458
#     4  10  25  46  69 106 146 199 247 318 382 443
#
# _framework density 24.544523000000002
#
# number of rings (size 3 to 8) (size 9 to 14) (size 15 to 20)
#    0.000    1.455    0.000    3.273   11.455    2.182 
#   14.727    0.000    0.000    0.000    0.000    0.000 
#    0.000    0.000    0.000    0.000    0.000    0.000 
#
# Total GULP energy -122848.736075 kJ/mol
# GULP energy per Si atom -5584.033458 kJ/mol
# Density = 2.448866 g / cm^3
# Si number density = 24.544523 Si / 1000 Ang^3
#
#
#
# Elastic Constant Matrix: (Units=GPa)
#
#
# Indices 1 2 3 4 5 6 
#
# 1 110.4321 46.2640 19.6341 0.0000 0.0000 0.0000
# 2 46.2640 166.8472 34.1339 0.0000 0.0000 0.0000
# 3 19.6341 34.1339 96.5113 0.0000 0.0000 0.0000
# 4 0.0000 0.0000 0.0000 26.3244 0.0000 0.0000
# 5 0.0000 0.0000 0.0000 0.0000 52.0443 0.0000
# 6 0.0000 0.0000 0.0000 0.0000 0.0000 -8.1812
#
#
#
# Elastic Compliance Matrix: (Units=1/GPa)
#
#
# Indices 1 2 3 4 5 6 
#
# 1 0.010368 -0.002634 -0.001178 0.000000 0.000000 0.000000
# 2 -0.002634 0.007130 -0.001986 0.000000 0.000000 0.000000
# 3 -0.001178 -0.001986 0.011303 0.000000 0.000000 0.000000
# 4 0.000000 0.000000 0.000000 0.037988 0.000000 0.000000
# 5 0.000000 0.000000 0.000000 0.000000 0.019214 0.000000
# 6 0.000000 0.000000 0.000000 0.000000 0.000000 -0.122231
#
#
# Mechanical properties :
#
#
# Convention : Reuss Voigt Hill
#
# Bulk Modulus (GPa) = 58.11736 63.76163 60.93949
# Shear Modulus (GPa) = -264.59950 32.28808 -116.15571
#
# Velocity S-wave (km/s) = -10.39413 3.63090 -6.88674
# Velocity P-wave (km/s) = 10.96908 6.60396 6.19308
#
# Compressibility (1/GPa) = 0.01720656
#
# Stress axis : x y z
#
# Youngs Moduli (GPa) = 96.44870 140.24941 88.46856
#
# Poissons Ratio (x) = 0.36942 0.10419
# Poissons Ratio (y) = 0.25405 0.17569
# Poissons Ratio (z) = 0.11359 0.27852
#
# Static dielectric constant tensor:
#      x y z
#    x 2.017010 0.000000 0.000000 
#    y 0.000000 1.961780 0.000000 
#    z 0.000000 0.000000 2.189150 
# 
# From -- ./inp_files/12690.got.cif
#   From: 2010.05.17/outbox.cif.g08.bks.cpg/sg24_7_cif.got.tgz:12690.got - 2010.06.04 00:33:39.
