data_PCOD9335839
_publ_section_title
;
Structure prediction by ZEFSAII (Michael W. Deem and Ramdas Pophale) SiO2 
 PCOD9335839
Probable space group: I 21 21 21
;
_chemical_formula_sum "Si O2"
_cell_formula_units_Z 64
_cell_length_a 9.568416
_cell_length_b 15.192431
_cell_length_c 22.606330
_cell_angle_alpha 90.000000
_cell_angle_beta 90.000000
_cell_angle_gamma 90.000000
_cell_volume 3286.225673
_symmetry_space_group_name_H-M "I 21 21 21"
_symmetry_group_IT_number 24
_symmetry_cell_setting 'orthorhombic'
loop_
_space_group_symop_operation_xyz
x,y,z
-x,1/2-y,z
x,-y,1/2-z
1/2-x,y,-z
1/2+x,1/2+y,1/2+z
1/2-x,-y,1/2+z
1/2+x,1/2-y,-z
-x,1/2+y,1/2-z
loop_
_atom_site_type_symbol
_atom_site_label
_atom_site_fract_x
_atom_site_fract_y
_atom_site_fract_z
Si Si1 0.092655 0.870760 0.758147
Si Si2 0.635522 0.599043 0.460470
Si Si3 0.629712 0.932028 0.540312
Si Si4 0.961086 0.500218 0.150562
Si Si5 0.978568 0.142156 0.250179
Si Si6 0.200932 0.700654 0.725695
Si Si7 0.826552 0.245858 0.098829
Si Si8 0.352822 0.993092 0.347918
O O1 0.184916 0.784954 0.767890
O O2 0.074573 0.923027 0.818623
O O3 0.949992 0.842674 0.726481
O O4 0.164771 0.929900 0.708609
O O5 0.750000 0.547756 0.500000
O O6 0.500970 0.607568 0.502603
O O7 0.734748 0.679358 0.435256
O O8 0.573878 0.552670 0.402394
O O9 0.750000 0.976262 0.500000
O O10 0.702813 0.846583 0.567996
O O11 0.565117 0.987764 0.595124
O O12 0.972806 0.411308 0.191444
O O13 0.975659 0.584804 0.193558
O O14 0.802808 0.508256 0.128739
O O15 0.811775 0.132363 0.248847
O O16 0.000000 0.250000 0.250419
O O17 0.259278 0.737288 0.663846
O O18 0.000000 0.250000 0.101184
#
# Coordination Sequence:
#
# PCOD9335839 Si02
#       8
#     8   8   8   8   8   8   8   8
#     4  10  23  37  58  90 122 163 203 260 316 382
#     4  12  24  41  62  89 122 175 217 256 309 382
#     4  12  28  41  60  92 132 172 219 269 320 376
#     4  11  23  41  63  95 128 168 214 267 320 391
#     4  11  22  37  67  94 125 164 211 266 330 382
#     4  11  22  37  58  91 128 160 203 256 326 386
#     4  12  23  39  60  89 131 171 218 254 311 401
#     4  11  21  40  61  82 122 161 215 251 312 372
#
# _framework density 19.475228999999999
#
# number of rings (size 3 to 8) (size 9 to 14) (size 15 to 20)
#    0.000    0.750    5.000    3.750    1.750    3.000 
#    0.000    0.000    0.000    0.000    9.750    0.000 
#    0.000    0.000    0.000    0.000    0.000    0.000 
#
# Total GULP energy -178212.822576 kJ/mol
# GULP energy per Si atom -5569.150706 kJ/mol
# Density = 1.943090 g / cm^3
# Si number density = 19.475229 Si / 1000 Ang^3
#
#
#
# Elastic Constant Matrix: (Units=GPa)
#
#
# Indices 1 2 3 4 5 6 
#
# 1 86.1780 20.4937 26.6643 0.0000 0.0000 0.0000
# 2 20.4937 62.6989 38.6643 0.0000 0.0000 0.0000
# 3 26.6643 38.6643 105.6599 0.0000 0.0000 0.0000
# 4 0.0000 0.0000 0.0000 14.3550 0.0000 0.0000
# 5 0.0000 0.0000 0.0000 0.0000 34.6322 0.0000
# 6 0.0000 0.0000 0.0000 0.0000 0.0000 12.7356
#
#
#
# Elastic Compliance Matrix: (Units=1/GPa)
#
#
# Indices 1 2 3 4 5 6 
#
# 1 0.012974 -0.002869 -0.002224 0.000000 0.000000 0.000000
# 2 -0.002869 0.021232 -0.007045 0.000000 0.000000 0.000000
# 3 -0.002224 -0.007045 0.012604 0.000000 0.000000 0.000000
# 4 0.000000 0.000000 0.000000 0.069662 0.000000 0.000000
# 5 0.000000 0.000000 0.000000 0.000000 0.028875 0.000000
# 6 0.000000 0.000000 0.000000 0.000000 0.000000 0.078520
#
#
# Mechanical properties :
#
#
# Convention : Reuss Voigt Hill
#
# Bulk Modulus (GPa) = 44.38066 47.35349 45.86707
# Shear Modulus (GPa) = 19.55763 23.59221 21.57492
#
# Velocity S-wave (km/s) = 3.17240 3.48429 3.33199
# Velocity P-wave (km/s) = 6.02134 6.36824 6.19722
#
# Compressibility (1/GPa) = 0.02253234
#
# Stress axis : x y z
#
# Youngs Moduli (GPa) = 77.07480 47.09949 79.34150
#
# Poissons Ratio (x) = 0.13514 0.17648
# Poissons Ratio (y) = 0.22114 0.55898
# Poissons Ratio (z) = 0.17144 0.33183
#
# Static dielectric constant tensor:
#      x y z
#    x 1.778900 0.000000 0.000000 
#    y 0.000000 1.728500 0.000000 
#    z 0.000000 0.000000 1.740110 
# 
# From -- ./inp_files/35288.got.cif
#   From: 2010.05.17/outbox.cif.g08.bks.cpg/sg24_18_cif.got.tgz:35288.got - 2010.06.04 00:33:39.
