data_PCOD9335460
_publ_section_title
;
Structure prediction by ZEFSAII (Michael W. Deem and Ramdas Pophale) SiO2 
 PCOD9335460
Probable space group: I 21 21 21
;
_chemical_formula_sum "Si O2"
_cell_formula_units_Z 48
_cell_length_a 17.916427
_cell_length_b 13.885435
_cell_length_c 9.054674
_cell_angle_alpha 90.000000
_cell_angle_beta 90.000000
_cell_angle_gamma 90.000000
_cell_volume 2252.598097
_symmetry_space_group_name_H-M "I 21 21 21"
_symmetry_group_IT_number 24
_symmetry_cell_setting 'orthorhombic'
loop_
_space_group_symop_operation_xyz
x,y,z
-x,1/2-y,z
x,-y,1/2-z
1/2-x,y,-z
1/2+x,1/2+y,1/2+z
1/2-x,-y,1/2+z
1/2+x,1/2-y,-z
-x,1/2+y,1/2-z
loop_
_atom_site_type_symbol
_atom_site_label
_atom_site_fract_x
_atom_site_fract_y
_atom_site_fract_z
Si Si1 0.140990 0.219647 0.566225
Si Si2 0.750000 0.221202 0.000000
Si Si3 0.345461 0.608897 0.267718
Si Si4 0.474455 0.888535 0.266434
Si Si5 0.750000 0.562676 0.000000
Si Si6 0.372794 0.787734 0.719815
Si Si7 0.500000 0.250000 0.972478
Si Si8 0.857884 0.500000 0.250000
O O1 0.171718 0.316260 0.638409
O O2 0.065981 0.177405 0.643062
O O3 0.199212 0.134022 0.596001
O O4 0.135337 0.236968 0.391692
O O5 0.690625 0.155763 0.087837
O O6 0.797490 0.279719 0.122395
O O7 0.318712 0.500000 0.250000
O O8 0.435664 0.607998 0.262157
O O9 0.463854 0.831560 0.421101
O O10 0.448428 0.000000 0.250000
O O11 0.805220 0.507907 0.106888
O O12 0.433211 0.722299 0.636808
O O13 0.399929 0.899388 0.730099
#
# Coordination Sequence:
#
# PCOD9335460 Si02
#       8
#     8   4   8   8   4   8   4   4
#     4  11  23  44  67 101 137 179 223 285 343 403
#     4  12  23  47  68  98 140 180 224 294 340 406
#     4  11  24  44  71  96 132 182 237 282 347 407
#     4  11  24  43  71  97 133 182 227 281 344 409
#     4  10  23  37  64  98 134 172 216 274 338 408
#     4  11  26  41  70  99 144 178 225 285 341 412
#     4  12  24  44  68 104 136 182 226 278 348 406
#     4  10  22  40  60 100 132 172 220 266 336 410
#
# _framework density 21.308727999999999
#
# number of rings (size 3 to 8) (size 9 to 14) (size 15 to 20)
#    0.000    1.000    3.333    2.500    8.167    2.000 
#    0.000    0.000    1.833    0.000    0.000    0.000 
#    0.000    0.000    0.000    0.000    0.000    0.000 
#
# Total GULP energy -133871.917078 kJ/mol
# GULP energy per Si atom -5577.996545 kJ/mol
# Density = 2.126023 g / cm^3
# Si number density = 21.308728 Si / 1000 Ang^3
#
#
#
# Elastic Constant Matrix: (Units=GPa)
#
#
# Indices 1 2 3 4 5 6 
#
# 1 73.3880 11.1052 30.6563 0.0000 0.0000 0.0000
# 2 11.1052 135.3960 56.8798 0.0000 0.0000 0.0000
# 3 30.6563 56.8798 152.0942 0.0000 0.0000 0.0000
# 4 0.0000 0.0000 0.0000 25.0287 0.0000 0.0000
# 5 0.0000 0.0000 0.0000 0.0000 28.4201 0.0000
# 6 0.0000 0.0000 0.0000 0.0000 0.0000 557.7686
#
#
#
# Elastic Compliance Matrix: (Units=1/GPa)
#
#
# Indices 1 2 3 4 5 6 
#
# 1 0.014879 0.000047 -0.003017 0.000000 0.000000 0.000000
# 2 0.000047 0.008763 -0.003286 0.000000 0.000000 0.000000
# 3 -0.003017 -0.003286 0.008412 0.000000 0.000000 0.000000
# 4 0.000000 0.000000 0.000000 0.039954 0.000000 0.000000
# 5 0.000000 0.000000 0.000000 0.000000 0.035186 0.000000
# 6 0.000000 0.000000 0.000000 0.000000 0.000000 0.001793
#
#
# Mechanical properties :
#
#
# Convention : Reuss Voigt Hill
#
# Bulk Modulus (GPa) = 51.17343 62.01787 56.59565
# Shear Modulus (GPa) = 39.05846 139.72594 89.39220
#
# Velocity S-wave (km/s) = 4.28598 8.10645 6.48398
# Velocity P-wave (km/s) = 6.96851 10.80680 9.09250
#
# Compressibility (1/GPa) = 0.01954139
#
# Stress axis : x y z
#
# Youngs Moduli (GPa) = 67.20774 114.12232 118.87842
#
# Poissons Ratio (x) = -0.00535 0.35861
# Poissons Ratio (y) = -0.00315 0.39069
# Poissons Ratio (z) = 0.20274 0.37506
#
# Static dielectric constant tensor:
#      x y z
#    x 1.825770 0.000000 0.000000 
#    y 0.000000 1.804060 0.000000 
#    z 0.000000 0.000000 1.763140 
# 
# From -- ./inp_files/12887.got.cif
#   From: 2010.05.17/outbox.cif.g08.bks.cpg/sg24_7_cif.got.tgz:12887.got - 2010.06.04 00:33:39.
