data_PCOD9335537
_publ_section_title
;
Structure prediction by ZEFSAII (Michael W. Deem and Ramdas Pophale) SiO2 
 PCOD9335537
Probable space group: I 21 21 21
;
_chemical_formula_sum "Si O2"
_cell_formula_units_Z 48
_cell_length_a 25.098426
_cell_length_b 17.094814
_cell_length_c 5.217534
_cell_angle_alpha 90.000000
_cell_angle_beta 90.000000
_cell_angle_gamma 90.000000
_cell_volume 2238.598220
_symmetry_space_group_name_H-M "I 21 21 21"
_symmetry_group_IT_number 24
_symmetry_cell_setting 'orthorhombic'
loop_
_space_group_symop_operation_xyz
x,y,z
-x,1/2-y,z
x,-y,1/2-z
1/2-x,y,-z
1/2+x,1/2+y,1/2+z
1/2-x,-y,1/2+z
1/2+x,1/2-y,-z
-x,1/2+y,1/2-z
loop_
_atom_site_type_symbol
_atom_site_label
_atom_site_fract_x
_atom_site_fract_y
_atom_site_fract_z
Si Si1 0.213963 0.500000 0.250000
Si Si2 0.850544 0.157062 0.350887
Si Si3 0.118790 0.909492 0.158240
Si Si4 0.418383 0.303331 0.147493
Si Si5 0.782793 0.694169 0.237530
Si Si6 0.586152 0.500000 0.250000
Si Si7 0.964198 0.358746 0.995941
O O1 0.250000 0.521008 0.500000
O O2 0.177220 0.427253 0.337064
O O3 0.892529 0.168943 0.584318
O O4 0.805455 0.223663 0.367753
O O5 0.878363 0.174612 0.079708
O O6 0.166123 0.860917 0.275755
O O7 0.063492 0.864446 0.222168
O O8 0.119499 0.000000 0.250000
O O9 0.122293 0.930323 0.861025
O O10 0.474722 0.340240 0.058852
O O11 0.431430 0.210750 0.142761
O O12 0.750000 0.702881 0.500000
O O13 0.750000 0.659179 0.000000
O O14 0.546263 0.447294 0.086765
#
# Coordination Sequence:
#
# PCOD9335537 Si02
#       7
#     4   8   8   8   8   4   8
#     4  12  26  48  75 100 142 187 238 304 378 424
#     4  12  25  46  69 104 140 179 239 298 356 432
#     4  10  23  42  66  96 141 181 232 283 351 421
#     4  11  25  42  74 100 143 183 237 289 354 431
#     4  12  26  43  71  98 135 183 241 293 355 424
#     4  10  22  40  71  94 148 179 232 280 362 420
#     4  10  23  41  67 103 138 191 228 285 354 433
#
# _framework density 21.441990000000001
#
# number of rings (size 3 to 8) (size 9 to 14) (size 15 to 20)
#    0.000    1.000    1.667    4.000    7.000    3.333 
#    1.500    0.000    0.000    0.000    0.000    0.000 
#    0.000    0.000    0.000    0.000    0.000    0.000 
#
# Total GULP energy -133692.958183 kJ/mol
# GULP energy per Si atom -5570.539924 kJ/mol
# Density = 2.139319 g / cm^3
# Si number density = 21.441990 Si / 1000 Ang^3
#
#
#
# Elastic Constant Matrix: (Units=GPa)
#
#
# Indices 1 2 3 4 5 6 
#
# 1 109.3512 45.8795 38.6620 0.0000 0.0000 0.0000
# 2 45.8795 109.4822 14.4507 0.0000 0.0000 0.0000
# 3 38.6620 14.4507 91.1428 0.0000 0.0000 0.0000
# 4 0.0000 0.0000 0.0000 31.1149 0.0000 0.0000
# 5 0.0000 0.0000 0.0000 0.0000 29.3167 0.0000
# 6 0.0000 0.0000 0.0000 0.0000 0.0000 -0.2458
#
#
#
# Elastic Compliance Matrix: (Units=1/GPa)
#
#
# Indices 1 2 3 4 5 6 
#
# 1 0.012786 -0.004741 -0.004672 0.000000 0.000000 0.000000
# 2 -0.004741 0.011087 0.000253 0.000000 0.000000 0.000000
# 3 -0.004672 0.000253 0.012913 0.000000 0.000000 0.000000
# 4 0.000000 0.000000 0.000000 0.032139 0.000000 0.000000
# 5 0.000000 0.000000 0.000000 0.000000 0.034110 0.000000
# 6 0.000000 0.000000 0.000000 0.000000 0.000000 -4.069142
#
#
# Mechanical properties :
#
#
# Convention : Reuss Voigt Hill
#
# Bulk Modulus (GPa) = 54.15127 56.44005 55.29566
# Shear Modulus (GPa) = -1.26851 26.10277 12.41713
#
# Velocity S-wave (km/s) = -0.76999 3.49286 2.40907
# Velocity P-wave (km/s) = 4.95168 6.53040 5.79505
#
# Compressibility (1/GPa) = 0.01846679
#
# Stress axis : x y z
#
# Youngs Moduli (GPa) = 78.21077 90.19249 77.43881
#
# Poissons Ratio (x) = 0.42764 0.36179
# Poissons Ratio (y) = 0.37083 -0.01962
# Poissons Ratio (z) = 0.36540 -0.02285
#
# Static dielectric constant tensor:
#      x y z
#    x 1.825410 0.000000 0.000000 
#    y 0.000000 1.757070 0.000000 
#    z 0.000000 0.000000 2.627910 
# 
# From -- ./inp_files/6434.got.cif
#   From: 2010.05.17/outbox.cif.g08.bks.cpg/sg24_4_cif.got.tgz:6434.got - 2010.06.04 00:33:39.
