data_PCOD9335926
_publ_section_title
;
Structure prediction by ZEFSAII (Michael W. Deem and Ramdas Pophale) SiO2 
 PCOD9335926
Probable space group: I 21 21 21
;
_chemical_formula_sum "Si O2"
_cell_formula_units_Z 40
_cell_length_a 15.078185
_cell_length_b 12.945013
_cell_length_c 8.674078
_cell_angle_alpha 90.000000
_cell_angle_beta 90.000000
_cell_angle_gamma 90.000000
_cell_volume 1693.069872
_symmetry_space_group_name_H-M "I 21 21 21"
_symmetry_group_IT_number 24
_symmetry_cell_setting 'orthorhombic'
loop_
_space_group_symop_operation_xyz
x,y,z
-x,1/2-y,z
x,-y,1/2-z
1/2-x,y,-z
1/2+x,1/2+y,1/2+z
1/2-x,-y,1/2+z
1/2+x,1/2-y,-z
-x,1/2+y,1/2-z
loop_
_atom_site_type_symbol
_atom_site_label
_atom_site_fract_x
_atom_site_fract_y
_atom_site_fract_z
Si Si1 0.298154 0.925742 0.140939
Si Si2 0.136595 0.813221 0.299188
Si Si3 0.496640 0.500000 0.750000
Si Si4 0.610291 0.009322 0.417888
Si Si5 0.399100 0.730754 0.015047
Si Si6 0.750000 0.161484 0.000000
O O1 0.222080 0.876219 0.243708
O O2 0.350345 0.832545 0.069754
O O3 0.352743 0.000000 0.250000
O O4 0.250000 0.982531 0.000000
O O5 0.059484 0.900467 0.290754
O O6 0.174748 0.740488 0.433842
O O7 0.108689 0.731423 0.168537
O O8 0.442357 0.492569 0.585168
O O9 0.686486 0.922241 0.413723
O O10 0.562101 0.000000 0.250000
O O11 0.643347 0.127669 0.420031
O O12 0.500000 0.750000 0.061867
#
# Coordination Sequence:
#
# PCOD9335926 Si02
#       6
#     8   8   4   8   8   4
#     4  10  23  42  73 108 147 197 262 331 403 485
#     4  11  25  50  77 118 152 221 267 348 426 500
#     4  12  26  56  90 110 174 214 282 358 432 496
#     4  12  29  51  77 126 158 221 278 341 418 519
#     4  11  24  48  76 109 164 214 264 338 427 495
#     4  12  30  46  86 116 170 210 290 344 416 528
#
# _framework density 23.625723000000001
#
# number of rings (size 3 to 8) (size 9 to 14) (size 15 to 20)
#    0.000    0.800    3.000    2.400    9.800    0.800 
#    7.200    0.000    0.000    0.000    0.000    0.000 
#    0.000    0.000    0.000    0.000    0.000    0.000 
#
# Total GULP energy -111385.449853 kJ/mol
# GULP energy per Si atom -5569.272493 kJ/mol
# Density = 2.357195 g / cm^3
# Si number density = 23.625723 Si / 1000 Ang^3
#
#
#
# Elastic Constant Matrix: (Units=GPa)
#
#
# Indices 1 2 3 4 5 6 
#
# 1 90.3773 26.7342 48.4556 0.0000 0.0000 0.0000
# 2 26.7342 127.1526 69.0815 0.0000 0.0000 0.0000
# 3 48.4556 69.0815 126.1146 0.0000 0.0000 0.0000
# 4 0.0000 0.0000 0.0000 32.3061 0.0000 0.0000
# 5 0.0000 0.0000 0.0000 0.0000 12.1638 0.0000
# 6 0.0000 0.0000 0.0000 0.0000 0.0000 20.1171
#
#
#
# Elastic Compliance Matrix: (Units=1/GPa)
#
#
# Indices 1 2 3 4 5 6 
#
# 1 0.013935 -0.000030 -0.005338 0.000000 0.000000 0.000000
# 2 -0.000030 0.011197 -0.006122 0.000000 0.000000 0.000000
# 3 -0.005338 -0.006122 0.013334 0.000000 0.000000 0.000000
# 4 0.000000 0.000000 0.000000 0.030954 0.000000 0.000000
# 5 0.000000 0.000000 0.000000 0.000000 0.082211 0.000000
# 6 0.000000 0.000000 0.000000 0.000000 0.000000 0.049709
#
#
# Mechanical properties :
#
#
# Convention : Reuss Voigt Hill
#
# Bulk Modulus (GPa) = 64.57168 70.24302 67.40735
# Shear Modulus (GPa) = 21.78830 26.20895 23.99862
#
# Velocity S-wave (km/s) = 3.04011 3.33429 3.19059
# Velocity P-wave (km/s) = 6.30186 6.67978 6.49357
#
# Compressibility (1/GPa) = 0.01548666
#
# Stress axis : x y z
#
# Youngs Moduli (GPa) = 71.75936 89.31142 74.99901
#
# Poissons Ratio (x) = 0.00267 0.40034
# Poissons Ratio (y) = 0.00215 0.45912
# Poissons Ratio (z) = 0.38304 0.54674
#
# Static dielectric constant tensor:
#      x y z
#    x 1.930900 0.000000 0.000000 
#    y 0.000000 1.993540 0.000000 
#    z 0.000000 0.000000 2.042270 
# 
# From -- ./inp_files/13858.got.cif
#   From: 2010.05.17/outbox.cif.g08.bks.cpg/sg24_7_cif.got.tgz:13858.got - 2010.06.04 00:33:39.
