data_PCOD9335920
_publ_section_title
;
Structure prediction by ZEFSAII (Michael W. Deem and Ramdas Pophale) SiO2 
 PCOD9335920
Probable space group: I 21 21 21
;
_chemical_formula_sum "Si O2"
_cell_formula_units_Z 44
_cell_length_a 7.936797
_cell_length_b 8.240667
_cell_length_c 30.727302
_cell_angle_alpha 90.000000
_cell_angle_beta 90.000000
_cell_angle_gamma 90.000000
_cell_volume 2009.703858
_symmetry_space_group_name_H-M "I 21 21 21"
_symmetry_group_IT_number 24
_symmetry_cell_setting 'orthorhombic'
loop_
_space_group_symop_operation_xyz
x,y,z
-x,1/2-y,z
x,-y,1/2-z
1/2-x,y,-z
1/2+x,1/2+y,1/2+z
1/2-x,-y,1/2+z
1/2+x,1/2-y,-z
-x,1/2+y,1/2-z
loop_
_atom_site_type_symbol
_atom_site_label
_atom_site_fract_x
_atom_site_fract_y
_atom_site_fract_z
Si Si1 0.914791 0.070835 0.613594
Si Si2 0.189411 0.247307 0.328977
Si Si3 0.500000 0.750000 0.688389
Si Si4 0.726975 0.441055 0.879286
Si Si5 0.191645 0.691778 0.549222
Si Si6 0.331103 0.685609 0.258735
O O1 0.779274 0.094664 0.651563
O O2 0.000000 0.250000 0.604461
O O3 0.818460 0.979162 0.574792
O O4 0.070763 0.955921 0.627462
O O5 0.301912 0.210874 0.286261
O O6 0.000000 0.250000 0.312874
O O7 0.181113 0.129434 0.371302
O O8 0.608110 0.634969 0.657054
O O9 0.349112 0.683015 0.717737
O O10 0.710717 0.330484 0.922520
O O11 0.250000 0.675164 0.500000
O O12 0.000000 0.750000 0.546971
O O13 0.500000 0.750000 0.281485
O O14 0.369104 0.500000 0.250000
#
# Coordination Sequence:
#
# PCOD9335920 Si02
#       6
#     8   8   4   8   8   8
#     4   9  21  44  69  96 135 187 227 287 361 423
#     4  11  23  44  68  97 141 184 243 288 351 426
#     4  12  28  44  74 100 142 180 254 280 362 420
#     4  10  24  43  68  97 133 180 227 294 348 427
#     4  10  23  42  70 101 136 172 228 288 356 432
#     4  12  29  45  68 100 143 190 237 301 348 417
#
# _framework density 21.893771000000001
#
# number of rings (size 3 to 8) (size 9 to 14) (size 15 to 20)
#    0.000    1.455    0.909    2.727   11.455    0.727 
#    0.000    9.091    0.000    0.000    0.000    0.000 
#    0.000    0.000    0.000    0.000    0.000    0.000 
#
# Total GULP energy -122480.067736 kJ/mol
# GULP energy per Si atom -5567.275806 kJ/mol
# Density = 2.184394 g / cm^3
# Si number density = 21.893771 Si / 1000 Ang^3
#
#
#
# Elastic Constant Matrix: (Units=GPa)
#
#
# Indices 1 2 3 4 5 6 
#
# 1 116.4760 46.7290 46.4279 0.0000 0.0000 0.0000
# 2 46.7290 74.2430 44.5391 0.0000 0.0000 0.0000
# 3 46.4279 44.5391 118.8216 0.0000 0.0000 0.0000
# 4 0.0000 0.0000 0.0000 31.3692 0.0000 0.0000
# 5 0.0000 0.0000 0.0000 0.0000 25.4859 0.0000
# 6 0.0000 0.0000 0.0000 0.0000 0.0000 26.4255
#
#
#
# Elastic Compliance Matrix: (Units=1/GPa)
#
#
# Indices 1 2 3 4 5 6 
#
# 1 0.011992 -0.006111 -0.002395 0.000000 0.000000 0.000000
# 2 -0.006111 0.020491 -0.005293 0.000000 0.000000 0.000000
# 3 -0.002395 -0.005293 0.011336 0.000000 0.000000 0.000000
# 4 0.000000 0.000000 0.000000 0.031878 0.000000 0.000000
# 5 0.000000 0.000000 0.000000 0.000000 0.039237 0.000000
# 6 0.000000 0.000000 0.000000 0.000000 0.000000 0.037842
#
#
# Mechanical properties :
#
#
# Convention : Reuss Voigt Hill
#
# Bulk Modulus (GPa) = 61.65017 64.99252 63.32135
# Shear Modulus (GPa) = 26.91336 28.11242 27.51289
#
# Velocity S-wave (km/s) = 3.50990 3.58723 3.54878
# Velocity P-wave (km/s) = 6.68175 6.84891 6.76584
#
# Compressibility (1/GPa) = 0.01622056
#
# Stress axis : x y z
#
# Youngs Moduli (GPa) = 83.39063 48.80222 88.21574
#
# Poissons Ratio (x) = 0.29823 0.21128
# Poissons Ratio (y) = 0.50959 0.46693
# Poissons Ratio (z) = 0.19972 0.25831
#
# Static dielectric constant tensor:
#      x y z
#    x 1.753840 0.000000 0.000000 
#    y 0.000000 2.014910 0.000000 
#    z 0.000000 0.000000 1.815500 
# 
# From -- ./inp_files/38217.got.cif
#   From: 2010.05.17/outbox.cif.g08.bks.cpg/sg24_20_cif.got.tgz:38217.got - 2010.06.04 00:33:39.
