data_PCOD9335885
_publ_section_title
;
Structure prediction by ZEFSAII (Michael W. Deem and Ramdas Pophale) SiO2 
 PCOD9335885
Probable space group: I 21 21 21
;
_chemical_formula_sum "Si O2"
_cell_formula_units_Z 32
_cell_length_a 28.633495
_cell_length_b 9.507615
_cell_length_c 4.889702
_cell_angle_alpha 90.000000
_cell_angle_beta 90.000000
_cell_angle_gamma 90.000000
_cell_volume 1331.154119
_symmetry_space_group_name_H-M "I 21 21 21"
_symmetry_group_IT_number 24
_symmetry_cell_setting 'orthorhombic'
loop_
_space_group_symop_operation_xyz
x,y,z
-x,1/2-y,z
x,-y,1/2-z
1/2-x,y,-z
1/2+x,1/2+y,1/2+z
1/2-x,-y,1/2+z
1/2+x,1/2-y,-z
-x,1/2+y,1/2-z
loop_
_atom_site_type_symbol
_atom_site_label
_atom_site_fract_x
_atom_site_fract_y
_atom_site_fract_z
Si Si1 0.570313 0.127806 0.539202
Si Si2 0.201663 0.162378 0.176997
Si Si3 0.967826 0.410609 0.511851
Si Si4 0.672216 0.843624 0.194595
O O1 0.563340 0.289141 0.626029
O O2 0.520571 0.124134 0.377980
O O3 0.618937 0.129176 0.387103
O O4 0.573531 0.000000 0.750000
O O5 0.197971 0.255961 0.453383
O O6 0.190434 0.000000 0.250000
O O7 0.250000 0.158845 0.000000
O O8 0.170056 0.247410 0.963466
O O9 0.979681 0.500000 0.250000
O O10 0.943697 0.500000 0.750000
O O11 0.693537 0.000000 0.250000
#
# Coordination Sequence:
#
# PCOD9335885 Si02
#       4
#     8   8   8   8
#     4  10  23  44  67  97 142 184 226 282 344 398
#     4  12  27  51  76 101 137 180 225 280 348 415
#     4  10  23  41  66  97 134 184 237 283 331 396
#     4  12  26  45  73 107 141 180 227 282 344 411
#
# _framework density 24.039290999999999
#
# number of rings (size 3 to 8) (size 9 to 14) (size 15 to 20)
#    0.000    1.000    0.000    6.000    0.000   19.000 
#    0.000    2.500    0.000    0.000    0.000    0.000 
#    0.000    0.000    0.000    0.000    0.000    0.000 
#
# Total GULP energy -89111.342946 kJ/mol
# GULP energy per Si atom -5569.458934 kJ/mol
# Density = 2.398458 g / cm^3
# Si number density = 24.039291 Si / 1000 Ang^3
#
#
#
# Elastic Constant Matrix: (Units=GPa)
#
#
# Indices 1 2 3 4 5 6 
#
# 1 75.2169 77.1795 41.0547 -0.0007 0.0000 -0.0003
# 2 77.1795 192.4440 88.9944 0.0019 0.0057 0.0000
# 3 41.0547 88.9944 141.3553 0.0041 0.0084 0.0003
# 4 -0.0007 0.0019 0.0041 60.9562 0.0064 0.0007
# 5 0.0000 0.0057 0.0084 0.0064 62.1829 0.0011
# 6 -0.0003 0.0000 0.0003 0.0007 0.0011 23.8877
#
#
#
# Elastic Compliance Matrix: (Units=1/GPa)
#
#
# Indices 1 2 3 4 5 6 
#
# 1 0.022739 -0.008557 -0.001217 0.000001 0.000001 0.000000
# 2 -0.008557 0.010550 -0.004157 0.000000 0.000000 0.000000
# 3 -0.001217 -0.004157 0.010045 -0.000001 -0.000001 0.000000
# 4 0.000001 0.000000 -0.000001 0.016405 -0.000002 0.000000
# 5 0.000001 0.000000 -0.000001 -0.000002 0.016082 -0.000001
# 6 0.000000 0.000000 0.000000 0.000000 -0.000001 0.041863
#
#
# Mechanical properties :
#
#
# Convention : Reuss Voigt Hill
#
# Bulk Modulus (GPa) = 64.62981 91.49703 78.06342
# Shear Modulus (GPa) = 33.17769 42.85786 38.01778
#
# Velocity S-wave (km/s) = 3.71906 4.22693 3.98110
# Velocity P-wave (km/s) = 6.73686 7.87189 7.32639
#
# Compressibility (1/GPa) = 0.01547274
#
# Stress axis : x y z
#
# Youngs Moduli (GPa) = 43.97700 94.78315 99.55059
#
# Poissons Ratio (x) = 0.81103 0.12117
# Poissons Ratio (y) = 0.37630 0.41385
# Poissons Ratio (z) = 0.05353 0.39403
#
# Static dielectric constant tensor:
#      x y z
#    x 1.945290 0.000000 0.000000 
#    y 0.000000 2.242740 0.000010 
#    z 0.000000 0.000010 1.946470 
# 
# From -- ./inp_files/7506.got.cif
#   From: 2010.05.17/outbox.cif.g08.bks.cpg/sg24_4_cif.got.tgz:7506.got - 2010.06.04 00:33:39.
