data_PCOD9335279
_publ_section_title
;
Structure prediction by ZEFSAII (Michael W. Deem and Ramdas Pophale) SiO2 
 PCOD9335279
Probable space group: I 21 21 21
;
_chemical_formula_sum "Si O2"
_cell_formula_units_Z 40
_cell_length_a 9.165820
_cell_length_b 10.804295
_cell_length_c 16.521595
_cell_angle_alpha 90.000000
_cell_angle_beta 90.000000
_cell_angle_gamma 90.000000
_cell_volume 1636.137240
_symmetry_space_group_name_H-M "I 21 21 21"
_symmetry_group_IT_number 24
_symmetry_cell_setting 'orthorhombic'
loop_
_space_group_symop_operation_xyz
x,y,z
-x,1/2-y,z
x,-y,1/2-z
1/2-x,y,-z
1/2+x,1/2+y,1/2+z
1/2-x,-y,1/2+z
1/2+x,1/2-y,-z
-x,1/2+y,1/2-z
loop_
_atom_site_type_symbol
_atom_site_label
_atom_site_fract_x
_atom_site_fract_y
_atom_site_fract_z
Si Si1 0.854448 0.686643 0.928451
Si Si2 0.948197 0.431632 0.876671
Si Si3 0.873591 0.847912 0.160852
Si Si4 0.740773 0.798971 0.332308
Si Si5 0.100861 0.432460 0.043332
O O1 0.897831 0.573029 0.870528
O O2 0.769509 0.793751 0.882202
O O3 0.000000 0.750000 0.962375
O O4 0.750000 0.641260 0.000000
O O5 0.167284 0.163871 0.838628
O O6 0.104493 0.394408 0.839420
O O7 0.981390 0.415783 0.973578
O O8 0.830659 0.842061 0.254768
O O9 0.000000 0.750000 0.150145
O O10 0.928185 0.970346 0.115053
O O11 0.843663 0.811274 0.410541
O O12 0.250000 0.479916 0.000000
#
# Coordination Sequence:
#
# PCOD9335279 Si02
#       5
#     8   8   8   8   8
#     4  12  25  44  76 111 149 195 258 316 382 474
#     4  10  23  45  72 106 141 198 255 311 374 478
#     4  12  26  48  72 108 152 196 254 327 397 465
#     4  10  24  47  69 106 150 199 247 317 395 458
#     4  10  21  45  73 102 141 195 247 308 383 466
#
# _framework density 24.447828999999999
#
# number of rings (size 3 to 8) (size 9 to 14) (size 15 to 20)
#    0.000    1.200    0.000    6.600    2.800    4.800 
#   25.200    0.000    0.000    0.000    0.000    0.000 
#    0.000    0.000    0.000    0.000    0.000    0.000 
#
# Total GULP energy -111916.074112 kJ/mol
# GULP energy per Si atom -5595.803706 kJ/mol
# Density = 2.439218 g / cm^3
# Si number density = 24.447829 Si / 1000 Ang^3
#
#
#
# Elastic Constant Matrix: (Units=GPa)
#
#
# Indices 1 2 3 4 5 6 
#
# 1 71.6997 13.0427 12.6135 0.0000 0.0000 0.0000
# 2 13.0427 60.5569 4.9699 0.0000 0.0000 0.0000
# 3 12.6135 4.9699 108.1266 0.0000 0.0000 0.0000
# 4 0.0000 0.0000 0.0000 15.1909 0.0000 0.0000
# 5 0.0000 0.0000 0.0000 0.0000 23.7247 0.0000
# 6 0.0000 0.0000 0.0000 0.0000 0.0000 28.7497
#
#
#
# Elastic Compliance Matrix: (Units=1/GPa)
#
#
# Indices 1 2 3 4 5 6 
#
# 1 0.014781 -0.003054 -0.001584 0.000000 0.000000 0.000000
# 2 -0.003054 0.017207 -0.000435 0.000000 0.000000 0.000000
# 3 -0.001584 -0.000435 0.009453 0.000000 0.000000 0.000000
# 4 0.000000 0.000000 0.000000 0.065829 0.000000 0.000000
# 5 0.000000 0.000000 0.000000 0.000000 0.042150 0.000000
# 6 0.000000 0.000000 0.000000 0.000000 0.000000 0.034783
#
#
# Mechanical properties :
#
#
# Convention : Reuss Voigt Hill
#
# Bulk Modulus (GPa) = 31.95222 33.51505 32.73363
# Shear Modulus (GPa) = 24.41646 27.51686 25.96666
#
# Velocity S-wave (km/s) = 3.16368 3.35854 3.26256
# Velocity P-wave (km/s) = 5.14228 5.36454 5.25458
#
# Compressibility (1/GPa) = 0.03129673
#
# Stress axis : x y z
#
# Youngs Moduli (GPa) = 67.65359 58.11673 105.78462
#
# Poissons Ratio (x) = 0.17746 0.16756
# Poissons Ratio (y) = 0.20658 0.04598
# Poissons Ratio (z) = 0.10716 0.02526
#
# Static dielectric constant tensor:
#      x y z
#    x 2.094510 0.000000 0.000000 
#    y 0.000000 1.960790 0.000000 
#    z 0.000000 0.000000 1.975920 
# 
# From -- ./inp_files/29251.got.cif
#   From: 2010.05.17/outbox.cif.g08.bks.cpg/sg24_15_cif.got.tgz:29251.got - 2010.06.04 00:33:39.
