data_PCOD9335520
_publ_section_title
;
Structure prediction by ZEFSAII (Michael W. Deem and Ramdas Pophale) SiO2 
 PCOD9335520
Probable space group: I 21 21 21
;
_chemical_formula_sum "Si O2"
_cell_formula_units_Z 40
_cell_length_a 8.907658
_cell_length_b 16.105076
_cell_length_c 11.930918
_cell_angle_alpha 90.000000
_cell_angle_beta 90.000000
_cell_angle_gamma 90.000000
_cell_volume 1711.591708
_symmetry_space_group_name_H-M "I 21 21 21"
_symmetry_group_IT_number 24
_symmetry_cell_setting 'orthorhombic'
loop_
_space_group_symop_operation_xyz
x,y,z
-x,1/2-y,z
x,-y,1/2-z
1/2-x,y,-z
1/2+x,1/2+y,1/2+z
1/2-x,-y,1/2+z
1/2+x,1/2-y,-z
-x,1/2+y,1/2-z
loop_
_atom_site_type_symbol
_atom_site_label
_atom_site_fract_x
_atom_site_fract_y
_atom_site_fract_z
Si Si1 0.000000 0.750000 0.667363
Si Si2 0.098459 0.378062 0.178061
Si Si3 0.076777 0.426551 0.821193
Si Si4 0.588363 0.165484 0.563378
Si Si5 0.750000 0.760276 0.500000
Si Si6 0.421663 0.010131 0.963157
O O1 0.048655 0.665548 0.727295
O O2 0.861109 0.720731 0.589617
O O3 0.244872 0.436503 0.170440
O O4 0.100148 0.337448 0.300579
O O5 0.139232 0.311507 0.082090
O O6 0.955067 0.434194 0.147390
O O7 0.008154 0.500000 0.750000
O O8 0.012434 0.439012 0.943378
O O9 0.500000 0.250000 0.531767
O O10 0.750000 0.161970 0.500000
O O11 0.494018 0.081510 0.539276
O O12 0.250000 0.006212 0.000000
#
# Coordination Sequence:
#
# PCOD9335520 Si02
#       6
#     4   8   8   8   4   8
#     4  10  22  40  68 100 144 180 250 308 370 450
#     4  11  22  48  79 103 147 203 254 321 389 450
#     4  11  23  44  71 106 145 202 248 310 388 459
#     4  12  28  51  75 108 157 208 259 315 390 476
#     4  10  22  42  70 112 136 188 248 312 384 434
#     4  12  25  46  74 109 153 197 261 322 383 462
#
# _framework density 23.370059999999999
#
# number of rings (size 3 to 8) (size 9 to 14) (size 15 to 20)
#    0.000    0.800    4.000    4.800    2.800    1.600 
#   27.000    0.000    0.000    0.000    0.000    0.000 
#    0.000    0.000    0.000    0.000    0.000    0.000 
#
# Total GULP energy -111699.380622 kJ/mol
# GULP energy per Si atom -5584.969031 kJ/mol
# Density = 2.331687 g / cm^3
# Si number density = 23.370060 Si / 1000 Ang^3
#
#
#
# Elastic Constant Matrix: (Units=GPa)
#
#
# Indices 1 2 3 4 5 6 
#
# 1 147.5318 47.7273 29.2380 0.0000 0.0000 0.0000
# 2 47.7273 126.8295 38.0856 -0.0001 0.0000 0.0000
# 3 29.2380 38.0856 82.3036 -0.0002 0.0000 0.0000
# 4 0.0000 -0.0001 -0.0002 70.0108 0.0000 0.0000
# 5 0.0000 0.0000 0.0000 0.0000 3.3257 0.0000
# 6 0.0000 0.0000 0.0000 0.0000 0.0000 46.6875
#
#
#
# Elastic Compliance Matrix: (Units=1/GPa)
#
#
# Indices 1 2 3 4 5 6 
#
# 1 0.007909 -0.002477 -0.001664 0.000000 0.000000 0.000000
# 2 -0.002477 0.009933 -0.003716 0.000000 0.000000 0.000000
# 3 -0.001664 -0.003716 0.014461 0.000000 0.000000 0.000000
# 4 0.000000 0.000000 0.000000 0.014284 0.000000 0.000000
# 5 0.000000 0.000000 0.000000 0.000000 0.300686 0.000000
# 6 0.000000 0.000000 0.000000 0.000000 0.000000 0.021419
#
#
# Mechanical properties :
#
#
# Convention : Reuss Voigt Hill
#
# Bulk Modulus (GPa) = 60.28042 65.19632 62.73837
# Shear Modulus (GPa) = 12.82267 40.11241 26.46754
#
# Velocity S-wave (km/s) = 2.34493 4.14744 3.36897
# Velocity P-wave (km/s) = 5.76034 7.13393 6.48361
#
# Compressibility (1/GPa) = 0.01658913
#
# Stress axis : x y z
#
# Youngs Moduli (GPa) = 126.43626 100.67830 69.15210
#
# Poissons Ratio (x) = 0.24935 0.11504
# Poissons Ratio (y) = 0.31315 0.25700
# Poissons Ratio (z) = 0.21034 0.37416
#
# Static dielectric constant tensor:
#      x y z
#    x 1.877850 0.000000 0.000000 
#    y 0.000000 1.936760 0.000000 
#    z 0.000000 0.000000 1.974230 
# 
# From -- ./inp_files/18254.got.cif
#   From: 2010.05.17/outbox.cif.g08.bks.cpg/sg24_10_cif.got.tgz:18254.got - 2010.06.04 00:33:39.
