data_PCOD9335398
_publ_section_title
;
Structure prediction by ZEFSAII (Michael W. Deem and Ramdas Pophale) SiO2 
 PCOD9335398
Probable space group: I 21 21 21
;
_chemical_formula_sum "Si O2"
_cell_formula_units_Z 64
_cell_length_a 19.993246
_cell_length_b 11.379902
_cell_length_c 13.679169
_cell_angle_alpha 90.000000
_cell_angle_beta 90.000000
_cell_angle_gamma 90.000000
_cell_volume 3112.300674
_symmetry_space_group_name_H-M "I 21 21 21"
_symmetry_group_IT_number 24
_symmetry_cell_setting 'orthorhombic'
loop_
_space_group_symop_operation_xyz
x,y,z
-x,1/2-y,z
x,-y,1/2-z
1/2-x,y,-z
1/2+x,1/2+y,1/2+z
1/2-x,-y,1/2+z
1/2+x,1/2-y,-z
-x,1/2+y,1/2-z
loop_
_atom_site_type_symbol
_atom_site_label
_atom_site_fract_x
_atom_site_fract_y
_atom_site_fract_z
Si Si1 0.810959 0.978843 0.578527
Si Si2 0.697511 0.530942 0.633990
Si Si3 0.667525 0.586403 0.162644
Si Si4 0.070551 0.517349 0.433753
Si Si5 0.425483 0.921966 0.983022
Si Si6 0.930505 0.778383 0.167474
Si Si7 0.343746 0.718485 0.661394
Si Si8 0.289503 0.336437 0.249675
O O1 0.750000 0.958392 0.500000
O O2 0.876083 0.013013 0.517263
O O3 0.830797 0.872372 0.652458
O O4 0.795140 0.081671 0.655549
O O5 0.693716 0.500000 0.750000
O O6 0.768914 0.473210 0.607898
O O7 0.633217 0.480468 0.580086
O O8 0.692037 0.670414 0.611959
O O9 0.648667 0.500000 0.250000
O O10 0.693590 0.707159 0.211516
O O11 0.605146 0.597021 0.089945
O O12 0.077669 0.415874 0.351883
O O13 0.099921 0.641810 0.393635
O O14 0.994075 0.497593 0.470850
O O15 0.433557 0.794983 0.932084
O O16 0.875358 0.731403 0.239626
O O17 0.000000 0.750000 0.219253
O O18 0.283573 0.641472 0.703091
#
# Coordination Sequence:
#
# PCOD9335398 Si02
#       8
#     8   8   8   8   8   8   8   8
#     4  11  23  41  65 100 136 176 227 292 345 416
#     4  11  22  40  66  97 130 168 222 281 348 412
#     4  11  23  45  67  97 128 181 242 293 337 408
#     4  11  25  41  64  98 139 179 219 277 352 421
#     4  11  24  43  69  96 137 180 226 279 350 421
#     4  10  22  38  64  97 131 174 214 267 339 421
#     4  12  22  39  65  98 136 168 220 276 346 415
#     4  11  23  41  69  95 128 180 233 284 351 400
#
# _framework density 20.563566000000002
#
# number of rings (size 3 to 8) (size 9 to 14) (size 15 to 20)
#    0.000    1.000    5.000    2.250    3.500    2.000 
#    4.500    0.000    0.000    0.000    0.000    0.000 
#    0.000    0.000    0.000    0.000    0.000    0.000 
#
# Total GULP energy -178327.739070 kJ/mol
# GULP energy per Si atom -5572.741846 kJ/mol
# Density = 2.051676 g / cm^3
# Si number density = 20.563566 Si / 1000 Ang^3
#
#
#
# Elastic Constant Matrix: (Units=GPa)
#
#
# Indices 1 2 3 4 5 6 
#
# 1 88.4380 19.4319 22.2779 0.0000 0.0000 0.0000
# 2 19.4319 116.5118 23.6060 0.0000 0.0000 0.0000
# 3 22.2779 23.6060 82.1466 0.0000 0.0000 0.0000
# 4 0.0000 0.0000 0.0000 30.7966 0.0000 0.0000
# 5 0.0000 0.0000 0.0000 0.0000 37.8878 0.0000
# 6 0.0000 0.0000 0.0000 0.0000 0.0000 27.4206
#
#
#
# Elastic Compliance Matrix: (Units=1/GPa)
#
#
# Indices 1 2 3 4 5 6 
#
# 1 0.012369 -0.001469 -0.002932 0.000000 0.000000 0.000000
# 2 -0.001469 0.009288 -0.002271 0.000000 0.000000 0.000000
# 3 -0.002932 -0.002271 0.013621 0.000000 0.000000 0.000000
# 4 0.000000 0.000000 0.000000 0.032471 0.000000 0.000000
# 5 0.000000 0.000000 0.000000 0.000000 0.026394 0.000000
# 6 0.000000 0.000000 0.000000 0.000000 0.000000 0.036469
#
#
# Mechanical properties :
#
#
# Convention : Reuss Voigt Hill
#
# Bulk Modulus (GPa) = 45.59086 46.41422 46.00254
# Shear Modulus (GPa) = 33.05431 34.00638 33.53034
#
# Velocity S-wave (km/s) = 4.01361 4.07101 4.04241
# Velocity P-wave (km/s) = 6.61042 6.68712 6.64888
#
# Compressibility (1/GPa) = 0.02193422
#
# Stress axis : x y z
#
# Youngs Moduli (GPa) = 80.84902 107.66776 73.41553
#
# Poissons Ratio (x) = 0.15814 0.21528
# Poissons Ratio (y) = 0.11875 0.16670
# Poissons Ratio (z) = 0.23707 0.24448
#
# Static dielectric constant tensor:
#      x y z
#    x 1.637070 0.000000 0.000000 
#    y 0.000000 1.719600 0.000000 
#    z 0.000000 0.000000 1.770130 
# 
# From -- ./inp_files/27223.got.cif
#   From: 2010.05.17/outbox.cif.g08.bks.cpg/sg24_14_cif.got.tgz:27223.got - 2010.06.04 00:33:39.
