data_PCOD9335001
_publ_section_title
;
Structure prediction by ZEFSAII (Michael W. Deem and Ramdas Pophale) SiO2 
 PCOD9335001
Probable space group: I 21 21 21
;
_chemical_formula_sum "Si O2"
_cell_formula_units_Z 44
_cell_length_a 17.072325
_cell_length_b 8.865580
_cell_length_c 14.193025
_cell_angle_alpha 90.000000
_cell_angle_beta 90.000000
_cell_angle_gamma 90.000000
_cell_volume 2148.200387
_symmetry_space_group_name_H-M "I 21 21 21"
_symmetry_group_IT_number 24
_symmetry_cell_setting 'orthorhombic'
loop_
_space_group_symop_operation_xyz
x,y,z
-x,1/2-y,z
x,-y,1/2-z
1/2-x,y,-z
1/2+x,1/2+y,1/2+z
1/2-x,-y,1/2+z
1/2+x,1/2-y,-z
-x,1/2+y,1/2-z
loop_
_atom_site_type_symbol
_atom_site_label
_atom_site_fract_x
_atom_site_fract_y
_atom_site_fract_z
Si Si1 0.750000 0.542716 0.000000
Si Si2 0.102453 0.583234 0.599862
Si Si3 0.639819 0.732038 0.130538
Si Si4 0.500000 0.250000 0.945768
Si Si5 0.753391 0.835734 0.705529
Si Si6 0.137513 0.103381 0.157037
Si Si7 0.000000 0.250000 0.743592
O O1 0.817630 0.643398 0.951576
O O2 0.702190 0.454697 0.918672
O O3 0.115447 0.403144 0.601652
O O4 0.058794 0.652895 0.511110
O O5 0.188600 0.653354 0.616536
O O6 0.051693 0.642553 0.689443
O O7 0.702075 0.738127 0.215580
O O8 0.560985 0.663983 0.175510
O O9 0.446988 0.132751 0.887814
O O10 0.670353 0.766517 0.685567
O O11 0.748091 0.000000 0.750000
O O12 0.135393 0.000000 0.250000
#
# Coordination Sequence:
#
# PCOD9335001 Si02
#       7
#     4   8   8   4   8   8   4
#     4  12  26  44  72 100 138 180 230 288 344 420
#     4   9  20  41  67 104 130 175 231 285 351 403
#     4  10  21  39  65 104 136 176 222 285 347 407
#     4  11  26  44  65  94 142 184 231 276 335 420
#     4   9  19  42  73  97 130 171 228 283 343 408
#     4  12  26  48  67 101 136 185 229 281 347 405
#     4   9  18  36  65 104 138 168 217 290 355 392
#
# _framework density 20.482258999999999
#
# number of rings (size 3 to 8) (size 9 to 14) (size 15 to 20)
#    0.000    1.818    1.818    2.727    2.545    3.636 
#    9.818    0.000    0.000    0.000    0.000    0.000 
#    0.000    0.000    0.000    0.000    0.000    0.000 
#
# Total GULP energy -122834.167115 kJ/mol
# GULP energy per Si atom -5583.371232 kJ/mol
# Density = 2.043564 g / cm^3
# Si number density = 20.482259 Si / 1000 Ang^3
#
#
#
# Elastic Constant Matrix: (Units=GPa)
#
#
# Indices 1 2 3 4 5 6 
#
# 1 86.9048 40.9022 53.2334 0.0000 0.0000 0.0000
# 2 40.9022 39.8853 28.5814 0.0000 0.0000 0.0000
# 3 53.2334 28.5814 101.4319 0.0000 0.0000 0.0000
# 4 0.0000 0.0000 0.0000 16.1036 0.0000 0.0000
# 5 0.0000 0.0000 0.0000 0.0000 36.2179 0.0000
# 6 0.0000 0.0000 0.0000 0.0000 0.0000 39.3779
#
#
#
# Elastic Compliance Matrix: (Units=1/GPa)
#
#
# Indices 1 2 3 4 5 6 
#
# 1 0.026392 -0.021476 -0.007800 0.000000 0.000000 0.000000
# 2 -0.021476 0.048891 -0.002505 0.000000 0.000000 0.000000
# 3 -0.007800 -0.002505 0.014658 0.000000 0.000000 0.000000
# 4 0.000000 0.000000 0.000000 0.062098 0.000000 0.000000
# 5 0.000000 0.000000 0.000000 0.000000 0.027611 0.000000
# 6 0.000000 0.000000 0.000000 0.000000 0.000000 0.025395
#
#
# Mechanical properties :
#
#
# Convention : Reuss Voigt Hill
#
# Bulk Modulus (GPa) = 37.90876 52.62844 45.26860
# Shear Modulus (GPa) = 18.02450 25.37354 21.69902
#
# Velocity S-wave (km/s) = 2.96971 3.52349 3.25838
# Velocity P-wave (km/s) = 5.50519 6.50413 6.02540
#
# Compressibility (1/GPa) = 0.02637913
#
# Stress axis : x y z
#
# Youngs Moduli (GPa) = 37.88980 20.45377 68.22113
#
# Poissons Ratio (x) = 0.43927 0.53210
# Poissons Ratio (y) = 0.81372 0.17092
# Poissons Ratio (z) = 0.29553 0.05124
#
# Static dielectric constant tensor:
#      x y z
#    x 1.718600 0.000000 0.000000 
#    y 0.000000 1.742050 0.000000 
#    z 0.000000 0.000000 1.760830 
# 
# From -- ./inp_files/27001.got.cif
#   From: 2010.05.17/outbox.cif.g08.bks.cpg/sg24_14_cif.got.tgz:27001.got - 2010.06.04 00:33:39.
