data_PCOD9335904
_publ_section_title
;
Structure prediction by ZEFSAII (Michael W. Deem and Ramdas Pophale) SiO2 
 PCOD9335904
Probable space group: I 21 21 21
;
_chemical_formula_sum "Si O2"
_cell_formula_units_Z 60
_cell_length_a 19.077417
_cell_length_b 13.074029
_cell_length_c 10.909564
_cell_angle_alpha 90.000000
_cell_angle_beta 90.000000
_cell_angle_gamma 90.000000
_cell_volume 2721.049304
_symmetry_space_group_name_H-M "I 21 21 21"
_symmetry_group_IT_number 24
_symmetry_cell_setting 'orthorhombic'
loop_
_space_group_symop_operation_xyz
x,y,z
-x,1/2-y,z
x,-y,1/2-z
1/2-x,y,-z
1/2+x,1/2+y,1/2+z
1/2-x,-y,1/2+z
1/2+x,1/2-y,-z
-x,1/2+y,1/2-z
loop_
_atom_site_type_symbol
_atom_site_label
_atom_site_fract_x
_atom_site_fract_y
_atom_site_fract_z
Si Si1 0.907844 0.380500 0.740760
Si Si2 0.474191 0.371248 0.438372
Si Si3 0.223216 0.768499 0.808744
Si Si4 0.635901 0.273749 0.556611
Si Si5 0.816459 0.867080 0.575649
Si Si6 0.436670 0.992360 0.892438
Si Si7 0.897660 0.000000 0.750000
Si Si8 0.574842 0.292331 0.994451
O O1 0.924075 0.500000 0.750000
O O2 0.823494 0.368512 0.727975
O O3 0.931470 0.323904 0.862924
O O4 0.951785 0.334414 0.626274
O O5 0.429594 0.304952 0.537729
O O6 0.498243 0.470750 0.516530
O O7 0.436992 0.404803 0.312160
O O8 0.305569 0.763631 0.836160
O O9 0.207176 0.694758 0.696328
O O10 0.182405 0.748002 0.935966
O O11 0.610668 0.391508 0.581319
O O12 0.750000 0.899864 0.500000
O O13 0.856178 0.961498 0.632894
O O14 0.866455 0.794869 0.494398
O O15 0.455486 0.000000 0.750000
O O16 0.404416 0.101816 0.928686
O O17 0.500000 0.250000 0.949451
#
# Coordination Sequence:
#
# PCOD9335904 Si02
#       8
#     8   8   8   8   8   8   4   8
#     4  11  20  39  74 109 130 174 245 309 359 430
#     4  12  22  43  74 107 138 183 251 309 366 435
#     4  10  23  42  66 105 142 188 237 291 370 432
#     4  11  24  43  70 101 146 195 241 296 360 454
#     4  11  26  45  73 109 143 190 235 311 365 439
#     4  12  27  44  66 105 143 195 243 299 378 439
#     4  12  24  46  78 104 144 186 250 300 366 450
#     4  11  24  45  71 102 144 177 237 306 373 428
#
# _framework density 22.050317
#
# number of rings (size 3 to 8) (size 9 to 14) (size 15 to 20)
#    0.000    0.800    4.667    2.000    3.733    2.667 
#    7.200    0.000    0.000    0.000    0.000    0.000 
#    0.000    0.000    0.000    0.000    0.000    0.000 
#
# Total GULP energy -167104.057697 kJ/mol
# GULP energy per Si atom -5570.135257 kJ/mol
# Density = 2.200013 g / cm^3
# Si number density = 22.050317 Si / 1000 Ang^3
#
#
#
# Elastic Constant Matrix: (Units=GPa)
#
#
# Indices 1 2 3 4 5 6 
#
# 1 84.7603 22.8828 11.8476 0.0000 0.0000 0.0000
# 2 22.8828 59.4394 -6.5216 0.0000 0.0000 0.0000
# 3 11.8476 -6.5216 72.1225 0.0000 0.0000 0.0000
# 4 0.0000 0.0000 0.0000 11.7661 0.0000 0.0000
# 5 0.0000 0.0000 0.0000 0.0000 41.9100 0.0000
# 6 0.0000 0.0000 0.0000 0.0000 0.0000 15.3561
#
#
#
# Elastic Compliance Matrix: (Units=1/GPa)
#
#
# Indices 1 2 3 4 5 6 
#
# 1 0.013687 -0.005571 -0.002752 0.000000 0.000000 0.000000
# 2 -0.005571 0.019260 0.002657 0.000000 0.000000 0.000000
# 3 -0.002752 0.002657 0.014558 0.000000 0.000000 0.000000
# 4 0.000000 0.000000 0.000000 0.084990 0.000000 0.000000
# 5 0.000000 0.000000 0.000000 0.000000 0.023861 0.000000
# 6 0.000000 0.000000 0.000000 0.000000 0.000000 0.065121
#
#
# Mechanical properties :
#
#
# Convention : Reuss Voigt Hill
#
# Bulk Modulus (GPa) = 27.64595 30.30440 28.97518
# Shear Modulus (GPa) = 20.41934 26.34733 23.38334
#
# Velocity S-wave (km/s) = 3.04638 3.46044 3.25999
# Velocity P-wave (km/s) = 4.99388 5.45338 5.22868
#
# Compressibility (1/GPa) = 0.03617166
#
# Stress axis : x y z
#
# Youngs Moduli (GPa) = 73.06387 51.92091 68.69259
#
# Poissons Ratio (x) = 0.28925 0.18905
# Poissons Ratio (y) = 0.40704 -0.18250
# Poissons Ratio (z) = 0.20108 -0.13794
#
# Static dielectric constant tensor:
#      x y z
#    x 1.921390 0.000000 0.000000 
#    y 0.000000 2.049450 0.000000 
#    z 0.000000 0.000000 1.796560 
# 
# From -- ./inp_files/21704.got.cif
#   From: 2010.05.17/outbox.cif.g08.bks.cpg/sg24_11_cif.got.tgz:21704.got - 2010.06.04 00:33:39.
