data_PCOD9335155
_publ_section_title
;
Structure prediction by ZEFSAII (Michael W. Deem and Ramdas Pophale) SiO2 
 PCOD9335155
Probable space group: I 21 21 21
;
_chemical_formula_sum "Si O2"
_cell_formula_units_Z 64
_cell_length_a 13.623261
_cell_length_b 7.706475
_cell_length_c 24.764382
_cell_angle_alpha 90.000000
_cell_angle_beta 90.000000
_cell_angle_gamma 90.000000
_cell_volume 2599.946105
_symmetry_space_group_name_H-M "I 21 21 21"
_symmetry_group_IT_number 24
_symmetry_cell_setting 'orthorhombic'
loop_
_space_group_symop_operation_xyz
x,y,z
-x,1/2-y,z
x,-y,1/2-z
1/2-x,y,-z
1/2+x,1/2+y,1/2+z
1/2-x,-y,1/2+z
1/2+x,1/2-y,-z
-x,1/2+y,1/2-z
loop_
_atom_site_type_symbol
_atom_site_label
_atom_site_fract_x
_atom_site_fract_y
_atom_site_fract_z
Si Si1 0.556391 0.911759 0.199101
Si Si2 0.869624 0.371010 0.358124
Si Si3 0.220390 0.744446 0.367294
Si Si4 0.099105 0.422931 0.903238
Si Si5 0.452426 0.057496 0.486959
Si Si6 0.033748 0.436076 0.102132
Si Si7 0.224656 0.734205 0.944016
Si Si8 0.755372 0.707697 0.756576
O O1 0.500000 0.750000 0.173978
O O2 0.561309 0.064939 0.156989
O O3 0.656855 0.823601 0.219546
O O4 0.505052 0.000000 0.250000
O O5 0.818852 0.560162 0.367575
O O6 0.822419 0.273960 0.409919
O O7 0.830482 0.293692 0.301980
O O8 0.984515 0.419095 0.360800
O O9 0.320221 0.726330 0.401549
O O10 0.148945 0.600108 0.394064
O O11 0.231913 0.714898 0.302711
O O12 0.157176 0.606161 0.909947
O O13 0.011360 0.439866 0.944710
O O14 0.500000 0.250000 0.489583
O O15 0.342599 0.103309 0.465575
O O16 0.481071 0.971331 0.544498
O O17 0.000000 0.250000 0.123683
O O18 0.250000 0.639242 0.000000
O O19 0.778186 0.500000 0.750000
#
# Coordination Sequence:
#
# PCOD9335155 Si02
#       8
#     8   8   8   8   8   8   8   8
#     4  12  23  41  65  94 128 168 209 263 329 391
#     4  10  21  41  69  93 128 171 218 272 332 392
#     4  10  23  41  65  93 131 170 217 274 334 392
#     4  11  24  40  61  95 132 166 214 273 322 390
#     4  10  23  39  59  94 133 172 219 262 325 398
#     4  10  22  41  65  92 130 169 216 274 329 392
#     4  11  21  38  65  94 130 171 219 263 323 394
#     4  10  21  42  69  91 127 166 217 271 330 396
#
# _framework density 24.615895999999999
#
# number of rings (size 3 to 8) (size 9 to 14) (size 15 to 20)
#    0.000    1.500    3.750    1.500    3.500    1.000 
#    0.000    0.625   22.000    0.000    0.000    0.000 
#    0.000    0.000    0.000    0.000    0.000    0.000 
#
# Total GULP energy -178643.445116 kJ/mol
# GULP energy per Si atom -5582.607660 kJ/mol
# Density = 2.455987 g / cm^3
# Si number density = 24.615896 Si / 1000 Ang^3
#
#
#
# Elastic Constant Matrix: (Units=GPa)
#
#
# Indices 1 2 3 4 5 6 
#
# 1 43.9988 -4.8555 -3.6999 0.0000 0.0000 0.0000
# 2 -4.8555 89.6922 -6.1867 0.0000 0.0000 0.0000
# 3 -3.6999 -6.1867 88.7112 0.0000 0.0000 0.0000
# 4 0.0000 0.0000 0.0000 36.0414 0.0000 0.0000
# 5 0.0000 0.0000 0.0000 0.0000 33.7037 0.0000
# 6 0.0000 0.0000 0.0000 0.0000 0.0000 9.1134
#
#
#
# Elastic Compliance Matrix: (Units=1/GPa)
#
#
# Indices 1 2 3 4 5 6 
#
# 1 0.022961 0.001315 0.001049 0.000000 0.000000 0.000000
# 2 0.001315 0.011278 0.000841 0.000000 0.000000 0.000000
# 3 0.001049 0.000841 0.011375 0.000000 0.000000 0.000000
# 4 0.000000 0.000000 0.000000 0.027746 0.000000 0.000000
# 5 0.000000 0.000000 0.000000 0.000000 0.029670 0.000000
# 6 0.000000 0.000000 0.000000 0.000000 0.000000 0.109728
#
#
# Mechanical properties :
#
#
# Convention : Reuss Voigt Hill
#
# Bulk Modulus (GPa) = 19.22072 21.43532 20.32802
# Shear Modulus (GPa) = 22.35246 31.58133 26.96690
#
# Velocity S-wave (km/s) = 3.01666 3.58574 3.31344
# Velocity P-wave (km/s) = 4.46753 5.08627 4.78691
#
# Compressibility (1/GPa) = 0.05202719
#
# Stress axis : x y z
#
# Youngs Moduli (GPa) = 43.55157 88.66436 87.91222
#
# Poissons Ratio (x) = -0.11663 -0.09225
# Poissons Ratio (y) = -0.05729 -0.07397
# Poissons Ratio (z) = -0.04570 -0.07460
#
# Static dielectric constant tensor:
#      x y z
#    x 2.056010 0.000000 0.000000 
#    y 0.000000 2.004600 0.000000 
#    z 0.000000 0.000000 1.949780 
# 
# From -- ./inp_files/35868.got.cif
#   From: 2010.05.17/outbox.cif.g08.bks.cpg/sg24_18_cif.got.tgz:35868.got - 2010.06.04 00:33:39.
