data_PCOD9335266
_publ_section_title
;
Structure prediction by ZEFSAII (Michael W. Deem and Ramdas Pophale) SiO2 
 PCOD9335266
Probable space group: I 21 21 21
;
_chemical_formula_sum "Si O2"
_cell_formula_units_Z 24
_cell_length_a 9.654157
_cell_length_b 14.929689
_cell_length_c 7.969097
_cell_angle_alpha 90.000000
_cell_angle_beta 90.000000
_cell_angle_gamma 90.000000
_cell_volume 1148.614333
_symmetry_space_group_name_H-M "I 21 21 21"
_symmetry_group_IT_number 24
_symmetry_cell_setting 'orthorhombic'
loop_
_space_group_symop_operation_xyz
x,y,z
-x,1/2-y,z
x,-y,1/2-z
1/2-x,y,-z
1/2+x,1/2+y,1/2+z
1/2-x,-y,1/2+z
1/2+x,1/2-y,-z
-x,1/2+y,1/2-z
loop_
_atom_site_type_symbol
_atom_site_label
_atom_site_fract_x
_atom_site_fract_y
_atom_site_fract_z
Si Si1 0.510127 0.413380 0.345837
Si Si2 0.250000 0.798513 0.000000
Si Si3 0.723427 0.182780 0.178577
Si Si4 0.750000 0.011576 0.000000
O O1 0.570637 0.500000 0.250000
O O2 0.620110 0.360152 0.453608
O O3 0.435733 0.345045 0.216276
O O4 0.381258 0.453145 0.450544
O O5 0.276778 0.736747 0.837483
O O6 0.789128 0.084206 0.145171
O O7 0.750000 0.230410 0.000000
#
# Coordination Sequence:
#
# PCOD9335266 Si02
#       4
#     8   4   8   4
#     4  10  21  44  70  98 135 176 227 270 333 403
#     4  12  23  42  71 106 142 162 214 298 347 376
#     4   9  21  42  72  94 130 183 229 265 319 411
#     4   8  19  44  75  88 126 188 236 260 309 418
#
# _framework density 20.894742000000001
#
# number of rings (size 3 to 8) (size 9 to 14) (size 15 to 20)
#    1.000    1.333    0.000    2.000    0.000    0.000 
#    3.000   25.000    0.000    0.000    0.000    0.000 
#    0.000    0.000    0.000    0.000    0.000    0.000 
#
# Total GULP energy -66886.822521 kJ/mol
# GULP energy per Si atom -5573.901877 kJ/mol
# Density = 2.084718 g / cm^3
# Si number density = 20.894742 Si / 1000 Ang^3
#
#
#
# Elastic Constant Matrix: (Units=GPa)
#
#
# Indices 1 2 3 4 5 6 
#
# 1 82.0242 62.7760 70.1868 0.0000 0.0000 0.0000
# 2 62.7760 142.9561 92.4753 0.0000 0.0000 0.0000
# 3 70.1868 92.4753 185.0520 0.0001 0.0000 0.0000
# 4 0.0000 0.0000 0.0001 60.1609 0.0000 0.0000
# 5 0.0000 0.0000 0.0000 0.0000 31.6245 0.0000
# 6 0.0000 0.0000 0.0000 0.0000 0.0000 37.4671
#
#
#
# Elastic Compliance Matrix: (Units=1/GPa)
#
#
# Indices 1 2 3 4 5 6 
#
# 1 0.021065 -0.006032 -0.004975 0.000000 0.000000 0.000000
# 2 -0.006032 0.012064 -0.003741 0.000000 0.000000 0.000000
# 3 -0.004975 -0.003741 0.009160 0.000000 0.000000 0.000000
# 4 0.000000 0.000000 0.000000 0.016622 0.000000 0.000000
# 5 0.000000 0.000000 0.000000 0.000000 0.031621 0.000000
# 6 0.000000 0.000000 0.000000 0.000000 0.000000 0.026690
#
#
# Mechanical properties :
#
#
# Convention : Reuss Voigt Hill
#
# Bulk Modulus (GPa) = 78.16618 95.65653 86.91136
# Shear Modulus (GPa) = 33.11628 38.15678 35.63653
#
# Velocity S-wave (km/s) = 3.98541 4.27798 4.13428
# Velocity P-wave (km/s) = 7.65955 8.38338 8.02962
#
# Compressibility (1/GPa) = 0.01279326
#
# Stress axis : x y z
#
# Youngs Moduli (GPa) = 47.47143 82.89286 109.16634
#
# Poissons Ratio (x) = 0.50000 0.54315
# Poissons Ratio (y) = 0.28634 0.40837
# Poissons Ratio (z) = 0.23619 0.31009
#
# Static dielectric constant tensor:
#      x y z
#    x 1.712900 0.000000 0.000000 
#    y 0.000000 1.788000 0.000000 
#    z 0.000000 0.000000 1.893520 
# 
# From -- ./inp_files/8721.got.cif
#   From: 2010.05.17/outbox.cif.g08.bks.cpg/sg24_5_cif.got.tgz:8721.got - 2010.06.04 00:33:39.
