data_PCOD9335473
_publ_section_title
;
Structure prediction by ZEFSAII (Michael W. Deem and Ramdas Pophale) SiO2 
 PCOD9335473
Probable space group: I 21 21 21
;
_chemical_formula_sum "Si O2"
_cell_formula_units_Z 64
_cell_length_a 10.620892
_cell_length_b 18.598992
_cell_length_c 17.082916
_cell_angle_alpha 90.000000
_cell_angle_beta 90.000000
_cell_angle_gamma 90.000000
_cell_volume 3374.523102
_symmetry_space_group_name_H-M "I 21 21 21"
_symmetry_group_IT_number 24
_symmetry_cell_setting 'orthorhombic'
loop_
_space_group_symop_operation_xyz
x,y,z
-x,1/2-y,z
x,-y,1/2-z
1/2-x,y,-z
1/2+x,1/2+y,1/2+z
1/2-x,-y,1/2+z
1/2+x,1/2-y,-z
-x,1/2+y,1/2-z
loop_
_atom_site_type_symbol
_atom_site_label
_atom_site_fract_x
_atom_site_fract_y
_atom_site_fract_z
Si Si1 0.290713 0.954169 0.171682
Si Si2 0.952326 0.528426 0.073274
Si Si3 0.146912 0.363730 0.849463
Si Si4 0.918618 0.427497 0.936995
Si Si5 0.858617 0.268769 0.942134
Si Si6 0.137122 0.400080 0.552544
Si Si7 0.800108 0.990053 0.341451
Si Si8 0.999779 0.335677 0.696034
O O1 0.369913 0.881660 0.189869
O O2 0.168204 0.939688 0.117747
O O3 0.258702 0.000000 0.250000
O O4 0.376710 0.009173 0.120968
O O5 0.059251 0.511048 0.136341
O O6 0.027700 0.573131 0.006457
O O7 0.909605 0.458050 0.024526
O O8 0.155812 0.279749 0.865805
O O9 0.276002 0.405971 0.855275
O O10 0.058231 0.401190 0.914341
O O11 0.076401 0.372002 0.767281
O O12 0.844529 0.353069 0.926266
O O13 0.000000 0.250000 0.971792
O O14 0.750000 0.244803 0.000000
O O15 0.250000 0.368500 0.500000
O O16 0.206185 0.463509 0.603032
O O17 0.074861 0.348828 0.615792
O O18 0.773226 0.000000 0.250000
O O19 0.000000 0.250000 0.709378
#
# Coordination Sequence:
#
# PCOD9335473 Si02
#       8
#     8   8   8   8   8   8   8   8
#     4  12  24  40  65  90 126 162 207 259 315 371
#     4  11  23  37  64  98 124 156 207 260 321 368
#     4  11  22  37  62  92 121 164 211 256 301 378
#     4  11  21  39  61  91 125 162 205 257 308 372
#     4  10  23  37  58  88 132 167 206 254 316 381
#     4  10  22  40  62  90 120 154 208 266 309 367
#     4  11  21  38  65  91 125 160 209 262 311 366
#     4  12  24  43  65  90 119 167 213 256 313 371
#
# _framework density 18.965643
#
# number of rings (size 3 to 8) (size 9 to 14) (size 15 to 20)
#    0.000    1.000    5.000    2.625    3.500    0.000 
#    2.250    0.000    0.000    0.000    0.000    0.000 
#    0.000    0.000    0.000    0.000    0.000    0.000 
#
# Total GULP energy -178429.400397 kJ/mol
# GULP energy per Si atom -5575.918762 kJ/mol
# Density = 1.892248 g / cm^3
# Si number density = 18.965643 Si / 1000 Ang^3
#
#
#
# Elastic Constant Matrix: (Units=GPa)
#
#
# Indices 1 2 3 4 5 6 
#
# 1 42.5048 31.3099 13.3502 0.0000 0.0000 0.0000
# 2 31.3099 71.7459 10.6627 0.0000 0.0000 0.0000
# 3 13.3502 10.6627 75.5520 0.0000 0.0000 0.0000
# 4 0.0000 0.0000 0.0000 24.3091 0.0000 0.0000
# 5 0.0000 0.0000 0.0000 0.0000 33.5567 0.0000
# 6 0.0000 0.0000 0.0000 0.0000 0.0000 12.8498
#
#
#
# Elastic Compliance Matrix: (Units=1/GPa)
#
#
# Indices 1 2 3 4 5 6 
#
# 1 0.035947 -0.015059 -0.004227 0.000000 0.000000 0.000000
# 2 -0.015059 0.020545 -0.000239 0.000000 0.000000 0.000000
# 3 -0.004227 -0.000239 0.014016 0.000000 0.000000 0.000000
# 4 0.000000 0.000000 0.000000 0.041137 0.000000 0.000000
# 5 0.000000 0.000000 0.000000 0.000000 0.029800 0.000000
# 6 0.000000 0.000000 0.000000 0.000000 0.000000 0.077822
#
#
# Mechanical properties :
#
#
# Convention : Reuss Voigt Hill
#
# Bulk Modulus (GPa) = 31.78623 33.38315 32.58469
# Shear Modulus (GPa) = 18.60089 23.10843 20.85466
#
# Velocity S-wave (km/s) = 3.13512 3.49440 3.31962
# Velocity P-wave (km/s) = 5.46823 5.82419 5.64902
#
# Compressibility (1/GPa) = 0.03146016
#
# Stress axis : x y z
#
# Youngs Moduli (GPa) = 27.81859 48.67269 71.34474
#
# Poissons Ratio (x) = 0.73297 0.30155
# Poissons Ratio (y) = 0.41893 0.01702
# Poissons Ratio (z) = 0.11758 0.01161
#
# Static dielectric constant tensor:
#      x y z
#    x 1.687880 0.000000 0.000000 
#    y 0.000000 1.679280 0.000000 
#    z 0.000000 0.000000 1.678180 
# 
# From -- ./inp_files/26034.got.cif
#   From: 2010.05.17/outbox.cif.g08.bks.cpg/sg24_14_cif.got.tgz:26034.got - 2010.06.04 00:33:39.
