data_PCOD9335129
_publ_section_title
;
Structure prediction by ZEFSAII (Michael W. Deem and Ramdas Pophale) SiO2 
 PCOD9335129
Probable space group: I 21 21 21
;
_chemical_formula_sum "Si O2"
_cell_formula_units_Z 48
_cell_length_a 8.680806
_cell_length_b 18.680770
_cell_length_c 13.819593
_cell_angle_alpha 90.000000
_cell_angle_beta 90.000000
_cell_angle_gamma 90.000000
_cell_volume 2241.042418
_symmetry_space_group_name_H-M "I 21 21 21"
_symmetry_group_IT_number 24
_symmetry_cell_setting 'orthorhombic'
loop_
_space_group_symop_operation_xyz
x,y,z
-x,1/2-y,z
x,-y,1/2-z
1/2-x,y,-z
1/2+x,1/2+y,1/2+z
1/2-x,-y,1/2+z
1/2+x,1/2-y,-z
-x,1/2+y,1/2-z
loop_
_atom_site_type_symbol
_atom_site_label
_atom_site_fract_x
_atom_site_fract_y
_atom_site_fract_z
Si Si1 0.335090 0.281092 0.298279
Si Si2 0.500000 0.750000 0.851617
Si Si3 0.469070 0.015578 0.361895
Si Si4 0.085733 0.644877 0.981100
Si Si5 0.016341 0.666776 0.457042
Si Si6 0.817205 0.890175 0.639497
Si Si7 0.250000 0.926153 0.500000
O O1 0.500000 0.250000 0.262193
O O2 0.359676 0.290399 0.412254
O O3 0.326748 0.358014 0.246117
O O4 0.162254 0.247163 0.291400
O O5 0.486322 0.679835 0.922295
O O6 0.629753 0.971479 0.368413
O O7 0.350299 0.973950 0.429618
O O8 0.422961 0.000000 0.250000
O O9 0.484152 0.093057 0.412885
O O10 0.250000 0.606290 0.000000
O O11 0.069445 0.654773 0.568499
O O12 0.148576 0.627346 0.397840
O O13 0.000000 0.750000 0.436915
O O14 0.858951 0.626170 0.439733
#
# Coordination Sequence:
#
# PCOD9335129 Si02
#       7
#     8   4   8   8   8   8   4
#     4  11  22  40  66  96 135 173 222 288 340 406
#     4  10  24  44  62 106 128 176 240 272 356 416
#     4  11  23  44  64  94 134 181 228 272 346 419
#     4  10  22  41  68  91 134 180 219 281 344 412
#     4  10  21  41  64  91 131 165 213 275 344 398
#     4  10  22  39  63  93 124 176 216 265 335 425
#     4  10  24  40  66 100 128 172 226 280 338 412
#
# _framework density 21.418604999999999
#
# number of rings (size 3 to 8) (size 9 to 14) (size 15 to 20)
#    0.000    1.667    2.500    1.500    5.833    2.667 
#    0.000    2.500    0.000    0.000    0.000    0.000 
#    0.000    0.000    0.000    0.000    0.000    0.000 
#
# Total GULP energy -133679.877136 kJ/mol
# GULP energy per Si atom -5569.994881 kJ/mol
# Density = 2.136986 g / cm^3
# Si number density = 21.418605 Si / 1000 Ang^3
#
#
#
# Elastic Constant Matrix: (Units=GPa)
#
#
# Indices 1 2 3 4 5 6 
#
# 1 116.8386 40.1137 10.5615 0.0000 0.0000 0.0000
# 2 40.1137 70.2577 13.9512 0.0000 0.0000 0.0000
# 3 10.5615 13.9512 62.5080 0.0000 0.0000 0.0000
# 4 0.0000 0.0000 0.0000 21.6858 0.0000 0.0000
# 5 0.0000 0.0000 0.0000 0.0000 0.9189 0.0000
# 6 0.0000 0.0000 0.0000 0.0000 0.0000 21.1483
#
#
#
# Elastic Compliance Matrix: (Units=1/GPa)
#
#
# Indices 1 2 3 4 5 6 
#
# 1 0.010658 -0.005993 -0.000463 0.000000 0.000000 0.000000
# 2 -0.005993 0.018264 -0.003064 0.000000 0.000000 0.000000
# 3 -0.000463 -0.003064 0.016760 0.000000 0.000000 0.000000
# 4 0.000000 0.000000 0.000000 0.046113 0.000000 0.000000
# 5 0.000000 0.000000 0.000000 0.000000 1.088259 0.000000
# 6 0.000000 0.000000 0.000000 0.000000 0.000000 0.047285
#
#
# Mechanical properties :
#
#
# Convention : Reuss Voigt Hill
#
# Bulk Modulus (GPa) = 37.53539 42.09524 39.81532
# Shear Modulus (GPa) = 3.98324 21.08245 12.53285
#
# Velocity S-wave (km/s) = 1.36519 3.14077 2.42159
# Velocity P-wave (km/s) = 4.47747 5.73139 5.14279
#
# Compressibility (1/GPa) = 0.02664152
#
# Stress axis : x y z
#
# Youngs Moduli (GPa) = 93.82283 54.75368 59.66599
#
# Poissons Ratio (x) = 0.32816 0.02764
# Poissons Ratio (y) = 0.56232 0.18279
# Poissons Ratio (z) = 0.04346 0.16774
#
# Static dielectric constant tensor:
#      x y z
#    x 1.912820 0.000000 0.000000 
#    y 0.000000 1.767190 0.000000 
#    z 0.000000 0.000000 1.814690 
# 
# From -- ./inp_files/24846.got.cif
#   From: 2010.05.17/outbox.cif.g08.bks.cpg/sg24_13_cif.got.tgz:24846.got - 2010.06.04 00:33:39.
