data_PCOD9335769
_publ_section_title
;
Structure prediction by ZEFSAII (Michael W. Deem and Ramdas Pophale) SiO2 
 PCOD9335769
Probable space group: I 21 21 21
;
_chemical_formula_sum "Si O2"
_cell_formula_units_Z 32
_cell_length_a 5.097819
_cell_length_b 33.853417
_cell_length_c 8.120653
_cell_angle_alpha 90.000000
_cell_angle_beta 90.000000
_cell_angle_gamma 90.000000
_cell_volume 1401.450864
_symmetry_space_group_name_H-M "I 21 21 21"
_symmetry_group_IT_number 24
_symmetry_cell_setting 'orthorhombic'
loop_
_space_group_symop_operation_xyz
x,y,z
-x,1/2-y,z
x,-y,1/2-z
1/2-x,y,-z
1/2+x,1/2+y,1/2+z
1/2-x,-y,1/2+z
1/2+x,1/2-y,-z
-x,1/2+y,1/2-z
loop_
_atom_site_type_symbol
_atom_site_label
_atom_site_fract_x
_atom_site_fract_y
_atom_site_fract_z
Si Si1 0.750000 0.382604 0.000000
Si Si2 0.750000 0.060874 0.000000
Si Si3 0.750000 0.108789 0.500000
Si Si4 0.050385 0.500000 0.750000
Si Si5 0.500000 0.250000 0.382728
Si Si6 0.750000 0.554890 0.000000
Si Si7 0.105546 0.836165 0.819634
O O1 0.501282 0.411370 0.998283
O O2 0.746343 0.356123 0.165147
O O3 0.727475 0.030819 0.151705
O O4 0.498820 0.082225 0.546355
O O5 0.651253 0.137250 0.354389
O O6 0.863700 0.526655 0.861445
O O7 0.250000 0.256960 0.500000
O O8 0.544806 0.290444 0.284977
O O9 0.250000 0.836418 0.000000
#
# Coordination Sequence:
#
# PCOD9335769 Si02
#       7
#     4   4   4   4   4   4   8
#     4  12  31  48  77 120 152 198 262 318 383 464
#     4  12  31  52  77 110 150 196 258 320 385 464
#     4  12  25  44  77 108 140 200 248 306 383 440
#     4  12  30  52  74 104 152 192 254 314 386 456
#     4  10  22  44  78 112 152 206 256 300 378 464
#     4  12  29  46  77 104 144 198 246 308 387 448
#     4  11  26  48  79 113 156 204 252 315 381 455
#
# _framework density 22.833476999999998
#
# number of rings (size 3 to 8) (size 9 to 14) (size 15 to 20)
#    0.000    0.500    2.500    3.000    7.000   11.000 
#    0.000    6.250    0.000    0.000    0.000    0.000 
#    0.000    0.000    0.000    0.000    0.000    0.000 
#
# Total GULP energy -89663.961549 kJ/mol
# GULP energy per Si atom -5603.997597 kJ/mol
# Density = 2.278151 g / cm^3
# Si number density = 22.833477 Si / 1000 Ang^3
#
#
#
# Elastic Constant Matrix: (Units=GPa)
#
#
# Indices 1 2 3 4 5 6 
#
# 1 136.3402 68.1186 34.5175 0.0000 0.0000 0.0000
# 2 68.1186 223.9979 81.1417 -0.0001 0.0000 0.0000
# 3 34.5175 81.1417 122.2359 -0.0002 0.0000 0.0000
# 4 0.0000 -0.0001 -0.0002 61.5232 0.0000 0.0000
# 5 0.0000 0.0000 0.0000 0.0000 36.5798 0.0000
# 6 0.0000 0.0000 0.0000 0.0000 0.0000 20.4542
#
#
#
# Elastic Compliance Matrix: (Units=1/GPa)
#
#
# Indices 1 2 3 4 5 6 
#
# 1 0.008727 -0.002319 -0.000925 0.000000 0.000000 0.000000
# 2 -0.002319 0.006494 -0.003656 0.000000 0.000000 0.000000
# 3 -0.000925 -0.003656 0.010869 0.000000 0.000000 0.000000
# 4 0.000000 0.000000 0.000000 0.016254 0.000000 0.000000
# 5 0.000000 0.000000 0.000000 0.000000 0.027337 0.000000
# 6 0.000000 0.000000 0.000000 0.000000 0.000000 0.048890
#
#
# Mechanical properties :
#
#
# Convention : Reuss Voigt Hill
#
# Bulk Modulus (GPa) = 81.36480 94.45885 87.91183
# Shear Modulus (GPa) = 36.63862 43.63119 40.13490
#
# Velocity S-wave (km/s) = 4.01009 4.37606 4.19707
# Velocity P-wave (km/s) = 7.55993 8.18484 7.87858
#
# Compressibility (1/GPa) = 0.01229033
#
# Stress axis : x y z
#
# Youngs Moduli (GPa) = 114.58175 153.99250 92.00518
#
# Poissons Ratio (x) = 0.35709 0.08512
# Poissons Ratio (y) = 0.26570 0.33636
# Poissons Ratio (z) = 0.10601 0.56297
#
# Static dielectric constant tensor:
#      x y z
#    x 1.821930 0.000000 0.000000 
#    y 0.000000 1.839640 0.000000 
#    z 0.000000 0.000000 1.945960 
# 
# From -- ./inp_files/8322.got.cif
#   From: 2010.05.17/outbox.cif.g08.bks.cpg/sg24_5_cif.got.tgz:8322.got - 2010.06.04 00:33:39.
