data_PCOD9335895
_publ_section_title
;
Structure prediction by ZEFSAII (Michael W. Deem and Ramdas Pophale) SiO2 
 PCOD9335895
Probable space group: I 21 21 21
;
_chemical_formula_sum "Si O2"
_cell_formula_units_Z 32
_cell_length_a 12.278582
_cell_length_b 8.589830
_cell_length_c 11.425344
_cell_angle_alpha 90.000000
_cell_angle_beta 90.000000
_cell_angle_gamma 90.000000
_cell_volume 1205.041680
_symmetry_space_group_name_H-M "I 21 21 21"
_symmetry_group_IT_number 24
_symmetry_cell_setting 'orthorhombic'
loop_
_space_group_symop_operation_xyz
x,y,z
-x,1/2-y,z
x,-y,1/2-z
1/2-x,y,-z
1/2+x,1/2+y,1/2+z
1/2-x,-y,1/2+z
1/2+x,1/2-y,-z
-x,1/2+y,1/2-z
loop_
_atom_site_type_symbol
_atom_site_label
_atom_site_fract_x
_atom_site_fract_y
_atom_site_fract_z
Si Si1 0.717896 0.241023 0.637344
Si Si2 0.851586 0.421021 0.093308
Si Si3 0.598891 0.856652 0.317915
Si Si4 0.893025 0.070166 0.071762
O O1 0.750000 0.247551 0.500000
O O2 0.669725 0.413090 0.657650
O O3 0.819428 0.219753 0.725103
O O4 0.644930 0.084866 0.637920
O O5 0.864078 0.237247 0.130994
O O6 0.976723 0.446673 0.053737
O O7 0.750000 0.413237 0.000000
O O8 0.500000 0.750000 0.351424
O O9 0.651140 0.917014 0.437898
O O10 0.548387 0.000000 0.250000
#
# Coordination Sequence:
#
# PCOD9335895 Si02
#       4
#     8   8   8   8
#     4  11  24  42  69 110 157 203 243 319 403 451
#     4  10  23  41  74 109 149 202 252 319 389 464
#     4  12  27  44  75 120 155 192 265 334 377 456
#     4  11  23  48  73 111 155 202 260 323 389 464
#
# _framework density 26.555098999999998
#
# number of rings (size 3 to 8) (size 9 to 14) (size 15 to 20)
#    0.000    1.000    5.000    1.500    7.000    0.000 
#    0.000    0.000    0.000    6.000    6.500    0.000 
#    0.000    0.000    0.000    0.000    0.000    0.000 
#
# Total GULP energy -89426.997459 kJ/mol
# GULP energy per Si atom -5589.187341 kJ/mol
# Density = 2.649466 g / cm^3
# Si number density = 26.555099 Si / 1000 Ang^3
#
#
#
# Elastic Constant Matrix: (Units=GPa)
#
#
# Indices 1 2 3 4 5 6 
#
# 1 147.7031 77.8119 42.2419 0.0000 0.0000 0.0000
# 2 77.8119 289.9274 104.0705 0.0000 0.0000 0.0000
# 3 42.2419 104.0705 125.9074 0.0000 0.0000 0.0000
# 4 0.0000 0.0000 0.0000 47.4579 0.0000 0.0000
# 5 0.0000 0.0000 0.0000 0.0000 -42.0800 0.0000
# 6 0.0000 0.0000 0.0000 0.0000 0.0000 4.6591
#
#
#
# Elastic Compliance Matrix: (Units=1/GPa)
#
#
# Indices 1 2 3 4 5 6 
#
# 1 0.008032 -0.001690 -0.001298 0.000000 0.000000 0.000000
# 2 -0.001690 0.005260 -0.003781 0.000000 0.000000 0.000000
# 3 -0.001298 -0.003781 0.011503 0.000000 0.000000 0.000000
# 4 0.000000 0.000000 0.000000 0.021071 0.000000 0.000000
# 5 0.000000 0.000000 0.000000 0.000000 -0.023764 0.000000
# 6 0.000000 0.000000 0.000000 0.000000 0.000000 0.214633
#
#
# Mechanical properties :
#
#
# Convention : Reuss Voigt Hill
#
# Bulk Modulus (GPa) = 88.82909 112.42073 100.62491
# Shear Modulus (GPa) = 19.68323 24.63497 22.15910
#
# Velocity S-wave (km/s) = 2.72549 3.04911 2.89183
# Velocity P-wave (km/s) = 6.58998 7.40425 7.00895
#
# Compressibility (1/GPa) = 0.01125757
#
# Stress axis : x y z
#
# Youngs Moduli (GPa) = 124.50675 190.12622 86.93598
#
# Poissons Ratio (x) = 0.32125 0.11285
# Poissons Ratio (y) = 0.21037 0.32867
# Poissons Ratio (z) = 0.16161 0.71879
#
# Static dielectric constant tensor:
#      x y z
#    x 2.067910 0.000000 0.000000 
#    y 0.000000 2.116950 0.000000 
#    z 0.000000 0.000000 2.232560 
# 
# From -- ./inp_files/30012.got.cif
#   From: 2010.05.17/outbox.cif.g08.bks.cpg/sg24_16_cif.got.tgz:30012.got - 2010.06.04 00:33:39.
