data_PCOD9335096
_publ_section_title
;
Structure prediction by ZEFSAII (Michael W. Deem and Ramdas Pophale) SiO2 
 PCOD9335096
Probable space group: I 21 21 21
;
_chemical_formula_sum "Si O2"
_cell_formula_units_Z 40
_cell_length_a 29.380165
_cell_length_b 5.072047
_cell_length_c 11.311126
_cell_angle_alpha 90.000000
_cell_angle_beta 90.000000
_cell_angle_gamma 90.000000
_cell_volume 1685.556598
_symmetry_space_group_name_H-M "I 21 21 21"
_symmetry_group_IT_number 24
_symmetry_cell_setting 'orthorhombic'
loop_
_space_group_symop_operation_xyz
x,y,z
-x,1/2-y,z
x,-y,1/2-z
1/2-x,y,-z
1/2+x,1/2+y,1/2+z
1/2-x,-y,1/2+z
1/2+x,1/2-y,-z
-x,1/2+y,1/2-z
loop_
_atom_site_type_symbol
_atom_site_label
_atom_site_fract_x
_atom_site_fract_y
_atom_site_fract_z
Si Si1 0.655873 0.446570 0.001166
Si Si2 0.226369 0.500000 0.750000
Si Si3 0.966962 0.000000 0.750000
Si Si4 0.250000 0.734747 0.000000
Si Si5 0.838938 0.500000 0.750000
Si Si6 0.125485 0.441821 0.380387
Si Si7 0.032726 0.499070 0.008280
O O1 0.652420 0.141456 0.967512
O O2 0.630871 0.634553 0.908518
O O3 0.706235 0.572998 0.004461
O O4 0.633860 0.508713 0.128765
O O5 0.250949 0.431208 0.624167
O O6 0.193724 0.749968 0.732125
O O7 0.000000 0.750000 0.749879
O O8 0.943420 0.997962 0.877589
O O9 0.142140 0.500000 0.250000
O O10 0.072789 0.510615 0.397842
O O11 0.000000 0.750000 0.019713
O O12 0.000000 0.250000 0.015642
#
# Coordination Sequence:
#
# PCOD9335096 Si02
#       7
#     8   4   4   4   4   8   8
#     4  11  25  45  69  96 137 174 229 291 344 413
#     4  10  22  40  69 100 132 167 240 281 334 430
#     4   8  16  32  58  96 122 156 218 266 326 394
#     4  10  24  46  72 100 136 186 232 288 366 420
#     4  10  22  44  67  96 130 171 228 277 340 414
#     4  12  27  45  65 103 140 181 235 280 344 414
#     4  10  21  40  67  95 133 178 222 277 339 410
#
# _framework density 23.731033
#
# number of rings (size 3 to 8) (size 9 to 14) (size 15 to 20)
#    0.000    1.600    0.000    4.200    1.400    9.600 
#   10.800    2.000    0.000    0.000    0.000    0.000 
#    0.000    0.000    0.000    0.000    0.000    0.000 
#
# Total GULP energy -111831.794265 kJ/mol
# GULP energy per Si atom -5591.589713 kJ/mol
# Density = 2.367702 g / cm^3
# Si number density = 23.731033 Si / 1000 Ang^3
#
#
#
# Elastic Constant Matrix: (Units=GPa)
#
#
# Indices 1 2 3 4 5 6 
#
# 1 62.6364 15.3876 1.6813 0.0000 0.0000 0.0000
# 2 15.3876 132.8398 -6.9621 0.0000 0.0000 0.0000
# 3 1.6813 -6.9621 117.3025 0.0000 0.0000 0.0000
# 4 0.0000 0.0000 0.0000 32.1270 0.0000 0.0000
# 5 0.0000 0.0000 0.0000 0.0000 29.1873 0.0000
# 6 0.0000 0.0000 0.0000 0.0000 0.0000 23.8060
#
#
#
# Elastic Compliance Matrix: (Units=1/GPa)
#
#
# Indices 1 2 3 4 5 6 
#
# 1 0.016447 -0.001924 -0.000350 0.000000 0.000000 0.000000
# 2 -0.001924 0.007776 0.000489 0.000000 0.000000 0.000000
# 3 -0.000350 0.000489 0.008559 0.000000 0.000000 0.000000
# 4 0.000000 0.000000 0.000000 0.031126 0.000000 0.000000
# 5 0.000000 0.000000 0.000000 0.000000 0.034261 0.000000
# 6 0.000000 0.000000 0.000000 0.000000 0.000000 0.042006
#
#
# Mechanical properties :
#
#
# Convention : Reuss Voigt Hill
#
# Bulk Modulus (GPa) = 34.23039 36.99917 35.61478
# Shear Modulus (GPa) = 32.57689 37.20219 34.88954
#
# Velocity S-wave (km/s) = 3.70909 3.96366 3.83849
# Velocity P-wave (km/s) = 5.72702 6.04751 5.88945
#
# Compressibility (1/GPa) = 0.02921381
#
# Stress axis : x y z
#
# Youngs Moduli (GPa) = 60.80107 128.59573 116.83591
#
# Poissons Ratio (x) = 0.24735 0.04088
# Poissons Ratio (y) = 0.11695 -0.05714
# Poissons Ratio (z) = 0.02127 -0.06290
#
# Static dielectric constant tensor:
#      x y z
#    x 1.875340 0.000000 0.000000 
#    y 0.000000 1.749800 0.000000 
#    z 0.000000 0.000000 2.033530 
# 
# From -- ./inp_files/23106.got.cif
#   From: 2010.05.17/outbox.cif.g08.bks.cpg/sg24_12_cif.got.tgz:23106.got - 2010.06.04 00:33:39.
