data_PCOD9335971
_publ_section_title
;
Structure prediction by ZEFSAII (Michael W. Deem and Ramdas Pophale) SiO2 
 PCOD9335971
Probable space group: I 21 21 21
;
_chemical_formula_sum "Si O2"
_cell_formula_units_Z 32
_cell_length_a 13.297494
_cell_length_b 12.082548
_cell_length_c 9.074077
_cell_angle_alpha 90.000000
_cell_angle_beta 90.000000
_cell_angle_gamma 90.000000
_cell_volume 1457.910260
_symmetry_space_group_name_H-M "I 21 21 21"
_symmetry_group_IT_number 24
_symmetry_cell_setting 'orthorhombic'
loop_
_space_group_symop_operation_xyz
x,y,z
-x,1/2-y,z
x,-y,1/2-z
1/2-x,y,-z
1/2+x,1/2+y,1/2+z
1/2-x,-y,1/2+z
1/2+x,1/2-y,-z
-x,1/2+y,1/2-z
loop_
_atom_site_type_symbol
_atom_site_label
_atom_site_fract_x
_atom_site_fract_y
_atom_site_fract_z
Si Si1 0.394309 0.633108 0.873899
Si Si2 0.725477 0.000000 0.250000
Si Si3 0.389224 0.718339 0.202846
Si Si4 0.793457 0.305090 0.159313
Si Si5 0.575215 0.500000 0.750000
O O1 0.306674 0.540990 0.870596
O O2 0.364590 0.713861 0.738497
O O3 0.500489 0.574878 0.847602
O O4 0.392081 0.695311 0.028400
O O5 0.654234 0.894525 0.275781
O O6 0.500000 0.750000 0.255037
O O7 0.305512 0.809766 0.237982
O O8 0.855133 0.418175 0.156585
O O9 0.750000 0.274571 0.000000
#
# Coordination Sequence:
#
# PCOD9335971 Si02
#       5
#     8   4   8   8   4
#     4  10  23  44  68  91 127 176 217 255 319 395
#     4   9  20  37  62  92 124 163 208 253 312 378
#     4  11  24  42  68  96 128 170 219 265 314 380
#     4  11  25  42  65  99 134 165 210 270 323 377
#     4  11  24  41  68  98 128 167 214 269 324 372
#
# _framework density 21.949224999999998
#
# number of rings (size 3 to 8) (size 9 to 14) (size 15 to 20)
#    0.000    1.500    0.000    5.250    0.000   21.000 
#    0.000    0.000    0.000    3.000    0.000    0.000 
#    0.000    0.000    0.000    0.000    0.000    0.000 
#
# Total GULP energy -89358.281948 kJ/mol
# GULP energy per Si atom -5584.892622 kJ/mol
# Density = 2.189927 g / cm^3
# Si number density = 21.949225 Si / 1000 Ang^3
#
#
#
# Elastic Constant Matrix: (Units=GPa)
#
#
# Indices 1 2 3 4 5 6 
#
# 1 183.1817 76.2353 33.0234 0.0000 0.0000 0.0000
# 2 76.2353 85.3475 44.4591 0.0000 0.0000 0.0000
# 3 33.0234 44.4591 105.2730 0.0000 0.0000 0.0000
# 4 0.0000 0.0000 0.0000 14.7604 0.0000 0.0000
# 5 0.0000 0.0000 0.0000 0.0000 27.8249 0.0000
# 6 0.0000 0.0000 0.0000 0.0000 0.0000 61.5998
#
#
#
# Elastic Compliance Matrix: (Units=1/GPa)
#
#
# Indices 1 2 3 4 5 6 
#
# 1 0.008731 -0.008169 0.000711 0.000000 0.000000 0.000000
# 2 -0.008169 0.022665 -0.007009 0.000000 0.000000 0.000000
# 3 0.000711 -0.007009 0.012236 0.000000 0.000000 0.000000
# 4 0.000000 0.000000 0.000000 0.067749 0.000000 0.000000
# 5 0.000000 0.000000 0.000000 0.000000 0.035939 0.000000
# 6 0.000000 0.000000 0.000000 0.000000 0.000000 0.016234
#
#
# Mechanical properties :
#
#
# Convention : Reuss Voigt Hill
#
# Bulk Modulus (GPa) = 68.03871 75.69310 71.86591
# Shear Modulus (GPa) = 25.33101 35.50930 30.42015
#
# Velocity S-wave (km/s) = 3.40085 4.02654 3.72685
# Velocity P-wave (km/s) = 6.81811 7.49519 7.16465
#
# Compressibility (1/GPa) = 0.01469752
#
# Stress axis : x y z
#
# Youngs Moduli (GPa) = 114.54084 44.12127 81.72460
#
# Poissons Ratio (x) = 0.36042 -0.05812
# Poissons Ratio (y) = 0.93567 0.57284
# Poissons Ratio (z) = -0.08146 0.30926
#
# Static dielectric constant tensor:
#      x y z
#    x 1.804680 0.000000 0.000000 
#    y 0.000000 1.851130 0.000000 
#    z 0.000000 0.000000 1.820060 
# 
# From -- ./inp_files/11937.got.cif
#   From: 2010.05.17/outbox.cif.g08.bks.cpg/sg24_6_cif.got.tgz:11937.got - 2010.06.04 00:33:39.
