data_PCOD9335385
_publ_section_title
;
Structure prediction by ZEFSAII (Michael W. Deem and Ramdas Pophale) SiO2 
 PCOD9335385
Probable space group: I 21 21 21
;
_chemical_formula_sum "Si O2"
_cell_formula_units_Z 56
_cell_length_a 10.018425
_cell_length_b 18.817791
_cell_length_c 13.225517
_cell_angle_alpha 90.000000
_cell_angle_beta 90.000000
_cell_angle_gamma 90.000000
_cell_volume 2493.335670
_symmetry_space_group_name_H-M "I 21 21 21"
_symmetry_group_IT_number 24
_symmetry_cell_setting 'orthorhombic'
loop_
_space_group_symop_operation_xyz
x,y,z
-x,1/2-y,z
x,-y,1/2-z
1/2-x,y,-z
1/2+x,1/2+y,1/2+z
1/2-x,-y,1/2+z
1/2+x,1/2-y,-z
-x,1/2+y,1/2-z
loop_
_atom_site_type_symbol
_atom_site_label
_atom_site_fract_x
_atom_site_fract_y
_atom_site_fract_z
Si Si1 0.000000 0.750000 0.160320
Si Si2 0.273263 0.086802 0.883947
Si Si3 0.500000 0.750000 0.156919
Si Si4 0.486821 0.552608 0.337279
Si Si5 0.902178 0.140655 0.487076
Si Si6 0.533916 0.011407 0.924699
Si Si7 0.728282 0.272163 0.784016
Si Si8 0.242081 0.371336 0.118191
O O1 0.896223 0.700763 0.218424
O O2 0.902071 0.795768 0.091941
O O3 0.143216 0.064827 0.821394
O O4 0.411452 0.046983 0.864503
O O5 0.269587 0.171690 0.874208
O O6 0.250000 0.067122 0.000000
O O7 0.466316 0.680015 0.085777
O O8 0.367692 0.767220 0.223350
O O9 0.439717 0.500000 0.250000
O O10 0.469126 0.529000 0.454185
O O11 0.389457 0.619735 0.335268
O O12 0.750000 0.116339 0.500000
O O13 0.971434 0.073504 0.432925
O O14 0.662669 0.053736 0.880719
O O15 0.682078 0.194554 0.821782
O O16 0.250000 0.351659 0.000000
#
# Coordination Sequence:
#
# PCOD9335385 Si02
#       8
#     4   8   4   8   8   8   8   8
#     4  11  26  42  65 100 128 178 225 292 344 395
#     4  10  23  43  61  97 138 180 221 275 353 403
#     4  11  26  42  73 110 130 192 227 294 354 399
#     4  10  22  38  62  96 132 170 229 281 326 404
#     4  11  23  47  70  95 140 175 236 286 353 425
#     4  10  23  43  67  91 133 183 217 273 351 408
#     4  12  23  42  68 100 141 170 243 279 336 429
#     4  10  22  41  66 100 131 184 225 277 352 397
#
# _framework density 22.459871
#
# number of rings (size 3 to 8) (size 9 to 14) (size 15 to 20)
#    0.000    1.429    1.429    3.429    4.000    2.286 
#    5.143    7.857    0.000    0.000    0.000    0.000 
#    0.000    0.000    0.000    0.000    0.000    0.000 
#
# Total GULP energy -156040.482583 kJ/mol
# GULP energy per Si atom -5572.874378 kJ/mol
# Density = 2.240875 g / cm^3
# Si number density = 22.459871 Si / 1000 Ang^3
#
#
#
# Elastic Constant Matrix: (Units=GPa)
#
#
# Indices 1 2 3 4 5 6 
#
# 1 129.3716 20.4565 27.5605 0.0000 0.0000 0.0000
# 2 20.4565 99.4127 17.8858 0.0001 0.0000 0.0000
# 3 27.5605 17.8858 42.4480 0.0002 0.0000 0.0000
# 4 0.0000 0.0001 0.0002 -1.4910 0.0000 0.0000
# 5 0.0000 0.0000 0.0000 0.0000 18.4574 0.0000
# 6 0.0000 0.0000 0.0000 0.0000 0.0000 23.8447
#
#
#
# Elastic Compliance Matrix: (Units=1/GPa)
#
#
# Indices 1 2 3 4 5 6 
#
# 1 0.009039 -0.000870 -0.005502 -0.000001 0.000000 0.000000
# 2 -0.000870 0.010968 -0.004056 0.000000 0.000000 0.000000
# 3 -0.005502 -0.004056 0.028840 0.000003 0.000000 0.000000
# 4 -0.000001 0.000000 0.000003 -0.670673 -0.000001 0.000000
# 5 0.000000 0.000000 0.000000 -0.000001 0.054179 0.000000
# 6 0.000000 0.000000 0.000000 0.000000 0.000000 0.041938
#
#
# Mechanical properties :
#
#
# Convention : Reuss Voigt Hill
#
# Bulk Modulus (GPa) = 35.72788 44.78198 40.25493
# Shear Modulus (GPa) = -10.09040 21.85086 5.88023
#
# Velocity S-wave (km/s) = -2.12188 3.12249 1.61981
# Velocity P-wave (km/s) = 3.15258 5.74299 4.63253
#
# Compressibility (1/GPa) = 0.02798935
#
# Stress axis : x y z
#
# Youngs Moduli (GPa) = 110.62606 91.17486 34.67398
#
# Poissons Ratio (x) = 0.07933 0.19079
# Poissons Ratio (y) = 0.09626 0.14065
# Poissons Ratio (z) = 0.60872 0.36985
#
# Static dielectric constant tensor:
#      x y z
#    x 1.874780 0.000000 0.000000 
#    y 0.000000 1.873390 0.000000 
#    z 0.000000 0.000000 1.874900 
# 
# From -- ./inp_files/25110.got.cif
#   From: 2010.05.17/outbox.cif.g08.bks.cpg/sg24_13_cif.got.tgz:25110.got - 2010.06.04 00:33:39.
