data_PCOD9335056
_publ_section_title
;
Structure prediction by ZEFSAII (Michael W. Deem and Ramdas Pophale) SiO2 
 PCOD9335056
Probable space group: I 21 21 21
;
_chemical_formula_sum "Si O2"
_cell_formula_units_Z 48
_cell_length_a 7.953515
_cell_length_b 14.589100
_cell_length_c 20.022531
_cell_angle_alpha 90.000000
_cell_angle_beta 90.000000
_cell_angle_gamma 90.000000
_cell_volume 2323.306890
_symmetry_space_group_name_H-M "I 21 21 21"
_symmetry_group_IT_number 24
_symmetry_cell_setting 'orthorhombic'
loop_
_space_group_symop_operation_xyz
x,y,z
-x,1/2-y,z
x,-y,1/2-z
1/2-x,y,-z
1/2+x,1/2+y,1/2+z
1/2-x,-y,1/2+z
1/2+x,1/2-y,-z
-x,1/2+y,1/2-z
loop_
_atom_site_type_symbol
_atom_site_label
_atom_site_fract_x
_atom_site_fract_y
_atom_site_fract_z
Si Si1 0.418394 0.513954 0.964438
Si Si2 0.149066 0.819176 0.061891
Si Si3 0.062080 0.145007 0.668165
Si Si4 0.413453 0.151085 0.042728
Si Si5 0.757894 0.999472 0.673478
Si Si6 0.544071 0.643659 0.314819
O O1 0.559282 0.591082 0.967524
O O2 0.472327 0.424244 0.005987
O O3 0.374069 0.497888 0.886527
O O4 0.250000 0.548464 0.000000
O O5 0.283144 0.853393 0.116928
O O6 0.000000 0.750000 0.085732
O O7 0.250000 0.774493 0.000000
O O8 0.120093 0.118532 0.743354
O O9 0.000000 0.250000 0.667360
O O10 0.897293 0.080007 0.658563
O O11 0.500000 0.250000 0.047239
O O12 0.250000 0.161935 0.000000
O O13 0.359142 0.121661 0.117437
O O14 0.690856 0.000000 0.750000
O O15 0.869406 0.908296 0.673736
O O16 0.500000 0.750000 0.311378
#
# Coordination Sequence:
#
# PCOD9335056 Si02
#       6
#     8   8   8   8   8   8
#     4  12  23  40  65  91 130 166 207 262 314 374
#     4  12  25  41  63  95 128 166 213 268 321 374
#     4  10  21  42  67  91 122 169 212 256 317 384
#     4  11  24  41  64  94 124 163 209 258 313 374
#     4  10  21  40  64  92 126 168 209 257 318 381
#     4   9  20  39  68  88 123 164 209 244 319 380
#
# _framework density 20.660208000000001
#
# number of rings (size 3 to 8) (size 9 to 14) (size 15 to 20)
#    0.000    1.333    1.667    4.000    4.667    0.000 
#    3.000    0.833    0.000    0.000    0.000    0.000 
#    0.000    0.000    0.000    0.000    0.000    0.000 
#
# Total GULP energy -133910.201581 kJ/mol
# GULP energy per Si atom -5579.591733 kJ/mol
# Density = 2.061318 g / cm^3
# Si number density = 20.660208 Si / 1000 Ang^3
#
#
#
# Elastic Constant Matrix: (Units=GPa)
#
#
# Indices 1 2 3 4 5 6 
#
# 1 71.0451 15.3936 49.2824 0.0000 0.0000 0.0000
# 2 15.3936 112.6517 2.0965 0.0000 0.0000 0.0000
# 3 49.2824 2.0965 147.7480 0.0000 0.0000 0.0000
# 4 0.0000 0.0000 0.0000 28.3088 0.0000 0.0000
# 5 0.0000 0.0000 0.0000 0.0000 30.2421 0.0000
# 6 0.0000 0.0000 0.0000 0.0000 0.0000 19.2105
#
#
#
# Elastic Compliance Matrix: (Units=1/GPa)
#
#
# Indices 1 2 3 4 5 6 
#
# 1 0.018979 -0.002476 -0.006295 0.000000 0.000000 0.000000
# 2 -0.002476 0.009202 0.000695 0.000000 0.000000 0.000000
# 3 -0.006295 0.000695 0.008858 0.000000 0.000000 0.000000
# 4 0.000000 0.000000 0.000000 0.035325 0.000000 0.000000
# 5 0.000000 0.000000 0.000000 0.000000 0.033067 0.000000
# 6 0.000000 0.000000 0.000000 0.000000 0.000000 0.052055
#
#
# Mechanical properties :
#
#
# Convention : Reuss Voigt Hill
#
# Bulk Modulus (GPa) = 47.87651 51.66553 49.77102
# Shear Modulus (GPa) = 27.68535 33.19711 30.44123
#
# Velocity S-wave (km/s) = 3.66462 4.01286 3.84268
# Velocity P-wave (km/s) = 6.41323 6.82146 6.62049
#
# Compressibility (1/GPa) = 0.02088707
#
# Stress axis : x y z
#
# Youngs Moduli (GPa) = 52.68941 108.66782 112.88825
#
# Poissons Ratio (x) = 0.26909 0.71069
# Poissons Ratio (y) = 0.13047 -0.07850
# Poissons Ratio (z) = 0.33171 -0.07557
#
# Static dielectric constant tensor:
#      x y z
#    x 1.690310 0.000000 0.000000 
#    y 0.000000 1.835570 0.000000 
#    z 0.000000 0.000000 1.818500 
# 
# From -- ./inp_files/29484.got.cif
#   From: 2010.05.17/outbox.cif.g08.bks.cpg/sg24_15_cif.got.tgz:29484.got - 2010.06.04 00:33:39.
