data_PCOD9335643
_publ_section_title
;
Structure prediction by ZEFSAII (Michael W. Deem and Ramdas Pophale) SiO2 
 PCOD9335643
Probable space group: I 21 21 21
;
_chemical_formula_sum "Si O2"
_cell_formula_units_Z 56
_cell_length_a 12.801604
_cell_length_b 14.683649
_cell_length_c 13.469899
_cell_angle_alpha 90.000000
_cell_angle_beta 90.000000
_cell_angle_gamma 90.000000
_cell_volume 2531.994294
_symmetry_space_group_name_H-M "I 21 21 21"
_symmetry_group_IT_number 24
_symmetry_cell_setting 'orthorhombic'
loop_
_space_group_symop_operation_xyz
x,y,z
-x,1/2-y,z
x,-y,1/2-z
1/2-x,y,-z
1/2+x,1/2+y,1/2+z
1/2-x,-y,1/2+z
1/2+x,1/2-y,-z
-x,1/2+y,1/2-z
loop_
_atom_site_type_symbol
_atom_site_label
_atom_site_fract_x
_atom_site_fract_y
_atom_site_fract_z
Si Si1 0.796067 0.028460 0.857060
Si Si2 0.808986 0.847821 0.103268
Si Si3 0.361535 0.098264 0.445142
Si Si4 0.005550 0.571130 0.543921
Si Si5 0.419308 0.832430 0.267314
Si Si6 0.500000 0.750000 0.595453
Si Si7 0.775093 0.227689 0.190040
Si Si8 0.500000 0.250000 0.543202
O O1 0.750892 0.129499 0.856179
O O2 0.882298 0.023005 0.942538
O O3 0.843165 0.000000 0.750000
O O4 0.708843 0.952000 0.869315
O O5 0.762555 0.787196 0.191597
O O6 0.928629 0.819884 0.102196
O O7 0.750000 0.831348 0.000000
O O8 0.250000 0.098566 0.500000
O O9 0.373957 0.110527 0.325757
O O10 0.422695 0.187061 0.482225
O O11 0.421028 0.006329 0.478047
O O12 0.983461 0.608511 0.654406
O O13 0.006225 0.658160 0.471471
O O14 0.500000 0.750000 0.238049
O O15 0.320472 0.794924 0.331283
O O16 0.391646 0.755146 0.657984
#
# Coordination Sequence:
#
# PCOD9335643 Si02
#       8
#     8   8   8   8   8   4   8   4
#     4  10  22  42  70 108 139 185 256 322 363 435
#     4  11  24  41  72 105 140 191 243 308 373 450
#     4  12  28  44  73 110 148 192 248 317 394 449
#     4  12  26  46  73 107 148 201 257 310 376 457
#     4  12  23  47  76 107 145 200 260 321 373 450
#     4  12  29  47  72 108 160 212 244 313 393 468
#     4  11  25  44  71 105 151 193 253 304 390 447
#     4  12  23  43  68 100 140 184 238 301 379 452
#
# _framework density 22.116955000000001
#
# number of rings (size 3 to 8) (size 9 to 14) (size 15 to 20)
#    0.000    0.571    2.857    4.714    8.000    1.143 
#    0.000    0.000    0.000    0.000    0.000    0.000 
#    0.000    0.000    0.000    0.000    0.000    0.000 
#
# Total GULP energy -156513.378085 kJ/mol
# GULP energy per Si atom -5589.763503 kJ/mol
# Density = 2.206662 g / cm^3
# Si number density = 22.116955 Si / 1000 Ang^3
#
#
#
# Elastic Constant Matrix: (Units=GPa)
#
#
# Indices 1 2 3 4 5 6 
#
# 1 122.8911 38.7968 21.2654 0.0000 0.0000 0.0000
# 2 38.7968 88.7824 16.2935 0.0000 0.0000 0.0000
# 3 21.2654 16.2935 76.0440 0.0000 0.0000 0.0000
# 4 0.0000 0.0000 0.0000 18.8027 0.0000 0.0000
# 5 0.0000 0.0000 0.0000 0.0000 27.7765 0.0000
# 6 0.0000 0.0000 0.0000 0.0000 0.0000 53.3980
#
#
#
# Elastic Compliance Matrix: (Units=1/GPa)
#
#
# Indices 1 2 3 4 5 6 
#
# 1 0.009690 -0.003890 -0.001876 0.000000 0.000000 0.000000
# 2 -0.003890 0.013286 -0.001759 0.000000 0.000000 0.000000
# 3 -0.001876 -0.001759 0.014052 0.000000 0.000000 0.000000
# 4 0.000000 0.000000 0.000000 0.053184 0.000000 0.000000
# 5 0.000000 0.000000 0.000000 0.000000 0.036002 0.000000
# 6 0.000000 0.000000 0.000000 0.000000 0.000000 0.018727
#
#
# Mechanical properties :
#
#
# Convention : Reuss Voigt Hill
#
# Bulk Modulus (GPa) = 45.50094 48.93652 47.21873
# Shear Modulus (GPa) = 29.88336 34.08624 31.98480
#
# Velocity S-wave (km/s) = 3.67979 3.93005 3.80698
# Velocity P-wave (km/s) = 6.21868 6.53972 6.38122
#
# Compressibility (1/GPa) = 0.02197757
#
# Stress axis : x y z
#
# Youngs Moduli (GPa) = 103.19844 75.26600 71.16498
#
# Poissons Ratio (x) = 0.29279 0.13353
# Poissons Ratio (y) = 0.40145 0.12517
# Poissons Ratio (z) = 0.19363 0.13239
#
# Static dielectric constant tensor:
#      x y z
#    x 1.936460 0.000000 0.000000 
#    y 0.000000 1.801990 0.000000 
#    z 0.000000 0.000000 1.882560 
# 
# From -- ./inp_files/25863.got.cif
#   From: 2010.05.17/outbox.cif.g08.bks.cpg/sg24_13_cif.got.tgz:25863.got - 2010.06.04 00:33:39.
