data_PCOD9335349
_publ_section_title
;
Structure prediction by ZEFSAII (Michael W. Deem and Ramdas Pophale) SiO2 
 PCOD9335349
Probable space group: I 21 21 21
;
_chemical_formula_sum "Si O2"
_cell_formula_units_Z 40
_cell_length_a 15.721885
_cell_length_b 12.881234
_cell_length_c 9.258427
_cell_angle_alpha 90.000000
_cell_angle_beta 90.000000
_cell_angle_gamma 90.000000
_cell_volume 1874.991449
_symmetry_space_group_name_H-M "I 21 21 21"
_symmetry_group_IT_number 24
_symmetry_cell_setting 'orthorhombic'
loop_
_space_group_symop_operation_xyz
x,y,z
-x,1/2-y,z
x,-y,1/2-z
1/2-x,y,-z
1/2+x,1/2+y,1/2+z
1/2-x,-y,1/2+z
1/2+x,1/2-y,-z
-x,1/2+y,1/2-z
loop_
_atom_site_type_symbol
_atom_site_label
_atom_site_fract_x
_atom_site_fract_y
_atom_site_fract_z
Si Si1 0.960452 0.096643 0.330957
Si Si2 0.098569 0.224809 0.904953
Si Si3 0.379025 0.788102 0.718871
Si Si4 0.790373 0.312395 0.647669
Si Si5 0.431094 0.013798 0.408063
O O1 0.041210 0.134934 0.234432
O O2 0.001441 0.058519 0.479669
O O3 0.900699 0.196633 0.333133
O O4 0.919158 0.000000 0.250000
O O5 0.153956 0.252119 0.764407
O O6 0.000000 0.250000 0.878253
O O7 0.105107 0.100888 0.935668
O O8 0.124590 0.266663 0.062236
O O9 0.292361 0.844277 0.759760
O O10 0.750000 0.268280 0.500000
O O11 0.852849 0.405939 0.602967
O O12 0.471658 0.000000 0.250000
#
# Coordination Sequence:
#
# PCOD9335349 Si02
#       5
#     8   8   8   8   8
#     4  11  20  38  67  91 126 166 228 263 334 402
#     4  11  22  40  62  93 127 172 217 272 334 400
#     4  11  22  39  63  95 127 173 217 281 333 395
#     4  11  24  37  58  93 131 167 212 267 338 394
#     4  10  22  37  59  93 129 168 207 270 328 401
#
# _framework density 21.333431000000001
#
# number of rings (size 3 to 8) (size 9 to 14) (size 15 to 20)
#    0.000    1.200    6.000    0.600    0.000   10.400 
#    0.000    0.000    0.000    8.400    0.000    0.000 
#    0.000    0.000    0.000    0.000    0.000    0.000 
#
# Total GULP energy -111507.078549 kJ/mol
# GULP energy per Si atom -5575.353927 kJ/mol
# Density = 2.128488 g / cm^3
# Si number density = 21.333431 Si / 1000 Ang^3
#
#
#
# Elastic Constant Matrix: (Units=GPa)
#
#
# Indices 1 2 3 4 5 6 
#
# 1 69.0405 3.5699 48.1753 0.0000 0.0000 0.0000
# 2 3.5699 47.2594 6.1719 0.0000 0.0000 0.0000
# 3 48.1753 6.1719 154.4327 0.0000 0.0000 0.0000
# 4 0.0000 0.0000 0.0000 20.3873 0.0000 0.0000
# 5 0.0000 0.0000 0.0000 0.0000 39.0919 0.0000
# 6 0.0000 0.0000 0.0000 0.0000 0.0000 16.9608
#
#
#
# Elastic Compliance Matrix: (Units=1/GPa)
#
#
# Indices 1 2 3 4 5 6 
#
# 1 0.018534 -0.000648 -0.005756 0.000000 0.000000 0.000000
# 2 -0.000648 0.021293 -0.000649 0.000000 0.000000 0.000000
# 3 -0.005756 -0.000649 0.008297 0.000000 0.000000 0.000000
# 4 0.000000 0.000000 0.000000 0.049050 0.000000 0.000000
# 5 0.000000 0.000000 0.000000 0.000000 0.025581 0.000000
# 6 0.000000 0.000000 0.000000 0.000000 0.000000 0.058959
#
#
# Mechanical properties :
#
#
# Convention : Reuss Voigt Hill
#
# Bulk Modulus (GPa) = 29.39569 42.95186 36.17378
# Shear Modulus (GPa) = 24.13592 29.47569 26.80581
#
# Velocity S-wave (km/s) = 3.36723 3.72111 3.54858
# Velocity P-wave (km/s) = 5.37836 6.21607 5.81232
#
# Compressibility (1/GPa) = 0.03401859
#
# Stress axis : x y z
#
# Youngs Moduli (GPa) = 53.95462 46.96269 120.52892
#
# Poissons Ratio (x) = 0.03045 0.69374
# Poissons Ratio (y) = 0.03498 0.07819
# Poissons Ratio (z) = 0.31055 0.03047
#
# Static dielectric constant tensor:
#      x y z
#    x 1.743610 0.000000 0.000000 
#    y 0.000000 1.803080 0.000000 
#    z 0.000000 0.000000 1.929340 
# 
# From -- ./inp_files/12346.got.cif
#   From: 2010.05.17/outbox.cif.g08.bks.cpg/sg24_7_cif.got.tgz:12346.got - 2010.06.04 00:33:39.
