data_PCOD9335459
_publ_section_title
;
Structure prediction by ZEFSAII (Michael W. Deem and Ramdas Pophale) SiO2 
 PCOD9335459
Probable space group: I 21 21 21
;
_chemical_formula_sum "Si O2"
_cell_formula_units_Z 48
_cell_length_a 20.771548
_cell_length_b 5.115808
_cell_length_c 21.745015
_cell_angle_alpha 90.000000
_cell_angle_beta 90.000000
_cell_angle_gamma 90.000000
_cell_volume 2310.695996
_symmetry_space_group_name_H-M "I 21 21 21"
_symmetry_group_IT_number 24
_symmetry_cell_setting 'orthorhombic'
loop_
_space_group_symop_operation_xyz
x,y,z
-x,1/2-y,z
x,-y,1/2-z
1/2-x,y,-z
1/2+x,1/2+y,1/2+z
1/2-x,-y,1/2+z
1/2+x,1/2-y,-z
-x,1/2+y,1/2-z
loop_
_atom_site_type_symbol
_atom_site_label
_atom_site_fract_x
_atom_site_fract_y
_atom_site_fract_z
Si Si1 0.201309 0.456541 0.819330
Si Si2 0.850434 0.142406 0.311940
Si Si3 0.178961 0.734047 0.935654
Si Si4 0.858182 0.259023 0.010719
Si Si5 0.719181 0.453463 0.875640
Si Si6 0.959065 0.988835 0.409545
O O1 0.178786 0.500000 0.750000
O O2 0.277323 0.536496 0.819423
O O3 0.160403 0.625512 0.867463
O O4 0.216126 0.165790 0.844686
O O5 0.830772 0.446560 0.323726
O O6 0.902689 0.080895 0.363670
O O7 0.873349 0.000000 0.250000
O O8 0.251238 0.830594 0.922097
O O9 0.176088 0.470522 0.974048
O O10 0.143670 0.972303 0.971133
O O11 0.821025 0.292812 0.075023
O O12 0.927185 0.144815 0.030512
O O13 0.000000 0.250000 0.422934
O O14 0.000000 0.750000 0.380777
#
# Coordination Sequence:
#
# PCOD9335459 Si02
#       6
#     8   8   8   8   8   8
#     4  10  22  40  59  93 132 172 204 245 308 392
#     4  10  23  40  60  86 121 173 221 265 312 372
#     4  11  24  36  63  93 125 165 204 251 312 402
#     4  12  24  40  61  89 123 162 218 264 329 379
#     4  11  22  38  61  94 131 168 209 256 314 392
#     4  12  26  45  62  85 118 166 224 289 333 352
#
# _framework density 20.772963000000001
#
# number of rings (size 3 to 8) (size 9 to 14) (size 15 to 20)
#    0.000    1.000    3.333    3.500    4.667    6.667 
#    0.000    0.000    0.000    0.000    0.000    0.000 
#    0.000    4.000    0.667    0.000    0.000    0.000 
#
# Total GULP energy -133604.856909 kJ/mol
# GULP energy per Si atom -5566.869038 kJ/mol
# Density = 2.072568 g / cm^3
# Si number density = 20.772963 Si / 1000 Ang^3
#
#
#
# Elastic Constant Matrix: (Units=GPa)
#
#
# Indices 1 2 3 4 5 6 
#
# 1 35.3230 19.0211 27.0430 0.0000 0.0000 0.0000
# 2 19.0211 138.4150 69.2466 0.0000 0.0000 0.0000
# 3 27.0430 69.2466 150.7636 0.0000 0.0000 0.0000
# 4 0.0000 0.0000 0.0000 22.4454 0.0000 0.0000
# 5 0.0000 0.0000 0.0000 0.0000 7.1032 0.0000
# 6 0.0000 0.0000 0.0000 0.0000 0.0000 33.9891
#
#
#
# Elastic Compliance Matrix: (Units=1/GPa)
#
#
# Indices 1 2 3 4 5 6 
#
# 1 0.033263 -0.002059 -0.005021 0.000000 0.000000 0.000000
# 2 -0.002059 0.009508 -0.003997 0.000000 0.000000 0.000000
# 3 -0.005021 -0.003997 0.009370 0.000000 0.000000 0.000000
# 4 0.000000 0.000000 0.000000 0.044552 0.000000 0.000000
# 5 0.000000 0.000000 0.000000 0.000000 0.140781 0.000000
# 6 0.000000 0.000000 0.000000 0.000000 0.000000 0.029421
#
#
# Mechanical properties :
#
#
# Convention : Reuss Voigt Hill
#
# Bulk Modulus (GPa) = 33.34988 61.68034 47.51511
# Shear Modulus (GPa) = 16.71995 26.65362 21.68678
#
# Velocity S-wave (km/s) = 2.84014 3.58591 3.23459
# Velocity P-wave (km/s) = 5.18117 6.84851 6.07234
#
# Compressibility (1/GPa) = 0.02998511
#
# Stress axis : x y z
#
# Youngs Moduli (GPa) = 30.06358 105.18010 106.72890
#
# Poissons Ratio (x) = 0.21659 0.53585
# Poissons Ratio (y) = 0.06191 0.42665
# Poissons Ratio (z) = 0.15094 0.42045
#
# Static dielectric constant tensor:
#      x y z
#    x 1.749980 0.000000 0.000000 
#    y 0.000000 2.235050 0.000000 
#    z 0.000000 0.000000 1.825570 
# 
# From -- ./inp_files/34072.got.cif
#   From: 2010.05.17/outbox.cif.g08.bks.cpg/sg24_18_cif.got.tgz:34072.got - 2010.06.04 00:33:39.
