data_PCOD9335541
_publ_section_title
;
Structure prediction by ZEFSAII (Michael W. Deem and Ramdas Pophale) SiO2 
 PCOD9335541
Probable space group: I 21 21 21
;
_chemical_formula_sum "Si O2"
_cell_formula_units_Z 32
_cell_length_a 32.198340
_cell_length_b 5.971097
_cell_length_c 7.716952
_cell_angle_alpha 90.000000
_cell_angle_beta 90.000000
_cell_angle_gamma 90.000000
_cell_volume 1483.656649
_symmetry_space_group_name_H-M "I 21 21 21"
_symmetry_group_IT_number 24
_symmetry_cell_setting 'orthorhombic'
loop_
_space_group_symop_operation_xyz
x,y,z
-x,1/2-y,z
x,-y,1/2-z
1/2-x,y,-z
1/2+x,1/2+y,1/2+z
1/2-x,-y,1/2+z
1/2+x,1/2-y,-z
-x,1/2+y,1/2-z
loop_
_atom_site_type_symbol
_atom_site_label
_atom_site_fract_x
_atom_site_fract_y
_atom_site_fract_z
Si Si1 0.713895 0.500000 0.250000
Si Si2 0.611245 0.000000 0.750000
Si Si3 0.452313 0.166947 0.903909
Si Si4 0.476607 0.000000 0.250000
Si Si5 0.250000 0.654611 0.500000
Si Si6 0.831705 0.874670 0.935734
O O1 0.742937 0.684608 0.336942
O O2 0.684053 0.628423 0.116170
O O3 0.580575 0.858070 0.627714
O O4 0.638148 0.125374 0.602168
O O5 0.500000 0.250000 0.895615
O O6 0.445868 0.000000 0.750000
O O7 0.449007 0.037601 0.082795
O O8 0.500000 0.250000 0.271191
O O9 0.291197 0.508207 0.501632
O O10 0.844649 0.000000 0.750000
#
# Coordination Sequence:
#
# PCOD9335541 Si02
#       6
#     4   4   8   4   4   8
#     4  10  22  42  75 101 150 196 245 304 380 454
#     4  12  28  44  78 107 161 190 256 324 374 450
#     4  11  24  46  74 108 147 202 258 315 382 458
#     4  10  24  44  83 114 149 200 263 320 388 466
#     4  10  22  40  74 106 144 196 248 306 370 462
#     4  10  25  45  66 110 153 195 250 311 376 453
#
# _framework density 21.56833
#
# number of rings (size 3 to 8) (size 9 to 14) (size 15 to 20)
#    0.000    1.500    1.250    1.500   12.250    6.000 
#    2.250    1.250    0.000    0.000    0.000    0.000 
#    0.000    0.000    0.000    0.000    0.000    0.000 
#
# Total GULP energy -89227.772452 kJ/mol
# GULP energy per Si atom -5576.735778 kJ/mol
# Density = 2.151924 g / cm^3
# Si number density = 21.568330 Si / 1000 Ang^3
#
#
#
# Elastic Constant Matrix: (Units=GPa)
#
#
# Indices 1 2 3 4 5 6 
#
# 1 87.8238 43.9259 57.5459 0.0000 0.0000 0.0000
# 2 43.9259 106.3071 53.0472 0.0000 0.0000 0.0000
# 3 57.5459 53.0472 159.6270 0.0000 0.0000 0.0000
# 4 0.0000 0.0000 0.0000 45.7329 0.0000 0.0000
# 5 0.0000 0.0000 0.0000 0.0000 117.0973 0.0000
# 6 0.0000 0.0000 0.0000 0.0000 0.0000 22.1777
#
#
#
# Elastic Compliance Matrix: (Units=1/GPa)
#
#
# Indices 1 2 3 4 5 6 
#
# 1 0.016627 -0.004650 -0.004449 0.000000 0.000000 0.000000
# 2 -0.004650 0.012577 -0.002503 0.000000 0.000000 0.000000
# 3 -0.004449 -0.002503 0.008700 0.000000 0.000000 0.000000
# 4 0.000000 0.000000 0.000000 0.021866 0.000000 0.000000
# 5 0.000000 0.000000 0.000000 0.000000 0.008540 0.000000
# 6 0.000000 0.000000 0.000000 0.000000 0.000000 0.045090
#
#
# Mechanical properties :
#
#
# Convention : Reuss Voigt Hill
#
# Bulk Modulus (GPa) = 68.02655 73.64401 70.83528
# Shear Modulus (GPa) = 35.33407 50.28417 42.80912
#
# Velocity S-wave (km/s) = 4.05191 4.83368 4.45996
# Velocity P-wave (km/s) = 7.31431 8.08525 7.70942
#
# Compressibility (1/GPa) = 0.01470014
#
# Stress axis : x y z
#
# Youngs Moduli (GPa) = 60.14146 79.50784 114.93900
#
# Poissons Ratio (x) = 0.36975 0.51134
# Poissons Ratio (y) = 0.27969 0.28772
# Poissons Ratio (z) = 0.26756 0.19902
#
# Static dielectric constant tensor:
#      x y z
#    x 1.629600 0.000000 0.000000 
#    y 0.000000 1.816830 0.000000 
#    z 0.000000 0.000000 1.752270 
# 
# From -- ./inp_files/1343.got.cif
#   From: 2010.05.17/outbox.cif.g08.bks.cpg/sg24_1_cif.got.tgz:1343.got - 2010.06.04 00:33:39.
