data_PCOD9335611
_publ_section_title
;
Structure prediction by ZEFSAII (Michael W. Deem and Ramdas Pophale) SiO2 
 PCOD9335611
Probable space group: I 21 21 21
;
_chemical_formula_sum "Si O2"
_cell_formula_units_Z 36
_cell_length_a 5.438706
_cell_length_b 17.556480
_cell_length_c 14.760575
_cell_angle_alpha 90.000000
_cell_angle_beta 90.000000
_cell_angle_gamma 90.000000
_cell_volume 1409.406612
_symmetry_space_group_name_H-M "I 21 21 21"
_symmetry_group_IT_number 24
_symmetry_cell_setting 'orthorhombic'
loop_
_space_group_symop_operation_xyz
x,y,z
-x,1/2-y,z
x,-y,1/2-z
1/2-x,y,-z
1/2+x,1/2+y,1/2+z
1/2-x,-y,1/2+z
1/2+x,1/2-y,-z
-x,1/2+y,1/2-z
loop_
_atom_site_type_symbol
_atom_site_label
_atom_site_fract_x
_atom_site_fract_y
_atom_site_fract_z
Si Si1 0.500000 0.750000 0.548040
Si Si2 0.729997 0.814877 0.844736
Si Si3 0.728382 0.349807 0.362687
Si Si4 0.219411 0.017603 0.892036
Si Si5 0.214205 0.605851 0.345236
O O1 0.750000 0.715347 0.500000
O O2 0.363595 0.682479 0.601864
O O3 0.495186 0.838094 0.903190
O O4 0.744383 0.728441 0.802635
O O5 0.737528 0.870806 0.759349
O O6 0.968308 0.830451 0.903777
O O7 0.703555 0.437490 0.338618
O O8 0.474961 0.054385 0.860648
O O9 0.971018 0.067417 0.877039
O O10 0.250000 0.001231 0.000000
#
# Coordination Sequence:
#
# PCOD9335611 Si02
#       5
#     4   8   8   8   8
#     4  12  24  40  62  90 128 178 224 260 310 388
#     4  10  22  42  65  95 124 166 219 265 325 379
#     4  10  22  42  66  94 132 166 214 270 321 388
#     4  12  26  44  65  97 134 173 213 263 329 389
#     4  12  25  42  66  94 133 170 214 272 322 387
#
# _framework density 25.542663999999998
#
# number of rings (size 3 to 8) (size 9 to 14) (size 15 to 20)
#    0.000    0.889    0.000    8.000    0.000    8.889 
#    0.000    4.444    0.000    0.000    0.000    0.000 
#    0.000    0.000    0.000    0.000    0.000    0.000 
#
# Total GULP energy -100205.857406 kJ/mol
# GULP energy per Si atom -5566.992078 kJ/mol
# Density = 2.548453 g / cm^3
# Si number density = 25.542664 Si / 1000 Ang^3
#
#
#
# Elastic Constant Matrix: (Units=GPa)
#
#
# Indices 1 2 3 4 5 6 
#
# 1 280.0632 84.8075 49.1023 0.0000 0.0000 0.0000
# 2 84.8075 167.3652 23.7405 0.0000 0.0000 0.0000
# 3 49.1023 23.7405 103.8053 0.0000 0.0000 0.0000
# 4 0.0000 0.0000 0.0000 -41.3923 0.0000 0.0000
# 5 0.0000 0.0000 0.0000 0.0000 -108.9998 0.0000
# 6 0.0000 0.0000 0.0000 0.0000 0.0000 51.7801
#
#
#
# Elastic Compliance Matrix: (Units=1/GPa)
#
#
# Indices 1 2 3 4 5 6 
#
# 1 0.004476 -0.002034 -0.001652 0.000000 0.000000 0.000000
# 2 -0.002034 0.007099 -0.000662 0.000000 0.000000 0.000000
# 3 -0.001652 -0.000662 0.010566 0.000000 0.000000 0.000000
# 4 0.000000 0.000000 0.000000 -0.024159 0.000000 0.000000
# 5 0.000000 0.000000 0.000000 0.000000 -0.009174 0.000000
# 6 0.000000 0.000000 0.000000 0.000000 0.000000 0.019312
#
#
# Mechanical properties :
#
#
# Convention : Reuss Voigt Hill
#
# Bulk Modulus (GPa) = 74.36831 96.28158 85.32495
# Shear Modulus (GPa) = 234.76130 6.51649 120.63889
#
# Velocity S-wave (km/s) = 9.59734 1.59899 6.87989
# Velocity P-wave (km/s) = 12.32844 6.41757 9.82791
#
# Compressibility (1/GPa) = 0.01344659
#
# Stress axis : x y z
#
# Youngs Moduli (GPa) = 223.40569 140.85744 94.64095
#
# Poissons Ratio (x) = 0.28648 0.15637
# Poissons Ratio (y) = 0.45436 0.06261
# Poissons Ratio (z) = 0.36911 0.09319
#
# Static dielectric constant tensor:
#      x y z
#    x 2.171580 0.000000 0.000000 
#    y 0.000000 2.089790 0.000000 
#    z 0.000000 0.000000 2.024690 
# 
# From -- ./inp_files/28611.got.cif
#   From: 2010.05.17/outbox.cif.g08.bks.cpg/sg24_15_cif.got.tgz:28611.got - 2010.06.04 00:33:39.
