data_PCOD9335509
_publ_section_title
;
Structure prediction by ZEFSAII (Michael W. Deem and Ramdas Pophale) SiO2 
 PCOD9335509
Probable space group: I 21 21 21
;
_chemical_formula_sum "Si O2"
_cell_formula_units_Z 32
_cell_length_a 6.729103
_cell_length_b 9.690162
_cell_length_c 22.936276
_cell_angle_alpha 90.000000
_cell_angle_beta 90.000000
_cell_angle_gamma 90.000000
_cell_volume 1495.585065
_symmetry_space_group_name_H-M "I 21 21 21"
_symmetry_group_IT_number 24
_symmetry_cell_setting 'orthorhombic'
loop_
_space_group_symop_operation_xyz
x,y,z
-x,1/2-y,z
x,-y,1/2-z
1/2-x,y,-z
1/2+x,1/2+y,1/2+z
1/2-x,-y,1/2+z
1/2+x,1/2-y,-z
-x,1/2+y,1/2-z
loop_
_atom_site_type_symbol
_atom_site_label
_atom_site_fract_x
_atom_site_fract_y
_atom_site_fract_z
Si Si1 0.361085 0.069079 0.557497
Si Si2 0.500000 0.750000 0.841898
Si Si3 0.377623 0.607918 0.198115
Si Si4 0.478558 0.894900 0.397318
Si Si5 0.750000 0.960949 0.500000
O O1 0.250000 0.124940 0.500000
O O2 0.362017 0.165110 0.613623
O O3 0.238563 0.934267 0.578045
O O4 0.585458 0.044085 0.536747
O O5 0.354125 0.651418 0.806143
O O6 0.500000 0.750000 0.204589
O O7 0.412347 0.500000 0.250000
O O8 0.443819 0.523776 0.140424
O O9 0.500000 0.750000 0.364094
O O10 0.622782 0.879373 0.452813
#
# Coordination Sequence:
#
# PCOD9335509 Si02
#       5
#     8   4   8   8   4
#     4  10  23  39  68 108 144 187 222 279 346 425
#     4  12  24  46  70 102 142 178 236 288 358 424
#     4  12  27  51  74  99 134 184 239 300 356 414
#     4  11  24  43  69 104 143 189 231 284 344 413
#     4  10  22  40  66 108 148 186 226 274 344 420
#
# _framework density 21.396308000000001
#
# number of rings (size 3 to 8) (size 9 to 14) (size 15 to 20)
#    0.000    1.000    5.000    0.750    7.000    1.000 
#    4.500    0.000    0.000    0.000    0.000    0.000 
#    0.000    0.000    0.000    0.000    0.000    0.000 
#
# Total GULP energy -89345.809854 kJ/mol
# GULP energy per Si atom -5584.113116 kJ/mol
# Density = 2.134761 g / cm^3
# Si number density = 21.396308 Si / 1000 Ang^3
#
#
#
# Elastic Constant Matrix: (Units=GPa)
#
#
# Indices 1 2 3 4 5 6 
#
# 1 108.3046 43.7458 23.7123 0.0000 0.0000 0.0000
# 2 43.7458 140.7803 43.7774 0.0000 0.0000 0.0000
# 3 23.7123 43.7774 72.0644 0.0000 0.0000 0.0000
# 4 0.0000 0.0000 0.0000 33.9511 0.0000 0.0000
# 5 0.0000 0.0000 0.0000 0.0000 16.7091 0.0000
# 6 0.0000 0.0000 0.0000 0.0000 0.0000 26.6158
#
#
#
# Elastic Compliance Matrix: (Units=1/GPa)
#
#
# Indices 1 2 3 4 5 6 
#
# 1 0.010757 -0.002764 -0.001860 0.000000 0.000000 0.000000
# 2 -0.002764 0.009468 -0.004842 0.000000 0.000000 0.000000
# 3 -0.001860 -0.004842 0.017430 0.000000 0.000000 0.000000
# 4 0.000000 0.000000 0.000000 0.029454 0.000000 0.000000
# 5 0.000000 0.000000 0.000000 0.000000 0.059847 0.000000
# 6 0.000000 0.000000 0.000000 0.000000 0.000000 0.037572
#
#
# Mechanical properties :
#
#
# Convention : Reuss Voigt Hill
#
# Bulk Modulus (GPa) = 53.41333 60.40224 56.90779
# Shear Modulus (GPa) = 26.35716 29.44946 27.90331
#
# Velocity S-wave (km/s) = 3.51359 3.71398 3.61518
# Velocity P-wave (km/s) = 6.44037 6.83250 6.63933
#
# Compressibility (1/GPa) = 0.01872192
#
# Stress axis : x y z
#
# Youngs Moduli (GPa) = 92.96279 105.62052 57.37224
#
# Poissons Ratio (x) = 0.29194 0.10673
# Poissons Ratio (y) = 0.25696 0.27780
# Poissons Ratio (z) = 0.17295 0.51141
#
# Static dielectric constant tensor:
#      x y z
#    x 1.788430 0.000000 0.000000 
#    y 0.000000 1.870690 0.000000 
#    z 0.000000 0.000000 1.772090 
# 
# From -- ./inp_files/31903.got.cif
#   From: 2010.05.17/outbox.cif.g08.bks.cpg/sg24_16_cif.got.tgz:31903.got - 2010.06.04 00:33:39.
