data_PCOD9335697
_publ_section_title
;
Structure prediction by ZEFSAII (Michael W. Deem and Ramdas Pophale) SiO2 
 PCOD9335697
Probable space group: I 21 21 21
;
_chemical_formula_sum "Si O2"
_cell_formula_units_Z 40
_cell_length_a 15.338051
_cell_length_b 13.853779
_cell_length_c 9.464240
_cell_angle_alpha 90.000000
_cell_angle_beta 90.000000
_cell_angle_gamma 90.000000
_cell_volume 2011.056063
_symmetry_space_group_name_H-M "I 21 21 21"
_symmetry_group_IT_number 24
_symmetry_cell_setting 'orthorhombic'
loop_
_space_group_symop_operation_xyz
x,y,z
-x,1/2-y,z
x,-y,1/2-z
1/2-x,y,-z
1/2+x,1/2+y,1/2+z
1/2-x,-y,1/2+z
1/2+x,1/2-y,-z
-x,1/2+y,1/2-z
loop_
_atom_site_type_symbol
_atom_site_label
_atom_site_fract_x
_atom_site_fract_y
_atom_site_fract_z
Si Si1 0.942416 0.889387 0.250393
Si Si2 0.106950 0.000000 0.750000
Si Si3 0.707632 0.762468 0.872650
Si Si4 0.679257 0.317287 0.121831
Si Si5 0.500000 0.750000 0.508726
Si Si6 0.944950 0.654833 0.976778
O O1 0.860378 0.822203 0.218440
O O2 0.987070 0.843216 0.388848
O O3 0.006065 0.880612 0.116809
O O4 0.915718 0.000000 0.250000
O O5 0.162100 0.930341 0.648539
O O6 0.057424 0.075312 0.646683
O O7 0.779321 0.722866 0.765762
O O8 0.650009 0.684463 0.960707
O O9 0.750000 0.823323 0.000000
O O10 0.750000 0.302134 0.000000
O O11 0.587572 0.268032 0.080485
O O12 0.000000 0.750000 0.930656
#
# Coordination Sequence:
#
# PCOD9335697 Si02
#       6
#     8   4   8   8   4   8
#     4  11  22  45  71  96 135 185 230 271 361 420
#     4  12  26  38  72 106 136 184 238 290 352 424
#     4  11  22  45  67  94 143 182 218 290 353 408
#     4  12  26  43  70 103 139 179 239 290 350 416
#     4  12  24  46  72 102 144 184 228 306 352 416
#     4  10  22  43  69  99 142 181 224 286 358 415
#
# _framework density 19.890046999999999
#
# number of rings (size 3 to 8) (size 9 to 14) (size 15 to 20)
#    0.000    0.800    7.000    1.200    4.200    0.000 
#    5.400    0.000    2.200    0.000    0.000    0.000 
#    0.000    0.000    0.000    0.000    0.000    0.000 
#
# Total GULP energy -111624.429023 kJ/mol
# GULP energy per Si atom -5581.221451 kJ/mol
# Density = 1.984478 g / cm^3
# Si number density = 19.890047 Si / 1000 Ang^3
#
#
#
# Elastic Constant Matrix: (Units=GPa)
#
#
# Indices 1 2 3 4 5 6 
#
# 1 127.8627 36.4306 77.5363 0.0000 0.0000 0.0000
# 2 36.4306 78.1860 62.4842 0.0000 0.0000 0.0000
# 3 77.5363 62.4842 135.9412 0.0000 0.0000 0.0000
# 4 0.0000 0.0000 0.0000 37.1672 0.0000 0.0000
# 5 0.0000 0.0000 0.0000 0.0000 30.9970 0.0000
# 6 0.0000 0.0000 0.0000 0.0000 0.0000 3.9748
#
#
#
# Elastic Compliance Matrix: (Units=1/GPa)
#
#
# Indices 1 2 3 4 5 6 
#
# 1 0.011958 -0.000191 -0.006732 0.000000 0.000000 0.000000
# 2 -0.000191 0.020219 -0.009184 0.000000 0.000000 0.000000
# 3 -0.006732 -0.009184 0.015418 0.000000 0.000000 0.000000
# 4 0.000000 0.000000 0.000000 0.026905 0.000000 0.000000
# 5 0.000000 0.000000 0.000000 0.000000 0.032261 0.000000
# 6 0.000000 0.000000 0.000000 0.000000 0.000000 0.251584
#
#
# Mechanical properties :
#
#
# Convention : Reuss Voigt Hill
#
# Bulk Modulus (GPa) = 65.02691 77.21022 71.11856
# Shear Modulus (GPa) = 12.63623 25.46374 19.04998
#
# Velocity S-wave (km/s) = 2.52326 3.58190 3.09813
# Velocity P-wave (km/s) = 6.42287 7.48395 6.97362
#
# Compressibility (1/GPa) = 0.01537825
#
# Stress axis : x y z
#
# Youngs Moduli (GPa) = 83.62594 49.45827 64.86096
#
# Poissons Ratio (x) = 0.00947 0.43667
# Poissons Ratio (y) = 0.01601 0.59571
# Poissons Ratio (z) = 0.56301 0.45424
#
# Static dielectric constant tensor:
#      x y z
#    x 1.780100 0.000000 0.000000 
#    y 0.000000 1.756170 0.000000 
#    z 0.000000 0.000000 1.725570 
# 
# From -- ./inp_files/12368.got.cif
#   From: 2010.05.17/outbox.cif.g08.bks.cpg/sg24_7_cif.got.tgz:12368.got - 2010.06.04 00:33:39.
