data_PCOD9335127
_publ_section_title
;
Structure prediction by ZEFSAII (Michael W. Deem and Ramdas Pophale) SiO2 
 PCOD9335127
Probable space group: I 21 21 21
;
_chemical_formula_sum "Si O2"
_cell_formula_units_Z 64
_cell_length_a 18.650111
_cell_length_b 19.083922
_cell_length_c 9.475134
_cell_angle_alpha 90.000000
_cell_angle_beta 90.000000
_cell_angle_gamma 90.000000
_cell_volume 3372.363766
_symmetry_space_group_name_H-M "I 21 21 21"
_symmetry_group_IT_number 24
_symmetry_cell_setting 'orthorhombic'
loop_
_space_group_symop_operation_xyz
x,y,z
-x,1/2-y,z
x,-y,1/2-z
1/2-x,y,-z
1/2+x,1/2+y,1/2+z
1/2-x,-y,1/2+z
1/2+x,1/2-y,-z
-x,1/2+y,1/2-z
loop_
_atom_site_type_symbol
_atom_site_label
_atom_site_fract_x
_atom_site_fract_y
_atom_site_fract_z
Si Si1 0.279217 0.339357 0.646844
Si Si2 0.043848 0.068582 0.829294
Si Si3 0.959392 0.676946 0.919593
Si Si4 0.704043 0.059043 0.133759
Si Si5 0.213098 0.064026 0.848765
Si Si6 0.290582 0.185979 0.368106
Si Si7 0.567134 0.103828 0.629167
Si Si8 0.070756 0.443634 0.047620
O O1 0.250000 0.370168 0.500000
O O2 0.250966 0.384064 0.779755
O O3 0.245174 0.261876 0.656816
O O4 0.364691 0.344009 0.624049
O O5 0.029827 0.131326 0.721613
O O6 0.127268 0.056625 0.860482
O O7 0.015234 0.000000 0.750000
O O8 0.003126 0.074852 0.974029
O O9 0.873639 0.689383 0.916649
O O10 0.000000 0.750000 0.909523
O O11 0.997200 0.636034 0.051262
O O12 0.687660 0.000000 0.250000
O O13 0.750000 0.032834 0.000000
O O14 0.632243 0.085704 0.056714
O O15 0.221321 0.137144 0.766412
O O16 0.238948 0.000000 0.750000
O O17 0.250000 0.063164 0.000000
O O18 0.250000 0.151888 0.500000
O O19 0.564990 0.085782 0.794994
O O20 0.582530 0.027924 0.557794
#
# Coordination Sequence:
#
# PCOD9335127 Si02
#       8
#     8   8   8   8   8   8   8   8
#     4  11  23  40  62  93 131 175 220 268 318 395
#     4  10  21  41  63  93 124 165 215 269 323 394
#     4  11  23  40  67  92 126 175 219 266 329 397
#     4  12  23  36  59  90 134 181 221 262 313 377
#     4  10  22  42  66  94 123 157 214 278 334 399
#     4  10  23  42  65  93 124 166 218 272 335 390
#     4  11  23  42  61  96 135 169 220 266 327 394
#     4  11  23  39  63  95 134 172 216 266 323 390
#
# _framework density 18.977785999999998
#
# number of rings (size 3 to 8) (size 9 to 14) (size 15 to 20)
#    0.000    1.250    2.500    4.125    3.500    1.500 
#    2.250    0.625    0.000    0.000    0.000    0.000 
#    0.000    0.000    0.000    0.000    0.000    0.000 
#
# Total GULP energy -178472.707738 kJ/mol
# GULP energy per Si atom -5577.272117 kJ/mol
# Density = 1.893459 g / cm^3
# Si number density = 18.977786 Si / 1000 Ang^3
#
#
#
# Elastic Constant Matrix: (Units=GPa)
#
#
# Indices 1 2 3 4 5 6 
#
# 1 84.8798 54.0967 69.3832 0.0000 0.0000 0.0000
# 2 54.0967 77.2916 39.4634 0.0000 0.0000 0.0000
# 3 69.3832 39.4634 139.3380 0.0000 0.0000 0.0000
# 4 0.0000 0.0000 0.0000 16.1065 0.0000 0.0000
# 5 0.0000 0.0000 0.0000 0.0000 16.8588 0.0000
# 6 0.0000 0.0000 0.0000 0.0000 0.0000 -154.0206
#
#
#
# Elastic Compliance Matrix: (Units=1/GPa)
#
#
# Indices 1 2 3 4 5 6 
#
# 1 0.030879 -0.016088 -0.010820 0.000000 0.000000 0.000000
# 2 -0.016088 0.023507 0.001353 0.000000 0.000000 0.000000
# 3 -0.010820 0.001353 0.012181 0.000000 0.000000 0.000000
# 4 0.000000 0.000000 0.000000 0.062087 0.000000 0.000000
# 5 0.000000 0.000000 0.000000 0.000000 0.059316 0.000000
# 6 0.000000 0.000000 0.000000 0.000000 0.000000 -0.006493
#
#
# Mechanical properties :
#
#
# Convention : Reuss Voigt Hill
#
# Bulk Modulus (GPa) = 64.68952 69.71068 67.20010
# Shear Modulus (GPa) = 21.03133 -14.97332 3.02900
#
# Velocity S-wave (km/s) = 3.33259 -2.81195 1.26473
# Velocity P-wave (km/s) = 6.99780 5.12541 6.13347
#
# Compressibility (1/GPa) = 0.01545846
#
# Stress axis : x y z
#
# Youngs Moduli (GPa) = 32.38405 42.54008 82.09362
#
# Poissons Ratio (x) = 0.68440 0.88824
# Poissons Ratio (y) = 0.52100 -0.11111
# Poissons Ratio (z) = 0.35039 -0.05757
#
# Static dielectric constant tensor:
#      x y z
#    x 1.706200 0.000000 0.000000 
#    y 0.000000 1.670820 0.000000 
#    z 0.000000 0.000000 1.791910 
# 
# From -- ./inp_files/14592.got.cif
#   From: 2010.05.17/outbox.cif.g08.bks.cpg/sg24_8_cif.got.tgz:14592.got - 2010.06.04 00:33:39.
