data_PCOD9335170
_publ_section_title
;
Structure prediction by ZEFSAII (Michael W. Deem and Ramdas Pophale) SiO2 
 PCOD9335170
Probable space group: I 21 21 21
;
_chemical_formula_sum "Si O2"
_cell_formula_units_Z 36
_cell_length_a 14.766006
_cell_length_b 8.842403
_cell_length_c 11.921953
_cell_angle_alpha 90.000000
_cell_angle_beta 90.000000
_cell_angle_gamma 90.000000
_cell_volume 1556.613348
_symmetry_space_group_name_H-M "I 21 21 21"
_symmetry_group_IT_number 24
_symmetry_cell_setting 'orthorhombic'
loop_
_space_group_symop_operation_xyz
x,y,z
-x,1/2-y,z
x,-y,1/2-z
1/2-x,y,-z
1/2+x,1/2+y,1/2+z
1/2-x,-y,1/2+z
1/2+x,1/2-y,-z
-x,1/2+y,1/2-z
loop_
_atom_site_type_symbol
_atom_site_label
_atom_site_fract_x
_atom_site_fract_y
_atom_site_fract_z
Si Si1 0.250000 0.332446 0.500000
Si Si2 0.194353 0.824860 0.775410
Si Si3 0.144724 0.668714 0.301197
Si Si4 0.000000 0.750000 0.125327
Si Si5 0.566286 0.027530 0.006579
Si Si6 0.500000 0.750000 0.305155
O O1 0.238791 0.226225 0.607902
O O2 0.162303 0.439472 0.514157
O O3 0.255857 0.736046 0.685075
O O4 0.089532 0.780074 0.766865
O O5 0.202678 0.000000 0.750000
O O6 0.154055 0.500000 0.250000
O O7 0.085105 0.755526 0.209133
O O8 0.089572 0.655747 0.415326
O O9 0.002972 0.600436 0.049279
O O10 0.524751 0.106434 0.115407
#
# Coordination Sequence:
#
# PCOD9335170 Si02
#       6
#     4   8   8   4   8   4
#     4  12  26  52  80 102 162 218 248 314 426 462
#     4  12  30  48  78 112 151 203 264 328 388 481
#     4  10  21  46  73 109 145 205 258 315 380 470
#     4  10  21  41  76 106 156 200 262 310 388 454
#     4  11  25  45  78 111 154 208 249 321 391 475
#     4  12  31  47  76 118 160 192 268 328 392 472
#
# _framework density 23.127130999999999
#
# number of rings (size 3 to 8) (size 9 to 14) (size 15 to 20)
#    0.000    0.889    4.444    2.000    6.222    6.222 
#    0.000    0.000    0.000    0.000    0.000    0.000 
#    0.000    0.000    0.000    0.000    0.000    0.000 
#
# Total GULP energy -100728.960977 kJ/mol
# GULP energy per Si atom -5596.053388 kJ/mol
# Density = 2.307449 g / cm^3
# Si number density = 23.127131 Si / 1000 Ang^3
#
#
#
# Elastic Constant Matrix: (Units=GPa)
#
#
# Indices 1 2 3 4 5 6 
#
# 1 160.1032 57.6047 37.8452 0.0000 0.0000 0.0000
# 2 57.6047 68.4001 38.2937 0.0000 0.0000 0.0000
# 3 37.8452 38.2937 88.7865 0.0000 0.0000 0.0000
# 4 0.0000 0.0000 0.0000 18.5434 0.0000 0.0000
# 5 0.0000 0.0000 0.0000 0.0000 19.5822 0.0000
# 6 0.0000 0.0000 0.0000 0.0000 0.0000 43.3753
#
#
#
# Elastic Compliance Matrix: (Units=1/GPa)
#
#
# Indices 1 2 3 4 5 6 
#
# 1 0.008999 -0.007160 -0.000748 0.000000 0.000000 0.000000
# 2 -0.007160 0.024971 -0.007718 0.000000 0.000000 0.000000
# 3 -0.000748 -0.007718 0.014910 0.000000 0.000000 0.000000
# 4 0.000000 0.000000 0.000000 0.053928 0.000000 0.000000
# 5 0.000000 0.000000 0.000000 0.000000 0.051067 0.000000
# 6 0.000000 0.000000 0.000000 0.000000 0.000000 0.023055
#
#
# Mechanical properties :
#
#
# Convention : Reuss Voigt Hill
#
# Bulk Modulus (GPa) = 56.72537 64.97521 60.85029
# Shear Modulus (GPa) = 23.35833 28.53659 25.94746
#
# Velocity S-wave (km/s) = 3.18149 3.51650 3.35318
# Velocity P-wave (km/s) = 6.17064 6.68158 6.43118
#
# Compressibility (1/GPa) = 0.01762880
#
# Stress axis : x y z
#
# Youngs Moduli (GPa) = 111.12514 40.04686 67.06723
#
# Poissons Ratio (x) = 0.28674 0.05014
# Poissons Ratio (y) = 0.79566 0.51762
# Poissons Ratio (z) = 0.08308 0.30908
#
# Static dielectric constant tensor:
#      x y z
#    x 1.897040 0.000000 0.000000 
#    y 0.000000 1.875650 0.000000 
#    z 0.000000 0.000000 1.922770 
# 
# From -- ./inp_files/26273.got.cif
#   From: 2010.05.17/outbox.cif.g08.bks.cpg/sg24_14_cif.got.tgz:26273.got - 2010.06.04 00:33:39.
