data_PCOD9335316
_publ_section_title
;
Structure prediction by ZEFSAII (Michael W. Deem and Ramdas Pophale) SiO2 
 PCOD9335316
Probable space group: I 21 21 21
;
_chemical_formula_sum "Si O2"
_cell_formula_units_Z 36
_cell_length_a 15.987188
_cell_length_b 14.633759
_cell_length_c 7.646177
_cell_angle_alpha 90.000000
_cell_angle_beta 90.000000
_cell_angle_gamma 90.000000
_cell_volume 1788.843420
_symmetry_space_group_name_H-M "I 21 21 21"
_symmetry_group_IT_number 24
_symmetry_cell_setting 'orthorhombic'
loop_
_space_group_symop_operation_xyz
x,y,z
-x,1/2-y,z
x,-y,1/2-z
1/2-x,y,-z
1/2+x,1/2+y,1/2+z
1/2-x,-y,1/2+z
1/2+x,1/2-y,-z
-x,1/2+y,1/2-z
loop_
_atom_site_type_symbol
_atom_site_label
_atom_site_fract_x
_atom_site_fract_y
_atom_site_fract_z
Si Si1 0.750000 0.743716 0.500000
Si Si2 0.422090 0.695584 0.365675
Si Si3 0.000000 0.750000 0.960659
Si Si4 0.465275 0.068782 0.616575
Si Si5 0.495924 0.500000 0.250000
Si Si6 0.276403 0.899353 0.803594
O O1 0.663615 0.798732 0.471523
O O2 0.747380 0.677196 0.666388
O O3 0.500000 0.750000 0.457536
O O4 0.445399 0.591770 0.308468
O O5 0.423266 0.751564 0.179159
O O6 0.988158 0.837825 0.077773
O O7 0.376781 0.093623 0.698714
O O8 0.509100 0.000000 0.750000
O O9 0.453582 0.024724 0.424873
O O10 0.243810 0.000000 0.750000
O O11 0.250000 0.878296 0.000000
#
# Coordination Sequence:
#
# PCOD9335316 Si02
#       6
#     4   8   4   8   4   8
#     4  12  24  44  64  98 136 168 232 266 330 402
#     4   9  22  40  74  91 127 182 205 277 331 382
#     4   8  18  40  60  94 132 162 216 266 330 372
#     4  10  22  34  61  92 120 167 213 263 321 391
#     4  10  22  44  68  88 136 166 224 264 332 382
#     4  11  24  34  57  94 134 174 208 271 337 391
#
# _framework density 20.124734
#
# number of rings (size 3 to 8) (size 9 to 14) (size 15 to 20)
#    0.667    1.333    1.111    1.333    7.778    1.778 
#    0.000    0.000   14.667    0.000    0.000    0.000 
#    0.000    0.000    0.000    0.000    0.000    0.000 
#
# Total GULP energy -100261.377679 kJ/mol
# GULP energy per Si atom -5570.076538 kJ/mol
# Density = 2.007893 g / cm^3
# Si number density = 20.124734 Si / 1000 Ang^3
#
#
#
# Elastic Constant Matrix: (Units=GPa)
#
#
# Indices 1 2 3 4 5 6 
#
# 1 81.4218 25.9207 5.5275 0.0000 0.0000 0.0000
# 2 25.9207 88.3184 29.8655 0.0000 0.0000 0.0000
# 3 5.5275 29.8655 84.4323 0.0000 0.0000 0.0000
# 4 0.0000 0.0000 0.0000 33.2773 0.0000 0.0000
# 5 0.0000 0.0000 0.0000 0.0000 -87.4709 0.0000
# 6 0.0000 0.0000 0.0000 0.0000 0.0000 4.9627
#
#
#
# Elastic Compliance Matrix: (Units=1/GPa)
#
#
# Indices 1 2 3 4 5 6 
#
# 1 0.013573 -0.004184 0.000591 0.000000 0.000000 0.000000
# 2 -0.004184 0.014151 -0.004731 0.000000 0.000000 0.000000
# 3 0.000591 -0.004731 0.013479 0.000000 0.000000 0.000000
# 4 0.000000 0.000000 0.000000 0.030051 0.000000 0.000000
# 5 0.000000 0.000000 0.000000 0.000000 -0.011432 0.000000
# 6 0.000000 0.000000 0.000000 0.000000 0.000000 0.201504
#
#
# Mechanical properties :
#
#
# Convention : Reuss Voigt Hill
#
# Bulk Modulus (GPa) = 40.72494 41.86667 41.29581
# Shear Modulus (GPa) = 17.47288 3.01106 10.24197
#
# Velocity S-wave (km/s) = 2.94977 1.22452 2.25838
# Velocity P-wave (km/s) = 5.64639 4.77996 5.23114
#
# Compressibility (1/GPa) = 0.02455498
#
# Stress axis : x y z
#
# Youngs Moduli (GPa) = 73.67325 70.66885 74.19104
#
# Poissons Ratio (x) = 0.29565 -0.04386
# Poissons Ratio (y) = 0.30822 0.35103
# Poissons Ratio (z) = -0.04356 0.33437
#
# Static dielectric constant tensor:
#      x y z
#    x 1.745380 0.000000 0.000000 
#    y 0.000000 3.726370 0.000000 
#    z 0.000000 0.000000 1.731250 
# 
# From -- ./inp_files/12246.got.cif
#   From: 2010.05.17/outbox.cif.g08.bks.cpg/sg24_7_cif.got.tgz:12246.got - 2010.06.04 00:33:39.
