data_PCOD9335860
_publ_section_title
;
Structure prediction by ZEFSAII (Michael W. Deem and Ramdas Pophale) SiO2 
 PCOD9335860
Probable space group: I 21 21 21
;
_chemical_formula_sum "Si O2"
_cell_formula_units_Z 28
_cell_length_a 13.059106
_cell_length_b 16.827533
_cell_length_c 4.955995
_cell_angle_alpha 90.000000
_cell_angle_beta 90.000000
_cell_angle_gamma 90.000000
_cell_volume 1089.092475
_symmetry_space_group_name_H-M "I 21 21 21"
_symmetry_group_IT_number 24
_symmetry_cell_setting 'orthorhombic'
loop_
_space_group_symop_operation_xyz
x,y,z
-x,1/2-y,z
x,-y,1/2-z
1/2-x,y,-z
1/2+x,1/2+y,1/2+z
1/2-x,-y,1/2+z
1/2+x,1/2-y,-z
-x,1/2+y,1/2-z
loop_
_atom_site_type_symbol
_atom_site_label
_atom_site_fract_x
_atom_site_fract_y
_atom_site_fract_z
Si Si1 0.114248 0.254175 0.363537
Si Si2 0.054745 0.386846 0.735127
Si Si3 0.584639 0.414716 0.756044
Si Si4 0.250000 0.368999 0.000000
O O1 0.089985 0.297345 0.647103
O O2 0.000000 0.250000 0.237053
O O3 0.146192 0.162548 0.346142
O O4 0.189822 0.312011 0.208634
O O5 0.009617 0.421793 0.458475
O O6 0.160162 0.418109 0.858616
O O7 0.964807 0.396883 0.952525
O O8 0.638663 0.500000 0.750000
#
# Coordination Sequence:
#
# PCOD9335860 Si02
#       4
#     8   8   8   4
#     4  10  23  39  74  96 133 172 234 268 328 391
#     4  11  23  42  68  99 129 178 227 276 320 398
#     4  11  25  44  70 100 139 179 217 275 351 399
#     4  12  22  42  70 108 124 174 236 286 308 400
#
# _framework density 25.709475999999999
#
# number of rings (size 3 to 8) (size 9 to 14) (size 15 to 20)
#    0.000    1.143    5.714    1.714   12.000    0.000 
#    0.000    2.857    6.286    0.000    0.000    0.000 
#    0.000    0.000    0.000    0.000    0.000    0.000 
#
# Total GULP energy -78176.998856 kJ/mol
# GULP energy per Si atom -5584.071347 kJ/mol
# Density = 2.565096 g / cm^3
# Si number density = 25.709476 Si / 1000 Ang^3
#
#
#
# Elastic Constant Matrix: (Units=GPa)
#
#
# Indices 1 2 3 4 5 6 
#
# 1 69.1658 -16.3265 11.7613 0.0000 0.0000 0.0000
# 2 -16.3265 180.4647 31.2995 0.0000 0.0000 0.0000
# 3 11.7613 31.2995 145.7359 0.0000 0.0000 0.0000
# 4 0.0000 0.0000 0.0000 11.5494 0.0000 0.0000
# 5 0.0000 0.0000 0.0000 0.0000 39.8973 0.0000
# 6 0.0000 0.0000 0.0000 0.0000 0.0000 -0.0806
#
#
#
# Elastic Compliance Matrix: (Units=1/GPa)
#
#
# Indices 1 2 3 4 5 6 
#
# 1 0.015112 0.001640 -0.001572 0.000000 0.000000 0.000000
# 2 0.001640 0.005934 -0.001407 0.000000 0.000000 0.000000
# 3 -0.001572 -0.001407 0.007291 0.000000 0.000000 0.000000
# 4 0.000000 0.000000 0.000000 0.086584 0.000000 0.000000
# 5 0.000000 0.000000 0.000000 0.000000 0.025064 0.000000
# 6 0.000000 0.000000 0.000000 0.000000 0.000000-12.410545
#
#
# Mechanical properties :
#
#
# Convention : Reuss Voigt Hill
#
# Bulk Modulus (GPa) = 38.97222 49.87056 44.42139
# Shear Modulus (GPa) = -0.40785 34.84871 17.22043
#
# Velocity S-wave (km/s) = -0.39873 3.68568 2.59087
# Velocity P-wave (km/s) = 3.87035 6.12798 5.12503
#
# Compressibility (1/GPa) = 0.02565930
#
# Stress axis : x y z
#
# Youngs Moduli (GPa) = 66.17096 168.53250 137.16130
#
# Poissons Ratio (x) = -0.27636 0.21559
# Poissons Ratio (y) = -0.10851 0.19294
# Poissons Ratio (z) = 0.10401 0.23707
#
# Static dielectric constant tensor:
#      x y z
#    x 2.024730 0.000000 0.000000 
#    y 0.000000 2.179890 0.000000 
#    z 0.000000 0.000000 2.048490 
# 
# From -- ./inp_files/4429.got.cif
#   From: 2010.05.17/outbox.cif.g08.bks.cpg/sg24_3_cif.got.tgz:4429.got - 2010.06.04 00:33:39.
