data_PCOD9335013
_publ_section_title
;
Structure prediction by ZEFSAII (Michael W. Deem and Ramdas Pophale) SiO2 
 PCOD9335013
Probable space group: I 21 21 21
;
_chemical_formula_sum "Si O2"
_cell_formula_units_Z 40
_cell_length_a 24.907810
_cell_length_b 8.689554
_cell_length_c 8.100390
_cell_angle_alpha 90.000000
_cell_angle_beta 90.000000
_cell_angle_gamma 90.000000
_cell_volume 1753.230267
_symmetry_space_group_name_H-M "I 21 21 21"
_symmetry_group_IT_number 24
_symmetry_cell_setting 'orthorhombic'
loop_
_space_group_symop_operation_xyz
x,y,z
-x,1/2-y,z
x,-y,1/2-z
1/2-x,y,-z
1/2+x,1/2+y,1/2+z
1/2-x,-y,1/2+z
1/2+x,1/2-y,-z
-x,1/2+y,1/2-z
loop_
_atom_site_type_symbol
_atom_site_label
_atom_site_fract_x
_atom_site_fract_y
_atom_site_fract_z
Si Si1 0.942971 0.180440 0.968605
Si Si2 0.656662 0.614566 0.588124
Si Si3 0.055812 0.672604 0.933142
Si Si4 0.670282 0.309368 0.440446
Si Si5 0.239643 0.317430 0.254384
O O1 0.943471 0.177701 0.767719
O O2 0.000000 0.250000 0.022464
O O3 0.938871 0.998876 0.006106
O O4 0.895876 0.287064 0.041153
O O5 0.649753 0.500000 0.750000
O O6 0.672759 0.492078 0.448905
O O7 0.704955 0.733433 0.615837
O O8 0.109152 0.765313 0.973840
O O9 0.000000 0.750000 0.986502
O O10 0.699369 0.238691 0.281060
O O11 0.704828 0.236483 0.587790
O O12 0.239177 0.500000 0.250000
#
# Coordination Sequence:
#
# PCOD9335013 Si02
#       5
#     8   8   8   8   8
#     4  10  21  39  66  96 127 164 207 259 322 375
#     4  10  22  44  62  91 130 165 214 262 313 382
#     4  10  21  39  66  97 128 161 206 263 320 380
#     4  10  22  42  62  94 127 163 210 262 317 372
#     4  10  22  43  64  89 128 167 215 256 315 382
#
# _framework density 22.815028999999999
#
# number of rings (size 3 to 8) (size 9 to 14) (size 15 to 20)
#    0.000    2.000    0.000    2.400    2.800    2.400 
#   21.600    9.000    0.000    0.000    0.000    0.000 
#    0.000    0.000    0.000    0.000    0.000    0.000 
#
# Total GULP energy -111768.492504 kJ/mol
# GULP energy per Si atom -5588.424625 kJ/mol
# Density = 2.276310 g / cm^3
# Si number density = 22.815029 Si / 1000 Ang^3
#
#
#
# Elastic Constant Matrix: (Units=GPa)
#
#
# Indices 1 2 3 4 5 6 
#
# 1 188.0108 103.2274 31.2788 0.0000 0.0000 0.0000
# 2 103.2274 245.6153 39.6894 0.0000 0.0000 0.0000
# 3 31.2788 39.6894 47.3213 0.0000 0.0000 0.0000
# 4 0.0000 0.0000 0.0000 8.8321 0.0000 0.0000
# 5 0.0000 0.0000 0.0000 0.0000 34.4290 0.0000
# 6 0.0000 0.0000 0.0000 0.0000 0.0000 47.1429
#
#
#
# Elastic Compliance Matrix: (Units=1/GPa)
#
#
# Indices 1 2 3 4 5 6 
#
# 1 0.007173 -0.002601 -0.002560 0.000000 0.000000 0.000000
# 2 -0.002601 0.005653 -0.003022 0.000000 0.000000 0.000000
# 3 -0.002560 -0.003022 0.025359 0.000000 0.000000 0.000000
# 4 0.000000 0.000000 0.000000 0.113223 0.000000 0.000000
# 5 0.000000 0.000000 0.000000 0.000000 0.029045 0.000000
# 6 0.000000 0.000000 0.000000 0.000000 0.000000 0.021212
#
#
# Mechanical properties :
#
#
# Convention : Reuss Voigt Hill
#
# Bulk Modulus (GPa) = 45.83139 92.14875 68.99007
# Shear Modulus (GPa) = 22.19232 38.53091 30.36162
#
# Velocity S-wave (km/s) = 3.12221 4.11401 3.65193
# Velocity P-wave (km/s) = 5.75582 7.94002 6.93446
#
# Compressibility (1/GPa) = 0.02181910
#
# Stress axis : x y z
#
# Youngs Moduli (GPa) = 139.41682 176.90138 39.43432
#
# Poissons Ratio (x) = 0.46011 0.10094
# Poissons Ratio (y) = 0.36262 0.11917
# Poissons Ratio (z) = 0.35685 0.53459
#
# Static dielectric constant tensor:
#      x y z
#    x 1.804680 0.000000 0.000000 
#    y 0.000000 1.804050 0.000000 
#    z 0.000000 0.000000 2.038000 
# 
# From -- ./inp_files/9296.got.cif
#   From: 2010.05.17/outbox.cif.g08.bks.cpg/sg24_5_cif.got.tgz:9296.got - 2010.06.04 00:33:39.
