data_PCOD9335041
_publ_section_title
;
Structure prediction by ZEFSAII (Michael W. Deem and Ramdas Pophale) SiO2 
 PCOD9335041
Probable space group: I 21 21 21
;
_chemical_formula_sum "Si O2"
_cell_formula_units_Z 40
_cell_length_a 11.240481
_cell_length_b 18.162135
_cell_length_c 9.441870
_cell_angle_alpha 90.000000
_cell_angle_beta 90.000000
_cell_angle_gamma 90.000000
_cell_volume 1927.568462
_symmetry_space_group_name_H-M "I 21 21 21"
_symmetry_group_IT_number 24
_symmetry_cell_setting 'orthorhombic'
loop_
_space_group_symop_operation_xyz
x,y,z
-x,1/2-y,z
x,-y,1/2-z
1/2-x,y,-z
1/2+x,1/2+y,1/2+z
1/2-x,-y,1/2+z
1/2+x,1/2-y,-z
-x,1/2+y,1/2-z
loop_
_atom_site_type_symbol
_atom_site_label
_atom_site_fract_x
_atom_site_fract_y
_atom_site_fract_z
Si Si1 0.863197 0.469850 0.095883
Si Si2 0.007563 0.064456 0.638425
Si Si3 0.846665 0.309402 0.800160
Si Si4 0.382617 0.295109 0.441030
Si Si5 0.082217 0.816401 0.375594
O O1 0.826172 0.500000 0.250000
O O2 0.954027 0.402126 0.124105
O O3 0.750000 0.443701 0.000000
O O4 0.923210 0.529004 0.993548
O O5 0.092086 0.121152 0.724484
O O6 0.909327 0.118358 0.570216
O O7 0.972323 0.000000 0.750000
O O8 0.876574 0.235394 0.718083
O O9 0.705270 0.317935 0.791500
O O10 0.887012 0.301473 0.960697
O O11 0.500000 0.250000 0.500926
O O12 0.250000 0.280084 0.500000
O O13 0.000000 0.750000 0.326549
#
# Coordination Sequence:
#
# PCOD9335041 Si02
#       5
#     8   8   8   8   8
#     4  12  24  40  63  97 133 171 224 279 335 398
#     4  11  21  42  69  90 131 176 215 271 341 402
#     4  10  21  40  62  92 128 173 221 268 330 397
#     4  10  24  43  67  96 133 175 228 274 336 396
#     4  11  21  37  62  96 129 170 219 274 330 397
#
# _framework density 20.751532999999998
#
# number of rings (size 3 to 8) (size 9 to 14) (size 15 to 20)
#    0.000    1.200    4.000    3.600    0.000    8.800 
#    0.000    3.000    0.000    0.000    0.000    0.000 
#    0.000    0.000    0.000    0.000    0.000    0.000 
#
# Total GULP energy -111537.653052 kJ/mol
# GULP energy per Si atom -5576.882653 kJ/mol
# Density = 2.070430 g / cm^3
# Si number density = 20.751533 Si / 1000 Ang^3
#
#
#
# Elastic Constant Matrix: (Units=GPa)
#
#
# Indices 1 2 3 4 5 6 
#
# 1 93.5512 33.6352 18.3604 0.0000 0.0000 0.0000
# 2 33.6352 116.3736 20.2687 -0.0001 0.0000 0.0000
# 3 18.3604 20.2687 90.4633 -0.0001 0.0001 0.0000
# 4 0.0000 -0.0001 -0.0001 14.5811 0.0001 0.0000
# 5 0.0000 0.0000 0.0001 0.0001 13.4038 0.0000
# 6 0.0000 0.0000 0.0000 0.0000 0.0000 44.8390
#
#
#
# Elastic Compliance Matrix: (Units=1/GPa)
#
#
# Indices 1 2 3 4 5 6 
#
# 1 0.012190 -0.003218 -0.001753 0.000000 0.000000 0.000000
# 2 -0.003218 0.009791 -0.001541 0.000000 0.000000 0.000000
# 3 -0.001753 -0.001541 0.011755 0.000000 0.000000 0.000000
# 4 0.000000 0.000000 0.000000 0.068582 0.000000 0.000000
# 5 0.000000 0.000000 0.000000 0.000000 0.074606 0.000000
# 6 0.000000 0.000000 0.000000 0.000000 0.000000 0.022302
#
#
# Mechanical properties :
#
#
# Convention : Reuss Voigt Hill
#
# Bulk Modulus (GPa) = 48.27803 49.43521 48.85662
# Shear Modulus (GPa) = 22.81492 29.77303 26.29397
#
# Velocity S-wave (km/s) = 3.31937 3.79190 3.56348
# Velocity P-wave (km/s) = 6.16492 6.56091 6.36599
#
# Compressibility (1/GPa) = 0.02071336
#
# Stress axis : x y z
#
# Youngs Moduli (GPa) = 82.03166 102.12985 85.06855
#
# Poissons Ratio (x) = 0.32866 0.14914
# Poissons Ratio (y) = 0.26398 0.13106
# Poissons Ratio (z) = 0.14381 0.15735
#
# Static dielectric constant tensor:
#      x y z
#    x 1.813710 0.000000 0.000000 
#    y 0.000000 1.788450 0.000000 
#    z 0.000000 0.000000 1.745460 
# 
# From -- ./inp_files/10670.got.cif
#   From: 2010.05.17/outbox.cif.g08.bks.cpg/sg24_6_cif.got.tgz:10670.got - 2010.06.04 00:33:39.
