data_PCOD9335722
_publ_section_title
;
Structure prediction by ZEFSAII (Michael W. Deem and Ramdas Pophale) SiO2 
 PCOD9335722
Probable space group: I 21 21 21
;
_chemical_formula_sum "Si O2"
_cell_formula_units_Z 36
_cell_length_a 13.724507
_cell_length_b 15.997733
_cell_length_c 6.702003
_cell_angle_alpha 90.000000
_cell_angle_beta 90.000000
_cell_angle_gamma 90.000000
_cell_volume 1471.498471
_symmetry_space_group_name_H-M "I 21 21 21"
_symmetry_group_IT_number 24
_symmetry_cell_setting 'orthorhombic'
loop_
_space_group_symop_operation_xyz
x,y,z
-x,1/2-y,z
x,-y,1/2-z
1/2-x,y,-z
1/2+x,1/2+y,1/2+z
1/2-x,-y,1/2+z
1/2+x,1/2-y,-z
-x,1/2+y,1/2-z
loop_
_atom_site_type_symbol
_atom_site_label
_atom_site_fract_x
_atom_site_fract_y
_atom_site_fract_z
Si Si1 0.835979 0.405830 0.723041
Si Si2 0.528175 0.582984 0.856444
Si Si3 0.250000 0.775866 0.000000
Si Si4 0.651000 0.886864 0.095788
Si Si5 0.979445 0.153945 0.949353
O O1 0.797676 0.500000 0.750000
O O2 0.759048 0.330737 0.704449
O O3 0.888440 0.391319 0.509322
O O4 0.923635 0.394159 0.875282
O O5 0.562505 0.500000 0.750000
O O6 0.484260 0.642446 0.686275
O O7 0.436783 0.563640 0.997340
O O8 0.338885 0.709011 0.016070
O O9 0.616561 0.876928 0.327150
O O10 0.750000 0.924380 0.000000
O O11 0.000000 0.250000 0.895664
#
# Coordination Sequence:
#
# PCOD9335722 Si02
#       5
#     8   8   4   8   8
#     4  11  23  44  64  93 138 169 216 274 330 390
#     4  11  24  40  65  96 124 172 225 263 323 398
#     4  10  22  44  64  92 132 170 214 270 332 394
#     4   9  22  42  60  94 129 165 213 271 328 380
#     4  11  21  39  69  94 126 176 218 268 324 394
#
# _framework density 24.464858
#
# number of rings (size 3 to 8) (size 9 to 14) (size 15 to 20)
#    0.667    0.889    4.444    0.000    3.111    1.778 
#    4.000    2.222    0.000    0.000    0.000    0.000 
#    0.000    0.000    0.000    0.000    0.000    0.000 
#
# Total GULP energy -100256.050187 kJ/mol
# GULP energy per Si atom -5569.780566 kJ/mol
# Density = 2.440917 g / cm^3
# Si number density = 24.464858 Si / 1000 Ang^3
#
#
#
# Elastic Constant Matrix: (Units=GPa)
#
#
# Indices 1 2 3 4 5 6 
#
# 1 62.3519 0.2931 24.2037 0.0000 0.0000 0.0000
# 2 0.2931 62.2397 9.7228 0.0000 0.0000 0.0000
# 3 24.2037 9.7228 118.5047 0.0000 0.0000 0.0000
# 4 0.0000 0.0000 0.0000 39.4683 0.0000 0.0000
# 5 0.0000 0.0000 0.0000 0.0000 10.4083 0.0000
# 6 0.0000 0.0000 0.0000 0.0000 0.0000 22.9640
#
#
#
# Elastic Compliance Matrix: (Units=1/GPa)
#
#
# Indices 1 2 3 4 5 6 
#
# 1 0.017433 0.000480 -0.003600 0.000000 0.000000 0.000000
# 2 0.000480 0.016289 -0.001435 0.000000 0.000000 0.000000
# 3 -0.003600 -0.001435 0.009291 0.000000 0.000000 0.000000
# 4 0.000000 0.000000 0.000000 0.025337 0.000000 0.000000
# 5 0.000000 0.000000 0.000000 0.000000 0.096077 0.000000
# 6 0.000000 0.000000 0.000000 0.000000 0.000000 0.043546
#
#
# Mechanical properties :
#
#
# Convention : Reuss Voigt Hill
#
# Bulk Modulus (GPa) = 29.49424 34.61504 32.05464
# Shear Modulus (GPa) = 21.89294 28.49323 25.19308
#
# Velocity S-wave (km/s) = 2.99469 3.41641 3.21248
# Velocity P-wave (km/s) = 4.90301 5.45363 5.18563
#
# Compressibility (1/GPa) = 0.03390492
#
# Stress axis : x y z
#
# Youngs Moduli (GPa) = 57.36191 61.39207 107.62582
#
# Poissons Ratio (x) = -0.02949 0.38745
# Poissons Ratio (y) = -0.02755 0.15439
# Poissons Ratio (z) = 0.20650 0.08807
#
# Static dielectric constant tensor:
#      x y z
#    x 1.983400 0.000000 0.000000 
#    y 0.000000 2.019270 0.000000 
#    z 0.000000 0.000000 1.966730 
# 
# From -- ./inp_files/3350.got.cif
#   From: 2010.05.17/outbox.cif.g08.bks.cpg/sg24_2_cif.got.tgz:3350.got - 2010.06.04 00:33:39.
