data_PCOD9335360
_publ_section_title
;
Structure prediction by ZEFSAII (Michael W. Deem and Ramdas Pophale) SiO2 
 PCOD9335360
Probable space group: I 21 21 21
;
_chemical_formula_sum "Si O2"
_cell_formula_units_Z 48
_cell_length_a 5.442046
_cell_length_b 12.955284
_cell_length_c 29.686510
_cell_angle_alpha 90.000000
_cell_angle_beta 90.000000
_cell_angle_gamma 90.000000
_cell_volume 2092.995480
_symmetry_space_group_name_H-M "I 21 21 21"
_symmetry_group_IT_number 24
_symmetry_cell_setting 'orthorhombic'
loop_
_space_group_symop_operation_xyz
x,y,z
-x,1/2-y,z
x,-y,1/2-z
1/2-x,y,-z
1/2+x,1/2+y,1/2+z
1/2-x,-y,1/2+z
1/2+x,1/2-y,-z
-x,1/2+y,1/2-z
loop_
_atom_site_type_symbol
_atom_site_label
_atom_site_fract_x
_atom_site_fract_y
_atom_site_fract_z
Si Si1 0.068241 0.532261 0.541435
Si Si2 0.374165 0.467923 0.801031
Si Si3 0.122843 0.845237 0.683955
Si Si4 0.952751 0.048676 0.392480
Si Si5 0.298520 0.177774 0.452274
Si Si6 0.706930 0.331194 0.914433
O O1 0.250000 0.549241 0.500000
O O2 0.199457 0.489743 0.586239
O O3 0.914884 0.430162 0.531485
O O4 0.923363 0.637435 0.551678
O O5 0.330340 0.500000 0.750000
O O6 0.620960 0.395622 0.799552
O O7 0.439378 0.554637 0.838662
O O8 0.113458 0.420714 0.818310
O O9 0.205533 0.800162 0.635279
O O10 0.000000 0.750000 0.710945
O O11 0.075151 0.142022 0.420181
O O12 0.107805 0.946107 0.404213
O O13 0.500000 0.250000 0.428019
O O14 0.250000 0.234483 0.500000
O O15 0.500000 0.250000 0.929516
#
# Coordination Sequence:
#
# PCOD9335360 Si02
#       6
#     8   8   8   8   8   8
#     4  11  21  39  66  91 135 183 233 294 355 423
#     4  11  23  42  69 100 136 184 230 289 366 432
#     4  11  21  40  69 100 130 174 236 288 339 425
#     4  10  22  41  64  93 132 179 229 294 356 422
#     4  11  23  38  65  98 133 181 245 296 357 436
#     4  10  22  37  65  99 132 176 235 291 353 430
#
# _framework density 22.933638999999999
#
# number of rings (size 3 to 8) (size 9 to 14) (size 15 to 20)
#    0.000    1.333    3.333    3.500    0.000    0.000 
#    0.000    0.833    7.333    5.000    0.000    0.000 
#    0.000    0.000    0.000    0.000    0.000    0.000 
#
# Total GULP energy -133748.576193 kJ/mol
# GULP energy per Si atom -5572.857341 kJ/mol
# Density = 2.288144 g / cm^3
# Si number density = 22.933639 Si / 1000 Ang^3
#
#
#
# Elastic Constant Matrix: (Units=GPa)
#
#
# Indices 1 2 3 4 5 6 
#
# 1 133.4032 30.6241 38.5165 0.0000 0.0000 0.0000
# 2 30.6241 69.1412 30.7692 0.0000 0.0000 0.0000
# 3 38.5165 30.7692 134.5276 0.0000 0.0000 0.0000
# 4 0.0000 0.0000 0.0000 7.4613 0.0000 0.0000
# 5 0.0000 0.0000 0.0000 0.0000 15.7035 0.0000
# 6 0.0000 0.0000 0.0000 0.0000 0.0000 60.2442
#
#
#
# Elastic Compliance Matrix: (Units=1/GPa)
#
#
# Indices 1 2 3 4 5 6 
#
# 1 0.008717 -0.003062 -0.001796 0.000000 0.000000 0.000000
# 2 -0.003062 0.017178 -0.003052 0.000000 0.000000 0.000000
# 3 -0.001796 -0.003052 0.008646 0.000000 0.000000 0.000000
# 4 0.000000 0.000000 0.000000 0.134026 0.000000 0.000000
# 5 0.000000 0.000000 0.000000 0.000000 0.063680 0.000000
# 6 0.000000 0.000000 0.000000 0.000000 0.000000 0.016599
#
#
# Mechanical properties :
#
#
# Convention : Reuss Voigt Hill
#
# Bulk Modulus (GPa) = 53.41557 59.65460 56.53509
# Shear Modulus (GPa) = 18.45662 32.49261 25.47461
#
# Velocity S-wave (km/s) = 2.83995 3.76814 3.33648
# Velocity P-wave (km/s) = 5.83915 6.70821 6.28871
#
# Compressibility (1/GPa) = 0.01872113
#
# Stress axis : x y z
#
# Youngs Moduli (GPa) = 114.71291 58.21502 115.66592
#
# Poissons Ratio (x) = 0.17826 0.20768
# Poissons Ratio (y) = 0.35126 0.35303
# Poissons Ratio (z) = 0.20597 0.17768
#
# Static dielectric constant tensor:
#      x y z
#    x 1.759870 0.000000 0.000000 
#    y 0.000000 1.958150 0.000000 
#    z 0.000000 0.000000 1.981340 
# 
# From -- ./inp_files/37882.got.cif
#   From: 2010.05.17/outbox.cif.g08.bks.cpg/sg24_19_cif.got.tgz:37882.got - 2010.06.04 00:33:39.
