data_PCOD9335585
_publ_section_title
;
Structure prediction by ZEFSAII (Michael W. Deem and Ramdas Pophale) SiO2 
 PCOD9335585
Probable space group: I 21 21 21
;
_chemical_formula_sum "Si O2"
_cell_formula_units_Z 64
_cell_length_a 17.479782
_cell_length_b 11.544347
_cell_length_c 14.240146
_cell_angle_alpha 90.000000
_cell_angle_beta 90.000000
_cell_angle_gamma 90.000000
_cell_volume 2873.557067
_symmetry_space_group_name_H-M "I 21 21 21"
_symmetry_group_IT_number 24
_symmetry_cell_setting 'orthorhombic'
loop_
_space_group_symop_operation_xyz
x,y,z
-x,1/2-y,z
x,-y,1/2-z
1/2-x,y,-z
1/2+x,1/2+y,1/2+z
1/2-x,-y,1/2+z
1/2+x,1/2-y,-z
-x,1/2+y,1/2-z
loop_
_atom_site_type_symbol
_atom_site_label
_atom_site_fract_x
_atom_site_fract_y
_atom_site_fract_z
Si Si1 0.424616 0.427765 0.656038
Si Si2 0.335130 0.809131 0.808409
Si Si3 0.461763 0.637874 0.275044
Si Si4 0.103521 0.954320 0.642671
Si Si5 0.300476 0.242333 0.200263
Si Si6 0.813110 0.881946 0.423829
Si Si7 0.427401 0.062142 0.540799
Si Si8 0.078922 0.187399 0.119330
O O1 0.450559 0.500000 0.750000
O O2 0.375899 0.315649 0.682285
O O3 0.366275 0.512623 0.603732
O O4 0.493828 0.392059 0.587162
O O5 0.244263 0.804175 0.791746
O O6 0.360266 0.882780 0.897669
O O7 0.374123 0.852593 0.711520
O O8 0.500000 0.750000 0.219553
O O9 0.453090 0.500000 0.250000
O O10 0.525155 0.621956 0.357167
O O11 0.376765 0.684147 0.287835
O O12 0.175313 0.866830 0.634927
O O13 0.109266 0.000000 0.750000
O O14 0.092041 0.058265 0.569400
O O15 0.237950 0.329188 0.158905
O O16 0.750000 0.911633 0.500000
O O17 0.871482 0.776648 0.442417
O O18 0.435781 0.926314 0.561529
O O19 0.000000 0.250000 0.147669
#
# Coordination Sequence:
#
# PCOD9335585 Si02
#       8
#     8   8   8   8   8   8   8   8
#     4  12  22  44  69 103 151 191 237 303 384 463
#     4  11  24  41  66 110 148 192 231 301 391 463
#     4   9  20  40  70 102 135 189 254 313 378 452
#     4  10  24  47  69 100 141 198 255 308 368 452
#     4  10  22  41  71  99 144 187 244 311 376 455
#     4  11  24  38  64 103 140 178 236 303 366 439
#     4  12  24  40  73 104 143 190 250 308 369 459
#     4  11  20  39  67 100 140 178 235 294 367 443
#
# _framework density 22.272047000000001
#
# number of rings (size 3 to 8) (size 9 to 14) (size 15 to 20)
#    0.000    1.250    3.750    3.000    3.500    3.500 
#    0.000   14.375    0.000    0.000    0.000    0.000 
#    0.000    0.000    0.000    0.000    0.000    0.000 
#
# Total GULP energy -178351.352791 kJ/mol
# GULP energy per Si atom -5573.479775 kJ/mol
# Density = 2.222135 g / cm^3
# Si number density = 22.272047 Si / 1000 Ang^3
#
#
#
# Elastic Constant Matrix: (Units=GPa)
#
#
# Indices 1 2 3 4 5 6 
#
# 1 113.3019 36.9721 26.3784 0.0000 0.0000 0.0000
# 2 36.9721 76.8181 26.0734 0.0000 0.0000 0.0000
# 3 26.3784 26.0734 108.5518 0.0000 0.0000 0.0000
# 4 0.0000 0.0000 0.0000 17.1680 0.0000 0.0000
# 5 0.0000 0.0000 0.0000 0.0000 27.5423 0.0000
# 6 0.0000 0.0000 0.0000 0.0000 0.0000 34.6263
#
#
#
# Elastic Compliance Matrix: (Units=1/GPa)
#
#
# Indices 1 2 3 4 5 6 
#
# 1 0.010685 -0.004640 -0.001482 0.000000 0.000000 0.000000
# 2 -0.004640 0.016188 -0.002761 0.000000 0.000000 0.000000
# 3 -0.001482 -0.002761 0.010235 0.000000 0.000000 0.000000
# 4 0.000000 0.000000 0.000000 0.058248 0.000000 0.000000
# 5 0.000000 0.000000 0.000000 0.000000 0.036308 0.000000
# 6 0.000000 0.000000 0.000000 0.000000 0.000000 0.028880
#
#
# Mechanical properties :
#
#
# Convention : Reuss Voigt Hill
#
# Bulk Modulus (GPa) = 51.69722 53.05774 52.37748
# Shear Modulus (GPa) = 27.06266 29.81718 28.43992
#
# Velocity S-wave (km/s) = 3.48960 3.66289 3.57730
# Velocity P-wave (km/s) = 6.28479 6.46245 6.37424
#
# Compressibility (1/GPa) = 0.01934340
#
# Stress axis : x y z
#
# Youngs Moduli (GPa) = 93.58917 61.77479 97.69960
#
# Poissons Ratio (x) = 0.28661 0.14480
# Poissons Ratio (y) = 0.43422 0.26973
# Poissons Ratio (z) = 0.13871 0.17055
#
# Static dielectric constant tensor:
#      x y z
#    x 1.857670 0.000000 0.000000 
#    y 0.000000 1.874220 0.000000 
#    z 0.000000 0.000000 1.955850 
# 
# From -- ./inp_files/27218.got.cif
#   From: 2010.05.17/outbox.cif.g08.bks.cpg/sg24_14_cif.got.tgz:27218.got - 2010.06.04 00:33:39.
