data_PCOD9335934
_publ_section_title
;
Structure prediction by ZEFSAII (Michael W. Deem and Ramdas Pophale) SiO2 
 PCOD9335934
Probable space group: I 21 21 21
;
_chemical_formula_sum "Si O2"
_cell_formula_units_Z 64
_cell_length_a 9.537016
_cell_length_b 10.431613
_cell_length_c 30.698923
_cell_angle_alpha 90.000000
_cell_angle_beta 90.000000
_cell_angle_gamma 90.000000
_cell_volume 3054.127178
_symmetry_space_group_name_H-M "I 21 21 21"
_symmetry_group_IT_number 24
_symmetry_cell_setting 'orthorhombic'
loop_
_space_group_symop_operation_xyz
x,y,z
-x,1/2-y,z
x,-y,1/2-z
1/2-x,y,-z
1/2+x,1/2+y,1/2+z
1/2-x,-y,1/2+z
1/2+x,1/2-y,-z
-x,1/2+y,1/2-z
loop_
_atom_site_type_symbol
_atom_site_label
_atom_site_fract_x
_atom_site_fract_y
_atom_site_fract_z
Si Si1 0.627546 0.849905 0.738091
Si Si2 0.217482 0.894238 0.888311
Si Si3 0.244674 0.578396 0.648291
Si Si4 0.584160 0.371178 0.991504
Si Si5 0.469314 0.451097 0.084307
Si Si6 0.850312 0.805517 0.812799
Si Si7 0.267040 0.321222 0.448679
Si Si8 0.984583 0.036110 0.411190
O O1 0.500000 0.750000 0.738463
O O2 0.702385 0.849734 0.690958
O O3 0.738673 0.805270 0.774240
O O4 0.590058 0.000000 0.750000
O O5 0.185149 0.790887 0.851744
O O6 0.193287 0.821320 0.934447
O O7 0.378007 0.932437 0.883965
O O8 0.106658 0.007909 0.889108
O O9 0.132030 0.634710 0.614290
O O10 0.167186 0.448578 0.666725
O O11 0.381097 0.547895 0.618780
O O12 0.500000 0.250000 0.973026
O O13 0.547091 0.478441 0.955952
O O14 0.750000 0.354209 0.000000
O O15 0.515278 0.396160 0.038263
O O16 0.376169 0.576412 0.070897
O O17 0.000000 0.750000 0.797176
O O18 0.250000 0.336618 0.500000
O O19 0.118311 0.350192 0.425965
#
# Coordination Sequence:
#
# PCOD9335934 Si02
#       8
#     8   8   8   8   8   8   8   8
#     4  10  25  47  75 105 140 178 230 293 366 442
#     4  12  22  36  62 104 137 175 217 267 342 419
#     4  10  23  43  67  98 137 177 227 282 347 419
#     4  12  28  46  64  88 128 183 239 288 333 390
#     4  11  22  42  63  93 132 176 225 271 332 402
#     4  11  21  41  70 103 136 179 216 276 361 434
#     4  11  22  32  59  92 137 176 203 268 331 400
#     4  11  24  39  63  96 131 176 227 273 330 404
#
# _framework density 20.955248999999998
#
# number of rings (size 3 to 8) (size 9 to 14) (size 15 to 20)
#    0.000    1.000    6.250    0.750    8.750    1.500 
#    0.000    3.750    0.000    0.000    0.000    0.000 
#    0.000    0.000    0.000    0.000    0.000    0.000 
#
# Total GULP energy -178688.257944 kJ/mol
# GULP energy per Si atom -5584.008061 kJ/mol
# Density = 2.090755 g / cm^3
# Si number density = 20.955249 Si / 1000 Ang^3
#
#
#
# Elastic Constant Matrix: (Units=GPa)
#
#
# Indices 1 2 3 4 5 6 
#
# 1 101.4339 33.0207 -4.2817 0.0000 0.0000 0.0000
# 2 33.0207 42.9287 3.7633 0.0000 0.0000 0.0000
# 3 -4.2817 3.7633 83.9019 0.0000 0.0000 0.0000
# 4 0.0000 0.0000 0.0000 15.6001 0.0000 0.0000
# 5 0.0000 0.0000 0.0000 0.0000 19.4702 0.0000
# 6 0.0000 0.0000 0.0000 0.0000 0.0000 20.4791
#
#
#
# Elastic Compliance Matrix: (Units=1/GPa)
#
#
# Indices 1 2 3 4 5 6 
#
# 1 0.013259 -0.010299 0.001139 0.000000 0.000000 0.000000
# 2 -0.010299 0.031386 -0.001933 0.000000 0.000000 0.000000
# 3 0.001139 -0.001933 0.012064 0.000000 0.000000 0.000000
# 4 0.000000 0.000000 0.000000 0.064102 0.000000 0.000000
# 5 0.000000 0.000000 0.000000 0.000000 0.051360 0.000000
# 6 0.000000 0.000000 0.000000 0.000000 0.000000 0.048830
#
#
# Mechanical properties :
#
#
# Convention : Reuss Voigt Hill
#
# Bulk Modulus (GPa) = 28.96753 32.58545 30.77649
# Shear Modulus (GPa) = 19.63121 24.16068 21.89594
#
# Velocity S-wave (km/s) = 3.06407 3.39922 3.23598
# Velocity P-wave (km/s) = 5.13532 5.56687 5.35544
#
# Compressibility (1/GPa) = 0.03452142
#
# Stress axis : x y z
#
# Youngs Moduli (GPa) = 75.41808 31.86146 82.89461
#
# Poissons Ratio (x) = 0.32814 -0.09438
# Poissons Ratio (y) = 0.77673 0.16026
# Poissons Ratio (z) = -0.08587 0.06160
#
# Static dielectric constant tensor:
#      x y z
#    x 1.753500 0.000000 0.000000 
#    y 0.000000 1.789190 0.000000 
#    z 0.000000 0.000000 1.727170 
# 
# From -- ./inp_files/38416.got.cif
#   From: 2010.05.17/outbox.cif.g08.bks.cpg/sg24_20_cif.got.tgz:38416.got - 2010.06.04 00:33:39.
