data_PCOD9335880
_publ_section_title
;
Structure prediction by ZEFSAII (Michael W. Deem and Ramdas Pophale) SiO2 
 PCOD9335880
Probable space group: I 21 21 21
;
_chemical_formula_sum "Si O2"
_cell_formula_units_Z 48
_cell_length_a 5.195642
_cell_length_b 27.170312
_cell_length_c 14.889471
_cell_angle_alpha 90.000000
_cell_angle_beta 90.000000
_cell_angle_gamma 90.000000
_cell_volume 2101.905142
_symmetry_space_group_name_H-M "I 21 21 21"
_symmetry_group_IT_number 24
_symmetry_cell_setting 'orthorhombic'
loop_
_space_group_symop_operation_xyz
x,y,z
-x,1/2-y,z
x,-y,1/2-z
1/2-x,y,-z
1/2+x,1/2+y,1/2+z
1/2-x,-y,1/2+z
1/2+x,1/2-y,-z
-x,1/2+y,1/2-z
loop_
_atom_site_type_symbol
_atom_site_label
_atom_site_fract_x
_atom_site_fract_y
_atom_site_fract_z
Si Si1 0.750000 0.980963 0.500000
Si Si2 0.377541 0.963027 0.098595
Si Si3 0.250000 0.914766 0.500000
Si Si4 0.183118 0.399898 0.720486
Si Si5 0.500000 0.250000 0.155062
Si Si6 0.329995 0.154660 0.150254
Si Si7 0.577569 0.800729 0.787345
Si Si8 0.985160 0.500000 0.250000
O O1 0.499801 0.948106 0.495259
O O2 0.667716 0.016954 0.419421
O O3 0.440745 0.916306 0.159743
O O4 0.203857 0.997625 0.162478
O O5 0.250000 0.954788 0.000000
O O6 0.188862 0.881251 0.415352
O O7 0.311259 0.351864 0.672706
O O8 0.354027 0.448245 0.746079
O O9 0.065351 0.377081 0.811097
O O10 0.406469 0.204066 0.098473
O O11 0.288200 0.276916 0.218851
O O12 0.159770 0.176768 0.230632
O O13 0.500000 0.750000 0.839762
#
# Coordination Sequence:
#
# PCOD9335880 Si02
#       8
#     4   8   4   8   4   8   8   4
#     4  12  30  46  65  96 148 191 248 302 368 436
#     4  12  28  46  69 104 151 199 249 308 372 453
#     4  12  30  42  67  98 144 203 242 304 362 440
#     4  11  25  40  72 100 145 196 248 304 377 447
#     4   8  18  40  62  88 136 176 236 308 360 436
#     4  10  23  41  64  98 137 188 246 299 369 435
#     4   9  19  39  66  96 136 176 245 307 365 438
#     4  12  28  44  74 108 150 200 242 308 374 458
#
# _framework density 22.836425999999999
#
# number of rings (size 3 to 8) (size 9 to 14) (size 15 to 20)
#    0.000    1.333    0.833    2.500   14.000    0.000 
#    4.500    0.000    0.000    0.000    0.000    0.000 
#  672.500    0.000    0.000    0.000    0.000    0.000 
#
# Total GULP energy -133642.658956 kJ/mol
# GULP energy per Si atom -5568.444123 kJ/mol
# Density = 2.278445 g / cm^3
# Si number density = 22.836426 Si / 1000 Ang^3
#
#
#
# Elastic Constant Matrix: (Units=GPa)
#
#
# Indices 1 2 3 4 5 6 
#
# 1 100.6683 39.9087 18.2195 0.0000 0.0000 0.0000
# 2 39.9087 165.4007 34.4756 0.0000 0.0000 0.0000
# 3 18.2195 34.4756 66.5251 0.0000 0.0000 0.0000
# 4 0.0000 0.0000 0.0000 0.3790 0.0000 0.0000
# 5 0.0000 0.0000 0.0000 0.0000 31.2829 0.0000
# 6 0.0000 0.0000 0.0000 0.0000 0.0000 34.0641
#
#
#
# Elastic Compliance Matrix: (Units=1/GPa)
#
#
# Indices 1 2 3 4 5 6 
#
# 1 0.011187 -0.002310 -0.001867 0.000000 0.000000 0.000000
# 2 -0.002310 0.007255 -0.003127 0.000000 0.000000 0.000000
# 3 -0.001867 -0.003127 0.017164 0.000000 0.000000 0.000000
# 4 0.000000 0.000000 0.000000 2.638698 0.000000 0.000000
# 5 0.000000 0.000000 0.000000 0.000000 0.031966 0.000000
# 6 0.000000 0.000000 0.000000 0.000000 0.000000 0.029356
#
#
# Mechanical properties :
#
#
# Convention : Reuss Voigt Hill
#
# Bulk Modulus (GPa) = 47.62338 57.53353 52.57846
# Shear Modulus (GPa) = 1.81341 29.14457 15.47899
#
# Velocity S-wave (km/s) = 0.89208 3.57631 2.60632
# Velocity P-wave (km/s) = 4.68620 6.50398 5.66843
#
# Compressibility (1/GPa) = 0.02099809
#
# Stress axis : x y z
#
# Youngs Moduli (GPa) = 89.38694 137.83284 58.26236
#
# Poissons Ratio (x) = 0.31843 0.10876
# Poissons Ratio (y) = 0.20651 0.18220
# Poissons Ratio (z) = 0.16685 0.43103
#
# Static dielectric constant tensor:
#      x y z
#    x 2.001270 0.000000 0.000000 
#    y 0.000000 1.935680 0.000000 
#    z 0.000000 0.000000 2.108220 
# 
# From -- ./inp_files/23966.got.cif
#   From: 2010.05.17/outbox.cif.g08.bks.cpg/sg24_12_cif.got.tgz:23966.got - 2010.06.04 00:33:39.
