data_PCOD9335843
_publ_section_title
;
Structure prediction by ZEFSAII (Michael W. Deem and Ramdas Pophale) SiO2 
 PCOD9335843
Probable space group: I 21 21 21
;
_chemical_formula_sum "Si O2"
_cell_formula_units_Z 64
_cell_length_a 21.824572
_cell_length_b 7.405351
_cell_length_c 16.056220
_cell_angle_alpha 90.000000
_cell_angle_beta 90.000000
_cell_angle_gamma 90.000000
_cell_volume 2594.984056
_symmetry_space_group_name_H-M "I 21 21 21"
_symmetry_group_IT_number 24
_symmetry_cell_setting 'orthorhombic'
loop_
_space_group_symop_operation_xyz
x,y,z
-x,1/2-y,z
x,-y,1/2-z
1/2-x,y,-z
1/2+x,1/2+y,1/2+z
1/2-x,-y,1/2+z
1/2+x,1/2-y,-z
-x,1/2+y,1/2-z
loop_
_atom_site_type_symbol
_atom_site_label
_atom_site_fract_x
_atom_site_fract_y
_atom_site_fract_z
Si Si1 0.271312 0.844854 0.135629
Si Si2 0.587893 0.974777 0.991466
Si Si3 0.509644 0.967613 0.837428
Si Si4 0.195376 0.249601 0.814814
Si Si5 0.843696 0.653924 0.034852
Si Si6 0.560890 0.129636 0.169268
Si Si7 0.874094 0.387934 0.167583
Si Si8 0.209296 0.648652 0.422635
O O1 0.296079 0.746770 0.216299
O O2 0.204761 0.779682 0.104801
O O3 0.273406 0.059898 0.156703
O O4 0.312655 0.834551 0.053875
O O5 0.544638 0.040292 0.917700
O O6 0.594114 0.761957 0.974171
O O7 0.657710 0.040438 0.974839
O O8 0.563836 0.021755 0.082166
O O9 0.500000 0.750000 0.841969
O O10 0.544340 0.000000 0.750000
O O11 0.446531 0.080140 0.829311
O O12 0.123176 0.252549 0.831776
O O13 0.231259 0.401741 0.866451
O O14 0.857715 0.460909 0.073857
O O15 0.500000 0.250000 0.172783
O O16 0.563154 0.000000 0.250000
O O17 0.852759 0.500000 0.250000
O O18 0.834574 0.210080 0.156350
O O19 0.250000 0.738946 0.500000
#
# Coordination Sequence:
#
# PCOD9335843 Si02
#       8
#     8   8   8   8   8   8   8   8
#     4  10  23  37  74 105 143 193 244 308 372 453
#     4  12  29  46  73 109 154 196 246 318 392 450
#     4  11  27  48  73 107 151 200 248 305 372 453
#     4  11  23  46  71 109 148 192 247 315 386 450
#     4  11  22  42  66 108 145 189 248 299 374 459
#     4  12  31  54  79 110 149 201 270 332 393 464
#     4  11  24  44  71 102 145 192 253 299 364 458
#     4  12  25  43  73 107 147 193 243 307 379 460
#
# _framework density 24.662963999999999
#
# number of rings (size 3 to 8) (size 9 to 14) (size 15 to 20)
#    0.000    0.750    3.750    2.250    8.750    2.500 
#    0.000    0.000    0.000    0.000    0.000    0.000 
#    0.000    0.000    0.000    0.000    0.000    0.000 
#
# Total GULP energy -178442.349137 kJ/mol
# GULP energy per Si atom -5576.323411 kJ/mol
# Density = 2.460683 g / cm^3
# Si number density = 24.662964 Si / 1000 Ang^3
#
#
#
# Elastic Constant Matrix: (Units=GPa)
#
#
# Indices 1 2 3 4 5 6 
#
# 1 132.4444 25.4507 57.2372 0.0000 0.0000 0.0000
# 2 25.4507 41.8859 28.0578 0.0000 0.0000 0.0000
# 3 57.2372 28.0578 201.4495 0.0000 0.0000 0.0000
# 4 0.0000 0.0000 0.0000 24.2385 0.0000 0.0000
# 5 0.0000 0.0000 0.0000 0.0000 31.9640 0.0000
# 6 0.0000 0.0000 0.0000 0.0000 0.0000 30.3699
#
#
#
# Elastic Compliance Matrix: (Units=1/GPa)
#
#
# Indices 1 2 3 4 5 6 
#
# 1 0.009247 -0.004256 -0.002035 0.000000 0.000000 0.000000
# 2 -0.004256 0.028290 -0.002731 0.000000 0.000000 0.000000
# 3 -0.002035 -0.002731 0.005922 0.000000 0.000000 0.000000
# 4 0.000000 0.000000 0.000000 0.041257 0.000000 0.000000
# 5 0.000000 0.000000 0.000000 0.000000 0.031285 0.000000
# 6 0.000000 0.000000 0.000000 0.000000 0.000000 0.032927
#
#
# Mechanical properties :
#
#
# Convention : Reuss Voigt Hill
#
# Bulk Modulus (GPa) = 39.34453 66.36349 52.85401
# Shear Modulus (GPa) = 28.49906 34.98342 31.74124
#
# Velocity S-wave (km/s) = 3.40301 3.77033 3.59137
# Velocity P-wave (km/s) = 5.60608 6.77646 6.21887
#
# Compressibility (1/GPa) = 0.02541649
#
# Stress axis : x y z
#
# Youngs Moduli (GPa) = 108.13751 35.34847 168.84772
#
# Poissons Ratio (x) = 0.15044 0.34355
# Poissons Ratio (y) = 0.46023 0.46111
# Poissons Ratio (z) = 0.22003 0.09653
#
# Static dielectric constant tensor:
#      x y z
#    x 1.991570 0.000000 0.000000 
#    y 0.000000 2.217770 0.000000 
#    z 0.000000 0.000000 1.927380 
# 
# From -- ./inp_files/27883.got.cif
#   From: 2010.05.17/outbox.cif.g08.bks.cpg/sg24_14_cif.got.tgz:27883.got - 2010.06.04 00:33:39.
