data_PCOD9335949
_publ_section_title
;
Structure prediction by ZEFSAII (Michael W. Deem and Ramdas Pophale) SiO2 
 PCOD9335949
Probable space group: I 21 21 21
;
_chemical_formula_sum "Si O2"
_cell_formula_units_Z 32
_cell_length_a 8.895029
_cell_length_b 19.116968
_cell_length_c 8.372403
_cell_angle_alpha 90.000000
_cell_angle_beta 90.000000
_cell_angle_gamma 90.000000
_cell_volume 1423.693513
_symmetry_space_group_name_H-M "I 21 21 21"
_symmetry_group_IT_number 24
_symmetry_cell_setting 'orthorhombic'
loop_
_space_group_symop_operation_xyz
x,y,z
-x,1/2-y,z
x,-y,1/2-z
1/2-x,y,-z
1/2+x,1/2+y,1/2+z
1/2-x,-y,1/2+z
1/2+x,1/2-y,-z
-x,1/2+y,1/2-z
loop_
_atom_site_type_symbol
_atom_site_label
_atom_site_fract_x
_atom_site_fract_y
_atom_site_fract_z
Si Si1 0.868878 0.550363 0.111444
Si Si2 0.632392 0.055431 0.380671
Si Si3 0.173923 0.830297 0.327373
Si Si4 0.187271 0.330451 0.178168
O O1 0.929745 0.500000 0.250000
O O2 0.779362 0.612368 0.198621
O O3 0.750000 0.510370 0.000000
O O4 0.999150 0.578011 0.997127
O O5 0.750000 0.018120 0.500000
O O6 0.722491 0.117917 0.294700
O O7 0.578503 0.000000 0.250000
O O8 0.250000 0.840104 0.500000
O O9 0.209032 0.750999 0.275792
O O10 0.992778 0.840599 0.332656
O O11 0.250000 0.339274 0.000000
#
# Coordination Sequence:
#
# PCOD9335949 Si02
#       4
#     8   8   8   8
#     4  12  27  46  68 102 141 187 233 289 354 421
#     4  12  25  43  71 104 137 179 232 296 346 411
#     4  10  23  45  69  99 141 185 228 282 350 422
#     4  10  23  43  71 103 137 181 233 285 347 417
#
# _framework density 22.476748000000001
#
# number of rings (size 3 to 8) (size 9 to 14) (size 15 to 20)
#    0.000    1.000    2.500    3.000    7.000    1.000 
#    0.000    0.000    0.000    0.000    0.000    0.000 
#    0.000    0.000    0.000    0.000    0.000    0.000 
#
# Total GULP energy -89454.863438 kJ/mol
# GULP energy per Si atom -5590.928965 kJ/mol
# Density = 2.242559 g / cm^3
# Si number density = 22.476748 Si / 1000 Ang^3
#
#
#
# Elastic Constant Matrix: (Units=GPa)
#
#
# Indices 1 2 3 4 5 6 
#
# 1 85.3769 39.7742 55.3315 0.0001 0.0000 0.0000
# 2 39.7742 133.9977 71.1631 0.0001 0.0000 0.0000
# 3 55.3315 71.1631 132.2930 0.0005 -0.0002 0.0000
# 4 0.0001 0.0001 0.0005 37.7160 -0.0001 0.0000
# 5 0.0000 0.0000 -0.0002 -0.0001 56.1460 0.0000
# 6 0.0000 0.0000 0.0000 0.0000 0.0000 18.4232
#
#
#
# Elastic Compliance Matrix: (Units=1/GPa)
#
#
# Indices 1 2 3 4 5 6 
#
# 1 0.016343 -0.001709 -0.005916 0.000000 0.000000 0.000000
# 2 -0.001709 0.010626 -0.005001 0.000000 0.000000 0.000000
# 3 -0.005916 -0.005001 0.012724 0.000000 0.000000 0.000000
# 4 0.000000 0.000000 0.000000 0.026514 0.000000 0.000000
# 5 0.000000 0.000000 0.000000 0.000000 0.017811 0.000000
# 6 0.000000 0.000000 0.000000 0.000000 0.000000 0.054279
#
#
# Mechanical properties :
#
#
# Convention : Reuss Voigt Hill
#
# Bulk Modulus (GPa) = 69.25199 76.02279 72.63739
# Shear Modulus (GPa) = 29.69771 34.81697 32.25734
#
# Velocity S-wave (km/s) = 3.63886 3.94003 3.79244
# Velocity P-wave (km/s) = 6.96653 7.38883 7.18078
#
# Compressibility (1/GPa) = 0.01444002
#
# Stress axis : x y z
#
# Youngs Moduli (GPa) = 61.18762 94.10749 78.59399
#
# Poissons Ratio (x) = 0.16085 0.46497
# Poissons Ratio (y) = 0.10458 0.39306
# Poissons Ratio (z) = 0.36199 0.47065
#
# Static dielectric constant tensor:
#      x y z
#    x 1.878740 0.000000 0.000000 
#    y 0.000000 1.825040 0.000000 
#    z 0.000000 0.000000 1.815280 
# 
# From -- ./inp_files/8953.got.cif
#   From: 2010.05.17/outbox.cif.g08.bks.cpg/sg24_5_cif.got.tgz:8953.got - 2010.06.04 00:33:39.
