data_PCOD9335732
_publ_section_title
;
Structure prediction by ZEFSAII (Michael W. Deem and Ramdas Pophale) SiO2 
 PCOD9335732
Probable space group: I 21 21 21
;
_chemical_formula_sum "Si O2"
_cell_formula_units_Z 40
_cell_length_a 14.480994
_cell_length_b 9.095181
_cell_length_c 15.651458
_cell_angle_alpha 90.000000
_cell_angle_beta 90.000000
_cell_angle_gamma 90.000000
_cell_volume 2061.410672
_symmetry_space_group_name_H-M "I 21 21 21"
_symmetry_group_IT_number 24
_symmetry_cell_setting 'orthorhombic'
loop_
_space_group_symop_operation_xyz
x,y,z
-x,1/2-y,z
x,-y,1/2-z
1/2-x,y,-z
1/2+x,1/2+y,1/2+z
1/2-x,-y,1/2+z
1/2+x,1/2-y,-z
-x,1/2+y,1/2-z
loop_
_atom_site_type_symbol
_atom_site_label
_atom_site_fract_x
_atom_site_fract_y
_atom_site_fract_z
Si Si1 0.189974 0.196369 0.344944
Si Si2 0.803483 0.148449 0.788171
Si Si3 0.459497 0.000000 0.750000
Si Si4 0.250000 0.988072 0.500000
Si Si5 0.891883 0.767563 0.536574
Si Si6 0.123959 0.522086 0.380173
O O1 0.276904 0.236739 0.284850
O O2 0.109126 0.123075 0.287976
O O3 0.149183 0.349458 0.381764
O O4 0.225372 0.089179 0.419051
O O5 0.862036 0.203243 0.866845
O O6 0.703882 0.100493 0.825745
O O7 0.846097 0.000000 0.750000
O O8 0.528176 0.043893 0.828100
O O9 0.163581 0.877916 0.509917
O O10 0.870346 0.901922 0.472294
O O11 0.000000 0.750000 0.530403
#
# Coordination Sequence:
#
# PCOD9335732 Si02
#       6
#     8   8   4   4   8   8
#     4  11  25  40  71 101 141 179 224 284 353 422
#     4  10  22  44  67  91 127 190 223 273 335 411
#     4  12  22  38  68 114 136 166 232 290 356 406
#     4  12  26  44  70 104 142 178 220 304 350 410
#     4  12  26  45  69 100 136 184 234 281 348 422
#     4  11  23  40  71  95 141 178 218 284 355 413
#
# _framework density 19.404188000000001
#
# number of rings (size 3 to 8) (size 9 to 14) (size 15 to 20)
#    0.000    0.800    5.000    3.000    8.400    0.000 
#    3.600    0.000    0.000    0.000    0.000    0.000 
#    0.000    0.000    0.000    0.000    0.000    0.000 
#
# Total GULP energy -111776.259755 kJ/mol
# GULP energy per Si atom -5588.812988 kJ/mol
# Density = 1.936002 g / cm^3
# Si number density = 19.404188 Si / 1000 Ang^3
#
#
#
# Elastic Constant Matrix: (Units=GPa)
#
#
# Indices 1 2 3 4 5 6 
#
# 1 79.8984 51.9283 35.1097 0.0000 0.0000 0.0000
# 2 51.9283 138.0743 86.8167 0.0000 0.0000 0.0000
# 3 35.1097 86.8167 125.6460 0.0000 0.0000 0.0000
# 4 0.0000 0.0000 0.0000 47.5651 0.0000 0.0000
# 5 0.0000 0.0000 0.0000 0.0000 26.8304 0.0000
# 6 0.0000 0.0000 0.0000 0.0000 0.0000 9.3435
#
#
#
# Elastic Compliance Matrix: (Units=1/GPa)
#
#
# Indices 1 2 3 4 5 6 
#
# 1 0.016588 -0.005878 -0.000574 0.000000 0.000000 0.000000
# 2 -0.005878 0.014889 -0.008645 0.000000 0.000000 0.000000
# 3 -0.000574 -0.008645 0.014093 0.000000 0.000000 0.000000
# 4 0.000000 0.000000 0.000000 0.021024 0.000000 0.000000
# 5 0.000000 0.000000 0.000000 0.000000 0.037271 0.000000
# 6 0.000000 0.000000 0.000000 0.000000 0.000000 0.107027
#
#
# Mechanical properties :
#
#
# Convention : Reuss Voigt Hill
#
# Bulk Modulus (GPa) = 65.03654 76.81421 70.92537
# Shear Modulus (GPa) = 20.30779 28.06539 24.18659
#
# Velocity S-wave (km/s) = 3.23858 3.80723 3.53436
# Velocity P-wave (km/s) = 6.89739 7.68108 7.29976
#
# Compressibility (1/GPa) = 0.01537597
#
# Stress axis : x y z
#
# Youngs Moduli (GPa) = 60.28359 67.16426 70.95829
#
# Poissons Ratio (x) = 0.39477 0.04073
# Poissons Ratio (y) = 0.35433 0.61345
# Poissons Ratio (z) = 0.03460 0.58065
#
# Static dielectric constant tensor:
#      x y z
#    x 1.646510 0.000000 0.000000 
#    y 0.000000 1.710670 0.000000 
#    z 0.000000 0.000000 1.772670 
# 
# From -- ./inp_files/12359.got.cif
#   From: 2010.05.17/outbox.cif.g08.bks.cpg/sg24_7_cif.got.tgz:12359.got - 2010.06.04 00:33:39.
