data_PCOD9335016
_publ_section_title
;
Structure prediction by ZEFSAII (Michael W. Deem and Ramdas Pophale) SiO2 
 PCOD9335016
Probable space group: I 21 21 21
;
_chemical_formula_sum "Si O2"
_cell_formula_units_Z 64
_cell_length_a 12.421835
_cell_length_b 14.760192
_cell_length_c 17.379138
_cell_angle_alpha 90.000000
_cell_angle_beta 90.000000
_cell_angle_gamma 90.000000
_cell_volume 3186.441831
_symmetry_space_group_name_H-M "I 21 21 21"
_symmetry_group_IT_number 24
_symmetry_cell_setting 'orthorhombic'
loop_
_space_group_symop_operation_xyz
x,y,z
-x,1/2-y,z
x,-y,1/2-z
1/2-x,y,-z
1/2+x,1/2+y,1/2+z
1/2-x,-y,1/2+z
1/2+x,1/2-y,-z
-x,1/2+y,1/2-z
loop_
_atom_site_type_symbol
_atom_site_label
_atom_site_fract_x
_atom_site_fract_y
_atom_site_fract_z
Si Si1 0.117750 0.001597 0.838098
Si Si2 0.367192 0.992817 0.837942
Si Si3 0.030200 0.842505 0.418673
Si Si4 0.468362 0.650252 0.091180
Si Si5 0.278747 0.362163 0.911459
Si Si6 0.749471 0.940473 0.094510
Si Si7 0.527449 0.149752 0.593932
Si Si8 0.388959 0.203046 0.092791
O O1 0.241698 0.971020 0.839287
O O2 0.117561 0.103488 0.871070
O O3 0.079747 0.000000 0.750000
O O4 0.048326 0.930219 0.885665
O O5 0.391843 0.088189 0.878125
O O6 0.403725 0.000000 0.750000
O O7 0.433559 0.917332 0.881921
O O8 0.086516 0.814409 0.500350
O O9 0.000000 0.750000 0.375081
O O10 0.908223 0.880269 0.418539
O O11 0.500000 0.750000 0.120133
O O12 0.350492 0.620843 0.118031
O O13 0.466751 0.654344 0.998520
O O14 0.235487 0.456209 0.876299
O O15 0.212968 0.269882 0.887250
O O16 0.250000 0.360767 0.000000
O O17 0.859878 0.893555 0.120383
O O18 0.750000 0.944248 0.000000
O O19 0.500000 0.250000 0.623346
O O20 0.500000 0.250000 0.119802
#
# Coordination Sequence:
#
# PCOD9335016 Si02
#       8
#     8   8   8   8   8   8   8   8
#     4  11  26  43  59  85 128 172 209 254 305 370
#     4  11  25  43  59  85 129 171 208 251 305 367
#     4  11  21  35  62  94 124 154 204 255 309 376
#     4  10  22  40  66  92 118 160 210 264 312 360
#     4  11  18  33  58  96 127 150 187 256 318 365
#     4   9  19  35  60  93 127 150 194 259 315 364
#     4  10  21  39  67  93 120 161 210 262 310 360
#     4  11  22  36  64  96 124 157 202 256 318 375
#
# _framework density 20.085099
#
# number of rings (size 3 to 8) (size 9 to 14) (size 15 to 20)
#    0.000    1.500    3.750    2.250    3.500    2.500 
#    0.000    0.625    0.000    0.000    0.000    0.000 
#    0.000    0.000    0.000    0.000    0.000    0.000 
#
# Total GULP energy -178292.424043 kJ/mol
# GULP energy per Si atom -5571.638251 kJ/mol
# Density = 2.003938 g / cm^3
# Si number density = 20.085099 Si / 1000 Ang^3
#
#
#
# Elastic Constant Matrix: (Units=GPa)
#
#
# Indices 1 2 3 4 5 6 
#
# 1 65.6009 36.4415 6.8426 0.0000 0.0000 0.0000
# 2 36.4415 165.1538 18.5324 0.0000 0.0000 0.0000
# 3 6.8426 18.5324 11.1031 0.0000 0.0000 0.0000
# 4 0.0000 0.0000 0.0000 -14.6297 0.0000 0.0000
# 5 0.0000 0.0000 0.0000 0.0000 27.1220 0.0000
# 6 0.0000 0.0000 0.0000 0.0000 0.0000 37.5600
#
#
#
# Elastic Compliance Matrix: (Units=1/GPa)
#
#
# Indices 1 2 3 4 5 6 
#
# 1 0.017631 -0.003287 -0.005380 0.000000 0.000000 0.000000
# 2 -0.003287 0.008063 -0.011433 0.000000 0.000000 0.000000
# 3 -0.005380 -0.011433 0.112463 0.000000 0.000000 0.000000
# 4 0.000000 0.000000 0.000000 -0.068354 0.000000 0.000000
# 5 0.000000 0.000000 0.000000 0.000000 0.036870 0.000000
# 6 0.000000 0.000000 0.000000 0.000000 0.000000 0.026624
#
#
# Mechanical properties :
#
#
# Convention : Reuss Voigt Hill
#
# Bulk Modulus (GPa) = 10.20838 40.61008 25.40923
# Shear Modulus (GPa) = 24.25443 22.01321 23.13382
#
# Velocity S-wave (km/s) = 3.47880 3.31418 3.39749
# Velocity P-wave (km/s) = 4.60757 5.90829 5.29800
#
# Compressibility (1/GPa) = 0.09795872
#
# Stress axis : x y z
#
# Youngs Moduli (GPa) = 56.71988 124.02255 8.89181
#
# Poissons Ratio (x) = 0.40761 0.04783
# Poissons Ratio (y) = 0.18641 0.10166
# Poissons Ratio (z) = 0.30513 1.41792
#
# Static dielectric constant tensor:
#      x y z
#    x 1.818770 0.000000 0.000000 
#    y 0.000000 1.767510 0.000000 
#    z 0.000000 0.000000 1.684600 
# 
# From -- ./inp_files/30360.got.cif
#   From: 2010.05.17/outbox.cif.g08.bks.cpg/sg24_16_cif.got.tgz:30360.got - 2010.06.04 00:33:39.
