data_PCOD9335233
_publ_section_title
;
Structure prediction by ZEFSAII (Michael W. Deem and Ramdas Pophale) SiO2 
 PCOD9335233
Probable space group: I 21 21 21
;
_chemical_formula_sum "Si O2"
_cell_formula_units_Z 56
_cell_length_a 14.876861
_cell_length_b 12.205107
_cell_length_c 13.422162
_cell_angle_alpha 90.000000
_cell_angle_beta 90.000000
_cell_angle_gamma 90.000000
_cell_volume 2437.111352
_symmetry_space_group_name_H-M "I 21 21 21"
_symmetry_group_IT_number 24
_symmetry_cell_setting 'orthorhombic'
loop_
_space_group_symop_operation_xyz
x,y,z
-x,1/2-y,z
x,-y,1/2-z
1/2-x,y,-z
1/2+x,1/2+y,1/2+z
1/2-x,-y,1/2+z
1/2+x,1/2-y,-z
-x,1/2+y,1/2-z
loop_
_atom_site_type_symbol
_atom_site_label
_atom_site_fract_x
_atom_site_fract_y
_atom_site_fract_z
Si Si1 0.611090 0.418860 0.651041
Si Si2 0.286180 0.216068 0.318982
Si Si3 0.563125 0.097975 0.046621
Si Si4 0.812922 0.277486 0.907556
Si Si5 0.714938 0.949736 0.138489
Si Si6 0.122046 0.011569 0.577389
Si Si7 0.080980 0.532196 0.137077
O O1 0.617971 0.500000 0.750000
O O2 0.684165 0.323629 0.662999
O O3 0.632662 0.467246 0.540996
O O4 0.505697 0.388909 0.636722
O O5 0.286051 0.252744 0.203609
O O6 0.320637 0.326054 0.371426
O O7 0.348210 0.114783 0.355777
O O8 0.591067 0.222093 0.069410
O O9 0.652323 0.033317 0.080464
O O10 0.478563 0.035796 0.096008
O O11 0.552944 0.072476 0.929723
O O12 0.816212 0.408109 0.899793
O O13 0.750000 0.246199 0.000000
O O14 0.818795 0.935914 0.106471
O O15 0.713469 0.000000 0.250000
O O16 0.090331 0.500000 0.250000
#
# Coordination Sequence:
#
# PCOD9335233 Si02
#       7
#     8   8   8   8   8   8   8
#     4  10  21  43  68 102 141 182 229 295 368 441
#     4  12  25  42  70 101 139 186 236 298 367 433
#     4  11  24  44  69  99 143 190 237 299 358 437
#     4  12  24  43  72 103 139 188 240 301 361 436
#     4  11  23  43  64  98 136 186 240 295 361 436
#     4  11  25  44  67 105 144 185 242 292 366 438
#     4   9  21  40  68  99 141 177 232 296 361 436
#
# _framework density 22.978023
#
# number of rings (size 3 to 8) (size 9 to 14) (size 15 to 20)
#    0.000    1.143    1.429    5.143    2.000    4.571 
#    2.571    2.857    0.000    0.000    0.000    0.000 
#    0.000    0.000    0.000    0.000    0.000    0.000 
#
# Total GULP energy -156122.675936 kJ/mol
# GULP energy per Si atom -5575.809855 kJ/mol
# Density = 2.292572 g / cm^3
# Si number density = 22.978023 Si / 1000 Ang^3
#
#
#
# Elastic Constant Matrix: (Units=GPa)
#
#
# Indices 1 2 3 4 5 6 
#
# 1 98.7201 12.0665 -0.6373 0.0000 0.0000 0.0000
# 2 12.0665 96.3258 3.4181 0.0000 0.0000 0.0000
# 3 -0.6373 3.4181 84.4308 0.0000 0.0000 0.0000
# 4 0.0000 0.0000 0.0000 21.5753 0.0000 0.0000
# 5 0.0000 0.0000 0.0000 0.0000 -89.0564 0.0000
# 6 0.0000 0.0000 0.0000 0.0000 0.0000 15.4562
#
#
#
# Elastic Compliance Matrix: (Units=1/GPa)
#
#
# Indices 1 2 3 4 5 6 
#
# 1 0.010289 -0.001293 0.000130 0.000000 0.000000 0.000000
# 2 -0.001293 0.010559 -0.000437 0.000000 0.000000 0.000000
# 3 0.000130 -0.000437 0.011863 0.000000 0.000000 0.000000
# 4 0.000000 0.000000 0.000000 0.046349 0.000000 0.000000
# 5 0.000000 0.000000 0.000000 0.000000 -0.011229 0.000000
# 6 0.000000 0.000000 0.000000 0.000000 0.000000 0.064699
#
#
# Mechanical properties :
#
#
# Convention : Reuss Voigt Hill
#
# Bulk Modulus (GPa) = 33.88799 34.35235 34.12017
# Shear Modulus (GPa) = 34.34843 7.23700 20.79272
#
# Velocity S-wave (km/s) = 3.87051 1.77662 3.01141
# Velocity P-wave (km/s) = 5.89529 4.38076 5.19353
#
# Compressibility (1/GPa) = 0.02950898
#
# Stress axis : x y z
#
# Youngs Moduli (GPa) = 97.19505 94.70617 84.29778
#
# Poissons Ratio (x) = 0.12250 -0.01096
# Poissons Ratio (y) = 0.12572 0.03686
# Poissons Ratio (z) = -0.01264 0.04141
#
# Static dielectric constant tensor:
#      x y z
#    x 1.920100 0.000000 0.000000 
#    y 0.000000 1.872740 0.000000 
#    z 0.000000 0.000000 1.885020 
# 
# From -- ./inp_files/26498.got.cif
#   From: 2010.05.17/outbox.cif.g08.bks.cpg/sg24_14_cif.got.tgz:26498.got - 2010.06.04 00:33:39.
