data_PCOD9335758
_publ_section_title
;
Structure prediction by ZEFSAII (Michael W. Deem and Ramdas Pophale) SiO2 
 PCOD9335758
Probable space group: I 21 21 21
;
_chemical_formula_sum "Si O2"
_cell_formula_units_Z 40
_cell_length_a 16.325937
_cell_length_b 8.623212
_cell_length_c 14.418060
_cell_angle_alpha 90.000000
_cell_angle_beta 90.000000
_cell_angle_gamma 90.000000
_cell_volume 2029.803551
_symmetry_space_group_name_H-M "I 21 21 21"
_symmetry_group_IT_number 24
_symmetry_cell_setting 'orthorhombic'
loop_
_space_group_symop_operation_xyz
x,y,z
-x,1/2-y,z
x,-y,1/2-z
1/2-x,y,-z
1/2+x,1/2+y,1/2+z
1/2-x,-y,1/2+z
1/2+x,1/2-y,-z
-x,1/2+y,1/2-z
loop_
_atom_site_type_symbol
_atom_site_label
_atom_site_fract_x
_atom_site_fract_y
_atom_site_fract_z
Si Si1 0.891455 0.500000 0.250000
Si Si2 0.250000 0.067213 0.000000
Si Si3 0.500000 0.250000 0.862458
Si Si4 0.119647 0.320136 0.985255
Si Si5 0.750000 0.079516 0.500000
Si Si6 0.411233 0.685866 0.269508
Si Si7 0.257914 0.175220 0.344439
O O1 0.948978 0.377040 0.195616
O O2 0.825708 0.387484 0.300486
O O3 0.175667 0.180456 0.024484
O O4 0.218447 0.961587 0.915987
O O5 0.446300 0.347099 0.935868
O O6 0.092260 0.285017 0.880476
O O7 0.174300 0.471356 0.977826
O O8 0.764502 0.182043 0.410062
O O9 0.500000 0.750000 0.235857
O O10 0.405863 0.500000 0.250000
O O11 0.333134 0.773405 0.222000
#
# Coordination Sequence:
#
# PCOD9335758 Si02
#       7
#     4   4   4   8   4   8   8
#     4  12  28  48  72 104 138 194 238 304 352 438
#     4  10  22  44  74 100 138 192 240 290 358 430
#     4  12  28  46  70 104 144 188 244 302 366 416
#     4  11  23  47  68 100 144 187 234 293 366 422
#     4  10  24  44  70  98 136 186 240 292 348 426
#     4  12  27  44  71 107 145 187 239 295 352 434
#     4  11  24  46  71 103 137 188 242 290 357 423
#
# _framework density 19.706340000000001
#
# number of rings (size 3 to 8) (size 9 to 14) (size 15 to 20)
#    0.000    0.800    5.000    1.200    9.800    0.000 
#    0.000    0.000    0.000    0.000    0.000    0.000 
#    0.000    0.000    0.000    0.000    0.000    0.000 
#
# Total GULP energy -111525.128738 kJ/mol
# GULP energy per Si atom -5576.256437 kJ/mol
# Density = 1.966149 g / cm^3
# Si number density = 19.706340 Si / 1000 Ang^3
#
#
#
# Elastic Constant Matrix: (Units=GPa)
#
#
# Indices 1 2 3 4 5 6 
#
# 1 122.7739 59.8395 72.0687 0.0000 0.0000 0.0000
# 2 59.8395 121.4696 56.6736 0.0000 0.0000 0.0000
# 3 72.0687 56.6736 118.3800 0.0000 0.0000 0.0000
# 4 0.0000 0.0000 0.0000 6.1787 0.0000 0.0000
# 5 0.0000 0.0000 0.0000 0.0000 38.0101 0.0000
# 6 0.0000 0.0000 0.0000 0.0000 0.0000 54.4531
#
#
#
# Elastic Compliance Matrix: (Units=1/GPa)
#
#
# Indices 1 2 3 4 5 6 
#
# 1 0.013871 -0.003725 -0.006661 0.000000 0.000000 0.000000
# 2 -0.003725 0.011601 -0.003286 0.000000 0.000000 0.000000
# 3 -0.006661 -0.003286 0.014076 0.000000 0.000000 0.000000
# 4 0.000000 0.000000 0.000000 0.161846 0.000000 0.000000
# 5 0.000000 0.000000 0.000000 0.000000 0.026309 0.000000
# 6 0.000000 0.000000 0.000000 0.000000 0.000000 0.018364
#
#
# Mechanical properties :
#
#
# Convention : Reuss Voigt Hill
#
# Bulk Modulus (GPa) = 81.94783 82.19857 82.07320
# Shear Modulus (GPa) = 18.01942 31.33117 24.67529
#
# Velocity S-wave (km/s) = 3.02718 3.99168 3.54241
# Velocity P-wave (km/s) = 7.34120 7.94022 7.64658
#
# Compressibility (1/GPa) = 0.01220288
#
# Stress axis : x y z
#
# Youngs Moduli (GPa) = 72.09407 86.20088 71.04535
#
# Poissons Ratio (x) = 0.32113 0.47323
# Poissons Ratio (y) = 0.26858 0.23344
# Poissons Ratio (z) = 0.48021 0.28324
#
# Static dielectric constant tensor:
#      x y z
#    x 1.736370 0.000000 0.000000 
#    y 0.000000 1.684830 0.000000 
#    z 0.000000 0.000000 1.651780 
# 
# From -- ./inp_files/12403.got.cif
#   From: 2010.05.17/outbox.cif.g08.bks.cpg/sg24_7_cif.got.tgz:12403.got - 2010.06.04 00:33:39.
