data_PCOD9335772
_publ_section_title
;
Structure prediction by ZEFSAII (Michael W. Deem and Ramdas Pophale) SiO2 
 PCOD9335772
Probable space group: I 21 21 21
;
_chemical_formula_sum "Si O2"
_cell_formula_units_Z 64
_cell_length_a 15.164579
_cell_length_b 16.864124
_cell_length_c 12.135160
_cell_angle_alpha 90.000000
_cell_angle_beta 90.000000
_cell_angle_gamma 90.000000
_cell_volume 3103.413547
_symmetry_space_group_name_H-M "I 21 21 21"
_symmetry_group_IT_number 24
_symmetry_cell_setting 'orthorhombic'
loop_
_space_group_symop_operation_xyz
x,y,z
-x,1/2-y,z
x,-y,1/2-z
1/2-x,y,-z
1/2+x,1/2+y,1/2+z
1/2-x,-y,1/2+z
1/2+x,1/2-y,-z
-x,1/2+y,1/2-z
loop_
_atom_site_type_symbol
_atom_site_label
_atom_site_fract_x
_atom_site_fract_y
_atom_site_fract_z
Si Si1 0.114356 0.922304 0.467902
Si Si2 0.721872 0.337186 0.782220
Si Si3 0.427524 0.177536 0.181801
Si Si4 0.352115 0.412456 0.522910
Si Si5 0.011195 0.155613 0.582642
Si Si6 0.668377 0.594429 0.940938
Si Si7 0.929855 0.052153 0.140485
Si Si8 0.908896 0.200667 0.275671
O O1 0.180099 0.868464 0.396119
O O2 0.074981 0.877302 0.573499
O O3 0.031137 0.947093 0.394029
O O4 0.159707 0.006242 0.490451
O O5 0.822336 0.308858 0.798919
O O6 0.696305 0.402257 0.687339
O O7 0.667702 0.263068 0.738399
O O8 0.500000 0.250000 0.168669
O O9 0.451619 0.135370 0.296999
O O10 0.250000 0.399464 0.500000
O O11 0.417736 0.387392 0.426491
O O12 0.371617 0.503926 0.553510
O O13 0.387300 0.354973 0.620502
O O14 0.077181 0.133142 0.482541
O O15 0.000000 0.250000 0.578876
O O16 0.750000 0.637773 0.000000
O O17 0.908540 0.142190 0.170676
O O18 0.920686 0.000000 0.250000
O O19 0.000000 0.250000 0.283288
#
# Coordination Sequence:
#
# PCOD9335772 Si02
#       8
#     8   8   8   8   8   8   8   8
#     4  12  25  44  69  98 140 182 237 288 347 419
#     4  12  24  43  72 107 131 181 234 292 353 416
#     4  11  28  47  63  98 149 192 225 278 356 433
#     4  11  24  43  70 104 139 184 232 289 354 430
#     4  11  24  44  66  99 143 178 230 288 354 425
#     4  12  23  42  72 104 133 173 228 300 359 411
#     4  10  22  45  67 100 136 170 229 290 343 402
#     4  11  23  41  72 103 133 172 231 297 349 400
#
# _framework density 20.622454000000001
#
# number of rings (size 3 to 8) (size 9 to 14) (size 15 to 20)
#    0.000    0.750    3.750    4.125    5.250    1.500 
#    2.250    1.250    0.000    0.000    0.000    0.000 
#    0.000    0.000    0.000    0.000    0.000    0.000 
#
# Total GULP energy -178539.150369 kJ/mol
# GULP energy per Si atom -5579.348449 kJ/mol
# Density = 2.057552 g / cm^3
# Si number density = 20.622454 Si / 1000 Ang^3
#
#
#
# Elastic Constant Matrix: (Units=GPa)
#
#
# Indices 1 2 3 4 5 6 
#
# 1 99.4392 29.3406 -8.0265 0.0000 0.0000 0.0000
# 2 29.3406 84.4249 21.5827 0.0000 0.0000 0.0000
# 3 -8.0265 21.5827 48.8345 0.0000 0.0000 0.0000
# 4 0.0000 0.0000 0.0000 38.6322 0.0000 0.0000
# 5 0.0000 0.0000 0.0000 0.0000 16.8982 0.0000
# 6 0.0000 0.0000 0.0000 0.0000 0.0000 13.7805
#
#
#
# Elastic Compliance Matrix: (Units=1/GPa)
#
#
# Indices 1 2 3 4 5 6 
#
# 1 0.011951 -0.005248 0.004284 0.000000 0.000000 0.000000
# 2 -0.005248 0.015659 -0.007783 0.000000 0.000000 0.000000
# 3 0.004284 -0.007783 0.024621 0.000000 0.000000 0.000000
# 4 0.000000 0.000000 0.000000 0.025885 0.000000 0.000000
# 5 0.000000 0.000000 0.000000 0.000000 0.059178 0.000000
# 6 0.000000 0.000000 0.000000 0.000000 0.000000 0.072566
#
#
# Mechanical properties :
#
#
# Convention : Reuss Voigt Hill
#
# Bulk Modulus (GPa) = 28.78921 35.38802 32.08862
# Shear Modulus (GPa) = 20.92633 26.51564 23.72099
#
# Velocity S-wave (km/s) = 3.18895 3.58965 3.39521
# Velocity P-wave (km/s) = 5.24877 5.86327 5.56451
#
# Compressibility (1/GPa) = 0.03473523
#
# Stress axis : x y z
#
# Youngs Moduli (GPa) = 83.67649 63.86290 40.61542
#
# Poissons Ratio (x) = 0.33518 -0.17399
# Poissons Ratio (y) = 0.43917 0.31611
# Poissons Ratio (z) = -0.35846 0.49705
#
# Static dielectric constant tensor:
#      x y z
#    x 1.713850 0.000000 0.000000 
#    y 0.000000 1.776160 0.000000 
#    z 0.000000 0.000000 1.856450 
# 
# From -- ./inp_files/21064.got.cif
#   From: 2010.05.17/outbox.cif.g08.bks.cpg/sg24_11_cif.got.tgz:21064.got - 2010.06.04 00:33:39.
