data_PCOD9335342
_publ_section_title
;
Structure prediction by ZEFSAII (Michael W. Deem and Ramdas Pophale) SiO2 
 PCOD9335342
Probable space group: I 21 21 21
;
_chemical_formula_sum "Si O2"
_cell_formula_units_Z 36
_cell_length_a 25.104359
_cell_length_b 7.995629
_cell_length_c 7.650642
_cell_angle_alpha 90.000000
_cell_angle_beta 90.000000
_cell_angle_gamma 90.000000
_cell_volume 1535.676193
_symmetry_space_group_name_H-M "I 21 21 21"
_symmetry_group_IT_number 24
_symmetry_cell_setting 'orthorhombic'
loop_
_space_group_symop_operation_xyz
x,y,z
-x,1/2-y,z
x,-y,1/2-z
1/2-x,y,-z
1/2+x,1/2+y,1/2+z
1/2-x,-y,1/2+z
1/2+x,1/2-y,-z
-x,1/2+y,1/2-z
loop_
_atom_site_type_symbol
_atom_site_label
_atom_site_fract_x
_atom_site_fract_y
_atom_site_fract_z
Si Si1 0.573093 0.000000 0.750000
Si Si2 0.463227 0.601167 0.405317
Si Si3 0.368287 0.195421 0.282103
Si Si4 0.861338 0.316808 0.299192
Si Si5 0.751347 0.804116 0.790844
O O1 0.607271 0.164818 0.786858
O O2 0.543059 0.021510 0.568842
O O3 0.500000 0.750000 0.468753
O O4 0.490744 0.500000 0.250000
O O5 0.410525 0.683426 0.314315
O O6 0.366837 0.215063 0.492818
O O7 0.308121 0.241306 0.221646
O O8 0.378702 0.000000 0.250000
O O9 0.881467 0.500000 0.250000
O O10 0.800467 0.298362 0.233260
O O11 0.744666 0.000000 0.750000
O O12 0.750000 0.787153 0.000000
#
# Coordination Sequence:
#
# PCOD9335342 Si02
#       5
#     4   8   8   8   8
#     4  12  26  50  74 110 150 186 246 314 378 446
#     4  12  27  50  77 104 143 193 252 315 381 439
#     4  11  23  43  68 104 145 193 248 304 362 446
#     4  11  23  42  70 109 149 192 241 299 372 448
#     4  10  22  36  64 101 145 195 238 291 365 441
#
# _framework density 23.442443999999998
#
# number of rings (size 3 to 8) (size 9 to 14) (size 15 to 20)
#    0.000    0.889    3.333    3.333    3.111    2.667 
#    6.000    0.000    0.000    0.000    0.000    0.000 
#    0.000    0.000    0.000    0.000    0.000    0.000 
#
# Total GULP energy -100685.444535 kJ/mol
# GULP energy per Si atom -5593.635808 kJ/mol
# Density = 2.338909 g / cm^3
# Si number density = 23.442444 Si / 1000 Ang^3
#
#
#
# Elastic Constant Matrix: (Units=GPa)
#
#
# Indices 1 2 3 4 5 6 
#
# 1 63.7522 4.7306 12.2114 0.0000 0.0000 0.0000
# 2 4.7306 106.7890 -11.5953 0.0000 0.0000 0.0000
# 3 12.2114 -11.5953 93.5164 0.0000 0.0000 0.0000
# 4 0.0000 0.0000 0.0000 40.5563 0.0000 0.0000
# 5 0.0000 0.0000 0.0000 0.0000 -32.2462 0.0000
# 6 0.0000 0.0000 0.0000 0.0000 0.0000 15.9721
#
#
#
# Elastic Compliance Matrix: (Units=1/GPa)
#
#
# Indices 1 2 3 4 5 6 
#
# 1 0.016185 -0.000959 -0.002232 0.000000 0.000000 0.000000
# 2 -0.000959 0.009549 0.001309 0.000000 0.000000 0.000000
# 3 -0.002232 0.001309 0.011147 0.000000 0.000000 0.000000
# 4 0.000000 0.000000 0.000000 0.024657 0.000000 0.000000
# 5 0.000000 0.000000 0.000000 0.000000 -0.031011 0.000000
# 6 0.000000 0.000000 0.000000 0.000000 0.000000 0.062609
#
#
# Mechanical properties :
#
#
# Convention : Reuss Voigt Hill
#
# Bulk Modulus (GPa) = 30.19710 30.52789 30.36249
# Shear Modulus (GPa) = 46.32248 22.10381 34.21315
#
# Velocity S-wave (km/s) = 4.45005 3.07399 3.82442
# Velocity P-wave (km/s) = 6.27003 5.06458 5.69927
#
# Compressibility (1/GPa) = 0.03311576
#
# Stress axis : x y z
#
# Youngs Moduli (GPa) = 61.78741 104.72390 89.70899
#
# Poissons Ratio (x) = 0.10047 0.20026
# Poissons Ratio (y) = 0.05928 -0.11745
# Poissons Ratio (z) = 0.13793 -0.13711
#
# Static dielectric constant tensor:
#      x y z
#    x 1.907580 0.000000 0.000000 
#    y 0.000000 1.910840 0.000000 
#    z 0.000000 0.000000 1.913680 
# 
# From -- ./inp_files/14820.got.cif
#   From: 2010.05.17/outbox.cif.g08.bks.cpg/sg24_8_cif.got.tgz:14820.got - 2010.06.04 00:33:39.
