data_PCOD9335661
_publ_section_title
;
Structure prediction by ZEFSAII (Michael W. Deem and Ramdas Pophale) SiO2 
 PCOD9335661
Probable space group: I 21 21 21
;
_chemical_formula_sum "Si O2"
_cell_formula_units_Z 40
_cell_length_a 8.908158
_cell_length_b 15.816726
_cell_length_c 12.066883
_cell_angle_alpha 90.000000
_cell_angle_beta 90.000000
_cell_angle_gamma 90.000000
_cell_volume 1700.198405
_symmetry_space_group_name_H-M "I 21 21 21"
_symmetry_group_IT_number 24
_symmetry_cell_setting 'orthorhombic'
loop_
_space_group_symop_operation_xyz
x,y,z
-x,1/2-y,z
x,-y,1/2-z
1/2-x,y,-z
1/2+x,1/2+y,1/2+z
1/2-x,-y,1/2+z
1/2+x,1/2-y,-z
-x,1/2+y,1/2-z
loop_
_atom_site_type_symbol
_atom_site_label
_atom_site_fract_x
_atom_site_fract_y
_atom_site_fract_z
Si Si1 0.548733 0.025912 0.084799
Si Si2 0.429119 0.672144 0.025395
Si Si3 0.912695 0.665598 0.442744
Si Si4 0.809101 0.500000 0.750000
Si Si5 0.804080 0.000000 0.250000
Si Si6 0.566744 0.622800 0.808935
O O1 0.701574 0.038576 0.152551
O O2 0.417487 0.050739 0.170082
O O3 0.509903 0.083154 0.979400
O O4 0.548171 0.924323 0.068041
O O5 0.500000 0.750000 0.096308
O O6 0.541404 0.673346 0.919566
O O7 0.250000 0.680958 0.000000
O O8 0.750000 0.662568 0.500000
O O9 0.900810 0.666119 0.308866
O O10 0.000000 0.750000 0.478117
O O11 0.700809 0.556714 0.823635
O O12 0.911129 0.072333 0.296112
#
# Coordination Sequence:
#
# PCOD9335661 Si02
#       6
#     8   8   8   4   4   8
#     4  11  24  47  72 102 150 187 246 297 362 426
#     4  12  28  47  73 108 144 194 241 299 363 431
#     4  12  28  47  73 108 144 194 241 299 363 431
#     4  10  22  42  74 108 138 194 240 300 356 434
#     4  10  22  42  74 108 138 194 240 300 356 434
#     4  11  23  44  72 103 145 184 245 295 360 427
#
# _framework density 23.526665000000001
#
# number of rings (size 3 to 8) (size 9 to 14) (size 15 to 20)
#    0.000    0.800    4.000    3.000    5.600    0.000 
#    0.000    4.000    0.000    0.000    0.000    0.000 
#    0.000    0.000    0.000    0.000    0.000    0.000 
#
# Total GULP energy -111762.025208 kJ/mol
# GULP energy per Si atom -5588.101260 kJ/mol
# Density = 2.347312 g / cm^3
# Si number density = 23.526665 Si / 1000 Ang^3
#
#
#
# Elastic Constant Matrix: (Units=GPa)
#
#
# Indices 1 2 3 4 5 6 
#
# 1 155.6378 31.1588 17.8438 0.0000 0.0000 0.0000
# 2 31.1588 91.5635 -18.9399 0.0001 0.0000 0.0000
# 3 17.8438 -18.9399 61.3268 0.0002 0.0000 -0.0001
# 4 0.0000 0.0001 0.0002 8.2182 0.0000 0.0000
# 5 0.0000 0.0000 0.0000 0.0000 30.4266 0.0000
# 6 0.0000 0.0000 -0.0001 0.0000 0.0000 27.0313
#
#
#
# Elastic Compliance Matrix: (Units=1/GPa)
#
#
# Indices 1 2 3 4 5 6 
#
# 1 0.007421 -0.003175 -0.003140 0.000000 0.000000 0.000000
# 2 -0.003175 0.013025 0.004946 0.000000 0.000000 0.000000
# 3 -0.003140 0.004946 0.018747 -0.000001 0.000000 0.000000
# 4 0.000000 0.000000 -0.000001 0.121681 0.000000 0.000000
# 5 0.000000 0.000000 0.000000 0.000000 0.032866 0.000000
# 6 0.000000 0.000000 0.000000 0.000000 0.000000 0.036994
#
#
# Mechanical properties :
#
#
# Convention : Reuss Voigt Hill
#
# Bulk Modulus (GPa) = 27.42982 40.96150 34.19566
# Shear Modulus (GPa) = 20.35648 31.69958 26.02803
#
# Velocity S-wave (km/s) = 2.94471 3.67466 3.32975
# Velocity P-wave (km/s) = 4.82142 5.95421 5.41751
#
# Compressibility (1/GPa) = 0.03645667
#
# Stress axis : x y z
#
# Youngs Moduli (GPa) = 134.75816 76.77637 53.34139
#
# Poissons Ratio (x) = 0.24374 0.16747
# Poissons Ratio (y) = 0.42781 -0.26384
# Poissons Ratio (z) = 0.42309 -0.37975
#
# Static dielectric constant tensor:
#      x y z
#    x 1.855280 0.000000 0.000000 
#    y 0.000000 1.846130 0.000000 
#    z 0.000000 0.000000 1.940070 
# 
# From -- ./inp_files/10758.got.cif
#   From: 2010.05.17/outbox.cif.g08.bks.cpg/sg24_6_cif.got.tgz:10758.got - 2010.06.04 00:33:39.
