data_PCOD9335858
_publ_section_title
;
Structure prediction by ZEFSAII (Michael W. Deem and Ramdas Pophale) SiO2 
 PCOD9335858
Probable space group: I 21 21 21
;
_chemical_formula_sum "Si O2"
_cell_formula_units_Z 44
_cell_length_a 5.167207
_cell_length_b 24.599745
_cell_length_c 16.161722
_cell_angle_alpha 90.000000
_cell_angle_beta 90.000000
_cell_angle_gamma 90.000000
_cell_volume 2054.348396
_symmetry_space_group_name_H-M "I 21 21 21"
_symmetry_group_IT_number 24
_symmetry_cell_setting 'orthorhombic'
loop_
_space_group_symop_operation_xyz
x,y,z
-x,1/2-y,z
x,-y,1/2-z
1/2-x,y,-z
1/2+x,1/2+y,1/2+z
1/2-x,-y,1/2+z
1/2+x,1/2-y,-z
-x,1/2+y,1/2-z
loop_
_atom_site_type_symbol
_atom_site_label
_atom_site_fract_x
_atom_site_fract_y
_atom_site_fract_z
Si Si1 0.500000 0.250000 0.057167
Si Si2 0.750000 0.912565 0.000000
Si Si3 0.414002 0.046171 0.634670
Si Si4 0.998766 0.356486 0.645654
Si Si5 0.000000 0.250000 0.554026
Si Si6 0.498545 0.074327 0.817267
Si Si7 0.021592 0.641929 0.666286
O O1 0.533626 0.195866 0.112103
O O2 0.250000 0.243062 0.000000
O O3 0.532159 0.949119 0.957329
O O4 0.792544 0.874219 0.921494
O O5 0.184528 0.090227 0.641190
O O6 0.565855 0.062618 0.719993
O O7 0.379773 0.982073 0.649194
O O8 0.895093 0.300195 0.608885
O O9 0.085640 0.344758 0.738099
O O10 0.250000 0.265435 0.500000
O O11 0.761458 0.097105 0.858057
O O12 0.268642 0.117732 0.829693
#
# Coordination Sequence:
#
# PCOD9335858 Si02
#       7
#     4   4   8   8   4   8   8
#     4  12  27  52  77 108 140 174 234 313 372 423
#     4  12  20  40  62  98 146 182 232 278 350 398
#     4  10  23  39  65  98 145 189 237 289 344 408
#     4  11  24  42  66 101 143 192 237 282 348 419
#     4  12  25  40  61  96 142 188 236 279 326 407
#     4  10  23  43  70 100 137 188 242 282 344 426
#     4  11  24  47  74 102 134 184 232 291 360 429
#
# _framework density 21.417981000000001
#
# number of rings (size 3 to 8) (size 9 to 14) (size 15 to 20)
#    0.000    1.091    2.727    3.273    2.545    1.455 
#    4.909    1.818    0.000    0.000    0.000    0.000 
#    0.000    0.000    0.000    0.000    0.000    0.000 
#
# Total GULP energy -122541.686103 kJ/mol
# GULP energy per Si atom -5570.076641 kJ/mol
# Density = 2.136923 g / cm^3
# Si number density = 21.417981 Si / 1000 Ang^3
#
#
#
# Elastic Constant Matrix: (Units=GPa)
#
#
# Indices 1 2 3 4 5 6 
#
# 1 70.2091 20.0059 22.4467 0.0000 0.0000 0.0000
# 2 20.0059 133.1080 59.0735 0.0000 0.0000 0.0000
# 3 22.4467 59.0735 96.7959 0.0000 0.0000 0.0000
# 4 0.0000 0.0000 0.0000 43.1357 0.0000 0.0000
# 5 0.0000 0.0000 0.0000 0.0000 27.8343 0.0000
# 6 0.0000 0.0000 0.0000 0.0000 0.0000 21.0972
#
#
#
# Elastic Compliance Matrix: (Units=1/GPa)
#
#
# Indices 1 2 3 4 5 6 
#
# 1 0.015481 -0.001006 -0.002976 0.000000 0.000000 0.000000
# 2 -0.001006 0.010369 -0.006095 0.000000 0.000000 0.000000
# 3 -0.002976 -0.006095 0.014741 0.000000 0.000000 0.000000
# 4 0.000000 0.000000 0.000000 0.023183 0.000000 0.000000
# 5 0.000000 0.000000 0.000000 0.000000 0.035927 0.000000
# 6 0.000000 0.000000 0.000000 0.000000 0.000000 0.047400
#
#
# Mechanical properties :
#
#
# Convention : Reuss Voigt Hill
#
# Bulk Modulus (GPa) = 48.93043 55.90725 52.41884
# Shear Modulus (GPa) = 28.72476 31.65256 30.18866
#
# Velocity S-wave (km/s) = 3.66615 3.84845 3.75840
# Velocity P-wave (km/s) = 6.38873 6.77548 6.58494
#
# Compressibility (1/GPa) = 0.02043718
#
# Stress axis : x y z
#
# Youngs Moduli (GPa) = 64.59394 96.44410 67.83956
#
# Poissons Ratio (x) = 0.09702 0.20190
# Poissons Ratio (y) = 0.06498 0.41346
# Poissons Ratio (z) = 0.19224 0.58779
#
# Static dielectric constant tensor:
#      x y z
#    x 1.870710 0.000000 0.000000 
#    y 0.000000 1.832690 0.000000 
#    z 0.000000 0.000000 1.812410 
# 
# From -- ./inp_files/23858.got.cif
#   From: 2010.05.17/outbox.cif.g08.bks.cpg/sg24_12_cif.got.tgz:23858.got - 2010.06.04 00:33:39.
