data_PCOD9335898
_publ_section_title
;
Structure prediction by ZEFSAII (Michael W. Deem and Ramdas Pophale) SiO2 
 PCOD9335898
Probable space group: I 21 21 21
;
_chemical_formula_sum "Si O2"
_cell_formula_units_Z 40
_cell_length_a 8.263540
_cell_length_b 16.532539
_cell_length_c 15.172509
_cell_angle_alpha 90.000000
_cell_angle_beta 90.000000
_cell_angle_gamma 90.000000
_cell_volume 2072.827173
_symmetry_space_group_name_H-M "I 21 21 21"
_symmetry_group_IT_number 24
_symmetry_cell_setting 'orthorhombic'
loop_
_space_group_symop_operation_xyz
x,y,z
-x,1/2-y,z
x,-y,1/2-z
1/2-x,y,-z
1/2+x,1/2+y,1/2+z
1/2-x,-y,1/2+z
1/2+x,1/2-y,-z
-x,1/2+y,1/2-z
loop_
_atom_site_type_symbol
_atom_site_label
_atom_site_fract_x
_atom_site_fract_y
_atom_site_fract_z
Si Si1 0.500000 0.250000 0.060153
Si Si2 0.427287 0.583537 0.535244
Si Si3 0.179576 0.243786 0.766275
Si Si4 0.750000 0.480230 0.500000
Si Si5 0.191124 0.077477 0.309659
Si Si6 0.153385 0.585206 0.260336
O O1 0.351570 0.235413 0.128379
O O2 0.459135 0.327874 0.004073
O O3 0.250000 0.555319 0.500000
O O4 0.583866 0.531812 0.507105
O O5 0.414805 0.588407 0.640407
O O6 0.260901 0.162853 0.732283
O O7 0.261319 0.329407 0.746793
O O8 0.000000 0.250000 0.727202
O O9 0.745412 0.431430 0.408550
O O10 0.996270 0.076903 0.306201
O O11 0.244005 0.000000 0.250000
O O12 0.249878 0.500000 0.250000
#
# Coordination Sequence:
#
# PCOD9335898 Si02
#       6
#     4   8   8   4   8   8
#     4  10  24  36  64 108 134 174 230 294 362 424
#     4  12  24  41  67 108 139 179 233 300 358 432
#     4  10  23  42  64 102 137 180 229 286 352 420
#     4  12  26  44  72 102 138 186 254 274 364 424
#     4  11  23  44  69  98 140 189 227 294 352 424
#     4  11  23  43  68  98 143 187 228 290 370 412
#
# _framework density 19.297315000000001
#
# number of rings (size 3 to 8) (size 9 to 14) (size 15 to 20)
#    0.600    0.400    6.000    1.800    4.200    2.400 
#    0.000    2.000    2.200    0.000    0.000    0.000 
#    0.000    0.000    0.000    0.000    0.000    0.000 
#
# Total GULP energy -111569.593546 kJ/mol
# GULP energy per Si atom -5578.479677 kJ/mol
# Density = 1.925339 g / cm^3
# Si number density = 19.297315 Si / 1000 Ang^3
#
#
#
# Elastic Constant Matrix: (Units=GPa)
#
#
# Indices 1 2 3 4 5 6 
#
# 1 84.3016 57.6127 18.6016 0.0000 0.0000 0.0000
# 2 57.6127 196.2166 65.1376 0.0000 0.0000 0.0000
# 3 18.6016 65.1376 114.6335 0.0000 0.0000 0.0001
# 4 0.0000 0.0000 0.0000 44.1513 0.0000 0.0000
# 5 0.0000 0.0000 0.0000 0.0000 20.3304 0.0000
# 6 0.0000 0.0000 0.0001 0.0000 0.0000 629.2799
#
#
#
# Elastic Compliance Matrix: (Units=1/GPa)
#
#
# Indices 1 2 3 4 5 6 
#
# 1 0.014841 -0.004385 0.000084 0.000000 0.000000 0.000000
# 2 -0.004385 0.007577 -0.003594 0.000000 0.000000 0.000000
# 3 0.000084 -0.003594 0.010752 0.000000 0.000000 0.000000
# 4 0.000000 0.000000 0.000000 0.022649 0.000000 0.000000
# 5 0.000000 0.000000 0.000000 0.000000 0.049187 0.000000
# 6 0.000000 0.000000 0.000000 0.000000 0.000000 0.001589
#
#
# Mechanical properties :
#
#
# Convention : Reuss Voigt Hill
#
# Bulk Modulus (GPa) = 57.54169 75.31728 66.42949
# Shear Modulus (GPa) = 39.00778 155.67230 97.34004
#
# Velocity S-wave (km/s) = 4.50089 8.99142 7.10998
# Velocity P-wave (km/s) = 7.54280 12.12059 10.09462
#
# Compressibility (1/GPa) = 0.01737870
#
# Stress axis : x y z
#
# Youngs Moduli (GPa) = 67.38250 131.97762 93.00581
#
# Poissons Ratio (x) = 0.57875 -0.00778
# Poissons Ratio (y) = 0.29549 0.33425
# Poissons Ratio (z) = -0.00563 0.47431
#
# Static dielectric constant tensor:
#      x y z
#    x 1.722830 0.000000 0.000000 
#    y 0.000000 1.768160 0.000000 
#    z 0.000000 0.000000 1.553520 
# 
# From -- ./inp_files/24551.got.cif
#   From: 2010.05.17/outbox.cif.g08.bks.cpg/sg24_13_cif.got.tgz:24551.got - 2010.06.04 00:33:39.
