data_PCOD9335907
_publ_section_title
;
Structure prediction by ZEFSAII (Michael W. Deem and Ramdas Pophale) SiO2 
 PCOD9335907
Probable space group: I 21 21 21
;
_chemical_formula_sum "Si O2"
_cell_formula_units_Z 36
_cell_length_a 18.910005
_cell_length_b 4.858149
_cell_length_c 16.677812
_cell_angle_alpha 90.000000
_cell_angle_beta 90.000000
_cell_angle_gamma 90.000000
_cell_volume 1532.150927
_symmetry_space_group_name_H-M "I 21 21 21"
_symmetry_group_IT_number 24
_symmetry_cell_setting 'orthorhombic'
loop_
_space_group_symop_operation_xyz
x,y,z
-x,1/2-y,z
x,-y,1/2-z
1/2-x,y,-z
1/2+x,1/2+y,1/2+z
1/2-x,-y,1/2+z
1/2+x,1/2-y,-z
-x,1/2+y,1/2-z
loop_
_atom_site_type_symbol
_atom_site_label
_atom_site_fract_x
_atom_site_fract_y
_atom_site_fract_z
Si Si1 0.546496 0.976709 0.130605
Si Si2 0.797285 0.500000 0.250000
Si Si3 0.839071 0.815406 0.394633
Si Si4 0.872686 0.312638 0.493693
Si Si5 0.795898 0.901902 0.861989
O O1 0.500000 0.750000 0.178105
O O2 0.626639 0.015073 0.162609
O O3 0.500000 0.250000 0.121815
O O4 0.565997 0.820661 0.047227
O O5 0.847564 0.674210 0.309014
O O6 0.746065 0.716666 0.202702
O O7 0.871953 0.621260 0.462562
O O8 0.864290 0.120184 0.415943
O O9 0.754122 0.853284 0.392303
O O10 0.810262 0.277637 0.558581
#
# Coordination Sequence:
#
# PCOD9335907 Si02
#       5
#     8   4   8   8   8
#     4  10  23  42  66  98 129 179 239 282 323 396
#     4  12  26  40  62 104 144 176 214 278 368 420
#     4  12  23  42  60 103 131 174 214 285 358 418
#     4  10  25  37  71  94 130 171 228 284 344 396
#     4  10  26  37  71  92 144 176 223 291 341 419
#
# _framework density 23.496381
#
# number of rings (size 3 to 8) (size 9 to 14) (size 15 to 20)
#    1.333    0.000    2.222    2.667    9.333    0.000 
#    0.000    0.000    4.889    0.000    0.000   15.556 
#    0.000    0.000    0.000    0.000    0.000    0.000 
#
# Total GULP energy -100322.885896 kJ/mol
# GULP energy per Si atom -5573.493661 kJ/mol
# Density = 2.344290 g / cm^3
# Si number density = 23.496381 Si / 1000 Ang^3
#
#
#
# Elastic Constant Matrix: (Units=GPa)
#
#
# Indices 1 2 3 4 5 6 
#
# 1 65.2440 24.1070 22.4327 0.0000 0.0000 0.0000
# 2 24.1070 122.3539 3.8439 0.0000 0.0000 0.0000
# 3 22.4327 3.8439 79.1987 0.0000 0.0000 0.0000
# 4 0.0000 0.0000 0.0000 35.5724 0.0000 0.0000
# 5 0.0000 0.0000 0.0000 0.0000 -7.4168 0.0000
# 6 0.0000 0.0000 0.0000 0.0000 0.0000 34.9991
#
#
#
# Elastic Compliance Matrix: (Units=1/GPa)
#
#
# Indices 1 2 3 4 5 6 
#
# 1 0.018331 -0.003454 -0.005024 0.000000 0.000000 0.000000
# 2 -0.003454 0.008836 0.000549 0.000000 0.000000 0.000000
# 3 -0.005024 0.000549 0.014023 0.000000 0.000000 0.000000
# 4 0.000000 0.000000 0.000000 0.028112 0.000000 0.000000
# 5 0.000000 0.000000 0.000000 0.000000 -0.134830 0.000000
# 6 0.000000 0.000000 0.000000 0.000000 0.000000 0.028572
#
#
# Mechanical properties :
#
#
# Convention : Reuss Voigt Hill
#
# Bulk Modulus (GPa) = 39.47542 40.84044 40.15793
# Shear Modulus (GPa) = -395.13205 27.05848 -184.03679
#
# Velocity S-wave (km/s) = -12.98200 3.39721 -8.85978
# Velocity P-wave (km/s) = 14.41779 5.72777 9.35589
#
# Compressibility (1/GPa) = 0.02533222
#
# Stress axis : x y z
#
# Youngs Moduli (GPa) = 54.55300 113.17017 71.31160
#
# Poissons Ratio (x) = 0.39087 0.35830
# Poissons Ratio (y) = 0.18842 -0.03918
# Poissons Ratio (z) = 0.27410 -0.06218
#
# Static dielectric constant tensor:
#      x y z
#    x 1.957430 0.000000 0.000000 
#    y 0.000000 1.951370 0.000000 
#    z 0.000000 0.000000 2.024510 
# 
# From -- ./inp_files/31286.got.cif
#   From: 2010.05.17/outbox.cif.g08.bks.cpg/sg24_16_cif.got.tgz:31286.got - 2010.06.04 00:33:39.
