data_PCOD9335184
_publ_section_title
;
Structure prediction by ZEFSAII (Michael W. Deem and Ramdas Pophale) SiO2 
 PCOD9335184
Probable space group: I 21 21 21
;
_chemical_formula_sum "Si O2"
_cell_formula_units_Z 56
_cell_length_a 11.657883
_cell_length_b 15.558528
_cell_length_c 13.464116
_cell_angle_alpha 90.000000
_cell_angle_beta 90.000000
_cell_angle_gamma 90.000000
_cell_volume 2442.114616
_symmetry_space_group_name_H-M "I 21 21 21"
_symmetry_group_IT_number 24
_symmetry_cell_setting 'orthorhombic'
loop_
_space_group_symop_operation_xyz
x,y,z
-x,1/2-y,z
x,-y,1/2-z
1/2-x,y,-z
1/2+x,1/2+y,1/2+z
1/2-x,-y,1/2+z
1/2+x,1/2-y,-z
-x,1/2+y,1/2-z
loop_
_atom_site_type_symbol
_atom_site_label
_atom_site_fract_x
_atom_site_fract_y
_atom_site_fract_z
Si Si1 0.986672 0.348749 0.994037
Si Si2 0.674052 0.955558 0.900843
Si Si3 0.698460 0.606572 0.143287
Si Si4 0.287291 0.295883 0.301042
Si Si5 0.595222 0.518674 0.948638
Si Si6 0.514056 0.094329 0.225307
Si Si7 0.800600 0.853657 0.389564
O O1 0.000000 0.250000 0.961949
O O2 0.029001 0.393077 0.891929
O O3 0.889451 0.416606 0.027982
O O4 0.065419 0.345862 0.091605
O O5 0.704052 0.869678 0.842262
O O6 0.538281 0.964462 0.923051
O O7 0.714272 0.047457 0.856504
O O8 0.750000 0.948835 0.000000
O O9 0.719195 0.708752 0.137992
O O10 0.817679 0.554979 0.134165
O O11 0.618385 0.597608 0.240367
O O12 0.626576 0.570304 0.049530
O O13 0.413800 0.336700 0.288534
O O14 0.247792 0.285398 0.186725
O O15 0.556621 0.000000 0.250000
O O16 0.750000 0.842310 0.500000
#
# Coordination Sequence:
#
# PCOD9335184 Si02
#       7
#     8   8   8   8   8   8   8
#     4  11  23  46  73 100 134 191 253 310 370 453
#     4  10  22  40  73 105 137 190 247 314 379 439
#     4  11  25  46  68 104 154 196 238 299 386 468
#     4  12  24  41  73 107 142 193 248 308 374 461
#     4  10  24  49  68 102 151 192 239 307 388 454
#     4  12  23  43  73 109 144 186 256 314 369 444
#     4  10  21  42  65 103 140 171 246 327 375 411
#
# _framework density 22.930947
#
# number of rings (size 3 to 8) (size 9 to 14) (size 15 to 20)
#    0.000    1.143    2.857    3.429    4.000    0.571 
#    7.714    1.429    0.000    0.000    0.000    0.000 
#    0.000    0.000    0.000    0.000    0.000    0.000 
#
# Total GULP energy -156202.831129 kJ/mol
# GULP energy per Si atom -5578.672540 kJ/mol
# Density = 2.287876 g / cm^3
# Si number density = 22.930947 Si / 1000 Ang^3
#
#
#
# Elastic Constant Matrix: (Units=GPa)
#
#
# Indices 1 2 3 4 5 6 
#
# 1 136.7420 33.6126 27.1747 0.0000 0.0000 0.0000
# 2 33.6126 154.1583 38.0908 0.0000 0.0000 0.0000
# 3 27.1747 38.0908 52.6203 0.0000 0.0000 0.0000
# 4 0.0000 0.0000 0.0000 31.4643 0.0000 0.0000
# 5 0.0000 0.0000 0.0000 0.0000 30.0572 0.0000
# 6 0.0000 0.0000 0.0000 0.0000 0.0000 15.6906
#
#
#
# Elastic Compliance Matrix: (Units=1/GPa)
#
#
# Indices 1 2 3 4 5 6 
#
# 1 0.008253 -0.000909 -0.003604 0.000000 0.000000 0.000000
# 2 -0.000909 0.008000 -0.005322 0.000000 0.000000 0.000000
# 3 -0.003604 -0.005322 0.024718 0.000000 0.000000 0.000000
# 4 0.000000 0.000000 0.000000 0.031782 0.000000 0.000000
# 5 0.000000 0.000000 0.000000 0.000000 0.033270 0.000000
# 6 0.000000 0.000000 0.000000 0.000000 0.000000 0.063733
#
#
# Mechanical properties :
#
#
# Convention : Reuss Voigt Hill
#
# Bulk Modulus (GPa) = 46.94596 60.14189 53.54392
# Shear Modulus (GPa) = 25.44219 31.75192 28.59705
#
# Velocity S-wave (km/s) = 3.33455 3.72516 3.53525
# Velocity P-wave (km/s) = 5.94498 6.69229 6.32967
#
# Compressibility (1/GPa) = 0.02130109
#
# Stress axis : x y z
#
# Youngs Moduli (GPa) = 121.17273 125.00115 40.45714
#
# Poissons Ratio (x) = 0.11361 0.14581
# Poissons Ratio (y) = 0.11013 0.21530
# Poissons Ratio (z) = 0.43671 0.66521
#
# Static dielectric constant tensor:
#      x y z
#    x 1.945490 0.000000 0.000000 
#    y 0.000000 1.919660 0.000000 
#    z 0.000000 0.000000 1.894300 
# 
# From -- ./inp_files/25813.got.cif
#   From: 2010.05.17/outbox.cif.g08.bks.cpg/sg24_13_cif.got.tgz:25813.got - 2010.06.04 00:33:39.
