data_PCOD9335229
_publ_section_title
;
Structure prediction by ZEFSAII (Michael W. Deem and Ramdas Pophale) SiO2 
 PCOD9335229
Probable space group: I 21 21 21
;
_chemical_formula_sum "Si O2"
_cell_formula_units_Z 60
_cell_length_a 11.240386
_cell_length_b 30.471747
_cell_length_c 8.670830
_cell_angle_alpha 90.000000
_cell_angle_beta 90.000000
_cell_angle_gamma 90.000000
_cell_volume 2969.882387
_symmetry_space_group_name_H-M "I 21 21 21"
_symmetry_group_IT_number 24
_symmetry_cell_setting 'orthorhombic'
loop_
_space_group_symop_operation_xyz
x,y,z
-x,1/2-y,z
x,-y,1/2-z
1/2-x,y,-z
1/2+x,1/2+y,1/2+z
1/2-x,-y,1/2+z
1/2+x,1/2-y,-z
-x,1/2+y,1/2-z
loop_
_atom_site_type_symbol
_atom_site_label
_atom_site_fract_x
_atom_site_fract_y
_atom_site_fract_z
Si Si1 0.621355 0.832435 0.572485
Si Si2 0.945856 0.000000 0.250000
Si Si3 0.526384 0.800143 0.883623
Si Si4 0.080048 0.860815 0.637078
Si Si5 0.137111 0.059147 0.090244
Si Si6 0.906331 0.128479 0.592071
Si Si7 0.157694 0.590891 0.210746
Si Si8 0.803115 0.365448 0.328695
O O1 0.750000 0.823731 0.500000
O O2 0.602037 0.804712 0.727033
O O3 0.510032 0.828933 0.455746
O O4 0.622386 0.882888 0.636117
O O5 0.856023 0.039550 0.284821
O O6 0.036597 0.023236 0.128690
O O7 0.500000 0.750000 0.914837
O O8 0.409242 0.830058 0.849214
O O9 0.593817 0.821866 0.029226
O O10 0.102191 0.902109 0.527451
O O11 0.205045 0.845264 0.708920
O O12 0.007788 0.877000 0.785089
O O13 0.164607 0.087865 0.246004
O O14 0.250000 0.038416 0.000000
O O15 0.785252 0.110654 0.665199
O O16 0.926309 0.103272 0.432647
O O17 0.750000 0.372234 0.500000
#
# Coordination Sequence:
#
# PCOD9335229 Si02
#       8
#     8   4   8   8   8   8   8   8
#     4  11  21  42  68  94 133 186 215 272 352 417
#     4  12  22  42  62  96 140 174 234 298 340 396
#     4  11  24  46  70 102 135 173 229 291 345 420
#     4  11  20  39  71  93 122 179 234 261 335 431
#     4  10  23  41  65  94 130 179 228 288 344 409
#     4  10  21  43  64  94 132 182 219 269 352 415
#     4  10  22  40  66  89 134 186 224 272 345 416
#     4  11  22  42  72  95 127 185 225 275 352 424
#
# _framework density 20.202821
#
# number of rings (size 3 to 8) (size 9 to 14) (size 15 to 20)
#    0.000    1.333    5.333    0.800    0.000    0.533 
#   16.800    0.667    0.000    0.000    0.000    0.000 
#    0.000    0.000    0.000    0.000    0.000    0.000 
#
# Total GULP energy -167165.674732 kJ/mol
# GULP energy per Si atom -5572.189158 kJ/mol
# Density = 2.015684 g / cm^3
# Si number density = 20.202821 Si / 1000 Ang^3
#
#
#
# Elastic Constant Matrix: (Units=GPa)
#
#
# Indices 1 2 3 4 5 6 
#
# 1 106.1209 39.6183 45.4825 -0.0012 -0.0033 -0.0009
# 2 39.6183 116.5591 19.5530 -0.0008 0.0008 0.0003
# 3 45.4825 19.5530 83.8510 -0.0027 -0.0118 -0.0048
# 4 -0.0012 -0.0008 -0.0027 0.7087 -0.0008 -0.0016
# 5 -0.0033 0.0008 -0.0118 -0.0008 47.1929 -0.0023
# 6 -0.0009 0.0003 -0.0048 -0.0016 -0.0023 14.6875
#
#
#
# Elastic Compliance Matrix: (Units=1/GPa)
#
#
# Indices 1 2 3 4 5 6 
#
# 1 0.013525 -0.003504 -0.006519 -0.000006 -0.000001 -0.000001
# 2 -0.003504 0.009836 -0.000393 0.000003 -0.000001 -0.000001
# 3 -0.006519 -0.000393 0.015554 0.000048 0.000003 0.000005
# 4 -0.000006 0.000003 0.000048 1.410967 0.000025 0.000150
# 5 -0.000001 -0.000001 0.000003 0.000025 0.021190 0.000003
# 6 -0.000001 -0.000001 0.000005 0.000150 0.000003 0.068085
#
#
# Mechanical properties :
#
#
# Convention : Reuss Voigt Hill
#
# Bulk Modulus (GPa) = 55.30097 57.31538 56.30817
# Shear Modulus (GPa) = 3.19281 25.97630 14.58456
#
# Velocity S-wave (km/s) = 1.25850 3.58966 2.68975
# Velocity P-wave (km/s) = 5.43545 6.75370 6.13011
#
# Compressibility (1/GPa) = 0.01808287
#
# Stress axis : x y z
#
# Youngs Moduli (GPa) = 73.93491 101.66544 64.29250
#
# Poissons Ratio (x) = 0.35620 0.41915
# Poissons Ratio (y) = 0.25904 0.02528
# Poissons Ratio (z) = 0.48202 0.03998
#
# Static dielectric constant tensor:
#      x y z
#    x 1.835970 0.000000 0.000000 
#    y 0.000000 1.705330 0.000000 
#    z 0.000000 0.000000 1.737500 
# 
# From -- ./inp_files/11519.got.cif
#   From: 2010.05.17/outbox.cif.g08.bks.cpg/sg24_6_cif.got.tgz:11519.got - 2010.06.04 00:33:39.
