data_PCOD9335073
_publ_section_title
;
Structure prediction by ZEFSAII (Michael W. Deem and Ramdas Pophale) SiO2 
 PCOD9335073
Probable space group: I 21 21 21
;
_chemical_formula_sum "Si O2"
_cell_formula_units_Z 52
_cell_length_a 18.067832
_cell_length_b 8.345265
_cell_length_c 16.600139
_cell_angle_alpha 90.000000
_cell_angle_beta 90.000000
_cell_angle_gamma 90.000000
_cell_volume 2502.983002
_symmetry_space_group_name_H-M "I 21 21 21"
_symmetry_group_IT_number 24
_symmetry_cell_setting 'orthorhombic'
loop_
_space_group_symop_operation_xyz
x,y,z
-x,1/2-y,z
x,-y,1/2-z
1/2-x,y,-z
1/2+x,1/2+y,1/2+z
1/2-x,-y,1/2+z
1/2+x,1/2-y,-z
-x,1/2+y,1/2-z
loop_
_atom_site_type_symbol
_atom_site_label
_atom_site_fract_x
_atom_site_fract_y
_atom_site_fract_z
Si Si1 0.946427 0.500000 0.750000
Si Si2 0.083871 0.730637 0.475685
Si Si3 0.279522 0.920275 0.588522
Si Si4 0.268876 0.732170 0.871875
Si Si5 0.861826 0.251722 0.854421
Si Si6 0.633814 0.135032 0.489736
Si Si7 0.799988 0.000000 0.750000
Si Si8 0.000000 0.250000 0.620184
O O1 0.893733 0.365351 0.786835
O O2 0.988921 0.403797 0.679158
O O3 0.141301 0.837503 0.424427
O O4 0.088032 0.787360 0.568377
O O5 0.113503 0.549013 0.488666
O O6 0.000000 0.750000 0.446482
O O7 0.250000 0.972319 0.500000
O O8 0.221176 0.790366 0.618118
O O9 0.269268 0.077790 0.642054
O O10 0.204145 0.668885 0.931863
O O11 0.252047 0.632485 0.791748
O O12 0.343667 0.705209 0.923102
O O13 0.853874 0.077616 0.816388
O O14 0.568238 0.218463 0.440069
#
# Coordination Sequence:
#
# PCOD9335073 Si02
#       8
#     4   8   8   8   8   8   4   4
#     4  12  28  39  60  96 145 182 218 272 336 421
#     4  11  24  38  63  93 135 175 225 274 336 405
#     4  10  21  40  65  92 129 178 235 278 324 398
#     4  11  23  40  67  96 130 174 235 280 333 403
#     4  11  23  39  61  91 132 179 222 271 334 404
#     4  11  23  42  64  94 134 180 225 276 332 408
#     4  12  22  39  68  98 129 170 222 294 344 391
#     4  12  28  42  64  98 148 184 222 270 350 416
#
# _framework density 20.775210999999999
#
# number of rings (size 3 to 8) (size 9 to 14) (size 15 to 20)
#    0.000    0.923    3.077    4.615   11.846    0.615 
#    0.000    0.000    0.000    0.000    8.000    1.077 
#    0.000    0.000    0.000    0.000    0.000    0.000 
#
# Total GULP energy -145144.280948 kJ/mol
# GULP energy per Si atom -5582.472344 kJ/mol
# Density = 2.072793 g / cm^3
# Si number density = 20.775211 Si / 1000 Ang^3
#
#
#
# Elastic Constant Matrix: (Units=GPa)
#
#
# Indices 1 2 3 4 5 6 
#
# 1 130.7102 35.6848 27.7087 0.0000 0.0000 0.0000
# 2 35.6848 92.4023 4.7473 0.0000 0.0000 0.0000
# 3 27.7087 4.7473 45.9170 0.0000 0.0000 0.0000
# 4 0.0000 0.0000 0.0000 48.3988 0.0000 0.0000
# 5 0.0000 0.0000 0.0000 0.0000 11.1984 0.0000
# 6 0.0000 0.0000 0.0000 0.0000 0.0000 25.6855
#
#
#
# Elastic Compliance Matrix: (Units=1/GPa)
#
#
# Indices 1 2 3 4 5 6 
#
# 1 0.009778 -0.003492 -0.005540 0.000000 0.000000 0.000000
# 2 -0.003492 0.012127 0.000853 0.000000 0.000000 0.000000
# 3 -0.005540 0.000853 0.025033 0.000000 0.000000 0.000000
# 4 0.000000 0.000000 0.000000 0.020662 0.000000 0.000000
# 5 0.000000 0.000000 0.000000 0.000000 0.089298 0.000000
# 6 0.000000 0.000000 0.000000 0.000000 0.000000 0.038932
#
#
# Mechanical properties :
#
#
# Convention : Reuss Voigt Hill
#
# Bulk Modulus (GPa) = 32.69887 45.03455 38.86671
# Shear Modulus (GPa) = 22.48398 30.44913 26.46656
#
# Velocity S-wave (km/s) = 3.29333 3.83253 3.57311
# Velocity P-wave (km/s) = 5.49862 6.42717 5.98094
#
# Compressibility (1/GPa) = 0.03058210
#
# Stress axis : x y z
#
# Youngs Moduli (GPa) = 102.26978 82.46187 39.94707
#
# Poissons Ratio (x) = 0.28792 0.22129
# Poissons Ratio (y) = 0.35708 -0.03408
# Poissons Ratio (z) = 0.56653 -0.07036
#
# Static dielectric constant tensor:
#      x y z
#    x 1.767500 0.000000 0.000000 
#    y 0.000000 1.829450 0.000000 
#    z 0.000000 0.000000 1.786110 
# 
# From -- ./inp_files/31174.got.cif
#   From: 2010.05.17/outbox.cif.g08.bks.cpg/sg24_16_cif.got.tgz:31174.got - 2010.06.04 00:33:39.
