data_PCOD9335149
_publ_section_title
;
Structure prediction by ZEFSAII (Michael W. Deem and Ramdas Pophale) SiO2 
 PCOD9335149
Probable space group: I 21 21 21
;
_chemical_formula_sum "Si O2"
_cell_formula_units_Z 52
_cell_length_a 13.508784
_cell_length_b 12.307357
_cell_length_c 14.253191
_cell_angle_alpha 90.000000
_cell_angle_beta 90.000000
_cell_angle_gamma 90.000000
_cell_volume 2369.698867
_symmetry_space_group_name_H-M "I 21 21 21"
_symmetry_group_IT_number 24
_symmetry_cell_setting 'orthorhombic'
loop_
_space_group_symop_operation_xyz
x,y,z
-x,1/2-y,z
x,-y,1/2-z
1/2-x,y,-z
1/2+x,1/2+y,1/2+z
1/2-x,-y,1/2+z
1/2+x,1/2-y,-z
-x,1/2+y,1/2-z
loop_
_atom_site_type_symbol
_atom_site_label
_atom_site_fract_x
_atom_site_fract_y
_atom_site_fract_z
Si Si1 0.108865 0.293012 0.643141
Si Si2 0.454533 0.644755 0.948227
Si Si3 0.836068 0.291219 0.078343
Si Si4 0.817173 0.000000 0.750000
Si Si5 0.641573 0.473413 0.547325
Si Si6 0.175734 0.554481 0.411531
Si Si7 0.757196 0.383619 0.275278
O O1 0.114836 0.313130 0.531686
O O2 0.124379 0.407983 0.694093
O O3 0.188128 0.204053 0.674970
O O4 0.000000 0.250000 0.665717
O O5 0.500000 0.750000 0.896007
O O6 0.550837 0.590672 0.996846
O O7 0.395628 0.549036 0.897856
O O8 0.890930 0.401017 0.048314
O O9 0.795178 0.327135 0.180326
O O10 0.879762 0.170328 0.080657
O O11 0.750000 0.281260 0.000000
O O12 0.747546 0.062028 0.823171
O O13 0.750000 0.465811 0.500000
O O14 0.658542 0.423483 0.651395
O O15 0.250000 0.537758 0.500000
O O16 0.706411 0.500000 0.250000
#
# Coordination Sequence:
#
# PCOD9335149 Si02
#       7
#     8   8   8   4   8   8   8
#     4  11  24  42  65 104 136 172 229 278 342 415
#     4  11  25  40  65 100 134 177 229 286 342 408
#     4   9  20  40  67  95 125 177 227 272 343 401
#     4  12  24  44  70  98 134 188 220 286 360 402
#     4  10  21  41  67  97 136 177 226 284 350 411
#     4  11  23  44  67  95 137 174 231 285 339 418
#     4  10  21  41  70  94 134 179 219 280 343 406
#
# _framework density 21.943715999999998
#
# number of rings (size 3 to 8) (size 9 to 14) (size 15 to 20)
#    0.000    1.538    3.077    1.846    3.231    1.231 
#    4.154    0.000    0.000    0.000    0.000    0.000 
#    0.000    0.000    0.000    0.000    0.000    0.000 
#
# Total GULP energy -145044.592302 kJ/mol
# GULP energy per Si atom -5578.638165 kJ/mol
# Density = 2.189377 g / cm^3
# Si number density = 21.943716 Si / 1000 Ang^3
#
#
#
# Elastic Constant Matrix: (Units=GPa)
#
#
# Indices 1 2 3 4 5 6 
#
# 1 38.1915 28.5342 -8.4520 0.0000 0.0000 0.0000
# 2 28.5342 182.1944 -2.3959 0.0000 0.0000 0.0000
# 3 -8.4520 -2.3959 60.9113 0.0000 0.0000 0.0000
# 4 0.0000 0.0000 0.0000 132.7064 0.0000 0.0000
# 5 0.0000 0.0000 0.0000 0.0000 10.3155 0.0000
# 6 0.0000 0.0000 0.0000 0.0000 0.0000 -28.8161
#
#
#
# Elastic Compliance Matrix: (Units=1/GPa)
#
#
# Indices 1 2 3 4 5 6 
#
# 1 0.030627 -0.004743 0.004063 0.000000 0.000000 0.000000
# 2 -0.004743 0.006226 -0.000413 0.000000 0.000000 0.000000
# 3 0.004063 -0.000413 0.016965 0.000000 0.000000 0.000000
# 4 0.000000 0.000000 0.000000 0.007535 0.000000 0.000000
# 5 0.000000 0.000000 0.000000 0.000000 0.096941 0.000000
# 6 0.000000 0.000000 0.000000 0.000000 0.000000 -0.034703
#
#
# Mechanical properties :
#
#
# Convention : Reuss Voigt Hill
#
# Bulk Modulus (GPa) = 19.36810 35.18552 27.27681
# Shear Modulus (GPa) = 34.96786 40.41522 37.69154
#
# Velocity S-wave (km/s) = 3.99623 4.29624 4.14895
# Velocity P-wave (km/s) = 5.48986 6.37804 5.95055
#
# Compressibility (1/GPa) = 0.05163130
#
# Stress axis : x y z
#
# Youngs Moduli (GPa) = 32.65113 160.61534 58.94530
#
# Poissons Ratio (x) = 0.76182 -0.23951
# Poissons Ratio (y) = 0.15487 0.02436
# Poissons Ratio (z) = -0.13267 0.06638
#
# Static dielectric constant tensor:
#      x y z
#    x 1.768860 0.000000 0.000000 
#    y 0.000000 1.852820 0.000000 
#    z 0.000000 0.000000 1.988470 
# 
# From -- ./inp_files/26501.got.cif
#   From: 2010.05.17/outbox.cif.g08.bks.cpg/sg24_14_cif.got.tgz:26501.got - 2010.06.04 00:33:39.
