data_PCOD9335220
_publ_section_title
;
Structure prediction by ZEFSAII (Michael W. Deem and Ramdas Pophale) SiO2 
 PCOD9335220
Probable space group: I 21 21 21
;
_chemical_formula_sum "Si O2"
_cell_formula_units_Z 32
_cell_length_a 14.202026
_cell_length_b 7.911428
_cell_length_c 11.716421
_cell_angle_alpha 90.000000
_cell_angle_beta 90.000000
_cell_angle_gamma 90.000000
_cell_volume 1316.437218
_symmetry_space_group_name_H-M "I 21 21 21"
_symmetry_group_IT_number 24
_symmetry_cell_setting 'orthorhombic'
loop_
_space_group_symop_operation_xyz
x,y,z
-x,1/2-y,z
x,-y,1/2-z
1/2-x,y,-z
1/2+x,1/2+y,1/2+z
1/2-x,-y,1/2+z
1/2+x,1/2-y,-z
-x,1/2+y,1/2-z
loop_
_atom_site_type_symbol
_atom_site_label
_atom_site_fract_x
_atom_site_fract_y
_atom_site_fract_z
Si Si1 0.857307 0.448317 0.129774
Si Si2 0.154523 0.176458 0.776130
Si Si3 0.636908 0.869780 0.492388
Si Si4 0.892851 0.760711 0.961598
O O1 0.901862 0.500000 0.250000
O O2 0.749796 0.392250 0.161839
O O3 0.865210 0.604334 0.042238
O O4 0.897338 0.280958 0.072398
O O5 0.111612 0.309226 0.864298
O O6 0.170590 0.260164 0.652693
O O7 0.100863 0.000000 0.750000
O O8 0.750000 0.875216 0.500000
O O9 0.608275 0.058509 0.522644
O O10 0.000000 0.750000 0.919859
#
# Coordination Sequence:
#
# PCOD9335220 Si02
#       4
#     8   8   8   8
#     4  10  24  45  71 101 142 196 244 304 362 452
#     4  10  21  42  75 101 138 187 244 304 372 435
#     4  10  23  42  73 107 138 187 252 303 362 454
#     4  12  27  46  71 110 152 192 240 321 386 435
#
# _framework density 24.308033999999999
#
# number of rings (size 3 to 8) (size 9 to 14) (size 15 to 20)
#    0.000    1.500    2.500    0.750   10.500    4.000 
#    4.500    0.000    0.000    0.000    0.000    0.000 
#    0.000    0.000    0.000    0.000    0.000    0.000 
#
# Total GULP energy -89399.148007 kJ/mol
# GULP energy per Si atom -5587.446750 kJ/mol
# Density = 2.425271 g / cm^3
# Si number density = 24.308034 Si / 1000 Ang^3
#
#
#
# Elastic Constant Matrix: (Units=GPa)
#
#
# Indices 1 2 3 4 5 6 
#
# 1 76.1742 23.7345 16.8955 0.0000 0.0000 0.0000
# 2 23.7345 202.2667 55.5836 0.0000 0.0000 0.0000
# 3 16.8955 55.5836 131.9125 0.0000 0.0000 0.0000
# 4 0.0000 0.0000 0.0000 13.9343 0.0000 0.0000
# 5 0.0000 0.0000 0.0000 0.0000 -3.9011 0.0000
# 6 0.0000 0.0000 0.0000 0.0000 0.0000 -4.7164
#
#
#
# Elastic Compliance Matrix: (Units=1/GPa)
#
#
# Indices 1 2 3 4 5 6 
#
# 1 0.013799 -0.001282 -0.001227 0.000000 0.000000 0.000000
# 2 -0.001282 0.005711 -0.002242 0.000000 0.000000 0.000000
# 3 -0.001227 -0.002242 0.008683 0.000000 0.000000 0.000000
# 4 0.000000 0.000000 0.000000 0.071765 0.000000 0.000000
# 5 0.000000 0.000000 0.000000 0.000000 -0.256339 0.000000
# 6 0.000000 0.000000 0.000000 0.000000 0.000000 -0.212026
#
#
# Mechanical properties :
#
#
# Convention : Reuss Voigt Hill
#
# Bulk Modulus (GPa) = 53.50430 66.97561 60.23995
# Shear Modulus (GPa) = -14.17740 22.00602 3.91431
#
# Velocity S-wave (km/s) = -2.41766 3.01208 1.27035
# Velocity P-wave (km/s) = 3.77695 6.30155 5.19494
#
# Compressibility (1/GPa) = 0.01869009
#
# Stress axis : x y z
#
# Youngs Moduli (GPa) = 72.46663 175.11549 115.17170
#
# Poissons Ratio (x) = 0.22450 0.14135
# Poissons Ratio (y) = 0.09290 0.25822
# Poissons Ratio (z) = 0.08894 0.39261
#
# Static dielectric constant tensor:
#      x y z
#    x 2.025020 0.000000 0.000000 
#    y 0.000000 2.026810 0.000000 
#    z 0.000000 0.000000 1.969580 
# 
# From -- ./inp_files/20358.got.cif
#   From: 2010.05.17/outbox.cif.g08.bks.cpg/sg24_11_cif.got.tgz:20358.got - 2010.06.04 00:33:39.
