data_PCOD9335124
_publ_section_title
;
Structure prediction by ZEFSAII (Michael W. Deem and Ramdas Pophale) SiO2 
 PCOD9335124
Probable space group: I 21 21 21
;
_chemical_formula_sum "Si O2"
_cell_formula_units_Z 48
_cell_length_a 15.758597
_cell_length_b 21.059051
_cell_length_c 7.392259
_cell_angle_alpha 90.000000
_cell_angle_beta 90.000000
_cell_angle_gamma 90.000000
_cell_volume 2453.203188
_symmetry_space_group_name_H-M "I 21 21 21"
_symmetry_group_IT_number 24
_symmetry_cell_setting 'orthorhombic'
loop_
_space_group_symop_operation_xyz
x,y,z
-x,1/2-y,z
x,-y,1/2-z
1/2-x,y,-z
1/2+x,1/2+y,1/2+z
1/2-x,-y,1/2+z
1/2+x,1/2-y,-z
-x,1/2+y,1/2-z
loop_
_atom_site_type_symbol
_atom_site_label
_atom_site_fract_x
_atom_site_fract_y
_atom_site_fract_z
Si Si1 0.100098 0.761543 0.477889
Si Si2 0.250000 0.662525 0.500000
Si Si3 0.639029 0.343421 0.658989
Si Si4 0.806124 0.927829 0.176457
Si Si5 0.923745 0.500000 0.750000
Si Si6 0.494684 0.556463 0.891004
Si Si7 0.827738 0.368197 0.758158
O O1 0.165990 0.705729 0.527707
O O2 0.115060 0.780101 0.267455
O O3 0.131412 0.821475 0.596033
O O4 0.000000 0.750000 0.508834
O O5 0.229173 0.618454 0.329534
O O6 0.564074 0.393775 0.675832
O O7 0.725754 0.368425 0.751055
O O8 0.650709 0.340547 0.442386
O O9 0.902276 0.912629 0.117831
O O10 0.804123 0.000000 0.250000
O O11 0.750000 0.923642 0.000000
O O12 0.864882 0.438619 0.788931
O O13 0.980493 0.474675 0.583415
O O14 0.494310 0.500000 0.750000
#
# Coordination Sequence:
#
# PCOD9335124 Si02
#       7
#     8   4   8   8   4   8   8
#     4  12  25  43  69  95 135 179 230 282 336 407
#     4  12  26  44  68 102 126 182 234 276 352 400
#     4  10  21  41  62  92 137 172 218 277 333 405
#     4  11  25  44  68  92 133 177 222 286 338 402
#     4  10  22  38  68 104 138 174 222 272 346 418
#     4  10  22  37  63  98 131 177 225 274 338 401
#     4  10  22  41  66  99 139 177 220 277 341 410
#
# _framework density 19.566254000000001
#
# number of rings (size 3 to 8) (size 9 to 14) (size 15 to 20)
#    0.000    1.333    2.500    2.000    2.333    6.000 
#    3.000    0.000    0.000    0.000    0.000    0.000 
#    0.000    0.000    0.000    0.000    0.000    0.000 
#
# Total GULP energy -134015.217039 kJ/mol
# GULP energy per Si atom -5583.967377 kJ/mol
# Density = 1.952172 g / cm^3
# Si number density = 19.566254 Si / 1000 Ang^3
#
#
#
# Elastic Constant Matrix: (Units=GPa)
#
#
# Indices 1 2 3 4 5 6 
#
# 1 195.7063 66.4738 72.5496 0.0000 0.0000 0.0000
# 2 66.4738 110.6585 54.2105 0.0000 0.0000 0.0000
# 3 72.5496 54.2105 84.9885 0.0000 0.0000 0.0000
# 4 0.0000 0.0000 0.0000 37.6052 0.0000 0.0000
# 5 0.0000 0.0000 0.0000 0.0000 38.3965 0.0000
# 6 0.0000 0.0000 0.0000 0.0000 0.0000 32.2111
#
#
#
# Elastic Compliance Matrix: (Units=1/GPa)
#
#
# Indices 1 2 3 4 5 6 
#
# 1 0.007787 -0.002067 -0.005329 0.000000 0.000000 0.000000
# 2 -0.002067 0.013693 -0.006969 0.000000 0.000000 0.000000
# 3 -0.005329 -0.006969 0.020761 0.000000 0.000000 0.000000
# 4 0.000000 0.000000 0.000000 0.026592 0.000000 0.000000
# 5 0.000000 0.000000 0.000000 0.000000 0.026044 0.000000
# 6 0.000000 0.000000 0.000000 0.000000 0.000000 0.031045
#
#
# Mechanical properties :
#
#
# Convention : Reuss Voigt Hill
#
# Bulk Modulus (GPa) = 74.02058 86.42456 80.22257
# Shear Modulus (GPa) = 31.41556 34.85052 33.13304
#
# Velocity S-wave (km/s) = 4.01134 4.22495 4.11953
# Velocity P-wave (km/s) = 7.70502 8.25024 7.98228
#
# Compressibility (1/GPa) = 0.01350976
#
# Stress axis : x y z
#
# Youngs Moduli (GPa) = 128.41304 73.03049 48.16789
#
# Poissons Ratio (x) = 0.15098 0.25668
# Poissons Ratio (y) = 0.26548 0.33570
# Poissons Ratio (z) = 0.68430 0.50897
#
# Static dielectric constant tensor:
#      x y z
#    x 1.730650 0.000000 0.000000 
#    y 0.000000 1.671620 0.000000 
#    z 0.000000 0.000000 1.695970 
# 
# From -- ./inp_files/12866.got.cif
#   From: 2010.05.17/outbox.cif.g08.bks.cpg/sg24_7_cif.got.tgz:12866.got - 2010.06.04 00:33:39.
