data_PCOD9335917
_publ_section_title
;
Structure prediction by ZEFSAII (Michael W. Deem and Ramdas Pophale) SiO2 
 PCOD9335917
Probable space group: I 21 21 21
;
_chemical_formula_sum "Si O2"
_cell_formula_units_Z 56
_cell_length_a 30.085157
_cell_length_b 5.673322
_cell_length_c 14.530530
_cell_angle_alpha 90.000000
_cell_angle_beta 90.000000
_cell_angle_gamma 90.000000
_cell_volume 2480.111300
_symmetry_space_group_name_H-M "I 21 21 21"
_symmetry_group_IT_number 24
_symmetry_cell_setting 'orthorhombic'
loop_
_space_group_symop_operation_xyz
x,y,z
-x,1/2-y,z
x,-y,1/2-z
1/2-x,y,-z
1/2+x,1/2+y,1/2+z
1/2-x,-y,1/2+z
1/2+x,1/2-y,-z
-x,1/2+y,1/2-z
loop_
_atom_site_type_symbol
_atom_site_label
_atom_site_fract_x
_atom_site_fract_y
_atom_site_fract_z
Si Si1 0.213374 0.048635 0.642445
Si Si2 0.547585 0.749345 0.196044
Si Si3 0.299168 0.646193 0.838842
Si Si4 0.629428 0.840416 0.070644
Si Si5 0.321674 0.281019 0.996035
Si Si6 0.018163 0.999183 0.356706
Si Si7 0.879261 0.588334 0.116200
O O1 0.262005 0.160717 0.640766
O O2 0.175366 0.221278 0.603221
O O3 0.203439 0.000000 0.750000
O O4 0.211356 0.835260 0.569517
O O5 0.500000 0.750000 0.145077
O O6 0.549101 0.500000 0.250000
O O7 0.590923 0.760904 0.135890
O O8 0.547866 0.000000 0.250000
O O9 0.284542 0.500000 0.750000
O O10 0.347123 0.764605 0.815955
O O11 0.303050 0.485435 0.930024
O O12 0.639937 0.114934 0.062913
O O13 0.614596 0.762652 0.969655
O O14 0.346973 0.109004 0.926288
O O15 0.000000 0.750000 0.397237
O O16 0.002553 0.000000 0.250000
O O17 0.072077 0.002434 0.356378
O O18 0.000000 0.250000 0.395896
#
# Coordination Sequence:
#
# PCOD9335917 Si02
#       7
#     8   8   8   8   8   8   8
#     4  11  27  46  70 105 139 188 246 297 374 448
#     4  10  23  42  69 103 141 187 242 301 365 442
#     4  11  28  46  72 107 139 195 249 301 384 456
#     4  10  24  43  69 100 136 189 235 302 373 434
#     4  10  26  48  69 101 146 186 240 314 365 446
#     4  10  24  43  71 105 140 188 243 301 370 445
#     4  10  25  45  69 100 140 186 238 305 372 442
#
# _framework density 22.579633000000001
#
# number of rings (size 3 to 8) (size 9 to 14) (size 15 to 20)
#    0.000    1.714    0.000    0.429   16.000    7.429 
#    0.000    0.000    0.000    0.000    0.000    0.000 
#    0.000    0.000    0.000    0.000    0.000    0.000 
#
# Total GULP energy -156326.178314 kJ/mol
# GULP energy per Si atom -5583.077797 kJ/mol
# Density = 2.252824 g / cm^3
# Si number density = 22.579633 Si / 1000 Ang^3
#
#
#
# Elastic Constant Matrix: (Units=GPa)
#
#
# Indices 1 2 3 4 5 6 
#
# 1 123.7422 39.6103 21.8017 0.0000 0.0000 0.0000
# 2 39.6103 117.2283 35.9963 0.0000 0.0000 0.0000
# 3 21.8017 35.9963 75.5903 0.0000 0.0000 0.0000
# 4 0.0000 0.0000 0.0000 27.7445 0.0000 0.0000
# 5 0.0000 0.0000 0.0000 0.0000 26.3164 0.0000
# 6 0.0000 0.0000 0.0000 0.0000 0.0000 28.4169
#
#
#
# Elastic Compliance Matrix: (Units=1/GPa)
#
#
# Indices 1 2 3 4 5 6 
#
# 1 0.009181 -0.002681 -0.001371 0.000000 0.000000 0.000000
# 2 -0.002681 0.010774 -0.004357 0.000000 0.000000 0.000000
# 3 -0.001371 -0.004357 0.015700 0.000000 0.000000 0.000000
# 4 0.000000 0.000000 0.000000 0.036043 0.000000 0.000000
# 5 0.000000 0.000000 0.000000 0.000000 0.037999 0.000000
# 6 0.000000 0.000000 0.000000 0.000000 0.000000 0.035190
#
#
# Mechanical properties :
#
#
# Convention : Reuss Voigt Hill
#
# Bulk Modulus (GPa) = 53.09129 56.81970 54.95550
# Shear Modulus (GPa) = 29.76440 31.10575 30.43507
#
# Velocity S-wave (km/s) = 3.63464 3.71563 3.67536
# Velocity P-wave (km/s) = 6.41701 6.60505 6.51171
#
# Compressibility (1/GPa) = 0.01883548
#
# Stress axis : x y z
#
# Youngs Moduli (GPa) = 108.91864 92.81337 63.69529
#
# Poissons Ratio (x) = 0.24885 0.08734
# Poissons Ratio (y) = 0.29203 0.27755
# Poissons Ratio (z) = 0.14935 0.40443
#
# Static dielectric constant tensor:
#      x y z
#    x 1.823310 0.000000 0.000000 
#    y 0.000000 1.974800 0.000000 
#    z 0.000000 0.000000 1.810480 
# 
# From -- ./inp_files/28230.got.cif
#   From: 2010.05.17/outbox.cif.g08.bks.cpg/sg24_15_cif.got.tgz:28230.got - 2010.06.04 00:33:39.
