data_PCOD9335364
_publ_section_title
;
Structure prediction by ZEFSAII (Michael W. Deem and Ramdas Pophale) SiO2 
 PCOD9335364
Probable space group: I 21 21 21
;
_chemical_formula_sum "Si O2"
_cell_formula_units_Z 40
_cell_length_a 16.591833
_cell_length_b 9.917868
_cell_length_c 10.841853
_cell_angle_alpha 90.000000
_cell_angle_beta 90.000000
_cell_angle_gamma 90.000000
_cell_volume 1784.087729
_symmetry_space_group_name_H-M "I 21 21 21"
_symmetry_group_IT_number 24
_symmetry_cell_setting 'orthorhombic'
loop_
_space_group_symop_operation_xyz
x,y,z
-x,1/2-y,z
x,-y,1/2-z
1/2-x,y,-z
1/2+x,1/2+y,1/2+z
1/2-x,-y,1/2+z
1/2+x,1/2-y,-z
-x,1/2+y,1/2-z
loop_
_atom_site_type_symbol
_atom_site_label
_atom_site_fract_x
_atom_site_fract_y
_atom_site_fract_z
Si Si1 0.427150 0.927463 0.029795
Si Si2 0.640651 0.658750 0.774393
Si Si3 0.202557 0.235797 0.617179
Si Si4 0.607813 0.997097 0.103529
Si Si5 0.907725 0.270922 0.010836
O O1 0.380172 0.845651 0.135868
O O2 0.522230 0.949114 0.046197
O O3 0.408813 0.845232 0.903035
O O4 0.386930 0.076243 0.025698
O O5 0.652756 0.500000 0.750000
O O6 0.728465 0.726878 0.782185
O O7 0.597137 0.727676 0.659227
O O8 0.250000 0.172403 0.500000
O O9 0.174963 0.384585 0.582700
O O10 0.594959 0.000000 0.250000
O O11 0.633861 0.142051 0.050151
O O12 0.000000 0.250000 0.971667
#
# Coordination Sequence:
#
# PCOD9335364 Si02
#       5
#     8   8   8   8   8
#     4   9  20  40  62  88 117 156 210 256 303 359
#     4   9  19  38  64  90 117 156 209 260 304 360
#     4  10  22  38  57  85 120 159 200 248 307 364
#     4  11  24  39  59  90 127 163 199 247 308 372
#     4   9  20  39  64  91 117 156 207 257 307 357
#
# _framework density 22.42042
#
# number of rings (size 3 to 8) (size 9 to 14) (size 15 to 20)
#    0.000    2.400    0.000    0.600    0.000   12.000 
#    0.000   12.000    0.000    0.000    0.000    0.000 
#    0.000    0.000    0.000    0.000    0.000    0.000 
#
# Total GULP energy -111555.075433 kJ/mol
# GULP energy per Si atom -5577.753772 kJ/mol
# Density = 2.236939 g / cm^3
# Si number density = 22.420420 Si / 1000 Ang^3
#
#
#
# Elastic Constant Matrix: (Units=GPa)
#
#
# Indices 1 2 3 4 5 6 
#
# 1 60.7742 25.2130 16.0703 0.0000 0.0000 0.0000
# 2 25.2130 104.4201 40.1424 0.0000 0.0000 0.0000
# 3 16.0703 40.1424 63.4341 0.0000 0.0000 0.0000
# 4 0.0000 0.0000 0.0000 17.3792 0.0000 0.0000
# 5 0.0000 0.0000 0.0000 0.0000 19.0061 0.0000
# 6 0.0000 0.0000 0.0000 0.0000 0.0000 36.7605
#
#
#
# Elastic Compliance Matrix: (Units=1/GPa)
#
#
# Indices 1 2 3 4 5 6 
#
# 1 0.018574 -0.003536 -0.002468 0.000000 0.000000 0.000000
# 2 -0.003536 0.013329 -0.007539 0.000000 0.000000 0.000000
# 3 -0.002468 -0.007539 0.021160 0.000000 0.000000 0.000000
# 4 0.000000 0.000000 0.000000 0.057540 0.000000 0.000000
# 5 0.000000 0.000000 0.000000 0.000000 0.052615 0.000000
# 6 0.000000 0.000000 0.000000 0.000000 0.000000 0.027203
#
#
# Mechanical properties :
#
#
# Convention : Reuss Voigt Hill
#
# Bulk Modulus (GPa) = 38.49491 43.49776 40.99634
# Shear Modulus (GPa) = 22.10772 24.44266 23.27519
#
# Velocity S-wave (km/s) = 3.14355 3.30539 3.22549
# Velocity P-wave (km/s) = 5.51206 5.83186 5.67421
#
# Compressibility (1/GPa) = 0.02597746
#
# Stress axis : x y z
#
# Youngs Moduli (GPa) = 53.83901 75.02621 47.25831
#
# Poissons Ratio (x) = 0.26530 0.11662
# Poissons Ratio (y) = 0.19038 0.35627
# Poissons Ratio (z) = 0.13286 0.56561
#
# Static dielectric constant tensor:
#      x y z
#    x 1.857790 0.000000 0.000000 
#    y 0.000000 1.862150 0.000000 
#    z 0.000000 0.000000 1.892240 
# 
# From -- ./inp_files/10673.got.cif
#   From: 2010.05.17/outbox.cif.g08.bks.cpg/sg24_6_cif.got.tgz:10673.got - 2010.06.04 00:33:39.
