data_PCOD9335281
_publ_section_title
;
Structure prediction by ZEFSAII (Michael W. Deem and Ramdas Pophale) SiO2 
 PCOD9335281
Probable space group: I 21 21 21
;
_chemical_formula_sum "Si O2"
_cell_formula_units_Z 40
_cell_length_a 10.180060
_cell_length_b 17.187623
_cell_length_c 10.870740
_cell_angle_alpha 90.000000
_cell_angle_beta 90.000000
_cell_angle_gamma 90.000000
_cell_volume 1902.064612
_symmetry_space_group_name_H-M "I 21 21 21"
_symmetry_group_IT_number 24
_symmetry_cell_setting 'orthorhombic'
loop_
_space_group_symop_operation_xyz
x,y,z
-x,1/2-y,z
x,-y,1/2-z
1/2-x,y,-z
1/2+x,1/2+y,1/2+z
1/2-x,-y,1/2+z
1/2+x,1/2-y,-z
-x,1/2+y,1/2-z
loop_
_atom_site_type_symbol
_atom_site_label
_atom_site_fract_x
_atom_site_fract_y
_atom_site_fract_z
Si Si1 0.964008 0.909053 0.752248
Si Si2 0.443595 0.910980 0.750839
Si Si3 0.036263 0.339747 0.019897
Si Si4 0.700936 0.835040 0.753695
Si Si5 0.787920 0.671941 0.860334
O O1 0.066100 0.857744 0.831131
O O2 0.963449 0.878576 0.611988
O O3 0.815137 0.892825 0.795669
O O4 0.996176 0.000000 0.750000
O O5 0.431943 0.881293 0.610643
O O6 0.559226 0.857810 0.809820
O O7 0.308737 0.897217 0.819116
O O8 0.486029 0.000000 0.750000
O O9 0.335510 0.344102 0.891078
O O10 0.000000 0.250000 0.005651
O O11 0.749236 0.748465 0.782346
O O12 0.750000 0.690358 0.000000
#
# Coordination Sequence:
#
# PCOD9335281 Si02
#       5
#     8   8   8   8   8
#     4  12  27  43  67 108 140 179 230 298 359 404
#     4  10  22  42  70  99 137 181 231 289 351 402
#     4  10  21  45  76  97 135 179 244 283 340 429
#     4  10  22  46  68 102 130 184 235 281 345 418
#     4  12  26  45  67 100 145 184 229 282 357 432
#
# _framework density 21.029779999999999
#
# number of rings (size 3 to 8) (size 9 to 14) (size 15 to 20)
#    1.200    0.000    2.000    4.200    2.800    4.000 
#    0.000    0.000    0.000    0.000    0.000    0.000 
#    0.000    0.000    0.000    0.000    0.000    0.000 
#
# Total GULP energy -111566.051913 kJ/mol
# GULP energy per Si atom -5578.302596 kJ/mol
# Density = 2.098192 g / cm^3
# Si number density = 21.029780 Si / 1000 Ang^3
#
#
#
# Elastic Constant Matrix: (Units=GPa)
#
#
# Indices 1 2 3 4 5 6 
#
# 1 84.5703 -6.1417 10.3319 0.0002 0.0003 0.0000
# 2 -6.1417 105.8068 4.3247 -0.0013 0.0030 0.0001
# 3 10.3319 4.3247 84.1776 -0.0021 0.0044 0.0001
# 4 0.0002 -0.0013 -0.0021 176.0189 0.0044 0.0002
# 5 0.0003 0.0030 0.0044 0.0044 -44.8609 -0.0005
# 6 0.0000 0.0001 0.0001 0.0002 -0.0005 31.9209
#
#
#
# Elastic Compliance Matrix: (Units=1/GPa)
#
#
# Indices 1 2 3 4 5 6 
#
# 1 0.012066 0.000762 -0.001520 0.000000 0.000000 0.000000
# 2 0.000762 0.009519 -0.000583 0.000000 0.000001 0.000000
# 3 -0.001520 -0.000583 0.012096 0.000000 0.000001 0.000000
# 4 0.000000 0.000000 0.000000 0.005681 0.000001 0.000000
# 5 0.000000 0.000001 0.000001 0.000001 -0.022291 0.000000
# 6 0.000000 0.000000 0.000000 0.000000 0.000000 0.031327
#
#
# Mechanical properties :
#
#
# Convention : Reuss Voigt Hill
#
# Bulk Modulus (GPa) = 32.25757 32.39828 32.32792
# Shear Modulus (GPa) = 81.41658 50.35174 65.88416
#
# Velocity S-wave (km/s) = 6.22888 4.89847 5.60330
# Velocity P-wave (km/s) = 8.19172 6.88714 7.56759
#
# Compressibility (1/GPa) = 0.03100048
#
# Stress axis : x y z
#
# Youngs Moduli (GPa) = 82.88047 105.05013 82.67087
#
# Poissons Ratio (x) = -0.08010 0.12567
# Poissons Ratio (y) = -0.06320 0.04817
# Poissons Ratio (z) = 0.12599 0.06121
#
# Static dielectric constant tensor:
#      x y z
#    x 1.738970 0.000000 0.000000 
#    y 0.000000 1.754930 0.000000 
#    z 0.000000 0.000000 1.790010 
# 
# From -- ./inp_files/18216.got.cif
#   From: 2010.05.17/outbox.cif.g08.bks.cpg/sg24_10_cif.got.tgz:18216.got - 2010.06.04 00:33:39.
