data_PCOD9335334
_publ_section_title
;
Structure prediction by ZEFSAII (Michael W. Deem and Ramdas Pophale) SiO2 
 PCOD9335334
Probable space group: I 21 21 21
;
_chemical_formula_sum "Si O2"
_cell_formula_units_Z 60
_cell_length_a 17.776112
_cell_length_b 5.680704
_cell_length_c 27.782295
_cell_angle_alpha 90.000000
_cell_angle_beta 90.000000
_cell_angle_gamma 90.000000
_cell_volume 2805.479223
_symmetry_space_group_name_H-M "I 21 21 21"
_symmetry_group_IT_number 24
_symmetry_cell_setting 'orthorhombic'
loop_
_space_group_symop_operation_xyz
x,y,z
-x,1/2-y,z
x,-y,1/2-z
1/2-x,y,-z
1/2+x,1/2+y,1/2+z
1/2-x,-y,1/2+z
1/2+x,1/2-y,-z
-x,1/2+y,1/2-z
loop_
_atom_site_type_symbol
_atom_site_label
_atom_site_fract_x
_atom_site_fract_y
_atom_site_fract_z
Si Si1 0.919734 0.712780 0.864133
Si Si2 0.842759 0.494992 0.411406
Si Si3 0.000000 0.750000 0.725024
Si Si4 0.909822 0.000660 0.059442
Si Si5 0.661810 0.049362 0.196446
Si Si6 0.070496 0.421259 0.951255
Si Si7 0.979091 0.500294 0.152679
Si Si8 0.684151 0.674248 0.395212
O O1 0.891055 0.466123 0.881659
O O2 0.000000 0.750000 0.840109
O O3 0.858472 0.799372 0.826464
O O4 0.927463 0.879058 0.910619
O O5 0.867491 0.746012 0.435503
O O6 0.891805 0.497453 0.362309
O O7 0.753756 0.509221 0.406034
O O8 0.863930 0.242916 0.434447
O O9 0.982018 0.500000 0.750000
O O10 0.080731 0.682282 0.701107
O O11 0.940612 0.993381 0.005497
O O12 0.972654 0.999673 0.101936
O O13 0.705044 0.176766 0.152704
O O14 0.692289 0.000000 0.250000
O O15 0.153833 0.311573 0.942075
O O16 0.000000 0.250000 0.942681
O O17 0.000000 0.750000 0.176530
O O18 0.000000 0.250000 0.176267
#
# Coordination Sequence:
#
# PCOD9335334 Si02
#       8
#     8   8   4   8   8   8   8   8
#     4  11  23  39  58  80 120 156 207 260 310 361
#     4  10  22  39  59  86 117 155 199 256 310 359
#     4  10  22  36  60  92 112 144 208 260 296 348
#     4  10  22  39  64  82 113 159 210 254 296 365
#     4  10  24  38  61  86 113 158 209 257 320 379
#     4  11  23  40  56  82 113 164 219 258 310 363
#     4   8  15  32  56  82 103 142 189 244 288 343
#     4  11  25  40  56  84 124 162 199 268 320 372
#
# _framework density 21.386718999999999
#
# number of rings (size 3 to 8) (size 9 to 14) (size 15 to 20)
#    0.000    1.867    1.333    2.000   14.933    2.133 
#    0.000    0.000    0.000    0.000    0.000    0.000 
#    0.000    0.000   40.800    0.400    0.000    0.000 
#
# Total GULP energy -167050.303916 kJ/mol
# GULP energy per Si atom -5568.343464 kJ/mol
# Density = 2.133804 g / cm^3
# Si number density = 21.386719 Si / 1000 Ang^3
#
#
#
# Elastic Constant Matrix: (Units=GPa)
#
#
# Indices 1 2 3 4 5 6 
#
# 1 65.4255 15.8177 -7.4125 0.0000 0.0000 0.0000
# 2 15.8177 116.6920 4.8762 0.0000 0.0000 0.0000
# 3 -7.4125 4.8762 18.7217 0.0000 0.0000 0.0000
# 4 0.0000 0.0000 0.0000 23.1793 0.0000 0.0000
# 5 0.0000 0.0000 0.0000 0.0000 3.9377 0.0000
# 6 0.0000 0.0000 0.0000 0.0000 0.0000 31.2104
#
#
#
# Elastic Compliance Matrix: (Units=1/GPa)
#
#
# Indices 1 2 3 4 5 6 
#
# 1 0.016733 -0.002573 0.007295 0.000000 0.000000 0.000000
# 2 -0.002573 0.009060 -0.003378 0.000000 0.000000 0.000000
# 3 0.007295 -0.003378 0.057182 0.000000 0.000000 0.000000
# 4 0.000000 0.000000 0.000000 0.043142 0.000000 0.000000
# 5 0.000000 0.000000 0.000000 0.000000 0.253953 0.000000
# 6 0.000000 0.000000 0.000000 0.000000 0.000000 0.032041
#
#
# Mechanical properties :
#
#
# Convention : Reuss Voigt Hill
#
# Bulk Modulus (GPa) = 11.67367 25.26689 18.47028
# Shear Modulus (GPa) = 11.41614 24.16935 17.79274
#
# Velocity S-wave (km/s) = 2.31291 3.36536 2.88749
# Velocity P-wave (km/s) = 3.55006 5.19045 4.44656
#
# Compressibility (1/GPa) = 0.08566286
#
# Stress axis : x y z
#
# Youngs Moduli (GPa) = 59.76145 110.38118 17.48795
#
# Poissons Ratio (x) = 0.28402 -0.12758
# Poissons Ratio (y) = 0.15377 0.05908
# Poissons Ratio (z) = -0.43598 0.37291
#
# Static dielectric constant tensor:
#      x y z
#    x 1.680330 0.000000 0.000000 
#    y 0.000000 1.877660 0.000000 
#    z 0.000000 0.000000 1.774240 
# 
# From -- ./inp_files/38812.got.cif
#   From: 2010.05.17/outbox.cif.g08.bks.cpg/sg24_20_cif.got.tgz:38812.got - 2010.06.04 00:33:39.
