data_PCOD9335767
_publ_section_title
;
Structure prediction by ZEFSAII (Michael W. Deem and Ramdas Pophale) SiO2 
 PCOD9335767
Probable space group: I 21 21 21
;
_chemical_formula_sum "Si O2"
_cell_formula_units_Z 40
_cell_length_a 10.767447
_cell_length_b 12.895609
_cell_length_c 12.371349
_cell_angle_alpha 90.000000
_cell_angle_beta 90.000000
_cell_angle_gamma 90.000000
_cell_volume 1717.796281
_symmetry_space_group_name_H-M "I 21 21 21"
_symmetry_group_IT_number 24
_symmetry_cell_setting 'orthorhombic'
loop_
_space_group_symop_operation_xyz
x,y,z
-x,1/2-y,z
x,-y,1/2-z
1/2-x,y,-z
1/2+x,1/2+y,1/2+z
1/2-x,-y,1/2+z
1/2+x,1/2-y,-z
-x,1/2+y,1/2-z
loop_
_atom_site_type_symbol
_atom_site_label
_atom_site_fract_x
_atom_site_fract_y
_atom_site_fract_z
Si Si1 0.492969 0.084713 0.070632
Si Si2 0.967797 0.456027 0.370736
Si Si3 0.198230 0.245419 0.886780
Si Si4 0.877685 0.000000 0.750000
Si Si5 0.250000 0.838612 0.000000
Si Si6 0.699436 0.814095 0.817741
O O1 0.359464 0.132454 0.094342
O O2 0.586363 0.171182 0.121173
O O3 0.528395 0.992149 0.148742
O O4 0.514766 0.050844 0.947525
O O5 0.940437 0.500000 0.250000
O O6 0.855678 0.409151 0.443426
O O7 0.070503 0.364034 0.358193
O O8 0.300279 0.248375 0.793379
O O9 0.250000 0.280028 0.000000
O O10 0.780689 0.088663 0.717350
O O11 0.226480 0.756986 0.902658
#
# Coordination Sequence:
#
# PCOD9335767 Si02
#       6
#     8   8   8   4   4   8
#     4  10  24  41  71 107 144 193 248 311 378 445
#     4  12  27  49  76 111 152 202 253 311 385 467
#     4  10  23  43  72 103 144 190 252 313 370 451
#     4  10  22  44  78 102 146 196 262 306 378 462
#     4  12  30  44  74 110 160 188 252 328 390 444
#     4  11  24  48  75 107 144 203 251 311 378 466
#
# _framework density 23.285647999999998
#
# number of rings (size 3 to 8) (size 9 to 14) (size 15 to 20)
#    0.000    1.200    1.000    3.000    9.800    0.000 
#    3.600    0.000    0.000    0.000    0.000    0.000 
#    0.000    0.000    0.000    0.000    0.000    0.000 
#
# Total GULP energy -111337.336605 kJ/mol
# GULP energy per Si atom -5566.866830 kJ/mol
# Density = 2.323265 g / cm^3
# Si number density = 23.285648 Si / 1000 Ang^3
#
#
#
# Elastic Constant Matrix: (Units=GPa)
#
#
# Indices 1 2 3 4 5 6 
#
# 1 129.2608 33.4908 39.6295 0.0000 0.0000 0.0000
# 2 33.4908 68.4982 28.7542 0.0000 0.0000 0.0000
# 3 39.6295 28.7542 178.2919 0.0000 0.0000 0.0000
# 4 0.0000 0.0000 0.0000 45.1737 0.0000 0.0000
# 5 0.0000 0.0000 0.0000 0.0000 27.9721 0.0000
# 6 0.0000 0.0000 0.0000 0.0000 0.0000 -19.4073
#
#
#
# Elastic Compliance Matrix: (Units=1/GPa)
#
#
# Indices 1 2 3 4 5 6 
#
# 1 0.009178 -0.003895 -0.001412 0.000000 0.000000 0.000000
# 2 -0.003895 0.017312 -0.001926 0.000000 0.000000 0.000000
# 3 -0.001412 -0.001926 0.006233 0.000000 0.000000 0.000000
# 4 0.000000 0.000000 0.000000 0.022137 0.000000 0.000000
# 5 0.000000 0.000000 0.000000 0.000000 0.035750 0.000000
# 6 0.000000 0.000000 0.000000 0.000000 0.000000 -0.051527
#
#
# Mechanical properties :
#
#
# Convention : Reuss Voigt Hill
#
# Bulk Modulus (GPa) = 54.77256 64.42222 59.59739
# Shear Modulus (GPa) = 83.84355 29.02614 56.43484
#
# Velocity S-wave (km/s) = 6.00705 3.53445 4.92834
# Velocity P-wave (km/s) = 8.46676 6.66202 7.61802
#
# Compressibility (1/GPa) = 0.01825732
#
# Stress axis : x y z
#
# Youngs Moduli (GPa) = 108.95245 57.76395 160.42919
#
# Poissons Ratio (x) = 0.22498 0.22652
# Poissons Ratio (y) = 0.42435 0.30903
# Poissons Ratio (z) = 0.15384 0.11127
#
# Static dielectric constant tensor:
#      x y z
#    x 2.254460 0.000000 0.000000 
#    y 0.000000 2.269070 0.000000 
#    z 0.000000 0.000000 1.812380 
# 
# From -- ./inp_files/19477.got.cif
#   From: 2010.05.17/outbox.cif.g08.bks.cpg/sg24_10_cif.got.tgz:19477.got - 2010.06.04 00:33:39.
