data_PCOD9335879
_publ_section_title
;
Structure prediction by ZEFSAII (Michael W. Deem and Ramdas Pophale) SiO2 
 PCOD9335879
Probable space group: I 21 21 21
;
_chemical_formula_sum "Si O2"
_cell_formula_units_Z 52
_cell_length_a 16.731153
_cell_length_b 17.198701
_cell_length_c 8.574767
_cell_angle_alpha 90.000000
_cell_angle_beta 90.000000
_cell_angle_gamma 90.000000
_cell_volume 2467.424342
_symmetry_space_group_name_H-M "I 21 21 21"
_symmetry_group_IT_number 24
_symmetry_cell_setting 'orthorhombic'
loop_
_space_group_symop_operation_xyz
x,y,z
-x,1/2-y,z
x,-y,1/2-z
1/2-x,y,-z
1/2+x,1/2+y,1/2+z
1/2-x,-y,1/2+z
1/2+x,1/2-y,-z
-x,1/2+y,1/2-z
loop_
_atom_site_type_symbol
_atom_site_label
_atom_site_fract_x
_atom_site_fract_y
_atom_site_fract_z
Si Si1 0.799040 0.728921 0.838250
Si Si2 0.047688 0.869936 0.871482
Si Si3 0.414442 0.673783 0.360452
Si Si4 0.500000 0.250000 0.624390
Si Si5 0.933287 0.001631 0.926484
Si Si6 0.692559 0.927388 0.853353
Si Si7 0.346117 0.270959 0.830353
O O1 0.860901 0.657349 0.858035
O O2 0.855097 0.802306 0.783147
O O3 0.730549 0.718350 0.708078
O O4 0.750000 0.740241 0.000000
O O5 0.000965 0.834365 0.721315
O O6 0.018991 0.958699 0.900021
O O7 0.009078 0.823569 0.014003
O O8 0.419000 0.592341 0.456452
O O9 0.379757 0.728988 0.495046
O O10 0.421338 0.250058 0.726116
O O11 0.898128 0.000000 0.750000
O O12 0.888414 0.954729 0.060396
O O13 0.682385 0.854622 0.738490
O O14 0.720490 0.000000 0.750000
O O15 0.750000 0.912913 0.000000
#
# Coordination Sequence:
#
# PCOD9335879 Si02
#       7
#     8   8   8   4   8   8   8
#     4  12  24  42  67 102 139 182 231 281 345 421
#     4  11  22  43  66  91 134 189 238 272 332 426
#     4  11  24  43  66 101 136 176 232 294 351 408
#     4  12  22  40  64  96 130 186 228 278 338 424
#     4  10  23  41  64  93 128 189 234 274 342 407
#     4  12  25  38  57  90 138 179 220 272 345 434
#     4  12  26  39  65  99 139 173 225 290 357 409
#
# _framework density 21.074607
#
# number of rings (size 3 to 8) (size 9 to 14) (size 15 to 20)
#    0.000    0.615    6.154    1.385   10.769    0.000 
#    0.000    0.000    0.000    0.000   12.000    0.000 
#    0.000    0.000    0.000    0.000    0.000    0.000 
#
# Total GULP energy -144820.278931 kJ/mol
# GULP energy per Si atom -5570.010728 kJ/mol
# Density = 2.102664 g / cm^3
# Si number density = 21.074607 Si / 1000 Ang^3
#
#
#
# Elastic Constant Matrix: (Units=GPa)
#
#
# Indices 1 2 3 4 5 6 
#
# 1 143.9769 30.1032 41.9413 0.0000 0.0000 0.0000
# 2 30.1032 45.1716 1.3441 0.0000 0.0000 0.0000
# 3 41.9413 1.3441 111.1715 0.0000 0.0000 0.0000
# 4 0.0000 0.0000 0.0000 21.7763 0.0000 0.0000
# 5 0.0000 0.0000 0.0000 0.0000 94.4793 0.0000
# 6 0.0000 0.0000 0.0000 0.0000 0.0000 18.4168
#
#
#
# Elastic Compliance Matrix: (Units=1/GPa)
#
#
# Indices 1 2 3 4 5 6 
#
# 1 0.009195 -0.006027 -0.003396 0.000000 0.000000 0.000000
# 2 -0.006027 0.026096 0.001958 0.000000 0.000000 0.000000
# 3 -0.003396 0.001958 0.010253 0.000000 0.000000 0.000000
# 4 0.000000 0.000000 0.000000 0.045921 0.000000 0.000000
# 5 0.000000 0.000000 0.000000 0.000000 0.010584 0.000000
# 6 0.000000 0.000000 0.000000 0.000000 0.000000 0.054298
#
#
# Mechanical properties :
#
#
# Convention : Reuss Voigt Hill
#
# Bulk Modulus (GPa) = 32.66449 49.67744 41.17097
# Shear Modulus (GPa) = 27.55108 42.06326 34.80717
#
# Velocity S-wave (km/s) = 3.61960 4.47242 4.06842
# Velocity P-wave (km/s) = 5.74472 7.09178 6.45349
#
# Compressibility (1/GPa) = 0.03061429
#
# Stress axis : x y z
#
# Youngs Moduli (GPa) = 108.75572 38.32034 97.53560
#
# Poissons Ratio (x) = 0.23094 0.33124
# Poissons Ratio (y) = 0.65543 -0.19099
# Poissons Ratio (z) = 0.36934 -0.07504
#
# Static dielectric constant tensor:
#      x y z
#    x 1.816430 0.000000 0.000000 
#    y 0.000000 1.887500 0.000000 
#    z 0.000000 0.000000 1.734420 
# 
# From -- ./inp_files/14395.got.cif
#   From: 2010.05.17/outbox.cif.g08.bks.cpg/sg24_8_cif.got.tgz:14395.got - 2010.06.04 00:33:39.
