data_PCOD9335605
_publ_section_title
;
Structure prediction by ZEFSAII (Michael W. Deem and Ramdas Pophale) SiO2 
 PCOD9335605
Probable space group: I 21 21 21
;
_chemical_formula_sum "Si O2"
_cell_formula_units_Z 64
_cell_length_a 18.883310
_cell_length_b 9.622660
_cell_length_c 18.045188
_cell_angle_alpha 90.000000
_cell_angle_beta 90.000000
_cell_angle_gamma 90.000000
_cell_volume 3278.949099
_symmetry_space_group_name_H-M "I 21 21 21"
_symmetry_group_IT_number 24
_symmetry_cell_setting 'orthorhombic'
loop_
_space_group_symop_operation_xyz
x,y,z
-x,1/2-y,z
x,-y,1/2-z
1/2-x,y,-z
1/2+x,1/2+y,1/2+z
1/2-x,-y,1/2+z
1/2+x,1/2-y,-z
-x,1/2+y,1/2-z
loop_
_atom_site_type_symbol
_atom_site_label
_atom_site_fract_x
_atom_site_fract_y
_atom_site_fract_z
Si Si1 0.931126 0.561345 0.952032
Si Si2 0.830883 0.955322 0.487938
Si Si3 0.322089 0.009930 0.838473
Si Si4 0.676821 0.262461 0.547584
Si Si5 0.919661 0.937499 0.876532
Si Si6 0.333477 0.068893 0.169660
Si Si7 0.576115 0.693697 0.565585
Si Si8 0.922731 0.808155 0.732650
O O1 0.880318 0.523146 0.884313
O O2 0.008685 0.597176 0.920927
O O3 0.889596 0.677292 0.999910
O O4 0.936150 0.418843 0.999887
O O5 0.750000 0.911615 0.500000
O O6 0.877377 0.826097 0.460187
O O7 0.831940 0.097335 0.438746
O O8 0.862307 0.011422 0.565359
O O9 0.246485 0.079374 0.858167
O O10 0.382805 0.106255 0.872445
O O11 0.328864 0.000000 0.750000
O O12 0.320913 0.860410 0.879917
O O13 0.750000 0.279565 0.500000
O O14 0.891260 0.829303 0.815240
O O15 0.937588 0.061172 0.819875
O O16 0.372760 0.212518 0.183576
O O17 0.330364 0.000000 0.250000
O O18 0.500000 0.750000 0.589792
O O19 0.000000 0.750000 0.748237
#
# Coordination Sequence:
#
# PCOD9335605 Si02
#       8
#     8   8   8   8   8   8   8   8
#     4  11  21  38  64  91 132 174 224 261 315 387
#     4  11  26  40  65  94 133 172 218 274 337 380
#     4  10  24  45  73  94 124 167 226 273 333 390
#     4  10  22  42  64  97 133 167 219 279 327 386
#     4  11  24  39  57  92 135 181 213 267 315 397
#     4  11  22  35  62  93 126 174 218 256 316 384
#     4  11  24  45  67  97 124 166 225 273 326 391
#     4  11  23  36  56  93 139 176 218 252 318 393
#
# _framework density 19.518447999999999
#
# number of rings (size 3 to 8) (size 9 to 14) (size 15 to 20)
#    0.000    1.250    3.750    1.500    7.000    1.000 
#    0.000    1.875    0.000    0.000    0.000    0.000 
#    0.000    0.000    0.000    0.000    0.000    0.000 
#
# Total GULP energy -178693.221067 kJ/mol
# GULP energy per Si atom -5584.163158 kJ/mol
# Density = 1.947402 g / cm^3
# Si number density = 19.518448 Si / 1000 Ang^3
#
#
#
# Elastic Constant Matrix: (Units=GPa)
#
#
# Indices 1 2 3 4 5 6 
#
# 1 100.1548 15.2620 20.2186 0.0000 0.0000 0.0000
# 2 15.2620 103.5698 22.9077 0.0000 0.0000 0.0000
# 3 20.2186 22.9077 79.6770 0.0000 0.0000 0.0000
# 4 0.0000 0.0000 0.0000 112.7258 0.0000 0.0000
# 5 0.0000 0.0000 0.0000 0.0000 29.9796 0.0000
# 6 0.0000 0.0000 0.0000 0.0000 0.0000 13.1734
#
#
#
# Elastic Compliance Matrix: (Units=1/GPa)
#
#
# Indices 1 2 3 4 5 6 
#
# 1 0.010627 -0.001035 -0.002399 0.000000 0.000000 0.000000
# 2 -0.001035 0.010412 -0.002731 0.000000 0.000000 0.000000
# 3 -0.002399 -0.002731 0.013945 0.000000 0.000000 0.000000
# 4 0.000000 0.000000 0.000000 0.008871 0.000000 0.000000
# 5 0.000000 0.000000 0.000000 0.000000 0.033356 0.000000
# 6 0.000000 0.000000 0.000000 0.000000 0.000000 0.075910
#
#
# Mechanical properties :
#
#
# Convention : Reuss Voigt Hill
#
# Bulk Modulus (GPa) = 44.14428 44.46423 44.30425
# Shear Modulus (GPa) = 28.90147 46.17664 37.53906
#
# Velocity S-wave (km/s) = 3.85219 4.86922 4.39026
# Velocity P-wave (km/s) = 6.51549 7.37851 6.96039
#
# Compressibility (1/GPa) = 0.02265299
#
# Stress axis : x y z
#
# Youngs Moduli (GPa) = 94.10365 96.04405 71.71271
#
# Poissons Ratio (x) = 0.09944 0.17203
# Poissons Ratio (y) = 0.09743 0.19583
# Poissons Ratio (z) = 0.22575 0.26227
#
# Static dielectric constant tensor:
#      x y z
#    x 1.596480 0.000000 0.000000 
#    y 0.000000 1.757630 0.000000 
#    z 0.000000 0.000000 1.706770 
# 
# From -- ./inp_files/31425.got.cif
#   From: 2010.05.17/outbox.cif.g08.bks.cpg/sg24_16_cif.got.tgz:31425.got - 2010.06.04 00:33:39.
