data_PCOD9335439
_publ_section_title
;
Structure prediction by ZEFSAII (Michael W. Deem and Ramdas Pophale) SiO2 
 PCOD9335439
Probable space group: I 21 21 21
;
_chemical_formula_sum "Si O2"
_cell_formula_units_Z 60
_cell_length_a 11.463188
_cell_length_b 10.401537
_cell_length_c 25.254096
_cell_angle_alpha 90.000000
_cell_angle_beta 90.000000
_cell_angle_gamma 90.000000
_cell_volume 3011.166432
_symmetry_space_group_name_H-M "I 21 21 21"
_symmetry_group_IT_number 24
_symmetry_cell_setting 'orthorhombic'
loop_
_space_group_symop_operation_xyz
x,y,z
-x,1/2-y,z
x,-y,1/2-z
1/2-x,y,-z
1/2+x,1/2+y,1/2+z
1/2-x,-y,1/2+z
1/2+x,1/2-y,-z
-x,1/2+y,1/2-z
loop_
_atom_site_type_symbol
_atom_site_label
_atom_site_fract_x
_atom_site_fract_y
_atom_site_fract_z
Si Si1 0.564425 0.875758 0.129062
Si Si2 0.651402 0.502736 0.426260
Si Si3 0.507425 0.503260 0.813419
Si Si4 0.757596 0.050053 0.810471
Si Si5 0.366382 0.214814 0.982219
Si Si6 0.799002 0.680280 0.360069
Si Si7 0.000000 0.250000 0.378416
Si Si8 0.729587 0.239969 0.559913
O O1 0.500000 0.750000 0.154714
O O2 0.671148 0.820495 0.095712
O O3 0.470124 0.938386 0.089796
O O4 0.628793 0.981960 0.164719
O O5 0.642008 0.592112 0.477877
O O6 0.694486 0.584018 0.375598
O O7 0.747235 0.392933 0.436561
O O8 0.509620 0.500000 0.750000
O O9 0.372035 0.490545 0.830691
O O10 0.594236 0.391143 0.831545
O O11 0.545969 0.636524 0.840414
O O12 0.751044 0.201056 0.825941
O O13 0.758040 0.000000 0.750000
O O14 0.500000 0.250000 0.990948
O O15 0.348396 0.209530 0.919046
O O16 0.250000 0.294415 0.000000
O O17 0.104213 0.292379 0.416733
O O18 0.750000 0.198845 0.500000
#
# Coordination Sequence:
#
# PCOD9335439 Si02
#       8
#     8   8   8   8   8   8   4   8
#     4  10  24  45  65  93 136 176 227 286 335 404
#     4  10  23  42  66  93 138 179 224 274 338 415
#     4  11  25  41  69 100 134 174 222 291 347 412
#     4  11  25  45  68  95 133 173 230 294 341 408
#     4  10  22  39  65  97 135 176 223 278 337 416
#     4  11  23  44  67  98 134 176 221 283 351 411
#     4  12  24  42  74  98 136 178 232 278 352 408
#     4  11  23  42  65 101 135 181 223 272 339 413
#
# _framework density 19.925833999999998
#
# number of rings (size 3 to 8) (size 9 to 14) (size 15 to 20)
#    0.000    1.333    2.667    2.400   10.267    0.000 
#    4.800    0.000    0.000    0.000    0.000    0.000 
#    0.000    0.000    0.000    0.000    0.000    0.000 
#
# Total GULP energy -167104.551210 kJ/mol
# GULP energy per Si atom -5570.151707 kJ/mol
# Density = 1.988048 g / cm^3
# Si number density = 19.925834 Si / 1000 Ang^3
#
#
#
# Elastic Constant Matrix: (Units=GPa)
#
#
# Indices 1 2 3 4 5 6 
#
# 1 130.6731 24.7617 34.4416 0.0000 0.0000 0.0000
# 2 24.7617 61.0225 28.9186 0.0000 0.0000 0.0000
# 3 34.4416 28.9186 80.4316 0.0000 0.0000 0.0000
# 4 0.0000 0.0000 0.0000 36.5405 0.0000 0.0000
# 5 0.0000 0.0000 0.0000 0.0000 24.5971 0.0000
# 6 0.0000 0.0000 0.0000 0.0000 0.0000 39.0613
#
#
#
# Elastic Compliance Matrix: (Units=1/GPa)
#
#
# Indices 1 2 3 4 5 6 
#
# 1 0.008858 -0.002166 -0.003014 0.000000 0.000000 0.000000
# 2 -0.002166 0.020283 -0.006365 0.000000 0.000000 0.000000
# 3 -0.003014 -0.006365 0.016012 0.000000 0.000000 0.000000
# 4 0.000000 0.000000 0.000000 0.027367 0.000000 0.000000
# 5 0.000000 0.000000 0.000000 0.000000 0.040655 0.000000
# 6 0.000000 0.000000 0.000000 0.000000 0.000000 0.025601
#
#
# Mechanical properties :
#
#
# Convention : Reuss Voigt Hill
#
# Bulk Modulus (GPa) = 45.32633 49.81900 47.57266
# Shear Modulus (GPa) = 29.54746 32.30681 30.92714
#
# Velocity S-wave (km/s) = 3.85499 4.03097 3.94396
# Velocity P-wave (km/s) = 6.52774 6.83531 6.68330
#
# Compressibility (1/GPa) = 0.02206223
#
# Stress axis : x y z
#
# Youngs Moduli (GPa) = 112.89822 49.30330 62.45259
#
# Poissons Ratio (x) = 0.10678 0.18824
# Poissons Ratio (y) = 0.24451 0.39751
# Poissons Ratio (z) = 0.34030 0.31382
#
# Static dielectric constant tensor:
#      x y z
#    x 1.162490 0.000000 0.000000 
#    y 0.000000 1.777270 0.000000 
#    z 0.000000 0.000000 1.684870 
# 
# From -- ./inp_files/33448.got.cif
#   From: 2010.05.17/outbox.cif.g08.bks.cpg/sg24_17_cif.got.tgz:33448.got - 2010.06.04 00:33:39.
