data_PCOD9335201
_publ_section_title
;
Structure prediction by ZEFSAII (Michael W. Deem and Ramdas Pophale) SiO2 
 PCOD9335201
Probable space group: I 21 21 21
;
_chemical_formula_sum "Si O2"
_cell_formula_units_Z 48
_cell_length_a 16.885607
_cell_length_b 9.550905
_cell_length_c 13.146586
_cell_angle_alpha 90.000000
_cell_angle_beta 90.000000
_cell_angle_gamma 90.000000
_cell_volume 2120.187107
_symmetry_space_group_name_H-M "I 21 21 21"
_symmetry_group_IT_number 24
_symmetry_cell_setting 'orthorhombic'
loop_
_space_group_symop_operation_xyz
x,y,z
-x,1/2-y,z
x,-y,1/2-z
1/2-x,y,-z
1/2+x,1/2+y,1/2+z
1/2-x,-y,1/2+z
1/2+x,1/2-y,-z
-x,1/2+y,1/2-z
loop_
_atom_site_type_symbol
_atom_site_label
_atom_site_fract_x
_atom_site_fract_y
_atom_site_fract_z
Si Si1 0.125686 0.835604 0.494171
Si Si2 0.693893 0.393629 0.406550
Si Si3 0.934585 0.128078 0.325144
Si Si4 0.818972 0.347674 0.232707
Si Si5 0.449433 0.452336 0.017782
Si Si6 0.462156 0.881107 0.179781
O O1 0.173107 0.828332 0.388274
O O2 0.107591 0.680040 0.533705
O O3 0.036559 0.898450 0.478735
O O4 0.170567 0.945249 0.566327
O O5 0.750000 0.347163 0.500000
O O6 0.740546 0.366637 0.301912
O O7 0.606716 0.327814 0.395202
O O8 0.861769 0.213592 0.279195
O O9 0.000000 0.250000 0.335591
O O10 0.955921 0.000000 0.250000
O O11 0.917497 0.055676 0.432174
O O12 0.859843 0.500000 0.250000
O O13 0.470659 0.537119 0.118390
O O14 0.500000 0.750000 0.236628
O O15 0.425440 0.000000 0.250000
#
# Coordination Sequence:
#
# PCOD9335201 Si02
#       6
#     8   8   8   8   8   8
#     4  10  21  42  68 101 138 186 236 300 371 437
#     4  11  25  43  70  99 140 190 244 298 362 440
#     4  12  23  36  65 106 150 186 229 305 377 451
#     4  12  23  40  65 102 143 187 244 293 369 448
#     4  10  22  42  69 102 139 179 237 309 370 428
#     4  11  27  47  74 103 139 192 249 301 353 440
#
# _framework density 22.639510999999999
#
# number of rings (size 3 to 8) (size 9 to 14) (size 15 to 20)
#    0.000    1.000    3.333    3.500    9.333    0.000 
#    0.000    0.833    3.667    0.000    0.000    0.000 
#    0.000    0.000    0.000    0.000    0.000    0.000 
#
# Total GULP energy -133974.402479 kJ/mol
# GULP energy per Si atom -5582.266770 kJ/mol
# Density = 2.258798 g / cm^3
# Si number density = 22.639511 Si / 1000 Ang^3
#
#
#
# Elastic Constant Matrix: (Units=GPa)
#
#
# Indices 1 2 3 4 5 6 
#
# 1 59.5974 36.2185 5.1858 0.0000 0.0000 0.0000
# 2 36.2185 112.8627 16.3977 0.0000 0.0000 0.0000
# 3 5.1858 16.3977 70.1409 0.0000 0.0000 0.0000
# 4 0.0000 0.0000 0.0000 39.0124 0.0000 0.0000
# 5 0.0000 0.0000 0.0000 0.0000 31.0644 0.0000
# 6 0.0000 0.0000 0.0000 0.0000 0.0000 28.4151
#
#
#
# Elastic Compliance Matrix: (Units=1/GPa)
#
#
# Indices 1 2 3 4 5 6 
#
# 1 0.020844 -0.006693 0.000023 0.000000 0.000000 0.000000
# 2 -0.006693 0.011321 -0.002152 0.000000 0.000000 0.000000
# 3 0.000023 -0.002152 0.014758 0.000000 0.000000 0.000000
# 4 0.000000 0.000000 0.000000 0.025633 0.000000 0.000000
# 5 0.000000 0.000000 0.000000 0.000000 0.032191 0.000000
# 6 0.000000 0.000000 0.000000 0.000000 0.000000 0.035193
#
#
# Mechanical properties :
#
#
# Convention : Reuss Voigt Hill
#
# Bulk Modulus (GPa) = 34.15098 39.80055 36.97576
# Shear Modulus (GPa) = 29.87890 32.01831 30.94861
#
# Velocity S-wave (km/s) = 3.63680 3.76475 3.70133
# Velocity P-wave (km/s) = 5.72298 6.04286 5.88509
#
# Compressibility (1/GPa) = 0.02928174
#
# Stress axis : x y z
#
# Youngs Moduli (GPa) = 47.97451 88.33422 67.75834
#
# Poissons Ratio (x) = 0.59118 -0.00159
# Poissons Ratio (y) = 0.32107 0.14580
# Poissons Ratio (z) = -0.00113 0.19007
#
# Static dielectric constant tensor:
#      x y z
#    x 1.874630 0.000000 0.000000 
#    y 0.000000 1.851190 0.000000 
#    z 0.000000 0.000000 1.879710 
# 
# From -- ./inp_files/27034.got.cif
#   From: 2010.05.17/outbox.cif.g08.bks.cpg/sg24_14_cif.got.tgz:27034.got - 2010.06.04 00:33:39.
