data_PCOD9335362
_publ_section_title
;
Structure prediction by ZEFSAII (Michael W. Deem and Ramdas Pophale) SiO2 
 PCOD9335362
Probable space group: I 21 21 21
;
_chemical_formula_sum "Si O2"
_cell_formula_units_Z 48
_cell_length_a 9.090202
_cell_length_b 29.542728
_cell_length_c 8.165686
_cell_angle_alpha 90.000000
_cell_angle_beta 90.000000
_cell_angle_gamma 90.000000
_cell_volume 2192.889791
_symmetry_space_group_name_H-M "I 21 21 21"
_symmetry_group_IT_number 24
_symmetry_cell_setting 'orthorhombic'
loop_
_space_group_symop_operation_xyz
x,y,z
-x,1/2-y,z
x,-y,1/2-z
1/2-x,y,-z
1/2+x,1/2+y,1/2+z
1/2-x,-y,1/2+z
1/2+x,1/2-y,-z
-x,1/2+y,1/2-z
loop_
_atom_site_type_symbol
_atom_site_label
_atom_site_fract_x
_atom_site_fract_y
_atom_site_fract_z
Si Si1 0.340145 0.732883 0.204021
Si Si2 0.250000 0.943657 0.500000
Si Si3 0.198221 0.566965 0.827641
Si Si4 0.750000 0.829027 0.500000
Si Si5 0.536200 0.104925 0.846159
Si Si6 0.559198 0.500000 0.250000
Si Si7 0.250000 0.811414 0.000000
Si Si8 0.048827 0.348811 0.510787
O O1 0.500000 0.750000 0.266596
O O2 0.266611 0.702293 0.341502
O O3 0.240392 0.775363 0.149538
O O4 0.388856 0.700942 0.050229
O O5 0.379046 0.914709 0.594643
O O6 0.336434 0.977839 0.383183
O O7 0.333657 0.568654 0.700340
O O8 0.053517 0.540562 0.782704
O O9 0.141968 0.617188 0.877602
O O10 0.250000 0.546316 0.000000
O O11 0.608839 0.861729 0.520869
O O12 0.535694 0.132836 0.674416
O O13 0.380071 0.843502 0.056826
#
# Coordination Sequence:
#
# PCOD9335362 Si02
#       8
#     8   4   8   4   8   4   4   8
#     4  10  22  38  61 103 137 190 246 304 360 427
#     4  12  32  45  69 114 150 184 232 314 386 434
#     4  10  24  45  79 100 131 192 244 290 357 454
#     4  12  22  40  71  92 151 191 250 292 361 442
#     4  11  25  45  72 101 137 185 248 290 361 447
#     4  12  30  48  74 104 158 174 242 302 382 448
#     4  10  22  37  68  96 147 181 248 300 371 424
#     4  10  22  43  72  96 135 191 251 290 360 442
#
# _framework density 21.888923999999999
#
# number of rings (size 3 to 8) (size 9 to 14) (size 15 to 20)
#    0.000    1.333    1.667    2.000   10.500    2.667 
#    0.000    0.000    0.000    0.000    0.000    0.000 
#    0.000    0.000    0.000    0.000    0.000    0.000 
#
# Total GULP energy -133761.180864 kJ/mol
# GULP energy per Si atom -5573.382536 kJ/mol
# Density = 2.183910 g / cm^3
# Si number density = 21.888924 Si / 1000 Ang^3
#
#
#
# Elastic Constant Matrix: (Units=GPa)
#
#
# Indices 1 2 3 4 5 6 
#
# 1 166.5224 49.4738 45.6124 0.0002 0.0008 0.1165
# 2 49.4738 68.2356 29.4418 -0.0011 -0.0012 0.0954
# 3 45.6124 29.4418 93.9402 -0.0137 -0.0060 1.7383
# 4 0.0002 -0.0011 -0.0137 22.4746 -0.0018 0.2776
# 5 0.0008 -0.0012 -0.0060 -0.0018 37.5251 0.1238
# 6 0.1165 0.0954 1.7383 0.2776 0.1238-1242.5249
#
#
#
# Elastic Compliance Matrix: (Units=1/GPa)
#
#
# Indices 1 2 3 4 5 6 
#
# 1 0.008103 -0.004831 -0.002420 -0.000002 -0.000001 -0.000003
# 2 -0.004831 0.019827 -0.003868 -0.000001 0.000000 -0.000004
# 3 -0.002420 -0.003868 0.013032 0.000008 0.000002 0.000018
# 4 -0.000002 -0.000001 0.000008 0.044495 0.000002 0.000010
# 5 -0.000001 0.000000 0.000002 0.000002 0.026649 0.000003
# 6 -0.000003 -0.000004 0.000018 0.000010 0.000003 -0.000805
#
#
# Mechanical properties :
#
#
# Convention : Reuss Voigt Hill
#
# Bulk Modulus (GPa) = 53.40933 64.19491 58.80212
# Shear Modulus (GPa) = 35.77011 -222.89368 -93.56179
#
# Velocity S-wave (km/s) = 4.04687 -10.10200 -6.54497
# Velocity P-wave (km/s) = 6.80362 10.32841 5.49485
#
# Compressibility (1/GPa) = 0.01872332
#
# Stress axis : x y z
#
# Youngs Moduli (GPa) = 123.40364 50.43680 76.73235
#
# Poissons Ratio (x) = 0.24366 0.18573
# Poissons Ratio (y) = 0.59616 0.29681
# Poissons Ratio (z) = 0.29870 0.19510
#
# Static dielectric constant tensor:
#      x y z
#    x 1.839450 0.000000 -0.000160 
#    y 0.000000 1.887240 -0.000470 
#    z -0.000160 -0.000470 3.195750 
# 
# From -- ./inp_files/9831.got.cif
#   From: 2010.05.17/outbox.cif.g08.bks.cpg/sg24_5_cif.got.tgz:9831.got - 2010.06.04 00:33:39.
