data_PCOD9335499
_publ_section_title
;
Structure prediction by ZEFSAII (Michael W. Deem and Ramdas Pophale) SiO2 
 PCOD9335499
Probable space group: I 21 21 21
;
_chemical_formula_sum "Si O2"
_cell_formula_units_Z 64
_cell_length_a 22.943730
_cell_length_b 15.338826
_cell_length_c 7.841957
_cell_angle_alpha 90.000000
_cell_angle_beta 90.000000
_cell_angle_gamma 90.000000
_cell_volume 2759.819004
_symmetry_space_group_name_H-M "I 21 21 21"
_symmetry_group_IT_number 24
_symmetry_cell_setting 'orthorhombic'
loop_
_space_group_symop_operation_xyz
x,y,z
-x,1/2-y,z
x,-y,1/2-z
1/2-x,y,-z
1/2+x,1/2+y,1/2+z
1/2-x,-y,1/2+z
1/2+x,1/2-y,-z
-x,1/2+y,1/2-z
loop_
_atom_site_type_symbol
_atom_site_label
_atom_site_fract_x
_atom_site_fract_y
_atom_site_fract_z
Si Si1 0.191594 0.796915 0.094659
Si Si2 0.056309 0.205768 0.791614
Si Si3 0.957751 0.537386 0.924496
Si Si4 0.663174 0.484145 0.557432
Si Si5 0.834854 0.669159 0.491839
Si Si6 0.419223 0.520740 0.549510
Si Si7 0.633592 0.153333 0.405679
Si Si8 0.689366 0.136092 0.079493
O O1 0.180938 0.819327 0.292231
O O2 0.180429 0.888390 0.995797
O O3 0.250000 0.767502 0.000000
O O4 0.150619 0.714958 0.060431
O O5 0.036538 0.138160 0.640517
O O6 0.092368 0.283626 0.704242
O O7 0.000000 0.250000 0.871406
O O8 0.098267 0.170194 0.940960
O O9 0.932045 0.500000 0.750000
O O10 0.907065 0.524816 0.060249
O O11 0.014660 0.480057 0.973223
O O12 0.683993 0.500000 0.750000
O O13 0.683536 0.570752 0.458363
O O14 0.809693 0.758092 0.568400
O O15 0.422811 0.500000 0.750000
O O16 0.396320 0.433388 0.463449
O O17 0.370152 0.594688 0.504421
O O18 0.684935 0.121298 0.280952
O O19 0.750000 0.103332 0.000000
#
# Coordination Sequence:
#
# PCOD9335499 Si02
#       8
#     8   8   8   8   8   8   8   8
#     4  11  23  42  67  97 138 184 230 286 348 423
#     4  11  22  41  68 101 136 181 233 294 366 432
#     4  12  22  41  68 100 138 179 227 286 364 427
#     4  10  22  40  64  99 140 179 226 283 348 425
#     4  10  23  42  63 100 137 178 233 285 352 421
#     4  12  27  44  67 100 138 181 237 293 356 436
#     4  11  23  43  70  97 136 180 235 290 356 428
#     4  11  25  45  69  98 133 179 240 298 352 422
#
# _framework density 23.189926
#
# number of rings (size 3 to 8) (size 9 to 14) (size 15 to 20)
#    0.000    1.000    3.750    3.000    1.750    2.000 
#    0.000    6.250    0.000    0.000    0.000    0.000 
#    0.000    0.000    0.000    0.000    0.000    0.000 
#
# Total GULP energy -178245.702893 kJ/mol
# GULP energy per Si atom -5570.178215 kJ/mol
# Density = 2.313715 g / cm^3
# Si number density = 23.189926 Si / 1000 Ang^3
#
#
#
# Elastic Constant Matrix: (Units=GPa)
#
#
# Indices 1 2 3 4 5 6 
#
# 1 101.2819 8.8367 4.4295 0.0000 0.0000 0.0000
# 2 8.8367 71.4810 -9.3580 0.0000 0.0000 0.0000
# 3 4.4295 -9.3580 67.7400 0.0000 0.0000 0.0000
# 4 0.0000 0.0000 0.0000 23.3335 0.0000 0.0000
# 5 0.0000 0.0000 0.0000 0.0000 -1.8311 0.0000
# 6 0.0000 0.0000 0.0000 0.0000 0.0000 -112.0943
#
#
#
# Elastic Compliance Matrix: (Units=1/GPa)
#
#
# Indices 1 2 3 4 5 6 
#
# 1 0.010028 -0.001350 -0.000842 0.000000 0.000000 0.000000
# 2 -0.001350 0.014429 0.002082 0.000000 0.000000 0.000000
# 3 -0.000842 0.002082 0.015105 0.000000 0.000000 0.000000
# 4 0.000000 0.000000 0.000000 0.042857 0.000000 0.000000
# 5 0.000000 0.000000 0.000000 0.000000 -0.546130 0.000000
# 6 0.000000 0.000000 0.000000 0.000000 0.000000 -0.008921
#
#
# Mechanical properties :
#
#
# Convention : Reuss Voigt Hill
#
# Bulk Modulus (GPa) = 25.41881 27.59106 26.50493
# Shear Modulus (GPa) = -10.88620 -2.34539 -6.61579
#
# Velocity S-wave (km/s) = -2.16900 -1.00677 -1.69088
# Velocity P-wave (km/s) = 2.17076 3.25150 2.76446
#
# Compressibility (1/GPa) = 0.03934095
#
# Stress axis : x y z
#
# Youngs Moduli (GPa) = 99.72032 69.30423 66.20339
#
# Poissons Ratio (x) = 0.09356 0.05576
# Poissons Ratio (y) = 0.13462 -0.13781
# Poissons Ratio (z) = 0.08399 -0.14426
#
# Static dielectric constant tensor:
#      x y z
#    x 1.987620 0.000000 0.000000 
#    y 0.000000 1.966790 0.000000 
#    z 0.000000 0.000000 1.985440 
# 
# From -- ./inp_files/16048.got.cif
#   From: 2010.05.17/outbox.cif.g08.bks.cpg/sg24_9_cif.got.tgz:16048.got - 2010.06.04 00:33:39.
