data_PCOD9335868
_publ_section_title
;
Structure prediction by ZEFSAII (Michael W. Deem and Ramdas Pophale) SiO2 
 PCOD9335868
Probable space group: I 21 21 21
;
_chemical_formula_sum "Si O2"
_cell_formula_units_Z 32
_cell_length_a 8.687221
_cell_length_b 19.655376
_cell_length_c 8.599735
_cell_angle_alpha 90.000000
_cell_angle_beta 90.000000
_cell_angle_gamma 90.000000
_cell_volume 1468.409869
_symmetry_space_group_name_H-M "I 21 21 21"
_symmetry_group_IT_number 24
_symmetry_cell_setting 'orthorhombic'
loop_
_space_group_symop_operation_xyz
x,y,z
-x,1/2-y,z
x,-y,1/2-z
1/2-x,y,-z
1/2+x,1/2+y,1/2+z
1/2-x,-y,1/2+z
1/2+x,1/2-y,-z
-x,1/2+y,1/2-z
loop_
_atom_site_type_symbol
_atom_site_label
_atom_site_fract_x
_atom_site_fract_y
_atom_site_fract_z
Si Si1 0.814059 0.322093 0.275281
Si Si2 0.472980 0.000000 0.250000
Si Si3 0.000000 0.750000 0.486529
Si Si4 0.250000 0.704470 0.000000
Si Si5 0.250000 0.935891 0.000000
Si Si6 0.549712 0.147427 0.231251
O O1 0.907125 0.303524 0.121086
O O2 0.831143 0.255734 0.381338
O O3 0.849353 0.387394 0.383515
O O4 0.632760 0.335953 0.243921
O O5 0.363229 0.020465 0.393684
O O6 0.565600 0.067417 0.202093
O O7 0.899586 0.799151 0.599381
O O8 0.366173 0.663286 0.107408
#
# Coordination Sequence:
#
# PCOD9335868 Si02
#       6
#     8   4   4   4   4   8
#     4  10  23  40  66 104 135 181 232 306 354 412
#     4  10  24  42  66  98 142 188 236 290 354 444
#     4  12  24  38  72 106 144 172 238 310 358 408
#     4  11  22  42  68  92 139 184 232 288 363 420
#     4   9  22  40  66  96 143 184 236 294 359 414
#     4  11  24  44  66 105 139 187 239 296 354 439
#
# _framework density 21.792280999999999
#
# number of rings (size 3 to 8) (size 9 to 14) (size 15 to 20)
#    0.000    1.500    2.500    0.750   17.500    0.000 
#    0.000    2.500    0.000    1.500    0.000    0.000 
#    0.000    0.000    0.000    0.000    0.000    0.000 
#
# Total GULP energy -89342.397964 kJ/mol
# GULP energy per Si atom -5583.899873 kJ/mol
# Density = 2.174268 g / cm^3
# Si number density = 21.792281 Si / 1000 Ang^3
#
#
#
# Elastic Constant Matrix: (Units=GPa)
#
#
# Indices 1 2 3 4 5 6 
#
# 1 45.7792 7.7743 25.0057 0.0000 0.0000 0.0000
# 2 7.7743 160.1326 51.1437 -0.0002 0.0001 0.0000
# 3 25.0057 51.1437 132.4787 -0.0002 0.0000 0.0001
# 4 0.0000 -0.0002 -0.0002 39.6705 0.0000 0.0000
# 5 0.0000 0.0001 0.0000 0.0000 52.0134 0.0000
# 6 0.0000 0.0000 0.0001 0.0000 0.0000 16.9543
#
#
#
# Elastic Compliance Matrix: (Units=1/GPa)
#
#
# Indices 1 2 3 4 5 6 
#
# 1 0.024370 0.000326 -0.004726 0.000000 0.000000 0.000000
# 2 0.000326 0.007127 -0.002813 0.000000 0.000000 0.000000
# 3 -0.004726 -0.002813 0.009526 0.000000 0.000000 0.000000
# 4 0.000000 0.000000 0.000000 0.025208 0.000000 0.000000
# 5 0.000000 0.000000 0.000000 0.000000 0.019226 0.000000
# 6 0.000000 0.000000 0.000000 0.000000 0.000000 0.058982
#
#
# Mechanical properties :
#
#
# Convention : Reuss Voigt Hill
#
# Bulk Modulus (GPa) = 37.59641 56.24867 46.92254
# Shear Modulus (GPa) = 29.80963 38.69210 34.25086
#
# Velocity S-wave (km/s) = 3.70252 4.21823 3.96876
# Velocity P-wave (km/s) = 5.96388 7.04216 6.52533
#
# Compressibility (1/GPa) = 0.02659828
#
# Stress axis : x y z
#
# Youngs Moduli (GPa) = 41.03418 140.30248 104.97130
#
# Poissons Ratio (x) = -0.04577 0.49608
# Poissons Ratio (y) = -0.01339 0.29530
# Poissons Ratio (z) = 0.19392 0.39469
#
# Static dielectric constant tensor:
#      x y z
#    x 1.925370 0.000000 0.000000 
#    y 0.000000 1.812460 0.000000 
#    z 0.000000 0.000000 1.893090 
# 
# From -- ./inp_files/10642.got.cif
#   From: 2010.05.17/outbox.cif.g08.bks.cpg/sg24_6_cif.got.tgz:10642.got - 2010.06.04 00:33:39.
