data_PCOD9335946
_publ_section_title
;
Structure prediction by ZEFSAII (Michael W. Deem and Ramdas Pophale) SiO2 
 PCOD9335946
Probable space group: I 21 21 21
;
_chemical_formula_sum "Si O2"
_cell_formula_units_Z 40
_cell_length_a 9.234966
_cell_length_b 16.095832
_cell_length_c 10.715091
_cell_angle_alpha 90.000000
_cell_angle_beta 90.000000
_cell_angle_gamma 90.000000
_cell_volume 1592.738929
_symmetry_space_group_name_H-M "I 21 21 21"
_symmetry_group_IT_number 24
_symmetry_cell_setting 'orthorhombic'
loop_
_space_group_symop_operation_xyz
x,y,z
-x,1/2-y,z
x,-y,1/2-z
1/2-x,y,-z
1/2+x,1/2+y,1/2+z
1/2-x,-y,1/2+z
1/2+x,1/2-y,-z
-x,1/2+y,1/2-z
loop_
_atom_site_type_symbol
_atom_site_label
_atom_site_fract_x
_atom_site_fract_y
_atom_site_fract_z
Si Si1 0.635559 0.196521 0.651198
Si Si2 0.750000 0.046479 0.500000
Si Si3 0.023934 0.080663 0.188567
Si Si4 0.750000 0.234677 0.000000
Si Si5 0.459412 0.409870 0.086378
Si Si6 0.205076 0.162541 0.757270
O O1 0.500000 0.250000 0.605076
O O2 0.654568 0.114021 0.572168
O O3 0.582475 0.158063 0.783768
O O4 0.773428 0.258636 0.664482
O O5 0.843411 0.985025 0.588886
O O6 0.169395 0.096443 0.268535
O O7 0.954951 0.000000 0.250000
O O8 0.045896 0.068435 0.041182
O O9 0.624717 0.174216 0.050125
O O10 0.766697 0.296966 0.115295
O O11 0.557847 0.384407 0.204813
#
# Coordination Sequence:
#
# PCOD9335946 Si02
#       6
#     8   4   8   4   8   8
#     4  10  23  43  70  97 133 193 239 288 349 434
#     4  11  24  46  72  95 142 196 234 285 362 440
#     4  11  20  38  65  96 133 181 229 281 360 431
#     4  11  20  34  62  95 134 170 214 287 350 414
#     4  11  22  38  66 102 136 175 225 292 356 424
#     4  11  22  38  66  99 134 170 227 291 346 418
#
# _framework density 25.113969999999998
#
# number of rings (size 3 to 8) (size 9 to 14) (size 15 to 20)
#    0.000    1.200    6.000    0.600    0.000    0.000 
#    0.000   10.000    0.000    0.000    0.000    0.000 
#    0.000    0.000    0.000    0.000    0.000    0.000 
#
# Total GULP energy -111530.087642 kJ/mol
# GULP energy per Si atom -5576.504382 kJ/mol
# Density = 2.505681 g / cm^3
# Si number density = 25.113970 Si / 1000 Ang^3
#
#
#
# Elastic Constant Matrix: (Units=GPa)
#
#
# Indices 1 2 3 4 5 6 
#
# 1 100.5909 66.2238 16.4823 0.0000 0.0000 0.0000
# 2 66.2238 171.5995 18.4469 0.0001 0.0000 0.0000
# 3 16.4823 18.4469 18.1315 0.0001 0.0000 0.0000
# 4 0.0000 0.0001 0.0001 22.7358 0.0000 0.0000
# 5 0.0000 0.0000 0.0000 0.0000 29.9180 0.0000
# 6 0.0000 0.0000 0.0000 0.0000 0.0000 49.6028
#
#
#
# Elastic Compliance Matrix: (Units=1/GPa)
#
#
# Indices 1 2 3 4 5 6 
#
# 1 0.014367 -0.004649 -0.008330 0.000000 0.000000 0.000000
# 2 -0.004649 0.008048 -0.003961 0.000000 0.000000 0.000000
# 3 -0.008330 -0.003961 0.066755 0.000000 0.000000 0.000000
# 4 0.000000 0.000000 0.000000 0.043983 0.000000 0.000000
# 5 0.000000 0.000000 0.000000 0.000000 0.033425 0.000000
# 6 0.000000 0.000000 0.000000 0.000000 0.000000 0.020160
#
#
# Mechanical properties :
#
#
# Convention : Reuss Voigt Hill
#
# Bulk Modulus (GPa) = 18.08691 54.73643 36.41167
# Shear Modulus (GPa) = 20.91626 33.06261 26.98943
#
# Velocity S-wave (km/s) = 2.88905 3.63230 3.28178
# Velocity P-wave (km/s) = 4.28327 6.27965 5.37496
#
# Compressibility (1/GPa) = 0.05528860
#
# Stress axis : x y z
#
# Youngs Moduli (GPa) = 69.60483 124.26216 14.98007
#
# Poissons Ratio (x) = 0.57769 0.12479
# Poissons Ratio (y) = 0.32359 0.05934
# Poissons Ratio (z) = 0.57982 0.49225
#
# Static dielectric constant tensor:
#      x y z
#    x 2.063270 0.000000 0.000000 
#    y 0.000000 1.970740 0.000000 
#    z 0.000000 0.000000 2.126480 
# 
# From -- ./inp_files/18258.got.cif
#   From: 2010.05.17/outbox.cif.g08.bks.cpg/sg24_10_cif.got.tgz:18258.got - 2010.06.04 00:33:39.
