data_PCOD9335372
_publ_section_title
;
Structure prediction by ZEFSAII (Michael W. Deem and Ramdas Pophale) SiO2 
 PCOD9335372
Probable space group: I 21 21 21
;
_chemical_formula_sum "Si O2"
_cell_formula_units_Z 52
_cell_length_a 19.446629
_cell_length_b 9.792643
_cell_length_c 14.326715
_cell_angle_alpha 90.000000
_cell_angle_beta 90.000000
_cell_angle_gamma 90.000000
_cell_volume 2728.292145
_symmetry_space_group_name_H-M "I 21 21 21"
_symmetry_group_IT_number 24
_symmetry_cell_setting 'orthorhombic'
loop_
_space_group_symop_operation_xyz
x,y,z
-x,1/2-y,z
x,-y,1/2-z
1/2-x,y,-z
1/2+x,1/2+y,1/2+z
1/2-x,-y,1/2+z
1/2+x,1/2-y,-z
-x,1/2+y,1/2-z
loop_
_atom_site_type_symbol
_atom_site_label
_atom_site_fract_x
_atom_site_fract_y
_atom_site_fract_z
Si Si1 0.775612 0.647890 0.233171
Si Si2 0.611333 0.546061 0.914469
Si Si3 0.077315 0.700400 0.977179
Si Si4 0.186727 0.397558 0.663902
Si Si5 0.545588 0.009642 0.859275
Si Si6 0.250000 0.440776 0.000000
Si Si7 0.141235 0.253064 0.086186
O O1 0.740990 0.500000 0.250000
O O2 0.836578 0.602550 0.163058
O O3 0.721954 0.757056 0.195174
O O4 0.813327 0.719195 0.321492
O O5 0.535532 0.523213 0.869879
O O6 0.628402 0.397001 0.953091
O O7 0.613556 0.659734 0.993435
O O8 0.116742 0.629967 0.892762
O O9 0.000000 0.750000 0.956523
O O10 0.077599 0.601449 0.068705
O O11 0.177195 0.500000 0.750000
O O12 0.238438 0.467568 0.590362
O O13 0.573631 0.158515 0.889342
O O14 0.564713 0.000000 0.750000
O O15 0.314958 0.344692 0.983390
#
# Coordination Sequence:
#
# PCOD9335372 Si02
#       7
#     8   8   8   8   8   4   8
#     4  10  22  38  61  95 128 163 209 255 317 381
#     4  10  22  38  59  93 134 166 199 257 318 380
#     4  10  23  43  64  92 124 168 216 259 318 379
#     4  12  24  44  70  90 125 168 213 265 319 378
#     4  11  21  36  63  94 132 170 207 253 315 386
#     4  12  24  38  64  98 118 164 210 266 306 384
#     4  11  22  36  58  92 128 163 212 254 309 378
#
# _framework density 19.059542
#
# number of rings (size 3 to 8) (size 9 to 14) (size 15 to 20)
#    0.000    1.231    3.077    3.692    2.154    4.923 
#    0.000    0.769    3.385    0.000    0.000    0.000 
#    0.000    0.000    0.000    0.000    0.000    0.000 
#
# Total GULP energy -145096.138373 kJ/mol
# GULP energy per Si atom -5580.620707 kJ/mol
# Density = 1.901616 g / cm^3
# Si number density = 19.059542 Si / 1000 Ang^3
#
#
#
# Elastic Constant Matrix: (Units=GPa)
#
#
# Indices 1 2 3 4 5 6 
#
# 1 56.9057 47.4504 37.1813 0.0000 0.0000 0.0000
# 2 47.4504 157.6290 65.1631 0.0000 0.0000 0.0000
# 3 37.1813 65.1631 90.4524 0.0000 0.0000 0.0000
# 4 0.0000 0.0000 0.0000 24.6427 0.0000 0.0000
# 5 0.0000 0.0000 0.0000 0.0000 18.3683 0.0000
# 6 0.0000 0.0000 0.0000 0.0000 0.0000 23.3437
#
#
#
# Elastic Compliance Matrix: (Units=1/GPa)
#
#
# Indices 1 2 3 4 5 6 
#
# 1 0.026480 -0.004944 -0.007323 0.000000 0.000000 0.000000
# 2 -0.004944 0.009958 -0.005141 0.000000 0.000000 0.000000
# 3 -0.007323 -0.005141 0.017770 0.000000 0.000000 0.000000
# 4 0.000000 0.000000 0.000000 0.040580 0.000000 0.000000
# 5 0.000000 0.000000 0.000000 0.000000 0.054442 0.000000
# 6 0.000000 0.000000 0.000000 0.000000 0.000000 0.042838
#
#
# Mechanical properties :
#
#
# Convention : Reuss Voigt Hill
#
# Bulk Modulus (GPa) = 51.57151 67.17518 59.37334
# Shear Modulus (GPa) = 21.42719 23.61708 22.52214
#
# Velocity S-wave (km/s) = 3.35658 3.52393 3.44128
# Velocity P-wave (km/s) = 6.49146 7.20270 6.85631
#
# Compressibility (1/GPa) = 0.01939055
#
# Stress axis : x y z
#
# Youngs Moduli (GPa) = 37.76392 100.42502 56.27507
#
# Poissons Ratio (x) = 0.49648 0.41212
# Poissons Ratio (y) = 0.18670 0.28934
# Poissons Ratio (z) = 0.27656 0.51633
#
# Static dielectric constant tensor:
#      x y z
#    x 1.690070 0.000000 0.000000 
#    y 0.000000 1.675850 0.000000 
#    z 0.000000 0.000000 1.658990 
# 
# From -- ./inp_files/13090.got.cif
#   From: 2010.05.17/outbox.cif.g08.bks.cpg/sg24_7_cif.got.tgz:13090.got - 2010.06.04 00:33:39.
