data_PCOD9335941
_publ_section_title
;
Structure prediction by ZEFSAII (Michael W. Deem and Ramdas Pophale) SiO2 
 PCOD9335941
Probable space group: I 21 21 21
;
_chemical_formula_sum "Si O2"
_cell_formula_units_Z 52
_cell_length_a 18.980582
_cell_length_b 20.667515
_cell_length_c 5.775283
_cell_angle_alpha 90.000000
_cell_angle_beta 90.000000
_cell_angle_gamma 90.000000
_cell_volume 2265.536466
_symmetry_space_group_name_H-M "I 21 21 21"
_symmetry_group_IT_number 24
_symmetry_cell_setting 'orthorhombic'
loop_
_space_group_symop_operation_xyz
x,y,z
-x,1/2-y,z
x,-y,1/2-z
1/2-x,y,-z
1/2+x,1/2+y,1/2+z
1/2-x,-y,1/2+z
1/2+x,1/2-y,-z
-x,1/2+y,1/2-z
loop_
_atom_site_type_symbol
_atom_site_label
_atom_site_fract_x
_atom_site_fract_y
_atom_site_fract_z
Si Si1 0.595788 0.000000 0.750000
Si Si2 0.250000 0.344318 0.500000
Si Si3 0.250000 0.037943 0.000000
Si Si4 0.975464 0.128475 0.242076
Si Si5 0.558356 0.709577 0.121568
Si Si6 0.879947 0.364824 0.994616
Si Si7 0.858305 0.226918 0.241532
Si Si8 0.690390 0.065332 0.153941
O O1 0.551586 0.060854 0.657415
O O2 0.632957 0.964868 0.524927
O O3 0.217578 0.300273 0.299973
O O4 0.311552 0.388969 0.381987
O O5 0.180817 0.083322 0.026211
O O6 0.256100 0.000000 0.250000
O O7 0.910185 0.171158 0.140395
O O8 0.010797 0.174418 0.431800
O O9 0.041894 0.114390 0.076993
O O10 0.500000 0.750000 0.269552
O O11 0.606124 0.654928 0.232317
O O12 0.610975 0.757608 0.995849
O O13 0.861442 0.294855 0.108894
O O14 0.725269 0.000000 0.250000
O O15 0.750000 0.097586 0.000000
#
# Coordination Sequence:
#
# PCOD9335941 Si02
#       8
#     4   4   4   8   8   8   8   8
#     4  12  26  40  70  98 148 200 266 300 394 450
#     4  12  26  39  70 101 158 198 260 316 388 448
#     4  12  34  55  86 121 162 206 266 336 414 496
#     4  10  23  44  68 109 147 195 257 324 383 478
#     4   9  20  41  72 103 143 187 248 320 389 463
#     4  11  25  46  81 103 151 196 252 322 405 469
#     4  10  23  43  69 112 149 190 258 315 392 470
#     4  12  22  42  59  92 141 202 248 304 359 448
#
# _framework density 22.95262
#
# number of rings (size 3 to 8) (size 9 to 14) (size 15 to 20)
#    0.000    1.231    1.538    4.154    7.538    6.154 
#    0.000    0.000    0.000    0.000    0.000    0.000 
#    0.000    0.000    0.000    0.000    0.000    0.000 
#
# Total GULP energy -144752.135055 kJ/mol
# GULP energy per Si atom -5567.389810 kJ/mol
# Density = 2.290038 g / cm^3
# Si number density = 22.952620 Si / 1000 Ang^3
#
#
#
# Elastic Constant Matrix: (Units=GPa)
#
#
# Indices 1 2 3 4 5 6 
#
# 1 77.8890 46.0322 6.1589 0.0000 0.0000 0.0000
# 2 46.0322 120.7307 15.4333 0.0000 0.0000 0.0000
# 3 6.1589 15.4333 40.9558 0.0000 0.0000 0.0000
# 4 0.0000 0.0000 0.0000 8.8748 0.0000 0.0000
# 5 0.0000 0.0000 0.0000 0.0000 17.5398 0.0000
# 6 0.0000 0.0000 0.0000 0.0000 0.0000 -38.6090
#
#
#
# Elastic Compliance Matrix: (Units=1/GPa)
#
#
# Indices 1 2 3 4 5 6 
#
# 1 0.016574 -0.006304 -0.000117 0.000000 0.000000 0.000000
# 2 -0.006304 0.011100 -0.003235 0.000000 0.000000 0.000000
# 3 -0.000117 -0.003235 0.025653 0.000000 0.000000 0.000000
# 4 0.000000 0.000000 0.000000 0.112679 0.000000 0.000000
# 5 0.000000 0.000000 0.000000 0.000000 0.057013 0.000000
# 6 0.000000 0.000000 0.000000 0.000000 0.000000 -0.025901
#
#
# Mechanical properties :
#
#
# Convention : Reuss Voigt Hill
#
# Bulk Modulus (GPa) = 29.39850 41.64715 35.52282
# Shear Modulus (GPa) = 21.95212 9.02452 15.48832
#
# Velocity S-wave (km/s) = 3.09594 1.98503 2.60050
# Velocity P-wave (km/s) = 5.06122 4.84128 4.95247
#
# Compressibility (1/GPa) = 0.03401534
#
# Stress axis : x y z
#
# Youngs Moduli (GPa) = 60.33591 90.08900 38.98169
#
# Poissons Ratio (x) = 0.56795 0.00455
# Poissons Ratio (y) = 0.38038 0.12610
# Poissons Ratio (z) = 0.00704 0.29142
#
# Static dielectric constant tensor:
#      x y z
#    x 1.940560 0.000000 0.000000 
#    y 0.000000 1.817060 0.000000 
#    z 0.000000 0.000000 2.338730 
# 
# From -- ./inp_files/5707.got.cif
#   From: 2010.05.17/outbox.cif.g08.bks.cpg/sg24_3_cif.got.tgz:5707.got - 2010.06.04 00:33:39.
