data_PCOD9335312
_publ_section_title
;
Structure prediction by ZEFSAII (Michael W. Deem and Ramdas Pophale) SiO2 
 PCOD9335312
Probable space group: I 21 21 21
;
_chemical_formula_sum "Si O2"
_cell_formula_units_Z 48
_cell_length_a 9.897024
_cell_length_b 11.535082
_cell_length_c 24.215647
_cell_angle_alpha 90.000000
_cell_angle_beta 90.000000
_cell_angle_gamma 90.000000
_cell_volume 2764.530506
_symmetry_space_group_name_H-M "I 21 21 21"
_symmetry_group_IT_number 24
_symmetry_cell_setting 'orthorhombic'
loop_
_space_group_symop_operation_xyz
x,y,z
-x,1/2-y,z
x,-y,1/2-z
1/2-x,y,-z
1/2+x,1/2+y,1/2+z
1/2-x,-y,1/2+z
1/2+x,1/2-y,-z
-x,1/2+y,1/2-z
loop_
_atom_site_type_symbol
_atom_site_label
_atom_site_fract_x
_atom_site_fract_y
_atom_site_fract_z
Si Si1 0.285714 0.011272 0.662987
Si Si2 0.490586 0.608766 0.133992
Si Si3 0.524567 0.889673 0.896876
Si Si4 0.900325 0.141506 0.513273
Si Si5 0.263681 0.410945 0.703556
Si Si6 0.146967 0.811187 0.260101
O O1 0.387908 0.041252 0.614368
O O2 0.345986 0.094430 0.711214
O O3 0.135720 0.051754 0.646295
O O4 0.301489 0.881082 0.686443
O O5 0.500000 0.750000 0.138258
O O6 0.428669 0.584634 0.072743
O O7 0.382835 0.564549 0.178560
O O8 0.500000 0.750000 0.896703
O O9 0.633061 0.908519 0.848020
O O10 0.571589 0.928664 0.957443
O O11 0.750000 0.185891 0.500000
O O12 0.000000 0.250000 0.513769
O O13 0.310149 0.500000 0.750000
O O14 0.259478 0.289573 0.735843
O O15 0.000000 0.750000 0.266834
#
# Coordination Sequence:
#
# PCOD9335312 Si02
#       6
#     8   8   8   8   8   8
#     4  11  22  35  58  83 116 159 196 242 295 351
#     4  11  22  37  53  85 125 155 190 243 298 357
#     4  11  19  35  55  81 114 150 193 237 294 357
#     4  10  22  34  55  82 116 154 192 236 299 364
#     4  12  22  34  57  83 118 160 192 236 299 349
#     4  11  21  37  56  82 120 158 202 239 287 355
#
# _framework density 17.362803
#
# number of rings (size 3 to 8) (size 9 to 14) (size 15 to 20)
#    0.000    1.000    6.667    1.000    9.333    0.000 
#    0.000    0.000    0.000    0.000    0.000   11.667 
#    0.000    0.000    0.000    0.000    0.000    0.000 
#
# Total GULP energy -133685.536852 kJ/mol
# GULP energy per Si atom -5570.230702 kJ/mol
# Density = 1.732328 g / cm^3
# Si number density = 17.362803 Si / 1000 Ang^3
#
#
#
# Elastic Constant Matrix: (Units=GPa)
#
#
# Indices 1 2 3 4 5 6 
#
# 1 139.6017 21.1196 36.6832 0.0000 0.0000 0.0000
# 2 21.1196 50.1511 32.0273 0.0000 0.0000 0.0000
# 3 36.6832 32.0273 93.0746 0.0000 0.0000 0.0000
# 4 0.0000 0.0000 0.0000 16.4744 0.0000 0.0000
# 5 0.0000 0.0000 0.0000 0.0000 13.4081 0.0000
# 6 0.0000 0.0000 0.0000 0.0000 0.0000 16.4679
#
#
#
# Elastic Compliance Matrix: (Units=1/GPa)
#
#
# Indices 1 2 3 4 5 6 
#
# 1 0.008110 -0.001761 -0.002591 0.000000 0.000000 0.000000
# 2 -0.001761 0.025938 -0.008231 0.000000 0.000000 0.000000
# 3 -0.002591 -0.008231 0.014597 0.000000 0.000000 0.000000
# 4 0.000000 0.000000 0.000000 0.060700 0.000000 0.000000
# 5 0.000000 0.000000 0.000000 0.000000 0.074582 0.000000
# 6 0.000000 0.000000 0.000000 0.000000 0.000000 0.060724
#
#
# Mechanical properties :
#
#
# Convention : Reuss Voigt Hill
#
# Bulk Modulus (GPa) = 42.58927 51.38750 46.98839
# Shear Modulus (GPa) = 18.00864 22.13657 20.07261
#
# Velocity S-wave (km/s) = 3.22405 3.57451 3.40379
# Velocity P-wave (km/s) = 6.20013 6.83350 6.52450
#
# Compressibility (1/GPa) = 0.02348009
#
# Stress axis : x y z
#
# Youngs Moduli (GPa) = 123.29887 38.55348 68.50499
#
# Poissons Ratio (x) = 0.06790 0.17746
# Poissons Ratio (y) = 0.21714 0.56388
# Poissons Ratio (z) = 0.31941 0.31734
#
# Static dielectric constant tensor:
#      x y z
#    x 1.634500 0.000000 0.000000 
#    y 0.000000 1.637050 0.000000 
#    z 0.000000 0.000000 1.650170 
# 
# From -- ./inp_files/11269.got.cif
#   From: 2010.05.17/outbox.cif.g08.bks.cpg/sg24_6_cif.got.tgz:11269.got - 2010.06.04 00:33:39.
