data_PCOD9335746
_publ_section_title
;
Structure prediction by ZEFSAII (Michael W. Deem and Ramdas Pophale) SiO2 
 PCOD9335746
Probable space group: I 21 21 21
;
_chemical_formula_sum "Si O2"
_cell_formula_units_Z 60
_cell_length_a 27.602267
_cell_length_b 11.571037
_cell_length_c 9.524290
_cell_angle_alpha 90.000000
_cell_angle_beta 90.000000
_cell_angle_gamma 90.000000
_cell_volume 3041.933008
_symmetry_space_group_name_H-M "I 21 21 21"
_symmetry_group_IT_number 24
_symmetry_cell_setting 'orthorhombic'
loop_
_space_group_symop_operation_xyz
x,y,z
-x,1/2-y,z
x,-y,1/2-z
1/2-x,y,-z
1/2+x,1/2+y,1/2+z
1/2-x,-y,1/2+z
1/2+x,1/2-y,-z
-x,1/2+y,1/2-z
loop_
_atom_site_type_symbol
_atom_site_label
_atom_site_fract_x
_atom_site_fract_y
_atom_site_fract_z
Si Si1 0.570096 0.998641 0.416001
Si Si2 0.342223 0.000000 0.750000
Si Si3 0.428242 0.831677 0.704670
Si Si4 0.023660 0.124053 0.487694
Si Si5 0.617552 0.620439 0.179307
Si Si6 0.126480 0.617758 0.160647
Si Si7 0.053465 0.242148 0.910090
Si Si8 0.194843 0.807637 0.043869
O O1 0.515663 0.038571 0.448838
O O2 0.604125 0.077799 0.511571
O O3 0.579653 0.000000 0.250000
O O4 0.573089 0.865835 0.457252
O O5 0.379477 0.906581 0.685395
O O6 0.312508 0.924303 0.862419
O O7 0.463269 0.883354 0.823452
O O8 0.411300 0.706693 0.765582
O O9 0.452393 0.827572 0.553656
O O10 0.074408 0.106611 0.566253
O O11 0.000000 0.250000 0.509661
O O12 0.632167 0.500000 0.250000
O O13 0.592079 0.692520 0.302318
O O14 0.661436 0.676514 0.094190
O O15 0.133920 0.500000 0.250000
O O16 0.173112 0.697952 0.129058
O O17 0.000000 0.250000 0.842797
O O18 0.250000 0.792160 0.000000
#
# Coordination Sequence:
#
# PCOD9335746 Si02
#       8
#     8   4   8   8   8   8   8   8
#     4  12  24  38  62  96 139 189 230 277 327 404
#     4  10  22  44  70  96 130 172 222 282 348 418
#     4  11  23  40  63  93 132 181 228 275 331 396
#     4  12  21  39  59  88 136 186 227 267 334 387
#     4  12  24  43  64  94 135 180 218 288 351 405
#     4  11  22  46  69  94 135 184 225 281 347 407
#     4  12  25  37  58 100 137 178 239 268 316 405
#     4  11  25  47  76 101 131 171 225 295 369 424
#
# _framework density 19.724299999999999
#
# number of rings (size 3 to 8) (size 9 to 14) (size 15 to 20)
#    0.000    0.533    5.333    5.200    2.800    0.000 
#    0.000    2.000    0.000    0.000    0.000    0.000 
#    0.000    0.000    0.000    0.000    0.000    0.000 
#
# Total GULP energy -167747.716795 kJ/mol
# GULP energy per Si atom -5591.590560 kJ/mol
# Density = 1.967941 g / cm^3
# Si number density = 19.724300 Si / 1000 Ang^3
#
#
#
# Elastic Constant Matrix: (Units=GPa)
#
#
# Indices 1 2 3 4 5 6 
#
# 1 100.6777 28.1097 47.5644 0.0000 0.0000 0.0000
# 2 28.1097 109.2166 43.0599 0.0000 0.0000 0.0000
# 3 47.5644 43.0599 138.2229 0.0000 0.0000 0.0000
# 4 0.0000 0.0000 0.0000 22.7978 0.0000 0.0000
# 5 0.0000 0.0000 0.0000 0.0000 25.2516 0.0000
# 6 0.0000 0.0000 0.0000 0.0000 0.0000 18.7829
#
#
#
# Elastic Compliance Matrix: (Units=1/GPa)
#
#
# Indices 1 2 3 4 5 6 
#
# 1 0.012126 -0.001682 -0.003649 0.000000 0.000000 0.000000
# 2 -0.001682 0.010672 -0.002746 0.000000 0.000000 0.000000
# 3 -0.003649 -0.002746 0.009346 0.000000 0.000000 0.000000
# 4 0.000000 0.000000 0.000000 0.043864 0.000000 0.000000
# 5 0.000000 0.000000 0.000000 0.000000 0.039602 0.000000
# 6 0.000000 0.000000 0.000000 0.000000 0.000000 0.053240
#
#
# Mechanical properties :
#
#
# Convention : Reuss Voigt Hill
#
# Bulk Modulus (GPa) = 62.53884 65.06505 63.80195
# Shear Modulus (GPa) = 26.26987 28.65865 27.46426
#
# Velocity S-wave (km/s) = 3.65342 3.81591 3.73555
# Velocity P-wave (km/s) = 7.04073 7.24388 7.14303
#
# Compressibility (1/GPa) = 0.01599006
#
# Stress axis : x y z
#
# Youngs Moduli (GPa) = 82.46591 93.70671 107.00282
#
# Poissons Ratio (x) = 0.15766 0.39042
# Poissons Ratio (y) = 0.13875 0.29378
# Poissons Ratio (z) = 0.30089 0.25727
#
# Static dielectric constant tensor:
#      x y z
#    x 1.644560 0.000000 0.000000 
#    y 0.000000 1.776650 0.000000 
#    z 0.000000 0.000000 1.734940 
# 
# From -- ./inp_files/16453.got.cif
#   From: 2010.05.17/outbox.cif.g08.bks.cpg/sg24_9_cif.got.tgz:16453.got - 2010.06.04 00:33:39.
