data_PCOD9335108
_publ_section_title
;
Structure prediction by ZEFSAII (Michael W. Deem and Ramdas Pophale) SiO2 
 PCOD9335108
Probable space group: I 21 21 21
;
_chemical_formula_sum "Si O2"
_cell_formula_units_Z 56
_cell_length_a 14.803899
_cell_length_b 19.018084
_cell_length_c 9.361278
_cell_angle_alpha 90.000000
_cell_angle_beta 90.000000
_cell_angle_gamma 90.000000
_cell_volume 2635.591009
_symmetry_space_group_name_H-M "I 21 21 21"
_symmetry_group_IT_number 24
_symmetry_cell_setting 'orthorhombic'
loop_
_space_group_symop_operation_xyz
x,y,z
-x,1/2-y,z
x,-y,1/2-z
1/2-x,y,-z
1/2+x,1/2+y,1/2+z
1/2-x,-y,1/2+z
1/2+x,1/2-y,-z
-x,1/2+y,1/2-z
loop_
_atom_site_type_symbol
_atom_site_label
_atom_site_fract_x
_atom_site_fract_y
_atom_site_fract_z
Si Si1 0.653496 0.881842 0.948847
Si Si2 0.398332 0.762749 0.096070
Si Si3 0.071504 0.184474 0.302030
Si Si4 0.430958 0.422236 0.817149
Si Si5 0.036274 0.496713 0.920595
Si Si6 0.829732 0.535869 0.598648
Si Si7 0.765676 0.695073 0.653985
O O1 0.646110 0.885036 0.777528
O O2 0.750000 0.908343 0.000000
O O3 0.636883 0.804322 0.007415
O O4 0.577001 0.931438 0.017167
O O5 0.500000 0.750000 0.149143
O O6 0.332130 0.773762 0.227351
O O7 0.407391 0.822048 0.972003
O O8 0.166956 0.191618 0.224650
O O9 0.000000 0.250000 0.289968
O O10 0.019835 0.120597 0.226481
O O11 0.437822 0.500000 0.750000
O O12 0.417336 0.434622 0.985386
O O13 0.048874 0.500000 0.750000
O O14 0.930365 0.483340 0.951653
O O15 0.819806 0.500000 0.750000
O O16 0.750000 0.508010 0.500000
O O17 0.811103 0.619044 0.618103
O O18 0.750000 0.731026 0.500000
#
# Coordination Sequence:
#
# PCOD9335108 Si02
#       7
#     8   8   8   8   8   8   8
#     4  11  23  44  70  99 135 177 238 300 356 432
#     4  11  24  43  73 100 134 183 243 300 361 435
#     4  11  22  42  68 101 138 176 239 298 356 429
#     4  10  21  40  69  96 134 176 229 288 358 410
#     4  10  24  42  67  96 141 180 233 289 354 435
#     4  10  23  41  64  98 139 179 233 284 353 426
#     4  11  25  42  64 101 142 187 231 292 367 436
#
# _framework density 21.247606000000001
#
# number of rings (size 3 to 8) (size 9 to 14) (size 15 to 20)
#    0.000    1.429    2.857    3.000    4.000    8.000 
#    2.571    0.000    0.000    0.000    0.000    0.000 
#    0.000    0.000    0.000    0.000    0.000    0.000 
#
# Total GULP energy -156260.402894 kJ/mol
# GULP energy per Si atom -5580.728675 kJ/mol
# Density = 2.119925 g / cm^3
# Si number density = 21.247606 Si / 1000 Ang^3
#
#
#
# Elastic Constant Matrix: (Units=GPa)
#
#
# Indices 1 2 3 4 5 6 
#
# 1 129.0500 12.0772 54.9302 0.0000 0.0000 0.0000
# 2 12.0772 53.4614 21.3616 0.0000 0.0000 0.0000
# 3 54.9302 21.3616 140.7344 0.0000 0.0000 0.0000
# 4 0.0000 0.0000 0.0000 22.9462 0.0000 0.0000
# 5 0.0000 0.0000 0.0000 0.0000 -342.1423 0.0000
# 6 0.0000 0.0000 0.0000 0.0000 0.0000 18.7585
#
#
#
# Elastic Compliance Matrix: (Units=1/GPa)
#
#
# Indices 1 2 3 4 5 6 
#
# 1 0.009317 -0.000694 -0.003531 0.000000 0.000000 0.000000
# 2 -0.000694 0.019964 -0.002760 0.000000 0.000000 0.000000
# 3 -0.003531 -0.002760 0.008903 0.000000 0.000000 0.000000
# 4 0.000000 0.000000 0.000000 0.043580 0.000000 0.000000
# 5 0.000000 0.000000 0.000000 0.000000 -0.002923 0.000000
# 6 0.000000 0.000000 0.000000 0.000000 0.000000 0.053309
#
#
# Mechanical properties :
#
#
# Convention : Reuss Voigt Hill
#
# Bulk Modulus (GPa) = 41.29664 55.55375 48.42520
# Shear Modulus (GPa) = 32.42726 -44.42906 -6.00090
#
# Velocity S-wave (km/s) = 3.91085 -4.57772 -1.68238
# Velocity P-wave (km/s) = 6.31436 1.31836 4.36652
#
# Compressibility (1/GPa) = 0.02421504
#
# Stress axis : x y z
#
# Youngs Moduli (GPa) = 107.33166 50.08903 112.32535
#
# Poissons Ratio (x) = 0.03475 0.39664
# Poissons Ratio (y) = 0.07446 0.30997
# Poissons Ratio (z) = 0.37901 0.13822
#
# Static dielectric constant tensor:
#      x y z
#    x 1.796690 0.000000 0.000000 
#    y 0.000000 1.847050 0.000000 
#    z 0.000000 0.000000 1.802470 
# 
# From -- ./inp_files/13174.got.cif
#   From: 2010.05.17/outbox.cif.g08.bks.cpg/sg24_7_cif.got.tgz:13174.got - 2010.06.04 00:33:39.
