data_PCOD9335625
_publ_section_title
;
Structure prediction by ZEFSAII (Michael W. Deem and Ramdas Pophale) SiO2 
 PCOD9335625
Probable space group: I 21 21 21
;
_chemical_formula_sum "Si O2"
_cell_formula_units_Z 48
_cell_length_a 8.710101
_cell_length_b 18.849357
_cell_length_c 13.782031
_cell_angle_alpha 90.000000
_cell_angle_beta 90.000000
_cell_angle_gamma 90.000000
_cell_volume 2262.731138
_symmetry_space_group_name_H-M "I 21 21 21"
_symmetry_group_IT_number 24
_symmetry_cell_setting 'orthorhombic'
loop_
_space_group_symop_operation_xyz
x,y,z
-x,1/2-y,z
x,-y,1/2-z
1/2-x,y,-z
1/2+x,1/2+y,1/2+z
1/2-x,-y,1/2+z
1/2+x,1/2-y,-z
-x,1/2+y,1/2-z
loop_
_atom_site_type_symbol
_atom_site_label
_atom_site_fract_x
_atom_site_fract_y
_atom_site_fract_z
Si Si1 0.066374 0.329393 0.406022
Si Si2 0.876906 0.185636 0.705220
Si Si3 0.611977 0.452023 0.659939
Si Si4 0.566097 0.441220 0.005401
Si Si5 0.442766 0.916158 0.096454
Si Si6 0.872972 0.190991 0.922816
O O1 0.242967 0.316618 0.375312
O O2 0.000000 0.250000 0.407711
O O3 0.000215 0.385230 0.325979
O O4 0.012683 0.370737 0.505298
O O5 0.809486 0.182787 0.813681
O O6 0.000000 0.250000 0.691791
O O7 0.979621 0.116333 0.690112
O O8 0.662044 0.500000 0.750000
O O9 0.536888 0.511940 0.590823
O O10 0.759184 0.415543 0.608719
O O11 0.750000 0.424091 0.000000
O O12 0.529372 0.500800 0.085186
O O13 0.458127 0.376209 0.029348
O O14 0.000000 0.250000 0.910257
O O15 0.750000 0.215931 0.000000
#
# Coordination Sequence:
#
# PCOD9335625 Si02
#       6
#     8   8   8   8   8   8
#     4  11  23  43  70 102 142 181 229 293 346 419
#     4  11  25  41  65 103 135 179 231 280 354 418
#     4  10  23  41  69 105 138 183 230 282 345 430
#     4   9  21  41  66  93 125 174 220 269 344 397
#     4  10  22  42  67 102 137 179 216 281 357 415
#     4  11  26  45  64  88 128 177 229 290 338 404
#
# _framework density 21.213301999999999
#
# number of rings (size 3 to 8) (size 9 to 14) (size 15 to 20)
#    0.000    1.667    0.000    4.000    7.000    4.667 
#    0.000    0.000    0.000    0.000    0.000    0.000 
#    0.000    0.000    0.000    0.000    0.000    0.000 
#
# Total GULP energy -133668.110595 kJ/mol
# GULP energy per Si atom -5569.504608 kJ/mol
# Density = 2.116502 g / cm^3
# Si number density = 21.213302 Si / 1000 Ang^3
#
#
#
# Elastic Constant Matrix: (Units=GPa)
#
#
# Indices 1 2 3 4 5 6 
#
# 1 75.9400 20.9198 29.4713 0.0000 0.0000 0.0000
# 2 20.9198 46.5682 5.2524 0.0000 0.0000 0.0000
# 3 29.4713 5.2524 70.1899 0.0000 0.0000 0.0000
# 4 0.0000 0.0000 0.0000 24.9190 0.0000 0.0000
# 5 0.0000 0.0000 0.0000 0.0000 22.6643 0.0000
# 6 0.0000 0.0000 0.0000 0.0000 0.0000 30.4406
#
#
#
# Elastic Compliance Matrix: (Units=1/GPa)
#
#
# Indices 1 2 3 4 5 6 
#
# 1 0.017863 -0.007240 -0.006959 0.000000 0.000000 0.000000
# 2 -0.007240 0.024591 0.001200 0.000000 0.000000 0.000000
# 3 -0.006959 0.001200 0.017079 0.000000 0.000000 0.000000
# 4 0.000000 0.000000 0.000000 0.040130 0.000000 0.000000
# 5 0.000000 0.000000 0.000000 0.000000 0.044122 0.000000
# 6 0.000000 0.000000 0.000000 0.000000 0.000000 0.032851
#
#
# Mechanical properties :
#
#
# Convention : Reuss Voigt Hill
#
# Bulk Modulus (GPa) = 29.81902 33.77613 31.79758
# Shear Modulus (GPa) = 23.38498 24.74177 24.06337
#
# Velocity S-wave (km/s) = 3.32380 3.41887 3.37167
# Velocity P-wave (km/s) = 5.36819 5.61619 5.49359
#
# Compressibility (1/GPa) = 0.03353564
#
# Stress axis : x y z
#
# Youngs Moduli (GPa) = 55.98083 40.66546 58.55119
#
# Poissons Ratio (x) = 0.29441 0.40744
# Poissons Ratio (y) = 0.40529 -0.07024
# Poissons Ratio (z) = 0.38955 -0.04879
#
# Static dielectric constant tensor:
#      x y z
#    x 1.797350 0.000000 0.000000 
#    y 0.000000 1.748140 0.000000 
#    z 0.000000 0.000000 1.877280 
# 
# From -- ./inp_files/24813.got.cif
#   From: 2010.05.17/outbox.cif.g08.bks.cpg/sg24_13_cif.got.tgz:24813.got - 2010.06.04 00:33:39.
