data_PCOD9335280
_publ_section_title
;
Structure prediction by ZEFSAII (Michael W. Deem and Ramdas Pophale) SiO2 
 PCOD9335280
Probable space group: I 21 21 21
;
_chemical_formula_sum "Si O2"
_cell_formula_units_Z 44
_cell_length_a 16.619352
_cell_length_b 14.012737
_cell_length_c 8.984718
_cell_angle_alpha 90.000000
_cell_angle_beta 90.000000
_cell_angle_gamma 90.000000
_cell_volume 2092.384566
_symmetry_space_group_name_H-M "I 21 21 21"
_symmetry_group_IT_number 24
_symmetry_cell_setting 'orthorhombic'
loop_
_space_group_symop_operation_xyz
x,y,z
-x,1/2-y,z
x,-y,1/2-z
1/2-x,y,-z
1/2+x,1/2+y,1/2+z
1/2-x,-y,1/2+z
1/2+x,1/2-y,-z
-x,1/2+y,1/2-z
loop_
_atom_site_type_symbol
_atom_site_label
_atom_site_fract_x
_atom_site_fract_y
_atom_site_fract_z
Si Si1 0.041816 0.393841 0.506849
Si Si2 0.703612 0.904945 0.653395
Si Si3 0.078268 0.895434 0.265272
Si Si4 0.685949 0.763477 0.885855
Si Si5 0.000000 0.250000 0.736685
Si Si6 0.954089 0.886470 0.515076
O O1 0.123122 0.333903 0.473136
O O2 0.055678 0.502114 0.560901
O O3 0.995936 0.400665 0.350556
O O4 0.983833 0.335604 0.619401
O O5 0.750000 0.919906 0.500000
O O6 0.735461 0.825662 0.765754
O O7 0.615729 0.870786 0.603748
O O8 0.697997 0.000000 0.750000
O O9 0.135956 0.814403 0.204206
O O10 0.039043 0.877124 0.427287
O O11 0.117153 0.000000 0.250000
O O12 0.750000 0.721341 0.000000
O O13 0.945902 0.189136 0.852183
#
# Coordination Sequence:
#
# PCOD9335280 Si02
#       6
#     8   8   8   8   4   8
#     4  11  22  41  67  97 131 173 228 283 340 406
#     4  12  25  40  62  96 138 180 217 271 351 434
#     4  10  21  45  73  89 121 185 240 272 329 418
#     4  12  24  42  68  97 137 180 219 285 364 421
#     4  12  24  34  64  98 136 164 218 294 320 396
#     4  11  23  41  66  97 132 179 229 280 338 416
#
# _framework density 21.028638999999998
#
# number of rings (size 3 to 8) (size 9 to 14) (size 15 to 20)
#    0.000    0.727    5.455    2.727    2.545    0.000 
#    0.000    0.909    4.000    0.000    0.000    0.000 
#    0.000    0.000    0.000    0.000    0.000    0.000 
#
# Total GULP energy -122727.710098 kJ/mol
# GULP energy per Si atom -5578.532277 kJ/mol
# Density = 2.098078 g / cm^3
# Si number density = 21.028639 Si / 1000 Ang^3
#
#
#
# Elastic Constant Matrix: (Units=GPa)
#
#
# Indices 1 2 3 4 5 6 
#
# 1 39.9796 36.8882 17.0316 0.0000 0.0000 0.0000
# 2 36.8882 112.2809 45.4907 0.0000 0.0000 0.0000
# 3 17.0316 45.4907 103.6328 0.0000 0.0000 0.0000
# 4 0.0000 0.0000 0.0000 35.3625 0.0000 0.0000
# 5 0.0000 0.0000 0.0000 0.0000 29.7110 0.0000
# 6 0.0000 0.0000 0.0000 0.0000 0.0000 4.4229
#
#
#
# Elastic Compliance Matrix: (Units=1/GPa)
#
#
# Indices 1 2 3 4 5 6 
#
# 1 0.035959 -0.011457 -0.000880 0.000000 0.000000 0.000000
# 2 -0.011457 0.014483 -0.004475 0.000000 0.000000 0.000000
# 3 -0.000880 -0.004475 0.011758 0.000000 0.000000 0.000000
# 4 0.000000 0.000000 0.000000 0.028279 0.000000 0.000000
# 5 0.000000 0.000000 0.000000 0.000000 0.033658 0.000000
# 6 0.000000 0.000000 0.000000 0.000000 0.000000 0.226094
#
#
# Mechanical properties :
#
#
# Convention : Reuss Voigt Hill
#
# Bulk Modulus (GPa) = 34.99418 50.52381 42.75899
# Shear Modulus (GPa) = 12.71032 24.33146 18.52089
#
# Velocity S-wave (km/s) = 2.46118 3.40525 2.97096
# Velocity P-wave (km/s) = 4.97533 6.28803 5.66980
#
# Compressibility (1/GPa) = 0.02857618
#
# Stress axis : x y z
#
# Youngs Moduli (GPa) = 27.80940 69.04555 85.04592
#
# Poissons Ratio (x) = 0.79106 0.07488
# Poissons Ratio (y) = 0.31861 0.38055
# Poissons Ratio (z) = 0.02449 0.30895
#
# Static dielectric constant tensor:
#      x y z
#    x 1.770720 0.000000 0.000000 
#    y 0.000000 1.798690 0.000000 
#    z 0.000000 0.000000 1.766110 
# 
# From -- ./inp_files/14076.got.cif
#   From: 2010.05.17/outbox.cif.g08.bks.cpg/sg24_8_cif.got.tgz:14076.got - 2010.06.04 00:33:39.
