data_PCOD9335801
_publ_section_title
;
Structure prediction by ZEFSAII (Michael W. Deem and Ramdas Pophale) SiO2 
 PCOD9335801
Probable space group: I 21 21 21
;
_chemical_formula_sum "Si O2"
_cell_formula_units_Z 52
_cell_length_a 9.024500
_cell_length_b 11.012940
_cell_length_c 28.157556
_cell_angle_alpha 90.000000
_cell_angle_beta 90.000000
_cell_angle_gamma 90.000000
_cell_volume 2798.474661
_symmetry_space_group_name_H-M "I 21 21 21"
_symmetry_group_IT_number 24
_symmetry_cell_setting 'orthorhombic'
loop_
_space_group_symop_operation_xyz
x,y,z
-x,1/2-y,z
x,-y,1/2-z
1/2-x,y,-z
1/2+x,1/2+y,1/2+z
1/2-x,-y,1/2+z
1/2+x,1/2-y,-z
-x,1/2+y,1/2-z
loop_
_atom_site_type_symbol
_atom_site_label
_atom_site_fract_x
_atom_site_fract_y
_atom_site_fract_z
Si Si1 0.500000 0.750000 0.353016
Si Si2 0.000000 0.250000 0.471429
Si Si3 0.287720 0.036820 0.553984
Si Si4 0.302864 0.038697 0.195518
Si Si5 0.750000 0.936983 0.000000
Si Si6 0.537739 0.387437 0.377352
Si Si7 0.717508 0.058204 0.102315
Si Si8 0.538239 0.609017 0.630083
O O1 0.412525 0.850235 0.320969
O O2 0.624316 0.818657 0.385523
O O3 0.887961 0.340641 0.444057
O O4 0.891493 0.154680 0.498143
O O5 0.250000 0.006597 0.500000
O O6 0.132491 0.061965 0.579031
O O7 0.372196 0.933637 0.583307
O O8 0.142337 0.073135 0.174085
O O9 0.300734 0.000000 0.250000
O O10 0.362796 0.921295 0.167476
O O11 0.760544 0.021035 0.953024
O O12 0.500000 0.250000 0.383568
O O13 0.384905 0.456998 0.374698
O O14 0.876582 0.051023 0.126920
O O15 0.500000 0.750000 0.629614
#
# Coordination Sequence:
#
# PCOD9335801 Si02
#       8
#     4   4   8   8   4   8   8   8
#     4  10  22  46  70  93 134 164 213 278 318 390
#     4  12  22  36  58  87 130 178 221 276 310 364
#     4  11  23  38  59  92 132 178 219 261 318 377
#     4  10  23  44  72  96 125 166 212 266 337 390
#     4  12  24  38  60  96 130 186 226 254 318 384
#     4  10  23  40  62  95 132 164 215 266 319 387
#     4  11  23  42  64  95 130 178 218 260 325 374
#     4  11  23  46  64  91 134 170 218 273 317 383
#
# _framework density 18.581553
#
# number of rings (size 3 to 8) (size 9 to 14) (size 15 to 20)
#    0.000    1.231    3.846    1.846    3.231    0.000 
#    2.769    4.615    0.000    0.000    0.000    0.000 
#    0.000    0.000    0.000    0.000    0.000    0.000 
#
# Total GULP energy -145038.071119 kJ/mol
# GULP energy per Si atom -5578.387351 kJ/mol
# Density = 1.853926 g / cm^3
# Si number density = 18.581553 Si / 1000 Ang^3
#
#
#
# Elastic Constant Matrix: (Units=GPa)
#
#
# Indices 1 2 3 4 5 6 
#
# 1 153.6920 48.3385 56.0744 0.0000 0.0000 0.0000
# 2 48.3385 30.3465 39.7741 0.0000 0.0000 0.0000
# 3 56.0744 39.7741 144.5362 0.0000 0.0000 0.0000
# 4 0.0000 0.0000 0.0000 35.5767 0.0000 0.0000
# 5 0.0000 0.0000 0.0000 0.0000 7.2194 0.0000
# 6 0.0000 0.0000 0.0000 0.0000 0.0000 40.8496
#
#
#
# Elastic Compliance Matrix: (Units=1/GPa)
#
#
# Indices 1 2 3 4 5 6 
#
# 1 0.013137 -0.022282 0.001035 0.000000 0.000000 0.000000
# 2 -0.022282 0.089337 -0.015940 0.000000 0.000000 0.000000
# 3 0.001035 -0.015940 0.010903 0.000000 0.000000 0.000000
# 4 0.000000 0.000000 0.000000 0.028108 0.000000 0.000000
# 5 0.000000 0.000000 0.000000 0.000000 0.138516 0.000000
# 6 0.000000 0.000000 0.000000 0.000000 0.000000 0.024480
#
#
# Mechanical properties :
#
#
# Convention : Reuss Voigt Hill
#
# Bulk Modulus (GPa) = 25.63833 68.54985 47.09409
# Shear Modulus (GPa) = 12.75975 29.02165 20.89070
#
# Velocity S-wave (km/s) = 2.62332 3.95632 3.35665
# Velocity P-wave (km/s) = 4.79619 7.60535 6.35786
#
# Compressibility (1/GPa) = 0.03900410
#
# Stress axis : x y z
#
# Youngs Moduli (GPa) = 76.12077 11.19353 91.71451
#
# Poissons Ratio (x) = 0.24942 -0.09494
# Poissons Ratio (y) = 1.69616 1.46189
# Poissons Ratio (z) = -0.07879 0.17842
#
# Static dielectric constant tensor:
#      x y z
#    x 1.649990 0.000000 0.000000 
#    y 0.000000 1.542730 0.000000 
#    z 0.000000 0.000000 1.653740 
# 
# From -- ./inp_files/38372.got.cif
#   From: 2010.05.17/outbox.cif.g08.bks.cpg/sg24_20_cif.got.tgz:38372.got - 2010.06.04 00:33:39.
