data_PCOD9335644
_publ_section_title
;
Structure prediction by ZEFSAII (Michael W. Deem and Ramdas Pophale) SiO2 
 PCOD9335644
Probable space group: I 21 21 21
;
_chemical_formula_sum "Si O2"
_cell_formula_units_Z 24
_cell_length_a 5.072627
_cell_length_b 22.103904
_cell_length_c 9.233986
_cell_angle_alpha 90.000000
_cell_angle_beta 90.000000
_cell_angle_gamma 90.000000
_cell_volume 1035.359390
_symmetry_space_group_name_H-M "I 21 21 21"
_symmetry_group_IT_number 24
_symmetry_cell_setting 'orthorhombic'
loop_
_space_group_symop_operation_xyz
x,y,z
-x,1/2-y,z
x,-y,1/2-z
1/2-x,y,-z
1/2+x,1/2+y,1/2+z
1/2-x,-y,1/2+z
1/2+x,1/2-y,-z
-x,1/2+y,1/2-z
loop_
_atom_site_type_symbol
_atom_site_label
_atom_site_fract_x
_atom_site_fract_y
_atom_site_fract_z
Si Si1 0.250000 0.961932 0.000000
Si Si2 0.643738 0.875953 0.159136
Si Si3 0.503529 0.581033 0.593594
Si Si4 0.000000 0.250000 0.605993
O O1 0.084573 0.924933 0.878069
O O2 0.057699 0.009065 0.082248
O O3 0.892776 0.896912 0.253075
O O4 0.535427 0.810259 0.202420
O O5 0.750000 0.863781 0.000000
O O6 0.250000 0.594680 0.500000
O O7 0.750000 0.606836 0.500000
O O8 0.250000 0.238190 0.500000
#
# Coordination Sequence:
#
# PCOD9335644 Si02
#       4
#     4   8   8   4
#     4  10  24  42  72 114 156 208 254 322 402 470
#     4  11  24  43  74 111 156 203 260 323 387 470
#     4  10  26  45  65 108 156 201 250 317 401 469
#     4  10  22  42  70 114 146 196 262 324 382 448
#
# _framework density 23.180357999999998
#
# number of rings (size 3 to 8) (size 9 to 14) (size 15 to 20)
#    1.000    0.667    1.667    1.000    4.667    8.000 
#    0.000    0.000    0.000   10.000    0.000    2.333 
#    0.000    0.000    0.000    0.000    0.000    0.000 
#
# Total GULP energy -66863.095774 kJ/mol
# GULP energy per Si atom -5571.924648 kJ/mol
# Density = 2.312760 g / cm^3
# Si number density = 23.180358 Si / 1000 Ang^3
#
#
#
# Elastic Constant Matrix: (Units=GPa)
#
#
# Indices 1 2 3 4 5 6 
#
# 1 188.8540 59.6134 52.4061 0.0000 0.0000 0.0000
# 2 59.6134 131.3173 61.8751 0.0000 0.0000 0.0000
# 3 52.4061 61.8751 108.4318 0.0000 0.0000 0.0001
# 4 0.0000 0.0000 0.0000 -17.4885 0.0000 0.0001
# 5 0.0000 0.0000 0.0000 0.0000 52.9992 0.0000
# 6 0.0000 0.0000 0.0001 0.0001 0.0000 10.1707
#
#
#
# Elastic Compliance Matrix: (Units=1/GPa)
#
#
# Indices 1 2 3 4 5 6 
#
# 1 0.006480 -0.002005 -0.001987 0.000000 0.000000 0.000000
# 2 -0.002005 0.011036 -0.005329 0.000000 0.000000 0.000000
# 3 -0.001987 -0.005329 0.013224 0.000000 0.000000 0.000000
# 4 0.000000 0.000000 0.000000 -0.057181 0.000000 0.000001
# 5 0.000000 0.000000 0.000000 0.000000 0.018868 0.000000
# 6 0.000000 0.000000 0.000000 0.000001 0.000000 0.098321
#
#
# Mechanical properties :
#
#
# Convention : Reuss Voigt Hill
#
# Bulk Modulus (GPa) = 82.66409 86.26580 84.46495
# Shear Modulus (GPa) = 44.08288 26.11685 35.09987
#
# Velocity S-wave (km/s) = 4.36562 3.36025 3.89550
# Velocity P-wave (km/s) = 7.81986 7.23539 7.53329
#
# Compressibility (1/GPa) = 0.01209715
#
# Stress axis : x y z
#
# Youngs Moduli (GPa) = 154.33272 90.61183 75.62227
#
# Poissons Ratio (x) = 0.18168 0.15030
# Poissons Ratio (y) = 0.30944 0.40296
# Poissons Ratio (z) = 0.30673 0.48283
#
# Static dielectric constant tensor:
#      x y z
#    x 4.029620 0.000000 0.000000 
#    y 0.000000 1.971190 0.000000 
#    z 0.000000 0.000000 1.793670 
# 
# From -- ./inp_files/858.got.cif
#   From: 2010.05.17/outbox.cif.g08.bks.cpg/sg24_1_cif.got.tgz:858.got - 2010.06.04 00:33:39.
