data_PCOD9335490
_publ_section_title
;
Structure prediction by ZEFSAII (Michael W. Deem and Ramdas Pophale) SiO2 
 PCOD9335490
Probable space group: I 21 21 21
;
_chemical_formula_sum "Si O2"
_cell_formula_units_Z 60
_cell_length_a 9.423720
_cell_length_b 16.612070
_cell_length_c 21.124969
_cell_angle_alpha 90.000000
_cell_angle_beta 90.000000
_cell_angle_gamma 90.000000
_cell_volume 3307.061006
_symmetry_space_group_name_H-M "I 21 21 21"
_symmetry_group_IT_number 24
_symmetry_cell_setting 'orthorhombic'
loop_
_space_group_symop_operation_xyz
x,y,z
-x,1/2-y,z
x,-y,1/2-z
1/2-x,y,-z
1/2+x,1/2+y,1/2+z
1/2-x,-y,1/2+z
1/2+x,1/2-y,-z
-x,1/2+y,1/2-z
loop_
_atom_site_type_symbol
_atom_site_label
_atom_site_fract_x
_atom_site_fract_y
_atom_site_fract_z
Si Si1 0.669843 0.481194 0.819889
Si Si2 0.221480 0.751372 0.177634
Si Si3 0.155285 0.210480 0.180414
Si Si4 0.014342 0.619750 0.136097
Si Si5 0.145716 0.980951 0.557847
Si Si6 0.418051 0.402535 0.490441
Si Si7 0.500000 0.750000 0.095594
Si Si8 0.154596 0.788033 0.559961
O O1 0.726790 0.500000 0.750000
O O2 0.638507 0.386314 0.822645
O O3 0.531208 0.536261 0.831470
O O4 0.779947 0.503003 0.875743
O O5 0.224188 0.763978 0.252871
O O6 0.109325 0.817079 0.152620
O O7 0.366586 0.766117 0.140969
O O8 0.156594 0.663516 0.160929
O O9 0.257373 0.233604 0.122728
O O10 0.000000 0.250000 0.176008
O O11 0.022544 0.607725 0.061248
O O12 0.250000 0.004527 0.500000
O O13 0.134874 0.884572 0.557452
O O14 0.997215 0.023938 0.544128
O O15 0.250000 0.412569 0.500000
O O16 0.456632 0.324046 0.449422
O O17 0.250000 0.764008 0.500000
O O18 0.000000 0.750000 0.558564
#
# Coordination Sequence:
#
# PCOD9335490 Si02
#       8
#     8   8   8   8   8   8   4   8
#     4  11  20  37  66  92 119 166 216 253 314 375
#     4  11  22  39  61  91 130 162 212 254 310 369
#     4  11  22  40  65  93 123 166 210 261 319 378
#     4  11  21  40  64  88 123 166 211 257 299 383
#     4  10  22  40  64  90 119 159 208 258 310 375
#     4  12  25  40  61  93 133 166 210 255 316 367
#     4  12  26  36  60  96 128 176 206 254 310 380
#     4  10  23  43  64  91 120 159 211 265 323 382
#
# _framework density 18.142997999999999
#
# number of rings (size 3 to 8) (size 9 to 14) (size 15 to 20)
#    0.000    1.067    5.333    2.000    0.933    0.533 
#    2.400    0.000    0.000    0.000    3.467    0.000 
#    0.000    0.000    0.000    0.000    0.000    0.000 
#
# Total GULP energy -167546.381702 kJ/mol
# GULP energy per Si atom -5584.879390 kJ/mol
# Density = 1.810170 g / cm^3
# Si number density = 18.142998 Si / 1000 Ang^3
#
#
#
# Elastic Constant Matrix: (Units=GPa)
#
#
# Indices 1 2 3 4 5 6 
#
# 1 110.0283 31.6052 65.5921 0.0000 0.0000 0.0000
# 2 31.6052 52.3511 40.6512 0.0000 0.0000 0.0000
# 3 65.5921 40.6512 177.7177 0.0000 0.0000 0.0000
# 4 0.0000 0.0000 0.0000 28.5240 0.0000 0.0000
# 5 0.0000 0.0000 0.0000 0.0000 25.2677 0.0000
# 6 0.0000 0.0000 0.0000 0.0000 0.0000 30.9300
#
#
#
# Elastic Compliance Matrix: (Units=1/GPa)
#
#
# Indices 1 2 3 4 5 6 
#
# 1 0.012592 -0.004856 -0.003537 0.000000 0.000000 0.000000
# 2 -0.004856 0.025100 -0.003949 0.000000 0.000000 0.000000
# 3 -0.003537 -0.003949 0.007836 0.000000 0.000000 0.000000
# 4 0.000000 0.000000 0.000000 0.035058 0.000000 0.000000
# 5 0.000000 0.000000 0.000000 0.000000 0.039576 0.000000
# 6 0.000000 0.000000 0.000000 0.000000 0.000000 0.032331
#
#
# Mechanical properties :
#
#
# Convention : Reuss Voigt Hill
#
# Bulk Modulus (GPa) = 47.97520 68.42157 58.19839
# Shear Modulus (GPa) = 27.15571 30.42759 28.79165
#
# Velocity S-wave (km/s) = 3.87300 4.09968 3.98795
# Velocity P-wave (km/s) = 6.81912 7.75913 7.30426
#
# Compressibility (1/GPa) = 0.02084410
#
# Stress axis : x y z
#
# Youngs Moduli (GPa) = 79.41775 39.84101 127.62304
#
# Poissons Ratio (x) = 0.19345 0.45136
# Poissons Ratio (y) = 0.38561 0.50402
# Poissons Ratio (z) = 0.28088 0.15734
#
# Static dielectric constant tensor:
#      x y z
#    x 1.693410 0.000000 0.000000 
#    y 0.000000 1.627660 0.000000 
#    z 0.000000 0.000000 1.623420 
# 
# From -- ./inp_files/29701.got.cif
#   From: 2010.05.17/outbox.cif.g08.bks.cpg/sg24_15_cif.got.tgz:29701.got - 2010.06.04 00:33:39.
