data_PCOD9335006
_publ_section_title
;
Structure prediction by ZEFSAII (Michael W. Deem and Ramdas Pophale) SiO2 
 PCOD9335006
Probable space group: I 21 21 21
;
_chemical_formula_sum "Si O2"
_cell_formula_units_Z 40
_cell_length_a 9.914332
_cell_length_b 21.731116
_cell_length_c 8.247918
_cell_angle_alpha 90.000000
_cell_angle_beta 90.000000
_cell_angle_gamma 90.000000
_cell_volume 1777.009799
_symmetry_space_group_name_H-M "I 21 21 21"
_symmetry_group_IT_number 24
_symmetry_cell_setting 'orthorhombic'
loop_
_space_group_symop_operation_xyz
x,y,z
-x,1/2-y,z
x,-y,1/2-z
1/2-x,y,-z
1/2+x,1/2+y,1/2+z
1/2-x,-y,1/2+z
1/2+x,1/2-y,-z
-x,1/2+y,1/2-z
loop_
_atom_site_type_symbol
_atom_site_label
_atom_site_fract_x
_atom_site_fract_y
_atom_site_fract_z
Si Si1 0.007026 0.880964 0.022852
Si Si2 0.905543 0.990366 0.553878
Si Si3 0.218747 0.306316 0.282224
Si Si4 0.978771 0.135080 0.851882
Si Si5 0.000000 0.250000 0.046198
Si Si6 0.750000 0.699046 0.000000
O O1 0.031394 0.874733 0.829292
O O2 0.978762 0.953533 0.038927
O O3 0.876177 0.845906 0.095083
O O4 0.137365 0.843705 0.083331
O O5 0.750000 0.988784 0.500000
O O6 0.978703 0.924938 0.535600
O O7 0.906824 0.000000 0.750000
O O8 0.322545 0.349080 0.188016
O O9 0.117818 0.275573 0.157143
O O10 0.298147 0.249930 0.368208
O O11 0.044731 0.192942 0.937060
#
# Coordination Sequence:
#
# PCOD9335006 Si02
#       6
#     8   8   8   8   4   4
#     4  11  22  40  66  90 122 171 219 256 316 391
#     4  10  21  39  65  92 122 163 211 265 322 376
#     4  12  22  40  66  97 122 168 220 261 318 388
#     4  11  23  40  65  93 132 162 203 279 328 372
#     4  12  24  36  60 100 130 156 200 266 342 380
#     4  12  22  38  66  88 122 164 222 258 304 382
#
# _framework density 22.509725
#
# number of rings (size 3 to 8) (size 9 to 14) (size 15 to 20)
#    0.000    0.800    4.000    5.400    0.000    0.000 
#    0.000    0.000   17.600    0.000    0.000    0.000 
#    0.000    0.000    0.000    0.000    0.000    0.000 
#
# Total GULP energy -111691.627421 kJ/mol
# GULP energy per Si atom -5584.581371 kJ/mol
# Density = 2.245849 g / cm^3
# Si number density = 22.509725 Si / 1000 Ang^3
#
#
#
# Elastic Constant Matrix: (Units=GPa)
#
#
# Indices 1 2 3 4 5 6 
#
# 1 35.8086 16.7774 -9.1186 0.0000 0.0001 0.0000
# 2 16.7774 186.6500 31.1707 0.0001 0.0000 0.0000
# 3 -9.1186 31.1707 36.7854 0.0002 0.0001 -0.0001
# 4 0.0000 0.0001 0.0002 35.0304 0.0000 0.0000
# 5 0.0001 0.0000 0.0001 0.0000 34.7791 0.0000
# 6 0.0000 0.0000 -0.0001 0.0000 0.0000 34.4100
#
#
#
# Elastic Compliance Matrix: (Units=1/GPa)
#
#
# Indices 1 2 3 4 5 6 
#
# 1 0.033556 -0.005132 0.012666 0.000000 0.000000 0.000000
# 2 -0.005132 0.007025 -0.007225 0.000000 0.000000 0.000000
# 3 0.012666 -0.007225 0.036447 0.000000 0.000000 0.000000
# 4 0.000000 0.000000 0.000000 0.028547 0.000000 0.000000
# 5 0.000000 0.000000 0.000000 0.000000 0.028753 0.000000
# 6 0.000000 0.000000 0.000000 0.000000 0.000000 0.029061
#
#
# Mechanical properties :
#
#
# Convention : Reuss Voigt Hill
#
# Bulk Modulus (GPa) = 12.87871 37.43368 25.15619
# Shear Modulus (GPa) = 26.50375 35.53820 31.02098
#
# Velocity S-wave (km/s) = 3.43510 3.97771 3.71632
# Velocity P-wave (km/s) = 4.63325 6.14511 5.44194
#
# Compressibility (1/GPa) = 0.07764753
#
# Stress axis : x y z
#
# Youngs Moduli (GPa) = 29.80098 142.33869 27.43716
#
# Poissons Ratio (x) = 0.73042 -0.34753
# Poissons Ratio (y) = 0.15292 0.19824
# Poissons Ratio (z) = -0.37747 1.02843
#
# Static dielectric constant tensor:
#      x y z
#    x 1.835290 0.000000 0.000000 
#    y 0.000000 1.868810 0.000000 
#    z 0.000000 0.000000 1.912220 
# 
# From -- ./inp_files/10776.got.cif
#   From: 2010.05.17/outbox.cif.g08.bks.cpg/sg24_6_cif.got.tgz:10776.got - 2010.06.04 00:33:39.
