data_PCOD9335245
_publ_section_title
;
Structure prediction by ZEFSAII (Michael W. Deem and Ramdas Pophale) SiO2 
 PCOD9335245
Probable space group: I 21 21 21
;
_chemical_formula_sum "Si O2"
_cell_formula_units_Z 40
_cell_length_a 15.772267
_cell_length_b 8.943355
_cell_length_c 11.002592
_cell_angle_alpha 90.000000
_cell_angle_beta 90.000000
_cell_angle_gamma 90.000000
_cell_volume 1551.992432
_symmetry_space_group_name_H-M "I 21 21 21"
_symmetry_group_IT_number 24
_symmetry_cell_setting 'orthorhombic'
loop_
_space_group_symop_operation_xyz
x,y,z
-x,1/2-y,z
x,-y,1/2-z
1/2-x,y,-z
1/2+x,1/2+y,1/2+z
1/2-x,-y,1/2+z
1/2+x,1/2-y,-z
-x,1/2+y,1/2-z
loop_
_atom_site_type_symbol
_atom_site_label
_atom_site_fract_x
_atom_site_fract_y
_atom_site_fract_z
Si Si1 0.371271 0.822536 0.236749
Si Si2 0.848297 0.202399 0.991357
Si Si3 0.197305 0.812603 0.121349
Si Si4 0.415173 0.387023 0.492102
Si Si5 0.563902 0.447736 0.882152
O O1 0.391386 0.755120 0.366543
O O2 0.268990 0.803977 0.221839
O O3 0.409699 0.722793 0.125586
O O4 0.390229 0.000000 0.250000
O O5 0.851162 0.024552 0.983271
O O6 0.750000 0.248115 0.000000
O O7 0.908797 0.276392 0.094109
O O8 0.155794 0.973475 0.108838
O O9 0.250000 0.781846 0.000000
O O10 0.116975 0.703843 0.110517
O O11 0.503426 0.471205 0.519911
O O12 0.532272 0.500000 0.750000
#
# Coordination Sequence:
#
# PCOD9335245 Si02
#       5
#     8   8   8   8   8
#     4  11  23  45  73 102 141 192 250 308 369 449
#     4  12  24  44  74 108 145 193 251 311 378 447
#     4  10  21  43  70  99 135 185 247 304 368 444
#     4  11  26  44  67 107 151 192 242 309 382 445
#     4  12  26  46  72 106 149 198 249 306 376 455
#
# _framework density 25.773320999999999
#
# number of rings (size 3 to 8) (size 9 to 14) (size 15 to 20)
#    0.000    0.800    0.000    9.600    0.000    4.800 
#    0.000   18.000    0.000    0.000    0.000    0.000 
#    0.000    0.000    0.000    0.000    0.000    0.000 
#
# Total GULP energy -111759.800139 kJ/mol
# GULP energy per Si atom -5587.990007 kJ/mol
# Density = 2.571466 g / cm^3
# Si number density = 25.773321 Si / 1000 Ang^3
#
#
#
# Elastic Constant Matrix: (Units=GPa)
#
#
# Indices 1 2 3 4 5 6 
#
# 1 120.9970 12.6188 29.8576 0.0000 0.0000 0.0000
# 2 12.6188 153.7311 57.2754 0.0000 0.0000 0.0000
# 3 29.8576 57.2754 135.4076 0.0000 0.0000 0.0000
# 4 0.0000 0.0000 0.0000 27.6313 0.0000 0.0000
# 5 0.0000 0.0000 0.0000 0.0000 13.6142 0.0000
# 6 0.0000 0.0000 0.0000 0.0000 0.0000 46.9106
#
#
#
# Elastic Compliance Matrix: (Units=1/GPa)
#
#
# Indices 1 2 3 4 5 6 
#
# 1 0.008740 0.000001 -0.001928 0.000000 0.000000 0.000000
# 2 0.000001 0.007722 -0.003266 0.000000 0.000000 0.000000
# 3 -0.001928 -0.003266 0.009192 0.000000 0.000000 0.000000
# 4 0.000000 0.000000 0.000000 0.036191 0.000000 0.000000
# 5 0.000000 0.000000 0.000000 0.000000 0.073453 0.000000
# 6 0.000000 0.000000 0.000000 0.000000 0.000000 0.021317
#
#
# Mechanical properties :
#
#
# Convention : Reuss Voigt Hill
#
# Bulk Modulus (GPa) = 65.49905 67.73770 66.61838
# Shear Modulus (GPa) = 29.05456 38.32347 33.68901
#
# Velocity S-wave (km/s) = 3.36119 3.86027 3.61934
# Velocity P-wave (km/s) = 6.36648 6.79765 6.58560
#
# Compressibility (1/GPa) = 0.01526740
#
# Stress axis : x y z
#
# Youngs Moduli (GPa) = 114.41333 129.50446 108.79323
#
# Poissons Ratio (x) = -0.00009 0.20970
# Poissons Ratio (y) = -0.00008 0.35536
# Poissons Ratio (z) = 0.22054 0.42301
#
# Static dielectric constant tensor:
#      x y z
#    x 2.106560 0.000000 0.000000 
#    y 0.000000 2.141080 0.000000 
#    z 0.000000 0.000000 2.052960 
# 
# From -- ./inp_files/21360.got.cif
#   From: 2010.05.17/outbox.cif.g08.bks.cpg/sg24_11_cif.got.tgz:21360.got - 2010.06.04 00:33:39.
