data_PCOD9335659
_publ_section_title
;
Structure prediction by ZEFSAII (Michael W. Deem and Ramdas Pophale) SiO2 
 PCOD9335659
Probable space group: I 21 21 21
;
_chemical_formula_sum "Si O2"
_cell_formula_units_Z 32
_cell_length_a 17.071039
_cell_length_b 14.681291
_cell_length_c 5.041551
_cell_angle_alpha 90.000000
_cell_angle_beta 90.000000
_cell_angle_gamma 90.000000
_cell_volume 1263.538171
_symmetry_space_group_name_H-M "I 21 21 21"
_symmetry_group_IT_number 24
_symmetry_cell_setting 'orthorhombic'
loop_
_space_group_symop_operation_xyz
x,y,z
-x,1/2-y,z
x,-y,1/2-z
1/2-x,y,-z
1/2+x,1/2+y,1/2+z
1/2-x,-y,1/2+z
1/2+x,1/2-y,-z
-x,1/2+y,1/2-z
loop_
_atom_site_type_symbol
_atom_site_label
_atom_site_fract_x
_atom_site_fract_y
_atom_site_fract_z
Si Si1 0.424192 0.806924 0.883310
Si Si2 0.168414 0.323893 0.008559
Si Si3 0.198143 0.135607 0.748672
Si Si4 0.015915 0.436781 0.999042
O O1 0.500000 0.750000 0.976368
O O2 0.362814 0.732848 0.765990
O O3 0.451545 0.868912 0.632494
O O4 0.387278 0.872480 0.106099
O O5 0.190756 0.242250 0.812256
O O6 0.250000 0.379331 0.000000
O O7 0.092806 0.379393 0.923270
O O8 0.250000 0.111332 0.500000
O O9 0.250000 0.099045 0.000000
O O10 0.037792 0.500000 0.250000
O O11 0.997774 0.500000 0.750000
#
# Coordination Sequence:
#
# PCOD9335659 Si02
#       4
#     8   8   8   8
#     4  10  23  43  71 102 144 193 253 307 355 433
#     4  10  22  42  73 103 139 183 251 303 357 421
#     4  11  21  38  67 108 135 171 236 316 366 404
#     4  11  28  44  64 101 152 201 236 285 371 449
#
# _framework density 25.325710999999998
#
# number of rings (size 3 to 8) (size 9 to 14) (size 15 to 20)
#    0.000    1.500    5.000    0.000   10.500    2.000 
#    0.000    0.000    0.000    3.000    0.000    0.000 
#    0.000    0.000    0.000    0.000    0.000    0.000 
#
# Total GULP energy -89129.878133 kJ/mol
# GULP energy per Si atom -5570.617383 kJ/mol
# Density = 2.526807 g / cm^3
# Si number density = 25.325711 Si / 1000 Ang^3
#
#
#
# Elastic Constant Matrix: (Units=GPa)
#
#
# Indices 1 2 3 4 5 6 
#
# 1 197.3465 52.4216 94.0916 0.0000 0.0000 0.0000
# 2 52.4216 75.6405 46.7338 0.0000 0.0000 0.0000
# 3 94.0916 46.7338 197.0260 0.0000 0.0000 0.0000
# 4 0.0000 0.0000 0.0000 -2.6740 0.0000 0.0000
# 5 0.0000 0.0000 0.0000 0.0000 23.1253 0.0000
# 6 0.0000 0.0000 0.0000 0.0000 0.0000 -5.4976
#
#
#
# Elastic Compliance Matrix: (Units=1/GPa)
#
#
# Indices 1 2 3 4 5 6 
#
# 1 0.007227 -0.003370 -0.002652 0.000000 0.000000 0.000000
# 2 -0.003370 0.017062 -0.002438 0.000000 0.000000 0.000000
# 3 -0.002652 -0.002438 0.006920 0.000000 0.000000 0.000000
# 4 0.000000 0.000000 0.000000 -0.373966 0.000000 0.000000
# 5 0.000000 0.000000 0.000000 0.000000 0.043243 0.000000
# 6 0.000000 0.000000 0.000000 0.000000 0.000000 -0.181897
#
#
# Mechanical properties :
#
#
# Convention : Reuss Voigt Hill
#
# Bulk Modulus (GPa) = 69.97968 95.16743 82.57355
# Shear Modulus (GPa) = -10.87595 21.44181 5.28293
#
# Velocity S-wave (km/s) = -2.07455 2.91287 1.44586
# Velocity P-wave (km/s) = 4.68546 6.99800 5.95506
#
# Compressibility (1/GPa) = 0.01428986
#
# Stress axis : x y z
#
# Youngs Moduli (GPa) = 138.37446 58.60961 144.50652
#
# Poissons Ratio (x) = 0.19751 0.38321
# Poissons Ratio (y) = 0.46632 0.35226
# Poissons Ratio (z) = 0.36695 0.14287
#
# Static dielectric constant tensor:
#      x y z
#    x 2.335920 0.000000 0.000000 
#    y 0.000000 1.972710 0.000000 
#    z 0.000000 0.000000 2.205780 
# 
# From -- ./inp_files/4353.got.cif
#   From: 2010.05.17/outbox.cif.g08.bks.cpg/sg24_3_cif.got.tgz:4353.got - 2010.06.04 00:33:39.
