data_PCOD9335039
_publ_section_title
;
Structure prediction by ZEFSAII (Michael W. Deem and Ramdas Pophale) SiO2 
 PCOD9335039
Probable space group: I 21 21 21
;
_chemical_formula_sum "Si O2"
_cell_formula_units_Z 48
_cell_length_a 13.922508
_cell_length_b 14.164658
_cell_length_c 13.137028
_cell_angle_alpha 90.000000
_cell_angle_beta 90.000000
_cell_angle_gamma 90.000000
_cell_volume 2590.721294
_symmetry_space_group_name_H-M "I 21 21 21"
_symmetry_group_IT_number 24
_symmetry_cell_setting 'orthorhombic'
loop_
_space_group_symop_operation_xyz
x,y,z
-x,1/2-y,z
x,-y,1/2-z
1/2-x,y,-z
1/2+x,1/2+y,1/2+z
1/2-x,-y,1/2+z
1/2+x,1/2-y,-z
-x,1/2+y,1/2-z
loop_
_atom_site_type_symbol
_atom_site_label
_atom_site_fract_x
_atom_site_fract_y
_atom_site_fract_z
Si Si1 0.541304 0.849559 0.224839
Si Si2 0.738110 0.099777 0.694677
Si Si3 0.105382 0.265358 0.171342
Si Si4 0.231666 0.861606 0.612572
Si Si5 0.395714 0.000000 0.250000
Si Si6 0.750000 0.996966 0.000000
Si Si7 0.882497 0.832639 0.559856
O O1 0.500000 0.750000 0.190569
O O2 0.651893 0.863401 0.193346
O O3 0.541691 0.848682 0.349867
O O4 0.469529 0.931573 0.190260
O O5 0.669328 0.167826 0.757712
O O6 0.740335 0.000000 0.750000
O O7 0.703444 0.072041 0.582430
O O8 0.166105 0.169337 0.158623
O O9 0.000000 0.250000 0.214300
O O10 0.091547 0.309726 0.057231
O O11 0.250000 0.901433 0.500000
O O12 0.178192 0.759725 0.595500
O O13 0.170607 0.931885 0.681647
O O14 0.822107 0.070665 0.946218
#
# Coordination Sequence:
#
# PCOD9335039 Si02
#       7
#     8   8   8   8   4   4   8
#     4  12  21  36  66  97 127 159 205 268 329 373
#     4  12  21  39  60  94 128 159 213 265 312 372
#     4  11  22  38  64  89 128 175 204 257 319 380
#     4  10  21  40  61  91 127 167 210 260 316 382
#     4  12  22  36  64  98 130 160 204 274 332 378
#     4  12  20  36  66  92 120 160 212 270 312 360
#     4  11  17  36  64  96 123 150 212 269 312 360
#
# _framework density 18.527659
#
# number of rings (size 3 to 8) (size 9 to 14) (size 15 to 20)
#    0.000    0.667   10.000    0.500    2.333    0.000 
#    1.500    0.833    7.333    0.000    0.000    0.000 
#    0.000    0.000    0.000    0.000    0.000    0.000 
#
# Total GULP energy -133862.544929 kJ/mol
# GULP energy per Si atom -5577.606039 kJ/mol
# Density = 1.848549 g / cm^3
# Si number density = 18.527659 Si / 1000 Ang^3
#
#
#
# Elastic Constant Matrix: (Units=GPa)
#
#
# Indices 1 2 3 4 5 6 
#
# 1 130.5002 59.3731 21.6062 0.0000 0.0000 0.0000
# 2 59.3731 98.1752 31.0951 -0.0001 0.0000 0.0000
# 3 21.6062 31.0951 63.5991 -0.0001 0.0000 0.0000
# 4 0.0000 -0.0001 -0.0001 -191.6670 0.0000 0.0000
# 5 0.0000 0.0000 0.0000 0.0000 12.7114 0.0000
# 6 0.0000 0.0000 0.0000 0.0000 0.0000 31.8609
#
#
#
# Elastic Compliance Matrix: (Units=1/GPa)
#
#
# Indices 1 2 3 4 5 6 
#
# 1 0.010588 -0.006228 -0.000552 0.000000 0.000000 0.000000
# 2 -0.006228 0.015716 -0.005568 0.000000 0.000000 0.000000
# 3 -0.000552 -0.005568 0.018633 0.000000 0.000000 0.000000
# 4 0.000000 0.000000 0.000000 -0.005217 0.000000 0.000000
# 5 0.000000 0.000000 0.000000 0.000000 0.078670 0.000000
# 6 0.000000 0.000000 0.000000 0.000000 0.000000 0.031386
#
#
# Mechanical properties :
#
#
# Convention : Reuss Voigt Hill
#
# Bulk Modulus (GPa) = 49.40496 57.38039 53.39267
# Shear Modulus (GPa) = 27.59080 -17.40562 5.09259
#
# Velocity S-wave (km/s) = 3.86316 -3.06835 1.65970
# Velocity P-wave (km/s) = 6.82804 4.29934 5.70554
#
# Compressibility (1/GPa) = 0.02024088
#
# Stress axis : x y z
#
# Youngs Moduli (GPa) = 94.44737 63.62850 53.66738
#
# Poissons Ratio (x) = 0.39631 0.02961
# Poissons Ratio (y) = 0.58826 0.29882
# Poissons Ratio (z) = 0.05211 0.35429
#
# Static dielectric constant tensor:
#      x y z
#    x 1.748570 0.000000 0.000000 
#    y 0.000000 1.637570 0.000000 
#    z 0.000000 0.000000 1.702440 
# 
# From -- ./inp_files/26461.got.cif
#   From: 2010.05.17/outbox.cif.g08.bks.cpg/sg24_14_cif.got.tgz:26461.got - 2010.06.04 00:33:39.
