data_PCOD9335833
_publ_section_title
;
Structure prediction by ZEFSAII (Michael W. Deem and Ramdas Pophale) SiO2 
 PCOD9335833
Probable space group: I 21 21 21
;
_chemical_formula_sum "Si O2"
_cell_formula_units_Z 48
_cell_length_a 5.473127
_cell_length_b 25.312641
_cell_length_c 14.356952
_cell_angle_alpha 90.000000
_cell_angle_beta 90.000000
_cell_angle_gamma 90.000000
_cell_volume 1989.002064
_symmetry_space_group_name_H-M "I 21 21 21"
_symmetry_group_IT_number 24
_symmetry_cell_setting 'orthorhombic'
loop_
_space_group_symop_operation_xyz
x,y,z
-x,1/2-y,z
x,-y,1/2-z
1/2-x,y,-z
1/2+x,1/2+y,1/2+z
1/2-x,-y,1/2+z
1/2+x,1/2-y,-z
-x,1/2+y,1/2-z
loop_
_atom_site_type_symbol
_atom_site_label
_atom_site_fract_x
_atom_site_fract_y
_atom_site_fract_z
Si Si1 0.000000 0.750000 0.150475
Si Si2 0.868408 0.533036 0.587758
Si Si3 0.614993 0.091868 0.240876
Si Si4 0.495866 0.500000 0.750000
Si Si5 0.136624 0.195787 0.797820
Si Si6 0.559567 0.582316 0.077065
Si Si7 0.250000 0.327391 0.500000
Si Si8 0.250000 0.214678 0.000000
O O1 0.833180 0.711577 0.216850
O O2 0.132416 0.711273 0.076582
O O3 0.750000 0.560310 0.500000
O O4 0.060989 0.567752 0.640776
O O5 0.657450 0.517161 0.661331
O O6 0.990764 0.478371 0.553224
O O7 0.576255 0.154037 0.228629
O O8 0.391518 0.080672 0.313112
O O9 0.828798 0.052080 0.275428
O O10 0.000000 0.250000 0.811409
O O11 0.244836 0.183270 0.900694
O O12 0.369245 0.629089 0.068672
O O13 0.750000 0.599796 0.000000
O O14 0.500000 0.250000 0.993849
#
# Coordination Sequence:
#
# PCOD9335833 Si02
#       8
#     4   8   8   4   8   8   4   4
#     4  12  28  52  72 114 158 208 264 336 386 496
#     4  11  26  47  70 106 153 190 252 313 387 476
#     4  12  25  46  75 108 150 197 253 316 386 468
#     4  12  24  50  72 110 152 198 256 320 386 474
#     4  11  26  49  77 112 153 202 257 327 410 477
#     4  11  24  45  70 105 145 200 246 308 377 461
#     4  12  30  42  76 109 155 206 262 314 398 464
#     4  10  22  50  80 113 153 202 266 330 408 492
#
# _framework density 24.132702999999999
#
# number of rings (size 3 to 8) (size 9 to 14) (size 15 to 20)
#    0.000    0.667    4.167    2.000   10.500    3.333 
#    0.000    0.000    0.000    0.000    0.000    0.000 
#    0.000    0.000    0.000    0.000    0.000    0.000 
#
# Total GULP energy -133604.929324 kJ/mol
# GULP energy per Si atom -5566.872055 kJ/mol
# Density = 2.407778 g / cm^3
# Si number density = 24.132703 Si / 1000 Ang^3
#
#
#
# Elastic Constant Matrix: (Units=GPa)
#
#
# Indices 1 2 3 4 5 6 
#
# 1 60.2352 34.4634 21.7945 0.0000 0.0000 0.0000
# 2 34.4634 133.3327 4.3227 0.0000 0.0000 0.0000
# 3 21.7945 4.3227 141.6892 0.0000 0.0000 0.0000
# 4 0.0000 0.0000 0.0000 27.1285 0.0000 0.0000
# 5 0.0000 0.0000 0.0000 0.0000 33.6373 0.0000
# 6 0.0000 0.0000 0.0000 0.0000 0.0000 22.7290
#
#
#
# Elastic Compliance Matrix: (Units=1/GPa)
#
#
# Indices 1 2 3 4 5 6 
#
# 1 0.020701 -0.005253 -0.003024 0.000000 0.000000 0.000000
# 2 -0.005253 0.008840 0.000538 0.000000 0.000000 0.000000
# 3 -0.003024 0.000538 0.007506 0.000000 0.000000 0.000000
# 4 0.000000 0.000000 0.000000 0.036862 0.000000 0.000000
# 5 0.000000 0.000000 0.000000 0.000000 0.029729 0.000000
# 6 0.000000 0.000000 0.000000 0.000000 0.000000 0.043997
#
#
# Mechanical properties :
#
#
# Convention : Reuss Voigt Hill
#
# Bulk Modulus (GPa) = 46.35863 50.71313 48.53588
# Shear Modulus (GPa) = 29.35960 35.01073 32.18517
#
# Velocity S-wave (km/s) = 3.49175 3.81301 3.65591
# Velocity P-wave (km/s) = 5.95886 6.35967 6.16252
#
# Compressibility (1/GPa) = 0.02157096
#
# Stress axis : x y z
#
# Youngs Moduli (GPa) = 48.30671 113.11846 133.21928
#
# Poissons Ratio (x) = 0.59418 0.40285
# Poissons Ratio (y) = 0.25374 -0.07171
# Poissons Ratio (z) = 0.14608 -0.06089
#
# Static dielectric constant tensor:
#      x y z
#    x 2.044110 0.000000 0.000000 
#    y 0.000000 1.964470 0.000000 
#    z 0.000000 0.000000 2.075700 
# 
# From -- ./inp_files/23991.got.cif
#   From: 2010.05.17/outbox.cif.g08.bks.cpg/sg24_12_cif.got.tgz:23991.got - 2010.06.04 00:33:39.
