data_PCOD9335982
_publ_section_title
;
Structure prediction by ZEFSAII (Michael W. Deem and Ramdas Pophale) SiO2 
 PCOD9335982
Probable space group: I 21 21 21
;
_chemical_formula_sum "Si O2"
_cell_formula_units_Z 56
_cell_length_a 13.148254
_cell_length_b 28.802770
_cell_length_c 6.596997
_cell_angle_alpha 90.000000
_cell_angle_beta 90.000000
_cell_angle_gamma 90.000000
_cell_volume 2498.323242
_symmetry_space_group_name_H-M "I 21 21 21"
_symmetry_group_IT_number 24
_symmetry_cell_setting 'orthorhombic'
loop_
_space_group_symop_operation_xyz
x,y,z
-x,1/2-y,z
x,-y,1/2-z
1/2-x,y,-z
1/2+x,1/2+y,1/2+z
1/2-x,-y,1/2+z
1/2+x,1/2-y,-z
-x,1/2+y,1/2-z
loop_
_atom_site_type_symbol
_atom_site_label
_atom_site_fract_x
_atom_site_fract_y
_atom_site_fract_z
Si Si1 0.141715 0.045372 0.891453
Si Si2 0.638473 0.718008 0.428457
Si Si3 0.583271 0.869747 0.927231
Si Si4 0.344334 0.390581 0.142239
Si Si5 0.065659 0.454441 0.125614
Si Si6 0.936170 0.188238 0.073017
Si Si7 0.360050 0.861889 0.113012
O O1 0.141859 0.093338 0.763273
O O2 0.125547 0.000000 0.750000
O O3 0.250000 0.040827 0.000000
O O4 0.051523 0.046105 0.056441
O O5 0.750000 0.707108 0.500000
O O6 0.553120 0.702499 0.588822
O O7 0.620748 0.773402 0.436114
O O8 0.624542 0.687460 0.228150
O O9 0.594370 0.913375 0.779230
O O10 0.607322 0.823931 0.793640
O O11 0.652163 0.878959 0.123154
O O12 0.463255 0.868181 0.983435
O O13 0.250000 0.376251 0.000000
O O14 0.371783 0.442982 0.079867
O O15 0.434911 0.358661 0.056263
O O16 0.089475 0.500000 0.250000
O O17 0.250000 0.861273 0.000000
#
# Coordination Sequence:
#
# PCOD9335982 Si02
#       7
#     8   8   8   8   8   8   8
#     4  12  23  40  65 102 149 194 245 297 358 457
#     4  11  22  43  64  99 146 174 233 302 359 432
#     4  11  22  45  70  98 137 188 233 285 368 431
#     4  11  24  47  71  99 137 181 235 294 357 434
#     4  11  24  42  67 103 139 182 234 295 354 424
#     4  10  23  44  69  95 140 183 232 295 355 442
#     4  12  22  39  68 102 142 189 235 302 372 435
#
# _framework density 22.415033000000001
#
# number of rings (size 3 to 8) (size 9 to 14) (size 15 to 20)
#    0.000    0.857    2.857    5.143    0.000    2.286 
#   10.286    0.000    0.000    0.000    0.000    0.000 
#    0.000    0.000    0.000    0.000    0.000    0.000 
#
# Total GULP energy -156273.415300 kJ/mol
# GULP energy per Si atom -5581.193404 kJ/mol
# Density = 2.236402 g / cm^3
# Si number density = 22.415033 Si / 1000 Ang^3
#
#
#
# Elastic Constant Matrix: (Units=GPa)
#
#
# Indices 1 2 3 4 5 6 
#
# 1 79.6164 2.3710 22.1779 0.0006 -0.0009 -0.0007
# 2 2.3710 119.6617 54.5849 0.0112 -0.0043 -0.0040
# 3 22.1779 54.5849 113.3651 0.0066 -0.0048 -0.0063
# 4 0.0006 0.0112 0.0066 33.9234 0.0003 -0.0017
# 5 -0.0009 -0.0043 -0.0048 0.0003 51.7819 0.0028
# 6 -0.0007 -0.0040 -0.0063 -0.0017 0.0028 15.8086
#
#
#
# Elastic Compliance Matrix: (Units=1/GPa)
#
#
# Indices 1 2 3 4 5 6 
#
# 1 0.013416 0.001194 -0.003199 0.000000 0.000000 0.000000
# 2 0.001194 0.010815 -0.005441 -0.000003 0.000000 0.000001
# 3 -0.003199 -0.005441 0.012067 0.000000 0.000001 0.000003
# 4 0.000000 -0.000003 0.000000 0.029478 0.000000 0.000003
# 5 0.000000 0.000000 0.000001 0.000000 0.019312 -0.000003
# 6 0.000000 0.000001 0.000003 0.000003 -0.000003 0.063257
#
#
# Mechanical properties :
#
#
# Convention : Reuss Voigt Hill
#
# Bulk Modulus (GPa) = 46.71930 52.32343 49.52137
# Shear Modulus (GPa) = 29.34745 35.87008 32.60877
#
# Velocity S-wave (km/s) = 3.62232 4.00468 3.81829
# Velocity P-wave (km/s) = 6.19540 6.69156 6.44825
#
# Compressibility (1/GPa) = 0.02140443
#
# Stress axis : x y z
#
# Youngs Moduli (GPa) = 74.53856 92.46247 82.87238
#
# Poissons Ratio (x) = -0.11036 0.26513
# Poissons Ratio (y) = -0.08897 0.45091
# Poissons Ratio (z) = 0.23847 0.50309
#
# Static dielectric constant tensor:
#      x y z
#    x 1.866590 0.000000 0.000000 
#    y 0.000000 1.875530 0.000000 
#    z 0.000000 0.000000 1.867610 
# 
# From -- ./inp_files/3990.got.cif
#   From: 2010.05.17/outbox.cif.g08.bks.cpg/sg24_2_cif.got.tgz:3990.got - 2010.06.04 00:33:39.
