data_PCOD9335576
_publ_section_title
;
Structure prediction by ZEFSAII (Michael W. Deem and Ramdas Pophale) SiO2 
 PCOD9335576
Probable space group: I 21 21 21
;
_chemical_formula_sum "Si O2"
_cell_formula_units_Z 28
_cell_length_a 18.730632
_cell_length_b 5.129493
_cell_length_c 15.290186
_cell_angle_alpha 90.000000
_cell_angle_beta 90.000000
_cell_angle_gamma 90.000000
_cell_volume 1469.060364
_symmetry_space_group_name_H-M "I 21 21 21"
_symmetry_group_IT_number 24
_symmetry_cell_setting 'orthorhombic'
loop_
_space_group_symop_operation_xyz
x,y,z
-x,1/2-y,z
x,-y,1/2-z
1/2-x,y,-z
1/2+x,1/2+y,1/2+z
1/2-x,-y,1/2+z
1/2+x,1/2-y,-z
-x,1/2+y,1/2-z
loop_
_atom_site_type_symbol
_atom_site_label
_atom_site_fract_x
_atom_site_fract_y
_atom_site_fract_z
Si Si1 0.546841 0.500000 0.250000
Si Si2 0.750000 0.903160 0.500000
Si Si3 0.000000 0.750000 0.192089
Si Si4 0.883638 0.335571 0.929117
Si Si5 0.106927 0.646733 0.039158
O O1 0.500000 0.250000 0.277630
O O2 0.592065 0.400461 0.167675
O O3 0.799242 0.730977 0.563586
O O4 0.690654 0.074110 0.549854
O O5 0.979056 0.500000 0.250000
O O6 0.936473 0.842513 0.128155
O O7 0.898949 0.578809 0.991216
O O8 0.919561 0.079659 0.972545
#
# Coordination Sequence:
#
# PCOD9335576 Si02
#       5
#     4   4   4   8   8
#     4  12  26  40  64 110 136 170 226 284 332 392
#     4   8  22  42  70  94 122 192 218 264 336 406
#     4  12  26  44  68 106 132 170 228 286 338 396
#     4  10  22  41  68  98 131 179 219 274 329 406
#     4  10  22  42  72  93 133 178 221 268 345 399
#
# _framework density 19.059801
#
# number of rings (size 3 to 8) (size 9 to 14) (size 15 to 20)
#    1.714    0.000    0.000    4.286    6.000    0.000 
#    0.000    5.714    0.000    0.000    0.000    0.000 
#    0.000    0.000    0.000    0.000    0.000    0.000 
#
# Total GULP energy -78050.011079 kJ/mol
# GULP energy per Si atom -5575.000791 kJ/mol
# Density = 1.901642 g / cm^3
# Si number density = 19.059801 Si / 1000 Ang^3
#
#
#
# Elastic Constant Matrix: (Units=GPa)
#
#
# Indices 1 2 3 4 5 6 
#
# 1 113.5368 36.7044 66.2458 0.0000 0.0000 0.0000
# 2 36.7044 115.8752 35.5742 0.0000 0.0000 0.0000
# 3 66.2458 35.5742 118.5048 0.0000 0.0000 0.0000
# 4 0.0000 0.0000 0.0000 43.8993 0.0000 0.0000
# 5 0.0000 0.0000 0.0000 0.0000 5.6925 0.0000
# 6 0.0000 0.0000 0.0000 0.0000 0.0000 19.5534
#
#
#
# Elastic Compliance Matrix: (Units=1/GPa)
#
#
# Indices 1 2 3 4 5 6 
#
# 1 0.013547 -0.002166 -0.006923 0.000000 0.000000 0.000000
# 2 -0.002166 0.009852 -0.001747 0.000000 0.000000 0.000000
# 3 -0.006923 -0.001747 0.012833 0.000000 0.000000 0.000000
# 4 0.000000 0.000000 0.000000 0.022779 0.000000 0.000000
# 5 0.000000 0.000000 0.000000 0.000000 0.175670 0.000000
# 6 0.000000 0.000000 0.000000 0.000000 0.000000 0.051142
#
#
# Mechanical properties :
#
#
# Convention : Reuss Voigt Hill
#
# Bulk Modulus (GPa) = 68.67563 69.44062 69.05812
# Shear Modulus (GPa) = 16.00777 27.78854 21.89816
#
# Velocity S-wave (km/s) = 2.90120 3.82247 3.39325
# Velocity P-wave (km/s) = 6.87986 7.48290 7.18771
#
# Compressibility (1/GPa) = 0.01456121
#
# Stress axis : x y z
#
# Youngs Moduli (GPa) = 73.81577 101.49903 77.92485
#
# Poissons Ratio (x) = 0.21983 0.53947
# Poissons Ratio (y) = 0.15987 0.13612
# Poissons Ratio (z) = 0.51102 0.17730
#
# Static dielectric constant tensor:
#      x y z
#    x 1.702000 0.000000 0.000000 
#    y 0.000000 1.675400 0.000000 
#    z 0.000000 0.000000 1.624550 
# 
# From -- ./inp_files/2127.got.cif
#   From: 2010.05.17/outbox.cif.g08.bks.cpg/sg24_2_cif.got.tgz:2127.got - 2010.06.04 00:33:39.
