data_PCOD9335032
_publ_section_title
;
Structure prediction by ZEFSAII (Michael W. Deem and Ramdas Pophale) SiO2 
 PCOD9335032
Probable space group: I 21 21 21
;
_chemical_formula_sum "Si O2"
_cell_formula_units_Z 48
_cell_length_a 14.003298
_cell_length_b 15.805298
_cell_length_c 10.223885
_cell_angle_alpha 90.000000
_cell_angle_beta 90.000000
_cell_angle_gamma 90.000000
_cell_volume 2262.814617
_symmetry_space_group_name_H-M "I 21 21 21"
_symmetry_group_IT_number 24
_symmetry_cell_setting 'orthorhombic'
loop_
_space_group_symop_operation_xyz
x,y,z
-x,1/2-y,z
x,-y,1/2-z
1/2-x,y,-z
1/2+x,1/2+y,1/2+z
1/2-x,-y,1/2+z
1/2+x,1/2-y,-z
-x,1/2+y,1/2-z
loop_
_atom_site_type_symbol
_atom_site_label
_atom_site_fract_x
_atom_site_fract_y
_atom_site_fract_z
Si Si1 0.343023 0.038650 0.610460
Si Si2 0.520744 0.849159 0.956238
Si Si3 0.750000 0.613402 0.500000
Si Si4 0.792101 0.321440 0.714427
Si Si5 0.000000 0.750000 0.730175
Si Si6 0.405205 0.403915 0.257446
Si Si7 0.215480 0.641464 0.144909
O O1 0.424454 0.100401 0.563367
O O2 0.246268 0.094259 0.640971
O O3 0.369501 0.000000 0.750000
O O4 0.333694 0.955399 0.521449
O O5 0.500000 0.750000 0.944173
O O6 0.603196 0.874846 0.852982
O O7 0.563487 0.869210 0.099639
O O8 0.767702 0.664577 0.632261
O O9 0.903404 0.293927 0.706852
O O10 0.733398 0.242070 0.658766
O O11 0.952199 0.833095 0.663776
O O12 0.437837 0.500000 0.250000
O O13 0.290146 0.398966 0.253820
O O14 0.250000 0.614901 0.000000
#
# Coordination Sequence:
#
# PCOD9335032 Si02
#       7
#     8   8   4   8   4   8   8
#     4  10  23  37  58  91 124 160 204 259 318 377
#     4  11  20  37  65  91 118 163 214 260 315 376
#     4  10  24  38  58  88 130 160 198 256 320 380
#     4  10  21  40  59  86 126 158 203 255 315 373
#     4  10  22  36  62  90 120 162 204 250 314 374
#     4  10  22  36  59  93 126 160 207 264 313 366
#     4   9  20  38  62  87 118 158 207 258 304 370
#
# _framework density 21.212520000000001
#
# number of rings (size 3 to 8) (size 9 to 14) (size 15 to 20)
#    0.000    2.000    2.500    0.000    5.833    1.333 
#    0.000    3.333   22.000    0.000    0.000    0.000 
#    0.000    0.000    0.000    0.000    0.000    0.000 
#
# Total GULP energy -133649.691762 kJ/mol
# GULP energy per Si atom -5568.737157 kJ/mol
# Density = 2.116424 g / cm^3
# Si number density = 21.212520 Si / 1000 Ang^3
#
#
#
# Elastic Constant Matrix: (Units=GPa)
#
#
# Indices 1 2 3 4 5 6 
#
# 1 140.0134 24.4547 11.6983 0.0000 0.0000 0.0000
# 2 24.4547 87.5810 -4.1251 0.0000 0.0000 0.0000
# 3 11.6983 -4.1251 30.8864 0.0000 0.0000 0.0000
# 4 0.0000 0.0000 0.0000 20.6892 0.0000 0.0000
# 5 0.0000 0.0000 0.0000 0.0000 11.9203 0.0000
# 6 0.0000 0.0000 0.0000 0.0000 0.0000 33.2439
#
#
#
# Elastic Compliance Matrix: (Units=1/GPa)
#
#
# Indices 1 2 3 4 5 6 
#
# 1 0.007824 -0.002339 -0.003276 0.000000 0.000000 0.000000
# 2 -0.002339 0.012190 0.002514 0.000000 0.000000 0.000000
# 3 -0.003276 0.002514 0.033953 0.000000 0.000000 0.000000
# 4 0.000000 0.000000 0.000000 0.048334 0.000000 0.000000
# 5 0.000000 0.000000 0.000000 0.000000 0.083890 0.000000
# 6 0.000000 0.000000 0.000000 0.000000 0.000000 0.030081
#
#
# Mechanical properties :
#
#
# Convention : Reuss Voigt Hill
#
# Bulk Modulus (GPa) = 20.93581 35.83740 28.38661
# Shear Modulus (GPa) = 20.97347 28.26754 24.62051
#
# Velocity S-wave (km/s) = 3.14782 3.65442 3.41054
# Velocity P-wave (km/s) = 4.80652 5.89386 5.37774
#
# Compressibility (1/GPa) = 0.04776505
#
# Stress axis : x y z
#
# Youngs Moduli (GPa) = 127.80505 82.03765 29.45229
#
# Poissons Ratio (x) = 0.19189 0.09648
# Poissons Ratio (y) = 0.29894 -0.07404
# Poissons Ratio (z) = 0.41868 -0.20624
#
# Static dielectric constant tensor:
#      x y z
#    x 1.829380 0.000000 0.000000 
#    y 0.000000 1.773700 0.000000 
#    z 0.000000 0.000000 1.795540 
# 
# From -- ./inp_files/20758.got.cif
#   From: 2010.05.17/outbox.cif.g08.bks.cpg/sg24_11_cif.got.tgz:20758.got - 2010.06.04 00:33:39.
