data_PCOD9335597
_publ_section_title
;
Structure prediction by ZEFSAII (Michael W. Deem and Ramdas Pophale) SiO2 
 PCOD9335597
Probable space group: I 21 21 21
;
_chemical_formula_sum "Si O2"
_cell_formula_units_Z 32
_cell_length_a 15.481544
_cell_length_b 15.571174
_cell_length_c 5.093766
_cell_angle_alpha 90.000000
_cell_angle_beta 90.000000
_cell_angle_gamma 90.000000
_cell_volume 1227.932854
_symmetry_space_group_name_H-M "I 21 21 21"
_symmetry_group_IT_number 24
_symmetry_cell_setting 'orthorhombic'
loop_
_space_group_symop_operation_xyz
x,y,z
-x,1/2-y,z
x,-y,1/2-z
1/2-x,y,-z
1/2+x,1/2+y,1/2+z
1/2-x,-y,1/2+z
1/2+x,1/2-y,-z
-x,1/2+y,1/2-z
loop_
_atom_site_type_symbol
_atom_site_label
_atom_site_fract_x
_atom_site_fract_y
_atom_site_fract_z
Si Si1 0.000000 0.250000 0.861214
Si Si2 0.098076 0.500000 0.250000
Si Si3 0.194625 0.861010 0.229989
Si Si4 0.051598 0.073296 0.913855
Si Si5 0.665480 0.821566 0.682304
O O1 0.079838 0.291478 0.022538
O O2 0.037835 0.161076 0.746815
O O3 0.150095 0.413380 0.316850
O O4 0.036356 0.530026 0.484987
O O5 0.250000 0.856797 0.500000
O O6 0.106160 0.902209 0.329146
O O7 0.176289 0.762819 0.141848
O O8 0.250000 0.902996 0.000000
O O9 0.097689 0.000000 0.750000
O O10 0.750000 0.830706 0.500000
#
# Coordination Sequence:
#
# PCOD9335597 Si02
#       5
#     4   4   8   8   8
#     4   8  18  42  66  98 152 192 252 310 378 454
#     4  10  22  42  64 104 146 190 256 308 386 456
#     4  10  23  45  73 105 146 196 247 312 378 450
#     4  10  22  43  70 107 146 201 251 315 385 456
#     4   9  19  41  68 101 146 191 249 312 379 449
#
# _framework density 26.060057
#
# number of rings (size 3 to 8) (size 9 to 14) (size 15 to 20)
#    0.000    2.500    0.000    0.000    3.500    1.000 
#   33.750    1.250    0.000    0.000    0.000    0.000 
#    0.000    0.000    0.000    0.000    0.000    0.000 
#
# Total GULP energy -89387.660820 kJ/mol
# GULP energy per Si atom -5586.728801 kJ/mol
# Density = 2.600074 g / cm^3
# Si number density = 26.060057 Si / 1000 Ang^3
#
#
#
# Elastic Constant Matrix: (Units=GPa)
#
#
# Indices 1 2 3 4 5 6 
#
# 1 131.1897 60.1443 31.1565 0.0000 0.0000 0.0000
# 2 60.1443 242.8969 51.0736 0.0000 0.0000 0.0000
# 3 31.1565 51.0736 82.8274 0.0000 0.0000 0.0000
# 4 0.0000 0.0000 0.0000 34.2838 0.0000 0.0000
# 5 0.0000 0.0000 0.0000 0.0000 19.5973 0.0000
# 6 0.0000 0.0000 0.0000 0.0000 0.0000 44.4075
#
#
#
# Elastic Compliance Matrix: (Units=1/GPa)
#
#
# Indices 1 2 3 4 5 6 
#
# 1 0.008965 -0.001736 -0.002302 0.000000 0.000000 0.000000
# 2 -0.001736 0.005066 -0.002471 0.000000 0.000000 0.000000
# 3 -0.002302 -0.002471 0.014463 0.000000 0.000000 0.000000
# 4 0.000000 0.000000 0.000000 0.029168 0.000000 0.000000
# 5 0.000000 0.000000 0.000000 0.000000 0.051027 0.000000
# 6 0.000000 0.000000 0.000000 0.000000 0.000000 0.022519
#
#
# Mechanical properties :
#
#
# Convention : Reuss Voigt Hill
#
# Bulk Modulus (GPa) = 64.61365 82.40698 73.51032
# Shear Modulus (GPa) = 33.47045 40.62702 37.04874
#
# Velocity S-wave (km/s) = 3.58768 3.95267 3.77459
# Velocity P-wave (km/s) = 6.48151 7.24721 6.87503
#
# Compressibility (1/GPa) = 0.01547660
#
# Stress axis : x y z
#
# Youngs Moduli (GPa) = 111.54442 197.37940 69.14210
#
# Poissons Ratio (x) = 0.34262 0.15916
# Poissons Ratio (y) = 0.19362 0.17086
# Poissons Ratio (z) = 0.25677 0.48775
#
# Static dielectric constant tensor:
#      x y z
#    x 2.078690 0.000000 0.000000 
#    y 0.000000 2.116580 0.000000 
#    z 0.000000 0.000000 2.083090 
# 
# From -- ./inp_files/4310.got.cif
#   From: 2010.05.17/outbox.cif.g08.bks.cpg/sg24_3_cif.got.tgz:4310.got - 2010.06.04 00:33:39.
