data_PCOD9335177
_publ_section_title
;
Structure prediction by ZEFSAII (Michael W. Deem and Ramdas Pophale) SiO2 
 PCOD9335177
Probable space group: I 21 21 21
;
_chemical_formula_sum "Si O2"
_cell_formula_units_Z 56
_cell_length_a 8.220274
_cell_length_b 20.924433
_cell_length_c 15.923645
_cell_angle_alpha 90.000000
_cell_angle_beta 90.000000
_cell_angle_gamma 90.000000
_cell_volume 2738.939752
_symmetry_space_group_name_H-M "I 21 21 21"
_symmetry_group_IT_number 24
_symmetry_cell_setting 'orthorhombic'
loop_
_space_group_symop_operation_xyz
x,y,z
-x,1/2-y,z
x,-y,1/2-z
1/2-x,y,-z
1/2+x,1/2+y,1/2+z
1/2-x,-y,1/2+z
1/2+x,1/2-y,-z
-x,1/2+y,1/2-z
loop_
_atom_site_type_symbol
_atom_site_label
_atom_site_fract_x
_atom_site_fract_y
_atom_site_fract_z
Si Si1 0.583000 0.393066 0.455753
Si Si2 0.179410 0.768401 0.851244
Si Si3 0.461644 0.987040 0.345306
Si Si4 0.500000 0.250000 0.077885
Si Si5 0.750000 0.829943 0.000000
Si Si6 0.067947 0.613728 0.519828
Si Si7 0.828687 0.581233 0.405780
Si Si8 0.175506 0.779168 0.326907
O O1 0.750000 0.417044 0.500000
O O2 0.650753 0.333891 0.401342
O O3 0.514322 0.449258 0.398170
O O4 0.422515 0.367895 0.505408
O O5 0.234797 0.715348 0.918279
O O6 0.297410 0.775441 0.772934
O O7 0.000000 0.750000 0.818371
O O8 0.541329 0.927254 0.395191
O O9 0.269187 0.970065 0.352687
O O10 0.510335 0.000000 0.250000
O O11 0.484253 0.183404 0.028031
O O12 0.332206 0.254761 0.130635
O O13 0.250000 0.629224 0.500000
O O14 0.010209 0.572450 0.438736
O O15 0.750000 0.584338 0.500000
O O16 0.817799 0.647581 0.356906
O O17 0.000000 0.750000 0.348490
#
# Coordination Sequence:
#
# PCOD9335177 Si02
#       8
#     8   8   8   4   4   8   8   8
#     4  11  23  40  72  90 129 180 229 265 350 387
#     4  10  22  41  61  95 136 172 218 284 334 399
#     4  11  24  45  69  95 135 180 228 283 343 408
#     4  12  24  42  66 100 138 172 220 280 354 392
#     4  10  24  42  64 100 130 170 232 284 322 422
#     4  11  25  41  71  97 136 176 230 281 341 411
#     4  10  21  42  62  92 130 167 227 267 320 410
#     4  12  24  35  63  96 134 174 217 273 342 396
#
# _framework density 20.445868000000001
#
# number of rings (size 3 to 8) (size 9 to 14) (size 15 to 20)
#    0.000    1.143    4.286    3.000    6.000    0.000 
#    0.000    0.714    0.000    0.000    0.000    0.000 
#    0.000    0.000    0.000    0.000    0.000    0.000 
#
# Total GULP energy -156119.983016 kJ/mol
# GULP energy per Si atom -5575.713679 kJ/mol
# Density = 2.039933 g / cm^3
# Si number density = 20.445868 Si / 1000 Ang^3
#
#
#
# Elastic Constant Matrix: (Units=GPa)
#
#
# Indices 1 2 3 4 5 6 
#
# 1 97.0768 17.2758 31.9173 0.0000 0.0000 0.0000
# 2 17.2758 88.5557 35.3097 0.0000 0.0000 0.0000
# 3 31.9173 35.3097 100.6109 0.0000 0.0000 0.0000
# 4 0.0000 0.0000 0.0000 15.8640 0.0000 0.0000
# 5 0.0000 0.0000 0.0000 0.0000 21.0689 0.0000
# 6 0.0000 0.0000 0.0000 0.0000 0.0000 28.0608
#
#
#
# Elastic Compliance Matrix: (Units=1/GPa)
#
#
# Indices 1 2 3 4 5 6 
#
# 1 0.011565 -0.000922 -0.003345 0.000000 0.000000 0.000000
# 2 -0.000922 0.013203 -0.004341 0.000000 0.000000 0.000000
# 3 -0.003345 -0.004341 0.012524 0.000000 0.000000 0.000000
# 4 0.000000 0.000000 0.000000 0.063036 0.000000 0.000000
# 5 0.000000 0.000000 0.000000 0.000000 0.047463 0.000000
# 6 0.000000 0.000000 0.000000 0.000000 0.000000 0.035637
#
#
# Mechanical properties :
#
#
# Convention : Reuss Voigt Hill
#
# Bulk Modulus (GPa) = 49.81301 50.58323 50.19812
# Shear Modulus (GPa) = 24.11531 26.44811 25.28171
#
# Velocity S-wave (km/s) = 3.43807 3.60052 3.52023
# Velocity P-wave (km/s) = 6.33851 6.48682 6.41309
#
# Compressibility (1/GPa) = 0.02007508
#
# Stress axis : x y z
#
# Youngs Moduli (GPa) = 86.46708 75.73929 79.84672
#
# Poissons Ratio (x) = 0.06986 0.26710
# Poissons Ratio (y) = 0.07975 0.34662
# Poissons Ratio (z) = 0.28924 0.32879
#
# Static dielectric constant tensor:
#      x y z
#    x 1.924500 0.000000 0.000000 
#    y 0.000000 1.710720 0.000000 
#    z 0.000000 0.000000 1.734540 
# 
# From -- ./inp_files/25099.got.cif
#   From: 2010.05.17/outbox.cif.g08.bks.cpg/sg24_13_cif.got.tgz:25099.got - 2010.06.04 00:33:39.
