data_PCOD9335733
_publ_section_title
;
Structure prediction by ZEFSAII (Michael W. Deem and Ramdas Pophale) SiO2 
 PCOD9335733
Probable space group: I 21 21 21
;
_chemical_formula_sum "Si O2"
_cell_formula_units_Z 40
_cell_length_a 8.124353
_cell_length_b 23.402108
_cell_length_c 9.319068
_cell_angle_alpha 90.000000
_cell_angle_beta 90.000000
_cell_angle_gamma 90.000000
_cell_volume 1771.806314
_symmetry_space_group_name_H-M "I 21 21 21"
_symmetry_group_IT_number 24
_symmetry_cell_setting 'orthorhombic'
loop_
_space_group_symop_operation_xyz
x,y,z
-x,1/2-y,z
x,-y,1/2-z
1/2-x,y,-z
1/2+x,1/2+y,1/2+z
1/2-x,-y,1/2+z
1/2+x,1/2-y,-z
-x,1/2+y,1/2-z
loop_
_atom_site_type_symbol
_atom_site_label
_atom_site_fract_x
_atom_site_fract_y
_atom_site_fract_z
Si Si1 0.750000 0.188111 0.500000
Si Si2 0.315727 0.777526 0.202950
Si Si3 0.088261 0.001228 0.076444
Si Si4 0.927641 0.895786 0.547454
Si Si5 0.969209 0.390196 0.621924
Si Si6 0.250000 0.819863 0.500000
O O1 0.701424 0.233407 0.621120
O O2 0.605621 0.147387 0.454561
O O3 0.500000 0.750000 0.193344
O O4 0.324534 0.843632 0.151003
O O5 0.260378 0.780627 0.363316
O O6 0.108667 0.000000 0.250000
O O7 0.250000 0.027066 0.000000
O O8 0.066725 0.942706 0.984749
O O9 0.943513 0.044375 0.036764
O O10 0.750000 0.871553 0.500000
O O11 0.959494 0.905744 0.718907
O O12 0.081645 0.856682 0.499677
#
# Coordination Sequence:
#
# PCOD9335733 Si02
#       6
#     4   8   8   8   8   4
#     4  10  22  44  67  98 141 194 242 302 358 420
#     4   9  21  45  69 101 138 191 245 295 358 431
#     4  12  27  45  76 109 144 196 240 297 377 443
#     4  11  25  46  75 110 149 189 246 298 369 444
#     4  10  24  45  69 100 149 188 242 308 354 441
#     4  10  22  48  75 104 151 192 234 308 364 430
#
# _framework density 22.57583
#
# number of rings (size 3 to 8) (size 9 to 14) (size 15 to 20)
#    0.000    1.600    1.000    1.800    8.400    0.000 
#   23.400    0.000    0.000    0.000    0.000    0.000 
#    0.000    0.000    0.000    0.000    0.000    0.000 
#
# Total GULP energy -111626.846850 kJ/mol
# GULP energy per Si atom -5581.342343 kJ/mol
# Density = 2.252445 g / cm^3
# Si number density = 22.575830 Si / 1000 Ang^3
#
#
#
# Elastic Constant Matrix: (Units=GPa)
#
#
# Indices 1 2 3 4 5 6 
#
# 1 93.4492 10.6383 36.4209 -0.0008 0.0001 0.0000
# 2 10.6383 58.0494 36.9546 -0.0023 0.0004 -0.0006
# 3 36.4209 36.9546 158.2490 -0.0065 0.0006 -0.0061
# 4 -0.0008 -0.0023 -0.0065 49.1935 0.0007 -0.0073
# 5 0.0001 0.0004 0.0006 0.0007 24.8623 0.0011
# 6 0.0000 -0.0006 -0.0061 -0.0073 0.0011 61.3151
#
#
#
# Elastic Compliance Matrix: (Units=1/GPa)
#
#
# Indices 1 2 3 4 5 6 
#
# 1 0.011768 -0.000508 -0.002590 0.000000 0.000000 0.000000
# 2 -0.000508 0.020257 -0.004613 0.000000 0.000000 0.000000
# 3 -0.002590 -0.004613 0.007993 0.000001 0.000000 0.000001
# 4 0.000000 0.000000 0.000001 0.020328 -0.000001 0.000002
# 5 0.000000 0.000000 0.000000 -0.000001 0.040222 -0.000001
# 6 0.000000 0.000000 0.000001 0.000002 -0.000001 0.016309
#
#
# Mechanical properties :
#
#
# Convention : Reuss Voigt Hill
#
# Bulk Modulus (GPa) = 40.65875 53.08613 46.87244
# Shear Modulus (GPa) = 35.58793 42.12309 38.85551
#
# Velocity S-wave (km/s) = 3.97466 4.32423 4.15313
# Velocity P-wave (km/s) = 6.25403 6.96402 6.61855
#
# Compressibility (1/GPa) = 0.02459495
#
# Stress axis : x y z
#
# Youngs Moduli (GPa) = 84.97485 49.36620 125.11641
#
# Poissons Ratio (x) = 0.02508 0.32403
# Poissons Ratio (y) = 0.04316 0.57722
# Poissons Ratio (z) = 0.22007 0.22775
#
# Static dielectric constant tensor:
#      x y z
#    x 0.837150 0.000000 0.000080 
#    y 0.000000 1.860710 0.000000 
#    z 0.000080 0.000000 1.855910 
# 
# From -- ./inp_files/9306.got.cif
#   From: 2010.05.17/outbox.cif.g08.bks.cpg/sg24_5_cif.got.tgz:9306.got - 2010.06.04 00:33:39.
