data_PCOD9335365
_publ_section_title
;
Structure prediction by ZEFSAII (Michael W. Deem and Ramdas Pophale) SiO2 
 PCOD9335365
Probable space group: I 21 21 21
;
_chemical_formula_sum "Si O2"
_cell_formula_units_Z 40
_cell_length_a 13.015716
_cell_length_b 28.537738
_cell_length_c 5.139489
_cell_angle_alpha 90.000000
_cell_angle_beta 90.000000
_cell_angle_gamma 90.000000
_cell_volume 1909.007133
_symmetry_space_group_name_H-M "I 21 21 21"
_symmetry_group_IT_number 24
_symmetry_cell_setting 'orthorhombic'
loop_
_space_group_symop_operation_xyz
x,y,z
-x,1/2-y,z
x,-y,1/2-z
1/2-x,y,-z
1/2+x,1/2+y,1/2+z
1/2-x,-y,1/2+z
1/2+x,1/2-y,-z
-x,1/2+y,1/2-z
loop_
_atom_site_type_symbol
_atom_site_label
_atom_site_fract_x
_atom_site_fract_y
_atom_site_fract_z
Si Si1 0.024488 0.883700 0.251318
Si Si2 0.373042 0.028523 0.994763
Si Si3 0.323005 0.264366 0.253652
Si Si4 0.472986 0.176023 0.244537
Si Si5 0.680268 0.944705 0.750961
O O1 0.019204 0.840695 0.447657
O O2 0.918222 0.911952 0.240762
O O3 0.098792 0.918933 0.412124
O O4 0.049129 0.864223 0.962403
O O5 0.412900 0.000000 0.750000
O O6 0.250000 0.025865 0.000000
O O7 0.411029 0.000000 0.250000
O O8 0.250000 0.266196 0.500000
O O9 0.384157 0.215019 0.251835
O O10 0.414455 0.301966 0.293587
O O11 0.250000 0.270450 0.000000
O O12 0.750000 0.935446 0.500000
O O13 0.652537 0.000000 0.750000
O O14 0.750000 0.935976 0.000000
#
# Coordination Sequence:
#
# PCOD9335365 Si02
#       5
#     8   8   8   8   8
#     4  12  23  39  64  93 128 159 204 269 311 356
#     4  10  22  40  61  88 125 171 214 251 306 373
#     4  11  24  46  69  88 126 169 200 255 326 386
#     4  11  26  41  63 100 122 155 216 256 309 392
#     4  10  22  38  57  85 122 165 207 245 299 366
#
# _framework density 20.953301
#
# number of rings (size 3 to 8) (size 9 to 14) (size 15 to 20)
#    0.000    1.200    0.000    5.400    0.000   12.800 
#    0.000    0.000    0.000    0.000    0.000    0.000 
#    0.000    0.000    0.000    0.000    0.000    0.000 
#
# Total GULP energy -111666.645180 kJ/mol
# GULP energy per Si atom -5583.332259 kJ/mol
# Density = 2.090561 g / cm^3
# Si number density = 20.953301 Si / 1000 Ang^3
#
#
#
# Elastic Constant Matrix: (Units=GPa)
#
#
# Indices 1 2 3 4 5 6 
#
# 1 55.1942 -9.7056 33.2355 -0.0199 0.0437 -0.0297
# 2 -9.7056 22.4637 5.0246 0.0379 0.0900 0.0259
# 3 33.2355 5.0246 160.5075 0.0094 0.1529 -0.0230
# 4 -0.0199 0.0379 0.0094 39.2098 0.0204 0.0048
# 5 0.0437 0.0900 0.1529 0.0204 -98.6692 -0.0088
# 6 -0.0297 0.0259 -0.0230 0.0048 -0.0088 -15.4734
#
#
#
# Elastic Compliance Matrix: (Units=1/GPa)
#
#
# Indices 1 2 3 4 5 6 
#
# 1 0.023183 0.011168 -0.005150 0.000002 0.000012 -0.000018
# 2 0.011168 0.050210 -0.003884 -0.000042 0.000045 0.000068
# 3 -0.005150 -0.003884 0.007418 -0.000001 0.000006 -0.000008
# 4 0.000002 -0.000042 -0.000001 0.025504 0.000005 0.000008
# 5 0.000012 0.000045 0.000006 0.000005 -0.010135 0.000006
# 6 -0.000018 0.000068 -0.000008 0.000008 0.000006 -0.064627
#
#
# Mechanical properties :
#
#
# Convention : Reuss Voigt Hill
#
# Bulk Modulus (GPa) = 11.75381 32.80827 22.28104
# Shear Modulus (GPa) = 89.85519 -1.01248 44.42135
#
# Velocity S-wave (km/s) = 6.55566 -0.69589 4.60936
# Velocity P-wave (km/s) = 7.93246 3.87893 6.24380
#
# Compressibility (1/GPa) = 0.08507877
#
# Stress axis : x y z
#
# Youngs Moduli (GPa) = 43.13547 19.91630 134.80340
#
# Poissons Ratio (x) = -0.22243 0.69423
# Poissons Ratio (y) = -0.48174 0.52363
# Poissons Ratio (z) = 0.22215 0.07736
#
# Static dielectric constant tensor:
#      x y z
#    x 1.734510 -0.000010 0.000030 
#    y -0.000010 1.976740 0.000020 
#    z 0.000030 0.000020 1.764140 
# 
# From -- ./inp_files/2457.got.cif
#   From: 2010.05.17/outbox.cif.g08.bks.cpg/sg24_2_cif.got.tgz:2457.got - 2010.06.04 00:33:39.
