data_PCOD9335432
_publ_section_title
;
Structure prediction by ZEFSAII (Michael W. Deem and Ramdas Pophale) SiO2 
 PCOD9335432
Probable space group: I 21 21 21
;
_chemical_formula_sum "Si O2"
_cell_formula_units_Z 40
_cell_length_a 17.085458
_cell_length_b 12.839098
_cell_length_c 7.337984
_cell_angle_alpha 90.000000
_cell_angle_beta 90.000000
_cell_angle_gamma 90.000000
_cell_volume 1609.673890
_symmetry_space_group_name_H-M "I 21 21 21"
_symmetry_group_IT_number 24
_symmetry_cell_setting 'orthorhombic'
loop_
_space_group_symop_operation_xyz
x,y,z
-x,1/2-y,z
x,-y,1/2-z
1/2-x,y,-z
1/2+x,1/2+y,1/2+z
1/2-x,-y,1/2+z
1/2+x,1/2-y,-z
-x,1/2+y,1/2-z
loop_
_atom_site_type_symbol
_atom_site_label
_atom_site_fract_x
_atom_site_fract_y
_atom_site_fract_z
Si Si1 0.245142 0.226068 0.284656
Si Si2 0.787499 0.500000 0.250000
Si Si3 0.582801 0.247059 0.622966
Si Si4 0.578130 0.469871 0.459227
Si Si5 0.903928 0.017617 0.532440
Si Si6 0.750000 0.892314 0.500000
O O1 0.250000 0.246449 0.500000
O O2 0.262901 0.105356 0.253953
O O3 0.152772 0.231941 0.240824
O O4 0.279350 0.315931 0.161424
O O5 0.847471 0.502817 0.420413
O O6 0.500000 0.250000 0.720487
O O7 0.577992 0.343914 0.483130
O O8 0.598671 0.138756 0.523052
O O9 0.581895 0.500000 0.250000
O O10 0.492932 0.512936 0.527283
O O11 0.900499 0.000000 0.750000
O O12 0.826558 0.961203 0.453302
#
# Coordination Sequence:
#
# PCOD9335432 Si02
#       6
#     8   4   8   8   8   4
#     4  11  26  45  65  99 139 179 231 293 353 427
#     4  10  24  44  72  98 124 180 240 290 354 416
#     4   9  20  41  67  93 133 183 224 282 345 400
#     4   9  20  42  70  99 131 175 234 298 345 407
#     4  10  22  39  64 100 140 180 233 286 347 420
#     4  12  28  40  66 100 140 192 226 278 364 436
#
# _framework density 24.849753
#
# number of rings (size 3 to 8) (size 9 to 14) (size 15 to 20)
#    0.000    2.000    0.000    1.200    5.600    9.600 
#    1.800    2.000    0.000    1.200    0.000    0.000 
#    0.000    0.000    0.000    0.000    0.000    0.000 
#
# Total GULP energy -111844.062494 kJ/mol
# GULP energy per Si atom -5592.203125 kJ/mol
# Density = 2.479319 g / cm^3
# Si number density = 24.849753 Si / 1000 Ang^3
#
#
#
# Elastic Constant Matrix: (Units=GPa)
#
#
# Indices 1 2 3 4 5 6 
#
# 1 132.1464 46.4104 7.5416 0.0000 0.0000 0.0000
# 2 46.4104 138.3152 38.5786 0.0000 0.0000 0.0000
# 3 7.5416 38.5786 101.1483 0.0000 0.0000 0.0000
# 4 0.0000 0.0000 0.0000 32.8953 0.0000 0.0000
# 5 0.0000 0.0000 0.0000 0.0000 29.3567 0.0000
# 6 0.0000 0.0000 0.0000 0.0000 0.0000 17.8596
#
#
#
# Elastic Compliance Matrix: (Units=1/GPa)
#
#
# Indices 1 2 3 4 5 6 
#
# 1 0.008602 -0.003030 0.000514 0.000000 0.000000 0.000000
# 2 -0.003030 0.009158 -0.003267 0.000000 0.000000 0.000000
# 3 0.000514 -0.003267 0.011094 0.000000 0.000000 0.000000
# 4 0.000000 0.000000 0.000000 0.030399 0.000000 0.000000
# 5 0.000000 0.000000 0.000000 0.000000 0.034064 0.000000
# 6 0.000000 0.000000 0.000000 0.000000 0.000000 0.055992
#
#
# Mechanical properties :
#
#
# Convention : Reuss Voigt Hill
#
# Bulk Modulus (GPa) = 57.84032 61.85236 59.84634
# Shear Modulus (GPa) = 30.00527 34.62760 32.31643
#
# Velocity S-wave (km/s) = 3.47863 3.73698 3.61012
# Velocity P-wave (km/s) = 6.28180 6.60035 6.44305
#
# Compressibility (1/GPa) = 0.01728898
#
# Stress axis : x y z
#
# Youngs Moduli (GPa) = 116.25085 109.19801 90.13761
#
# Poissons Ratio (x) = 0.33085 -0.04635
# Poissons Ratio (y) = 0.35221 0.29447
# Poissons Ratio (z) = -0.05978 0.35674
#
# Static dielectric constant tensor:
#      x y z
#    x 2.078450 0.000000 0.000000 
#    y 0.000000 2.003800 0.000000 
#    z 0.000000 0.000000 1.952730 
# 
# From -- ./inp_files/13867.got.cif
#   From: 2010.05.17/outbox.cif.g08.bks.cpg/sg24_7_cif.got.tgz:13867.got - 2010.06.04 00:33:39.
