data_PCOD9335336
_publ_section_title
;
Structure prediction by ZEFSAII (Michael W. Deem and Ramdas Pophale) SiO2 
 PCOD9335336
Probable space group: I 21 21 21
;
_chemical_formula_sum "Si O2"
_cell_formula_units_Z 40
_cell_length_a 5.329298
_cell_length_b 18.307218
_cell_length_c 21.184011
_cell_angle_alpha 90.000000
_cell_angle_beta 90.000000
_cell_angle_gamma 90.000000
_cell_volume 2066.809989
_symmetry_space_group_name_H-M "I 21 21 21"
_symmetry_group_IT_number 24
_symmetry_cell_setting 'orthorhombic'
loop_
_space_group_symop_operation_xyz
x,y,z
-x,1/2-y,z
x,-y,1/2-z
1/2-x,y,-z
1/2+x,1/2+y,1/2+z
1/2-x,-y,1/2+z
1/2+x,1/2-y,-z
-x,1/2+y,1/2-z
loop_
_atom_site_type_symbol
_atom_site_label
_atom_site_fract_x
_atom_site_fract_y
_atom_site_fract_z
Si Si1 0.500000 0.750000 0.323210
Si Si2 0.816452 0.966285 0.851965
Si Si3 0.346371 0.132362 0.880271
Si Si4 0.000000 0.750000 0.460695
Si Si5 0.223934 0.611166 0.279232
Si Si6 0.799936 0.524374 0.072286
O O1 0.647615 0.694288 0.366879
O O2 0.328651 0.693461 0.283817
O O3 0.744090 0.918274 0.791265
O O4 0.580826 0.962923 0.900402
O O5 0.077463 0.943516 0.884159
O O6 0.852052 0.048974 0.823989
O O7 0.554821 0.177868 0.918715
O O8 0.449409 0.110585 0.811164
O O9 0.268457 0.063050 0.920049
O O10 0.250000 0.765945 0.500000
O O11 0.750000 0.545542 0.000000
#
# Coordination Sequence:
#
# PCOD9335336 Si02
#       6
#     4   8   8   4   8   8
#     4  12  19  38  60  86 130 151 198 242 300 360
#     4  10  23  39  61  88 118 159 204 251 303 343
#     4  11  23  36  55  86 122 162 202 241 292 347
#     4  12  25  36  52  80 124 171 204 228 274 346
#     4  10  22  36  61  85 123 157 200 256 300 348
#     4  11  23  40  60  85 121 162 204 244 291 361
#
# _framework density 19.353497999999998
#
# number of rings (size 3 to 8) (size 9 to 14) (size 15 to 20)
#    0.000    1.200    4.000    1.800    2.800    4.800 
#    0.000    0.000    0.000    0.000    0.000    2.800 
#    0.000    0.000    0.000    0.000    0.000    0.000 
#
# Total GULP energy -111525.588678 kJ/mol
# GULP energy per Si atom -5576.279434 kJ/mol
# Density = 1.930945 g / cm^3
# Si number density = 19.353498 Si / 1000 Ang^3
#
#
#
# Elastic Constant Matrix: (Units=GPa)
#
#
# Indices 1 2 3 4 5 6 
#
# 1 67.8046 6.3434 24.8738 0.0000 0.0000 0.0000
# 2 6.3434 32.9545 11.7242 0.0000 0.0000 0.0000
# 3 24.8738 11.7242 104.3489 0.0000 0.0000 0.0000
# 4 0.0000 0.0000 0.0000 17.6202 0.0000 0.0000
# 5 0.0000 0.0000 0.0000 0.0000 25.2686 0.0000
# 6 0.0000 0.0000 0.0000 0.0000 0.0000 19.9943
#
#
#
# Elastic Compliance Matrix: (Units=1/GPa)
#
#
# Indices 1 2 3 4 5 6 
#
# 1 0.016266 -0.001825 -0.003672 0.000000 0.000000 0.000000
# 2 -0.001825 0.031813 -0.003139 0.000000 0.000000 0.000000
# 3 -0.003672 -0.003139 0.010811 0.000000 0.000000 0.000000
# 4 0.000000 0.000000 0.000000 0.056753 0.000000 0.000000
# 5 0.000000 0.000000 0.000000 0.000000 0.039575 0.000000
# 6 0.000000 0.000000 0.000000 0.000000 0.000000 0.050014
#
#
# Mechanical properties :
#
#
# Convention : Reuss Voigt Hill
#
# Bulk Modulus (GPa) = 24.02825 32.33234 28.18029
# Shear Modulus (GPa) = 21.15255 23.38771 22.27013
#
# Velocity S-wave (km/s) = 3.30958 3.48005 3.39588
# Velocity P-wave (km/s) = 5.20065 5.73499 5.47435
#
# Compressibility (1/GPa) = 0.04161768
#
# Stress axis : x y z
#
# Youngs Moduli (GPa) = 61.47730 31.43372 92.49523
#
# Poissons Ratio (x) = 0.05735 0.33968
# Poissons Ratio (y) = 0.11217 0.29039
# Poissons Ratio (z) = 0.22577 0.09868
#
# Static dielectric constant tensor:
#      x y z
#    x 1.781960 0.000000 0.000000 
#    y 0.000000 1.699440 0.000000 
#    z 0.000000 0.000000 1.718570 
# 
# From -- ./inp_files/4550.got.cif
#   From: 2010.05.17/outbox.cif.g08.bks.cpg/sg24_3_cif.got.tgz:4550.got - 2010.06.04 00:33:39.
