data_PCOD9335080
_publ_section_title
;
Structure prediction by ZEFSAII (Michael W. Deem and Ramdas Pophale) SiO2 
 PCOD9335080
Probable space group: I 21 21 21
;
_chemical_formula_sum "Si O2"
_cell_formula_units_Z 64
_cell_length_a 20.734425
_cell_length_b 16.909178
_cell_length_c 9.177978
_cell_angle_alpha 90.000000
_cell_angle_beta 90.000000
_cell_angle_gamma 90.000000
_cell_volume 3217.818205
_symmetry_space_group_name_H-M "I 21 21 21"
_symmetry_group_IT_number 24
_symmetry_cell_setting 'orthorhombic'
loop_
_space_group_symop_operation_xyz
x,y,z
-x,1/2-y,z
x,-y,1/2-z
1/2-x,y,-z
1/2+x,1/2+y,1/2+z
1/2-x,-y,1/2+z
1/2+x,1/2-y,-z
-x,1/2+y,1/2-z
loop_
_atom_site_type_symbol
_atom_site_label
_atom_site_fract_x
_atom_site_fract_y
_atom_site_fract_z
Si Si1 0.455323 0.676178 0.382221
Si Si2 0.111124 0.386786 0.148775
Si Si3 0.389627 0.450375 0.529705
Si Si4 0.338516 0.689656 0.163893
Si Si5 0.280973 0.258700 0.846163
Si Si6 0.265623 0.093725 0.724250
Si Si7 0.853132 0.641519 0.951723
Si Si8 0.019955 0.933482 0.856643
O O1 0.500000 0.750000 0.411918
O O2 0.445280 0.633428 0.535850
O O3 0.385670 0.691071 0.305461
O O4 0.492421 0.630131 0.255712
O O5 0.095352 0.411600 0.313423
O O6 0.142009 0.464870 0.069982
O O7 0.154068 0.308547 0.161509
O O8 0.348640 0.391220 0.426696
O O9 0.457759 0.462073 0.446863
O O10 0.266639 0.708689 0.219544
O O11 0.358381 0.764027 0.063571
O O12 0.285397 0.163171 0.836707
O O13 0.250000 0.278999 0.000000
O O14 0.311399 0.115734 0.589069
O O15 0.191024 0.111903 0.683543
O O16 0.272587 0.000000 0.750000
O O17 0.923060 0.602804 0.950953
O O18 0.047269 0.000000 0.750000
#
# Coordination Sequence:
#
# PCOD9335080 Si02
#       8
#     8   8   8   8   8   8   8   8
#     4  11  21  40  64  93 124 165 220 268 320 390
#     4  11  23  46  59  98 132 171 211 274 340 379
#     4  10  24  42  67  89 140 166 215 277 324 395
#     4  10  21  42  67  94 123 173 220 262 322 397
#     4  11  23  42  68  93 135 169 219 274 330 397
#     4  10  23  42  63  96 132 167 212 276 334 395
#     4  10  21  40  66  93 126 167 221 262 328 403
#     4  11  21  40  67  93 123 175 219 268 324 393
#
# _framework density 19.889251999999999
#
# number of rings (size 3 to 8) (size 9 to 14) (size 15 to 20)
#    0.000    1.500    3.750    1.125    1.750    1.500 
#   13.500    0.000    0.000    0.000    0.000    0.000 
#    0.000    0.000    0.000    0.000    0.000    0.000 
#
# Total GULP energy -178397.253411 kJ/mol
# GULP energy per Si atom -5574.914169 kJ/mol
# Density = 1.984398 g / cm^3
# Si number density = 19.889252 Si / 1000 Ang^3
#
#
#
# Elastic Constant Matrix: (Units=GPa)
#
#
# Indices 1 2 3 4 5 6 
#
# 1 37.8119 15.0797 -2.4209 0.0000 0.0000 0.0000
# 2 15.0797 104.5972 20.9242 0.0000 0.0000 0.0000
# 3 -2.4209 20.9242 64.2796 0.0000 0.0000 0.0000
# 4 0.0000 0.0000 0.0000 25.8667 0.0000 0.0000
# 5 0.0000 0.0000 0.0000 0.0000 18.0834 0.0000
# 6 0.0000 0.0000 0.0000 0.0000 0.0000 23.5180
#
#
#
# Elastic Compliance Matrix: (Units=1/GPa)
#
#
# Indices 1 2 3 4 5 6 
#
# 1 0.028453 -0.004617 0.002575 0.000000 0.000000 0.000000
# 2 -0.004617 0.010976 -0.003747 0.000000 0.000000 0.000000
# 3 0.002575 -0.003747 0.016874 0.000000 0.000000 0.000000
# 4 0.000000 0.000000 0.000000 0.038660 0.000000 0.000000
# 5 0.000000 0.000000 0.000000 0.000000 0.055299 0.000000
# 6 0.000000 0.000000 0.000000 0.000000 0.000000 0.042521
#
#
# Mechanical properties :
#
#
# Convention : Reuss Voigt Hill
#
# Bulk Modulus (GPa) = 22.35949 30.42830 26.39389
# Shear Modulus (GPa) = 22.80314 25.03400 23.91857
#
# Velocity S-wave (km/s) = 3.38968 3.55162 3.47160
# Velocity P-wave (km/s) = 5.15619 5.67016 5.41928
#
# Compressibility (1/GPa) = 0.04472374
#
# Stress axis : x y z
#
# Youngs Moduli (GPa) = 35.14588 91.11099 59.26411
#
# Poissons Ratio (x) = 0.42066 -0.15258
# Poissons Ratio (y) = 0.16227 0.22204
# Poissons Ratio (z) = -0.09048 0.34136
#
# Static dielectric constant tensor:
#      x y z
#    x 1.680660 0.000000 0.000000 
#    y 0.000000 1.941080 0.000000 
#    z 0.000000 0.000000 1.704810 
# 
# From -- ./inp_files/16031.got.cif
#   From: 2010.05.17/outbox.cif.g08.bks.cpg/sg24_9_cif.got.tgz:16031.got - 2010.06.04 00:33:39.
