data_PCOD9335295
_publ_section_title
;
Structure prediction by ZEFSAII (Michael W. Deem and Ramdas Pophale) SiO2 
 PCOD9335295
Probable space group: I 21 21 21
;
_chemical_formula_sum "Si O2"
_cell_formula_units_Z 36
_cell_length_a 25.436014
_cell_length_b 11.506677
_cell_length_c 5.620206
_cell_angle_alpha 90.000000
_cell_angle_beta 90.000000
_cell_angle_gamma 90.000000
_cell_volume 1644.944358
_symmetry_space_group_name_H-M "I 21 21 21"
_symmetry_group_IT_number 24
_symmetry_cell_setting 'orthorhombic'
loop_
_space_group_symop_operation_xyz
x,y,z
-x,1/2-y,z
x,-y,1/2-z
1/2-x,y,-z
1/2+x,1/2+y,1/2+z
1/2-x,-y,1/2+z
1/2+x,1/2-y,-z
-x,1/2+y,1/2-z
loop_
_atom_site_type_symbol
_atom_site_label
_atom_site_fract_x
_atom_site_fract_y
_atom_site_fract_z
Si Si1 0.597633 0.500000 0.750000
Si Si2 0.780528 0.500000 0.750000
Si Si3 0.440393 0.210831 0.033081
Si Si4 0.250000 0.572115 0.500000
Si Si5 0.354316 0.814897 0.092340
Si Si6 0.147051 0.635936 0.284558
O O1 0.563831 0.582125 0.578362
O O2 0.634007 0.412691 0.604502
O O3 0.750000 0.489159 0.500000
O O4 0.815543 0.382845 0.767179
O O5 0.500000 0.250000 0.050003
O O6 0.409574 0.209785 0.281414
O O7 0.404583 0.297631 0.874998
O O8 0.253428 0.500000 0.250000
O O9 0.195896 0.642431 0.466402
O O10 0.335335 0.700156 0.957737
O O11 0.135856 0.500000 0.250000
#
# Coordination Sequence:
#
# PCOD9335295 Si02
#       6
#     4   4   8   4   8   8
#     4  10  21  48  68  98 150 186 243 310 386 432
#     4  12  27  46  78 118 148 204 259 314 388 456
#     4  11  25  43  77 105 143 199 249 314 380 457
#     4  10  24  48  74 106 154 200 242 310 374 458
#     4  11  24  48  71 103 151 190 248 324 369 455
#     4  10  26  47  73 107 152 194 247 306 386 462
#
# _framework density 21.885241000000001
#
# number of rings (size 3 to 8) (size 9 to 14) (size 15 to 20)
#    0.000    1.333    2.222    0.667   10.889    5.333 
#    6.000    0.000    0.000    0.000    0.000    0.000 
#    0.000    0.000    0.000    0.000    0.000    0.000 
#
# Total GULP energy -100615.290298 kJ/mol
# GULP energy per Si atom -5589.738350 kJ/mol
# Density = 2.183543 g / cm^3
# Si number density = 21.885241 Si / 1000 Ang^3
#
#
#
# Elastic Constant Matrix: (Units=GPa)
#
#
# Indices 1 2 3 4 5 6 
#
# 1 140.7411 36.3513 33.5651 0.0000 0.0000 0.0000
# 2 36.3513 151.9755 40.3550 0.0000 0.0000 0.0000
# 3 33.5651 40.3550 93.3119 0.0000 0.0000 0.0002
# 4 0.0000 0.0000 0.0000 37.6156 0.0000 0.0001
# 5 0.0000 0.0000 0.0000 0.0000 55.9699 0.0002
# 6 0.0000 0.0000 0.0002 0.0001 0.0002 413.1443
#
#
#
# Elastic Compliance Matrix: (Units=1/GPa)
#
#
# Indices 1 2 3 4 5 6 
#
# 1 0.007992 -0.001297 -0.002314 0.000000 0.000000 0.000000
# 2 -0.001297 0.007644 -0.002839 0.000000 0.000000 0.000000
# 3 -0.002314 -0.002839 0.012777 0.000000 0.000000 0.000000
# 4 0.000000 0.000000 0.000000 0.026585 0.000000 0.000000
# 5 0.000000 0.000000 0.000000 0.000000 0.017867 0.000000
# 6 0.000000 0.000000 0.000000 0.000000 0.000000 0.002420
#
#
# Mechanical properties :
#
#
# Convention : Reuss Voigt Hill
#
# Bulk Modulus (GPa) = 64.46368 67.39679 65.93023
# Shear Modulus (GPa) = 53.55795 119.72976 86.64385
#
# Velocity S-wave (km/s) = 4.95230 7.40451 6.29889
# Velocity P-wave (km/s) = 7.88794 10.19631 9.11549
#
# Compressibility (1/GPa) = 0.01551261
#
# Stress axis : x y z
#
# Youngs Moduli (GPa) = 125.12320 130.81755 78.26584
#
# Poissons Ratio (x) = 0.16970 0.18109
# Poissons Ratio (y) = 0.16232 0.22222
# Poissons Ratio (z) = 0.28951 0.37143
#
# Static dielectric constant tensor:
#      x y z
#    x 1.776290 0.000000 0.000000 
#    y 0.000000 1.769340 0.000000 
#    z 0.000000 0.000000 1.862010 
# 
# From -- ./inp_files/2315.got.cif
#   From: 2010.05.17/outbox.cif.g08.bks.cpg/sg24_2_cif.got.tgz:2315.got - 2010.06.04 00:33:39.
