data_PCOD9335132
_publ_section_title
;
Structure prediction by ZEFSAII (Michael W. Deem and Ramdas Pophale) SiO2 
 PCOD9335132
Probable space group: I 21 21 21
;
_chemical_formula_sum "Si O2"
_cell_formula_units_Z 40
_cell_length_a 5.064452
_cell_length_b 15.754158
_cell_length_c 24.470650
_cell_angle_alpha 90.000000
_cell_angle_beta 90.000000
_cell_angle_gamma 90.000000
_cell_volume 1952.419612
_symmetry_space_group_name_H-M "I 21 21 21"
_symmetry_group_IT_number 24
_symmetry_cell_setting 'orthorhombic'
loop_
_space_group_symop_operation_xyz
x,y,z
-x,1/2-y,z
x,-y,1/2-z
1/2-x,y,-z
1/2+x,1/2+y,1/2+z
1/2-x,-y,1/2+z
1/2+x,1/2-y,-z
-x,1/2+y,1/2-z
loop_
_atom_site_type_symbol
_atom_site_label
_atom_site_fract_x
_atom_site_fract_y
_atom_site_fract_z
Si Si1 0.621766 0.156562 0.827939
Si Si2 0.864838 0.403897 0.765707
Si Si3 0.750975 0.310427 0.652773
Si Si4 0.703897 0.071107 0.939541
Si Si5 0.794230 0.451767 0.560542
O O1 0.500000 0.250000 0.823632
O O2 0.381381 0.096744 0.807635
O O3 0.712957 0.135182 0.889275
O O4 0.877875 0.141328 0.790623
O O5 0.934957 0.500000 0.750000
O O6 0.773295 0.354541 0.711742
O O7 0.500000 0.250000 0.650552
O O8 0.746358 0.383208 0.607089
O O9 0.000000 0.250000 0.643943
O O10 0.419692 0.026811 0.937161
O O11 0.750000 0.108644 0.000000
O O12 0.921217 0.996324 0.933410
O O13 0.750000 0.413316 0.500000
#
# Coordination Sequence:
#
# PCOD9335132 Si02
#       5
#     8   8   8   8   8
#     4  12  24  41  64  93 127 158 200 257 312 359
#     4  12  25  42  64  89 123 166 208 247 301 370
#     4  12  24  39  61  91 126 158 200 254 307 358
#     4  10  21  41  65  90 121 161 207 248 296 363
#     4  10  22  41  64  89 122 163 206 248 295 360
#
# _framework density 20.487399
#
# number of rings (size 3 to 8) (size 9 to 14) (size 15 to 20)
#    0.000    0.800    0.000    9.000    0.000    0.800 
#    0.000    5.000    0.000    0.000    0.000    0.000 
#    0.000    0.000    0.000    0.000    0.000    0.000 
#
# Total GULP energy -111938.969449 kJ/mol
# GULP energy per Si atom -5596.948472 kJ/mol
# Density = 2.044077 g / cm^3
# Si number density = 20.487399 Si / 1000 Ang^3
#
#
#
# Elastic Constant Matrix: (Units=GPa)
#
#
# Indices 1 2 3 4 5 6 
#
# 1 95.6338 4.0337 39.9277 0.0000 0.0000 0.0000
# 2 4.0337 46.0247 44.6861 0.0000 0.0000 0.0000
# 3 39.9277 44.6861 155.2960 0.0000 0.0000 0.0000
# 4 0.0000 0.0000 0.0000 5.6364 0.0000 0.0000
# 5 0.0000 0.0000 0.0000 0.0000 30.5304 0.0000
# 6 0.0000 0.0000 0.0000 0.0000 0.0000 20.6117
#
#
#
# Elastic Compliance Matrix: (Units=1/GPa)
#
#
# Indices 1 2 3 4 5 6 
#
# 1 0.011949 0.002686 -0.003845 0.000000 0.000000 0.000000
# 2 0.002686 0.030755 -0.009540 0.000000 0.000000 0.000000
# 3 -0.003845 -0.009540 0.010173 0.000000 0.000000 0.000000
# 4 0.000000 0.000000 0.000000 0.177419 0.000000 0.000000
# 5 0.000000 0.000000 0.000000 0.000000 0.032754 0.000000
# 6 0.000000 0.000000 0.000000 0.000000 0.000000 0.048516
#
#
# Mechanical properties :
#
#
# Convention : Reuss Voigt Hill
#
# Bulk Modulus (GPa) = 31.76829 52.69441 42.23135
# Shear Modulus (GPa) = 14.55788 25.24282 19.90035
#
# Velocity S-wave (km/s) = 2.66856 3.51396 3.12002
# Velocity P-wave (km/s) = 5.00348 6.49924 5.79978
#
# Compressibility (1/GPa) = 0.03147793
#
# Stress axis : x y z
#
# Youngs Moduli (GPa) = 83.69222 32.51528 98.29900
#
# Poissons Ratio (x) = -0.08733 0.37795
# Poissons Ratio (y) = -0.22479 0.93779
# Poissons Ratio (z) = 0.32179 0.31020
#
# Static dielectric constant tensor:
#      x y z
#    x 1.697580 0.000000 0.000000 
#    y 0.000000 1.685750 0.000000 
#    z 0.000000 0.000000 1.760130 
# 
# From -- ./inp_files/34616.got.cif
#   From: 2010.05.17/outbox.cif.g08.bks.cpg/sg24_18_cif.got.tgz:34616.got - 2010.06.04 00:33:39.
