data_PCOD9335291
_publ_section_title
;
Structure prediction by ZEFSAII (Michael W. Deem and Ramdas Pophale) SiO2 
 PCOD9335291
Probable space group: I 21 21 21
;
_chemical_formula_sum "Si O2"
_cell_formula_units_Z 32
_cell_length_a 6.156889
_cell_length_b 14.860934
_cell_length_c 14.098889
_cell_angle_alpha 90.000000
_cell_angle_beta 90.000000
_cell_angle_gamma 90.000000
_cell_volume 1290.007754
_symmetry_space_group_name_H-M "I 21 21 21"
_symmetry_group_IT_number 24
_symmetry_cell_setting 'orthorhombic'
loop_
_space_group_symop_operation_xyz
x,y,z
-x,1/2-y,z
x,-y,1/2-z
1/2-x,y,-z
1/2+x,1/2+y,1/2+z
1/2-x,-y,1/2+z
1/2+x,1/2-y,-z
-x,1/2+y,1/2-z
loop_
_atom_site_type_symbol
_atom_site_label
_atom_site_fract_x
_atom_site_fract_y
_atom_site_fract_z
Si Si1 0.835130 0.829025 0.892832
Si Si2 0.191505 0.189330 0.898256
Si Si3 0.034525 0.598976 0.266611
Si Si4 0.602213 0.025510 0.092624
O O1 0.627781 0.851068 0.825995
O O2 0.964976 0.923726 0.886487
O O3 0.000000 0.750000 0.866115
O O4 0.750000 0.813250 0.000000
O O5 0.383775 0.164593 0.827595
O O6 0.000000 0.250000 0.855444
O O7 0.250000 0.233662 0.000000
O O8 0.090287 0.093217 0.923365
O O9 0.925834 0.500000 0.250000
O O10 0.244773 0.569359 0.327655
O O11 0.750000 0.020061 0.000000
#
# Coordination Sequence:
#
# PCOD9335291 Si02
#       4
#     8   8   8   8
#     4  10  24  51  77 112 152 198 253 307 369 441
#     4  12  26  45  77 114 153 196 246 308 383 444
#     4  10  24  49  78 109 148 199 251 305 373 445
#     4  10  21  46  78 109 149 193 246 311 375 444
#
# _framework density 24.806051
#
# number of rings (size 3 to 8) (size 9 to 14) (size 15 to 20)
#    0.000    1.500    2.500    0.750    0.000    5.000 
#    9.000    2.500    0.000    0.000    0.000    0.000 
#    0.000    0.000    0.000    0.000    0.000    0.000 
#
# Total GULP energy -89608.023610 kJ/mol
# GULP energy per Si atom -5600.501476 kJ/mol
# Density = 2.474959 g / cm^3
# Si number density = 24.806051 Si / 1000 Ang^3
#
#
#
# Elastic Constant Matrix: (Units=GPa)
#
#
# Indices 1 2 3 4 5 6 
#
# 1 84.1809 82.2224 55.9116 0.0000 0.0000 0.0000
# 2 82.2224 189.5011 49.3262 0.0000 0.0000 0.0000
# 3 55.9116 49.3262 169.4902 0.0000 0.0000 0.0000
# 4 0.0000 0.0000 0.0000 12.5799 0.0000 0.0000
# 5 0.0000 0.0000 0.0000 0.0000 38.0220 0.0000
# 6 0.0000 0.0000 0.0000 0.0000 0.0000 49.9225
#
#
#
# Elastic Compliance Matrix: (Units=1/GPa)
#
#
# Indices 1 2 3 4 5 6 
#
# 1 0.024448 -0.009206 -0.005386 0.000000 0.000000 0.000000
# 2 -0.009206 0.009176 0.000366 0.000000 0.000000 0.000000
# 3 -0.005386 0.000366 0.007570 0.000000 0.000000 0.000000
# 4 0.000000 0.000000 0.000000 0.079492 0.000000 0.000000
# 5 0.000000 0.000000 0.000000 0.000000 0.026301 0.000000
# 6 0.000000 0.000000 0.000000 0.000000 0.000000 0.020031
#
#
# Mechanical properties :
#
#
# Convention : Reuss Voigt Hill
#
# Bulk Modulus (GPa) = 78.47097 90.89918 84.68507
# Shear Modulus (GPa) = 25.03560 37.15235 31.09397
#
# Velocity S-wave (km/s) = 3.18032 3.87423 3.54430
# Velocity P-wave (km/s) = 6.72223 7.53235 7.13879
#
# Compressibility (1/GPa) = 0.01274357
#
# Stress axis : x y z
#
# Youngs Moduli (GPa) = 40.90327 108.98074 132.09887
#
# Poissons Ratio (x) = 1.00325 0.71145
# Poissons Ratio (y) = 0.37655 -0.04840
# Poissons Ratio (z) = 0.22030 -0.03993
#
# Static dielectric constant tensor:
#      x y z
#    x 1.947460 0.000000 0.000000 
#    y 0.000000 2.019890 0.000000 
#    z 0.000000 0.000000 1.989660 
# 
# From -- ./inp_files/12106.got.cif
#   From: 2010.05.17/outbox.cif.g08.bks.cpg/sg24_7_cif.got.tgz:12106.got - 2010.06.04 00:33:39.
