data_PCOD9335672
_publ_section_title
;
Structure prediction by ZEFSAII (Michael W. Deem and Ramdas Pophale) SiO2 
 PCOD9335672
Probable space group: I 21 21 21
;
_chemical_formula_sum "Si O2"
_cell_formula_units_Z 48
_cell_length_a 5.579402
_cell_length_b 26.267454
_cell_length_c 14.488992
_cell_angle_alpha 90.000000
_cell_angle_beta 90.000000
_cell_angle_gamma 90.000000
_cell_volume 2123.458642
_symmetry_space_group_name_H-M "I 21 21 21"
_symmetry_group_IT_number 24
_symmetry_cell_setting 'orthorhombic'
loop_
_space_group_symop_operation_xyz
x,y,z
-x,1/2-y,z
x,-y,1/2-z
1/2-x,y,-z
1/2+x,1/2+y,1/2+z
1/2-x,-y,1/2+z
1/2+x,1/2-y,-z
-x,1/2+y,1/2-z
loop_
_atom_site_type_symbol
_atom_site_label
_atom_site_fract_x
_atom_site_fract_y
_atom_site_fract_z
Si Si1 0.500000 0.250000 0.409934
Si Si2 0.250000 0.015447 0.000000
Si Si3 0.500000 0.750000 0.794706
Si Si4 0.936254 0.000000 0.750000
Si Si5 0.044715 0.358148 0.564807
Si Si6 0.836694 0.858145 0.250757
Si Si7 0.361809 0.572121 0.399151
Si Si8 0.821273 0.433344 0.357521
O O1 0.252625 0.245370 0.350739
O O2 0.493145 0.301112 0.470166
O O3 0.372784 0.053021 0.073850
O O4 0.103563 0.975726 0.065747
O O5 0.528498 0.803991 0.740367
O O6 0.785265 0.027035 0.829339
O O7 0.109763 0.040841 0.702087
O O8 0.250000 0.382762 0.500000
O O9 0.153557 0.351061 0.666775
O O10 0.806954 0.388632 0.586062
O O11 0.700210 0.877484 0.342067
O O12 0.999886 0.904466 0.210987
O O13 0.250000 0.573284 0.500000
#
# Coordination Sequence:
#
# PCOD9335672 Si02
#       8
#     4   4   4   4   8   8   8   8
#     4  10  22  43  64 109 152 196 252 313 378 459
#     4  10  26  42  64 102 142 186 250 302 372 458
#     4  10  22  45  74 107 146 196 256 319 380 461
#     4  10  24  42  66  98 136 186 232 292 360 436
#     4  11  23  40  67 101 143 192 245 301 374 454
#     4  11  24  42  72  99 143 192 246 312 384 451
#     4  11  26  43  67  99 139 186 241 304 373 450
#     4  11  22  42  65  99 142 184 243 302 369 452
#
# _framework density 22.604631999999999
#
# number of rings (size 3 to 8) (size 9 to 14) (size 15 to 20)
#    0.000    1.333    3.333    1.000    7.000    5.333 
#    1.500    0.000    0.000    6.000    0.000    0.000 
#    0.000    0.000    0.000    0.000    0.000    0.000 
#
# Total GULP energy -133874.398983 kJ/mol
# GULP energy per Si atom -5578.099958 kJ/mol
# Density = 2.255318 g / cm^3
# Si number density = 22.604632 Si / 1000 Ang^3
#
#
#
# Elastic Constant Matrix: (Units=GPa)
#
#
# Indices 1 2 3 4 5 6 
#
# 1 76.2178 44.6754 25.7193 0.0000 0.0000 0.0000
# 2 44.6754 131.0716 55.5844 0.0000 0.0000 0.0000
# 3 25.7193 55.5844 137.7907 0.0000 0.0000 0.0000
# 4 0.0000 0.0000 0.0000 30.3217 0.0000 0.0000
# 5 0.0000 0.0000 0.0000 0.0000 40.5231 0.0000
# 6 0.0000 0.0000 0.0000 0.0000 0.0000 33.4659
#
#
#
# Elastic Compliance Matrix: (Units=1/GPa)
#
#
# Indices 1 2 3 4 5 6 
#
# 1 0.016505 -0.005211 -0.000979 0.000000 0.000000 0.000000
# 2 -0.005211 0.010849 -0.003404 0.000000 0.000000 0.000000
# 3 -0.000979 -0.003404 0.008813 0.000000 0.000000 0.000000
# 4 0.000000 0.000000 0.000000 0.032980 0.000000 0.000000
# 5 0.000000 0.000000 0.000000 0.000000 0.024677 0.000000
# 6 0.000000 0.000000 0.000000 0.000000 0.000000 0.029881
#
#
# Mechanical properties :
#
#
# Convention : Reuss Voigt Hill
#
# Bulk Modulus (GPa) = 58.89100 66.33761 62.61431
# Shear Modulus (GPa) = 33.65836 35.46886 34.56361
#
# Velocity S-wave (km/s) = 3.86295 3.96548 3.91455
# Velocity P-wave (km/s) = 6.78275 7.09770 6.94201
#
# Compressibility (1/GPa) = 0.01698052
#
# Stress axis : x y z
#
# Youngs Moduli (GPa) = 60.58862 92.17518 113.46641
#
# Poissons Ratio (x) = 0.48028 0.11106
# Poissons Ratio (y) = 0.31570 0.38622
# Poissons Ratio (z) = 0.05930 0.31375
#
# Static dielectric constant tensor:
#      x y z
#    x 1.952910 0.000000 0.000000 
#    y 0.000000 1.912080 0.000000 
#    z 0.000000 0.000000 1.882010 
# 
# From -- ./inp_files/23972.got.cif
#   From: 2010.05.17/outbox.cif.g08.bks.cpg/sg24_12_cif.got.tgz:23972.got - 2010.06.04 00:33:39.
