data_PCOD9335599
_publ_section_title
;
Structure prediction by ZEFSAII (Michael W. Deem and Ramdas Pophale) SiO2 
 PCOD9335599
Probable space group: I 21 21 21
;
_chemical_formula_sum "Si O2"
_cell_formula_units_Z 60
_cell_length_a 24.762239
_cell_length_b 7.797611
_cell_length_c 14.252826
_cell_angle_alpha 90.000000
_cell_angle_beta 90.000000
_cell_angle_gamma 90.000000
_cell_volume 2752.025540
_symmetry_space_group_name_H-M "I 21 21 21"
_symmetry_group_IT_number 24
_symmetry_cell_setting 'orthorhombic'
loop_
_space_group_symop_operation_xyz
x,y,z
-x,1/2-y,z
x,-y,1/2-z
1/2-x,y,-z
1/2+x,1/2+y,1/2+z
1/2-x,-y,1/2+z
1/2+x,1/2-y,-z
-x,1/2+y,1/2-z
loop_
_atom_site_type_symbol
_atom_site_label
_atom_site_fract_x
_atom_site_fract_y
_atom_site_fract_z
Si Si1 0.269275 0.301509 0.253614
Si Si2 0.502059 0.553450 0.563814
Si Si3 0.115402 0.456360 0.472773
Si Si4 0.663529 0.429298 0.351925
Si Si5 0.347995 0.692448 0.791744
Si Si6 0.945714 0.313247 0.597370
Si Si7 0.691588 0.745357 0.452875
Si Si8 0.570928 0.500000 0.750000
O O1 0.256763 0.500000 0.250000
O O2 0.303251 0.247186 0.345270
O O3 0.208824 0.227099 0.257087
O O4 0.302028 0.283888 0.157120
O O5 0.500000 0.750000 0.529911
O O6 0.439958 0.503346 0.580761
O O7 0.530463 0.429434 0.487397
O O8 0.534803 0.534108 0.659061
O O9 0.151271 0.340892 0.403662
O O10 0.090089 0.344104 0.556914
O O11 0.148233 0.626242 0.502136
O O12 0.683927 0.500000 0.250000
O O13 0.599405 0.413505 0.345898
O O14 0.675362 0.544897 0.442910
O O15 0.356841 0.500000 0.750000
O O16 0.393343 0.830117 0.766221
O O17 0.000000 0.250000 0.648457
O O18 0.750000 0.764685 0.500000
#
# Coordination Sequence:
#
# PCOD9335599 Si02
#       8
#     8   8   8   8   8   8   8   4
#     4  10  22  42  66  94 131 173 224 287 349 418
#     4  11  24  40  63  92 130 178 226 277 344 411
#     4  11  23  42  62  91 133 176 225 279 338 425
#     4  10  23  42  65  95 128 165 222 287 346 416
#     4  11  24  41  65  98 140 179 232 286 344 426
#     4  10  22  42  64  90 126 170 226 281 344 422
#     4  11  23  40  66  94 133 176 223 283 354 422
#     4  12  26  40  68  98 142 186 236 288 352 420
#
# _framework density 21.802123000000002
#
# number of rings (size 3 to 8) (size 9 to 14) (size 15 to 20)
#    0.000    1.333    1.333    4.000    5.600    2.133 
#    0.000    7.333    0.000    0.000    0.000    0.000 
#    0.000    0.000    0.000    0.000    0.000    0.000 
#
# Total GULP energy -167268.834228 kJ/mol
# GULP energy per Si atom -5575.627808 kJ/mol
# Density = 2.175250 g / cm^3
# Si number density = 21.802123 Si / 1000 Ang^3
#
#
#
# Elastic Constant Matrix: (Units=GPa)
#
#
# Indices 1 2 3 4 5 6 
#
# 1 141.9120 51.6605 37.6784 0.0000 0.0000 0.0000
# 2 51.6605 96.7659 22.4193 0.0000 0.0000 0.0000
# 3 37.6784 22.4193 36.3016 0.0000 0.0000 0.0000
# 4 0.0000 0.0000 0.0000 10.4260 0.0000 0.0000
# 5 0.0000 0.0000 0.0000 0.0000 26.9360 0.0000
# 6 0.0000 0.0000 0.0000 0.0000 0.0000 22.5798
#
#
#
# Elastic Compliance Matrix: (Units=1/GPa)
#
#
# Indices 1 2 3 4 5 6 
#
# 1 0.010743 -0.003678 -0.008879 0.000000 0.000000 0.000000
# 2 -0.003678 0.013319 -0.004408 0.000000 0.000000 0.000000
# 3 -0.008879 -0.004408 0.039485 0.000000 0.000000 0.000000
# 4 0.000000 0.000000 0.000000 0.095914 0.000000 0.000000
# 5 0.000000 0.000000 0.000000 0.000000 0.037125 0.000000
# 6 0.000000 0.000000 0.000000 0.000000 0.000000 0.044287
#
#
# Mechanical properties :
#
#
# Convention : Reuss Voigt Hill
#
# Bulk Modulus (GPa) = 33.76440 55.38844 44.57642
# Shear Modulus (GPa) = 17.56382 22.86978 20.21680
#
# Velocity S-wave (km/s) = 2.84139 3.24229 3.04844
# Velocity P-wave (km/s) = 5.12689 6.28306 5.73419
#
# Compressibility (1/GPa) = 0.02961699
#
# Stress axis : x y z
#
# Youngs Moduli (GPa) = 93.08382 75.07953 25.32617
#
# Poissons Ratio (x) = 0.27616 0.22487
# Poissons Ratio (y) = 0.34239 0.11164
# Poissons Ratio (z) = 0.82647 0.33095
#
# Static dielectric constant tensor:
#      x y z
#    x 1.822230 0.000000 0.000000 
#    y 0.000000 2.380150 0.000000 
#    z 0.000000 0.000000 1.807260 
# 
# From -- ./inp_files/27858.got.cif
#   From: 2010.05.17/outbox.cif.g08.bks.cpg/sg24_14_cif.got.tgz:27858.got - 2010.06.04 00:33:39.
