data_PCOD9335873
_publ_section_title
;
Structure prediction by ZEFSAII (Michael W. Deem and Ramdas Pophale) SiO2 
 PCOD9335873
Probable space group: I 21 21 21
;
_chemical_formula_sum "Si O2"
_cell_formula_units_Z 32
_cell_length_a 17.400300
_cell_length_b 14.403821
_cell_length_c 5.629221
_cell_angle_alpha 90.000000
_cell_angle_beta 90.000000
_cell_angle_gamma 90.000000
_cell_volume 1410.856199
_symmetry_space_group_name_H-M "I 21 21 21"
_symmetry_group_IT_number 24
_symmetry_cell_setting 'orthorhombic'
loop_
_space_group_symop_operation_xyz
x,y,z
-x,1/2-y,z
x,-y,1/2-z
1/2-x,y,-z
1/2+x,1/2+y,1/2+z
1/2-x,-y,1/2+z
1/2+x,1/2-y,-z
-x,1/2+y,1/2-z
loop_
_atom_site_type_symbol
_atom_site_label
_atom_site_fract_x
_atom_site_fract_y
_atom_site_fract_z
Si Si1 0.861289 0.744085 0.859057
Si Si2 0.500000 0.750000 0.495756
Si Si3 0.657650 0.457085 0.504004
Si Si4 0.750000 0.183380 0.000000
Si Si5 0.398165 0.608425 0.754064
O O1 0.928387 0.726340 0.670298
O O2 0.858481 0.652621 0.016182
O O3 0.782387 0.755277 0.714463
O O4 0.878120 0.839190 0.999818
O O5 0.469904 0.665247 0.652141
O O6 0.629433 0.500000 0.250000
O O7 0.750000 0.471119 0.500000
O O8 0.627745 0.500000 0.750000
O O9 0.822422 0.124979 0.091467
O O10 0.413687 0.500000 0.750000
#
# Coordination Sequence:
#
# PCOD9335873 Si02
#       5
#     8   4   8   4   8
#     4  11  24  47  68 103 148 190 250 312 377 460
#     4  10  26  48  68 100 144 198 248 304 380 462
#     4  10  23  40  70 106 143 185 241 303 372 440
#     4  10  24  38  80 106 142 188 242 324 386 448
#     4  11  25  46  74 105 148 191 254 314 388 458
#
# _framework density 22.681260999999999
#
# number of rings (size 3 to 8) (size 9 to 14) (size 15 to 20)
#    0.000    1.500    0.000    3.000   15.750    3.000 
#    9.000    0.000    0.000    0.000    0.000    0.000 
#    0.000    0.000    0.000    0.000    0.000    0.000 
#
# Total GULP energy -89523.824875 kJ/mol
# GULP energy per Si atom -5595.239055 kJ/mol
# Density = 2.262964 g / cm^3
# Si number density = 22.681261 Si / 1000 Ang^3
#
#
#
# Elastic Constant Matrix: (Units=GPa)
#
#
# Indices 1 2 3 4 5 6 
#
# 1 78.6671 68.5376 45.7247 0.0000 0.0000 0.0000
# 2 68.5376 202.2510 84.6762 0.0000 0.0000 0.0000
# 3 45.7247 84.6762 132.9182 0.0000 0.0000 0.0000
# 4 0.0000 0.0000 0.0000 27.6421 0.0000 0.0000
# 5 0.0000 0.0000 0.0000 0.0000 21.1286 0.0000
# 6 0.0000 0.0000 0.0000 0.0000 0.0000 23.9438
#
#
#
# Elastic Compliance Matrix: (Units=1/GPa)
#
#
# Indices 1 2 3 4 5 6 
#
# 1 0.019060 -0.005065 -0.003330 0.000000 0.000000 0.000000
# 2 -0.005065 0.008089 -0.003411 0.000000 0.000000 0.000000
# 3 -0.003330 -0.003411 0.010842 0.000000 0.000000 0.000000
# 4 0.000000 0.000000 0.000000 0.036177 0.000000 0.000000
# 5 0.000000 0.000000 0.000000 0.000000 0.047329 0.000000
# 6 0.000000 0.000000 0.000000 0.000000 0.000000 0.041764
#
#
# Mechanical properties :
#
#
# Convention : Reuss Voigt Hill
#
# Bulk Modulus (GPa) = 69.54445 90.19036 79.86741
# Shear Modulus (GPa) = 26.08721 28.86942 27.47832
#
# Velocity S-wave (km/s) = 3.39509 3.57155 3.48443
# Velocity P-wave (km/s) = 6.78948 7.54046 7.17480
#
# Compressibility (1/GPa) = 0.01437929
#
# Stress axis : x y z
#
# Youngs Moduli (GPa) = 52.46586 123.63191 92.23568
#
# Poissons Ratio (x) = 0.62615 0.30717
# Poissons Ratio (y) = 0.26572 0.31458
# Poissons Ratio (z) = 0.17473 0.42166
#
# Static dielectric constant tensor:
#      x y z
#    x 1.854920 0.000000 0.000000 
#    y 0.000000 1.829910 0.000000 
#    z 0.000000 0.000000 1.891040 
# 
# From -- ./inp_files/3224.got.cif
#   From: 2010.05.17/outbox.cif.g08.bks.cpg/sg24_2_cif.got.tgz:3224.got - 2010.06.04 00:33:39.
