data_PCOD9335289
_publ_section_title
;
Structure prediction by ZEFSAII (Michael W. Deem and Ramdas Pophale) SiO2 
 PCOD9335289
Probable space group: I 21 21 21
;
_chemical_formula_sum "Si O2"
_cell_formula_units_Z 40
_cell_length_a 10.993295
_cell_length_b 17.382375
_cell_length_c 8.835566
_cell_angle_alpha 90.000000
_cell_angle_beta 90.000000
_cell_angle_gamma 90.000000
_cell_volume 1688.384562
_symmetry_space_group_name_H-M "I 21 21 21"
_symmetry_group_IT_number 24
_symmetry_cell_setting 'orthorhombic'
loop_
_space_group_symop_operation_xyz
x,y,z
-x,1/2-y,z
x,-y,1/2-z
1/2-x,y,-z
1/2+x,1/2+y,1/2+z
1/2-x,-y,1/2+z
1/2+x,1/2-y,-z
-x,1/2+y,1/2-z
loop_
_atom_site_type_symbol
_atom_site_label
_atom_site_fract_x
_atom_site_fract_y
_atom_site_fract_z
Si Si1 0.692812 0.679946 0.833895
Si Si2 0.164364 0.054132 0.120007
Si Si3 0.933224 0.112330 0.431076
Si Si4 0.473094 0.452695 0.099563
Si Si5 0.794768 0.844034 0.773138
O O1 0.737859 0.615560 0.717089
O O2 0.550803 0.656229 0.863506
O O3 0.735378 0.759740 0.758071
O O4 0.750000 0.676417 0.000000
O O5 0.112451 0.000000 0.250000
O O6 0.250000 0.010121 0.000000
O O7 0.066504 0.091424 0.009578
O O8 0.881417 0.159373 0.577026
O O9 0.824442 0.107231 0.312420
O O10 0.945334 0.026638 0.495726
O O11 0.516928 0.500000 0.250000
O O12 0.371275 0.391978 0.150831
#
# Coordination Sequence:
#
# PCOD9335289 Si02
#       5
#     8   8   8   8   8
#     4  12  25  45  80 113 159 212 264 329 419 502
#     4  12  26  47  76 113 153 204 270 339 412 487
#     4  10  21  46  74 114 149 205 263 325 398 488
#     4  10  23  47  78 113 148 204 268 337 398 484
#     4  10  23  45  78 110 151 205 263 328 400 491
#
# _framework density 23.691282999999999
#
# number of rings (size 3 to 8) (size 9 to 14) (size 15 to 20)
#    0.000    1.200    4.000    1.800    5.600    0.000 
#   21.600    4.000    0.000    0.000    0.000    0.000 
#    0.000    0.000    0.000    0.000    0.000    0.000 
#
# Total GULP energy -111480.623707 kJ/mol
# GULP energy per Si atom -5574.031185 kJ/mol
# Density = 2.363736 g / cm^3
# Si number density = 23.691283 Si / 1000 Ang^3
#
#
#
# Elastic Constant Matrix: (Units=GPa)
#
#
# Indices 1 2 3 4 5 6 
#
# 1 107.7602 26.0350 72.2974 0.0000 0.0000 0.0000
# 2 26.0350 123.5763 62.0298 0.0000 0.0000 0.0000
# 3 72.2974 62.0298 134.6140 -0.0002 0.0001 0.0000
# 4 0.0000 0.0000 -0.0002 22.4314 0.0000 0.0000
# 5 0.0000 0.0000 0.0001 0.0000 46.1302 0.0000
# 6 0.0000 0.0000 0.0000 0.0000 0.0000 33.3584
#
#
#
# Elastic Compliance Matrix: (Units=1/GPa)
#
#
# Indices 1 2 3 4 5 6 
#
# 1 0.014626 0.001121 -0.008371 0.000000 0.000000 0.000000
# 2 0.001121 0.010613 -0.005492 0.000000 0.000000 0.000000
# 3 -0.008371 -0.005492 0.014456 0.000000 0.000000 0.000000
# 4 0.000000 0.000000 0.000000 0.044580 0.000000 0.000000
# 5 0.000000 0.000000 0.000000 0.000000 0.021678 0.000000
# 6 0.000000 0.000000 0.000000 0.000000 0.000000 0.029977
#
#
# Mechanical properties :
#
#
# Convention : Reuss Voigt Hill
#
# Bulk Modulus (GPa) = 70.38258 76.29723 73.33991
# Shear Modulus (GPa) = 30.09298 34.08989 32.09143
#
# Velocity S-wave (km/s) = 3.56787 3.79743 3.68444
# Velocity P-wave (km/s) = 6.83708 7.17649 7.00884
#
# Compressibility (1/GPa) = 0.01420806
#
# Stress axis : x y z
#
# Youngs Moduli (GPa) = 68.37343 94.22441 69.17742
#
# Poissons Ratio (x) = -0.10560 0.57911
# Poissons Ratio (y) = -0.07663 0.37995
# Poissons Ratio (z) = 0.57238 0.51751
#
# Static dielectric constant tensor:
#      x y z
#    x 2.017980 0.000000 0.000000 
#    y 0.000000 2.008560 0.000000 
#    z 0.000000 0.000000 1.889310 
# 
# From -- ./inp_files/10705.got.cif
#   From: 2010.05.17/outbox.cif.g08.bks.cpg/sg24_6_cif.got.tgz:10705.got - 2010.06.04 00:33:39.
