data_PCOD9335796
_publ_section_title
;
Structure prediction by ZEFSAII (Michael W. Deem and Ramdas Pophale) SiO2 
 PCOD9335796
Probable space group: I 21 21 21
;
_chemical_formula_sum "Si O2"
_cell_formula_units_Z 60
_cell_length_a 8.198821
_cell_length_b 24.926850
_cell_length_c 11.386816
_cell_angle_alpha 90.000000
_cell_angle_beta 90.000000
_cell_angle_gamma 90.000000
_cell_volume 2327.132482
_symmetry_space_group_name_H-M "I 21 21 21"
_symmetry_group_IT_number 24
_symmetry_cell_setting 'orthorhombic'
loop_
_space_group_symop_operation_xyz
x,y,z
-x,1/2-y,z
x,-y,1/2-z
1/2-x,y,-z
1/2+x,1/2+y,1/2+z
1/2-x,-y,1/2+z
1/2+x,1/2-y,-z
-x,1/2+y,1/2-z
loop_
_atom_site_type_symbol
_atom_site_label
_atom_site_fract_x
_atom_site_fract_y
_atom_site_fract_z
Si Si1 0.964264 0.468817 0.366657
Si Si2 0.361146 0.639530 0.099853
Si Si3 0.055038 0.806962 0.528680
Si Si4 0.772222 0.955061 0.365561
Si Si5 0.049058 0.095615 0.801891
Si Si6 0.094581 0.157123 0.424437
Si Si7 0.913983 0.154921 0.211524
Si Si8 0.250000 0.955461 0.500000
O O1 0.894568 0.500000 0.250000
O O2 0.920349 0.407981 0.398468
O O3 0.898709 0.505666 0.471854
O O4 0.154031 0.485596 0.360054
O O5 0.516933 0.611382 0.165605
O O6 0.243287 0.660909 0.202695
O O7 0.250000 0.609088 0.000000
O O8 0.449123 0.678334 0.007763
O O9 0.250000 0.808709 0.500000
O O10 0.010022 0.851396 0.623644
O O11 0.000000 0.750000 0.575694
O O12 0.945432 0.818165 0.412800
O O13 0.750000 0.939421 0.500000
O O14 0.594058 0.947270 0.315051
O O15 0.896852 0.909448 0.314857
O O16 0.203694 0.076525 0.880633
O O17 0.250000 0.169542 0.500000
O O18 0.064999 0.175305 0.291599
#
# Coordination Sequence:
#
# PCOD9335796 Si02
#       8
#     8   8   8   8   8   8   8   4
#     4  12  25  39  58  93 144 183 246 305 351 411
#     4   9  23  43  70  96 130 196 251 288 346 435
#     4  12  28  44  76 117 143 172 225 297 377 465
#     4  11  20  38  63  86 125 186 222 278 341 423
#     4  11  24  43  71  96 143 186 236 284 375 436
#     4  11  24  42  67  98 140 192 252 306 343 421
#     4  10  22  46  68  93 143 183 231 282 367 434
#     4  12  24  40  60 102 140 198 236 292 380 416
#
# _framework density 25.782802
#
# number of rings (size 3 to 8) (size 9 to 14) (size 15 to 20)
#    0.000    1.067    5.333    0.000    7.467    1.600 
#    0.000    0.667    0.000    5.600    0.000    0.000 
#    0.000    0.000    0.000    0.000    0.000    0.000 
#
# Total GULP energy -167132.277890 kJ/mol
# GULP energy per Si atom -5571.075930 kJ/mol
# Density = 2.572412 g / cm^3
# Si number density = 25.782802 Si / 1000 Ang^3
#
#
#
# Elastic Constant Matrix: (Units=GPa)
#
#
# Indices 1 2 3 4 5 6 
#
# 1 88.3316 16.2903 29.4670 0.0000 0.0000 0.0000
# 2 16.2903 59.8401 6.1995 -0.0001 0.0000 0.0000
# 3 29.4670 6.1995 125.7730 -0.0003 0.0000 0.0000
# 4 0.0000 -0.0001 -0.0003 8.6712 0.0000 0.0000
# 5 0.0000 0.0000 0.0000 0.0000 58.3400 0.0000
# 6 0.0000 0.0000 0.0000 0.0000 0.0000 23.1391
#
#
#
# Elastic Compliance Matrix: (Units=1/GPa)
#
#
# Indices 1 2 3 4 5 6 
#
# 1 0.012865 -0.003206 -0.002856 0.000000 0.000000 0.000000
# 2 -0.003206 0.017596 -0.000116 0.000000 0.000000 0.000000
# 3 -0.002856 -0.000116 0.008626 0.000000 0.000000 0.000000
# 4 0.000000 0.000000 0.000000 0.115324 0.000000 0.000000
# 5 0.000000 0.000000 0.000000 0.000000 0.017141 0.000000
# 6 0.000000 0.000000 0.000000 0.000000 0.000000 0.043217
#
#
# Mechanical properties :
#
#
# Convention : Reuss Voigt Hill
#
# Bulk Modulus (GPa) = 37.41150 41.98425 39.69788
# Shear Modulus (GPa) = 21.18326 32.82926 27.00626
#
# Velocity S-wave (km/s) = 2.86947 3.57221 3.23995
# Velocity P-wave (km/s) = 5.05176 5.77351 5.42465
#
# Compressibility (1/GPa) = 0.02672975
#
# Stress axis : x y z
#
# Youngs Moduli (GPa) = 77.72981 56.83074 115.93265
#
# Poissons Ratio (x) = 0.18222 0.33111
# Poissons Ratio (y) = 0.24923 0.01346
# Poissons Ratio (z) = 0.22200 0.00660
#
# Static dielectric constant tensor:
#      x y z
#    x 2.188760 0.000000 0.000000 
#    y 0.000000 2.003220 0.000000 
#    z 0.000000 0.000000 1.952950 
# 
# From -- ./inp_files/18820.got.cif
#   From: 2010.05.17/outbox.cif.g08.bks.cpg/sg24_10_cif.got.tgz:18820.got - 2010.06.04 00:33:39.
