data_PCOD9335248
_publ_section_title
;
Structure prediction by ZEFSAII (Michael W. Deem and Ramdas Pophale) SiO2 
 PCOD9335248
Probable space group: I 21 21 21
;
_chemical_formula_sum "Si O2"
_cell_formula_units_Z 52
_cell_length_a 5.160450
_cell_length_b 21.050789
_cell_length_c 20.844440
_cell_angle_alpha 90.000000
_cell_angle_beta 90.000000
_cell_angle_gamma 90.000000
_cell_volume 2264.363703
_symmetry_space_group_name_H-M "I 21 21 21"
_symmetry_group_IT_number 24
_symmetry_cell_setting 'orthorhombic'
loop_
_space_group_symop_operation_xyz
x,y,z
-x,1/2-y,z
x,-y,1/2-z
1/2-x,y,-z
1/2+x,1/2+y,1/2+z
1/2-x,-y,1/2+z
1/2+x,1/2-y,-z
-x,1/2+y,1/2-z
loop_
_atom_site_type_symbol
_atom_site_label
_atom_site_fract_x
_atom_site_fract_y
_atom_site_fract_z
Si Si1 0.754928 0.358230 0.574251
Si Si2 0.406431 0.569222 0.353424
Si Si3 0.215029 0.194865 0.704764
Si Si4 0.678501 0.810566 0.426327
Si Si5 0.412533 0.071529 0.772702
Si Si6 0.258080 0.443836 0.574122
Si Si7 0.500000 0.750000 0.673713
O O1 0.750000 0.335110 0.500000
O O2 0.690785 0.308796 0.630619
O O3 0.539808 0.413177 0.581122
O O4 0.039044 0.389570 0.584824
O O5 0.428445 0.620923 0.409753
O O6 0.694169 0.565039 0.326727
O O7 0.301866 0.502674 0.380088
O O8 0.198766 0.591397 0.298463
O O9 0.275957 0.119853 0.722160
O O10 0.307871 0.219813 0.774881
O O11 0.000000 0.250000 0.695654
O O12 0.500000 0.750000 0.410477
O O13 0.750000 0.805297 0.500000
O O14 0.911839 0.802766 0.376558
O O15 0.451838 0.000000 0.750000
O O16 0.250000 0.465412 0.500000
#
# Coordination Sequence:
#
# PCOD9335248 Si02
#       7
#     8   8   8   8   8   8   4
#     4  10  24  47  73 105 145 191 243 302 376 447
#     4  12  24  43  69 108 142 191 252 304 370 454
#     4  12  27  46  73 105 148 198 240 312 374 451
#     4  12  26  46  70  99 145 200 251 309 369 444
#     4  12  26  45  72 106 150 192 250 313 376 444
#     4  10  21  43  71 104 145 188 239 307 374 446
#     4  12  24  48  66 100 142 184 248 290 380 428
#
# _framework density 22.964510000000001
#
# number of rings (size 3 to 8) (size 9 to 14) (size 15 to 20)
#    0.000    0.615    2.308    6.000    2.154    0.000 
#    1.385    2.308    0.000    0.000    0.000    0.000 
#    0.000    0.000    0.000    0.000    0.000    0.000 
#
# Total GULP energy -144745.542316 kJ/mol
# GULP energy per Si atom -5567.136243 kJ/mol
# Density = 2.291224 g / cm^3
# Si number density = 22.964510 Si / 1000 Ang^3
#
#
#
# Elastic Constant Matrix: (Units=GPa)
#
#
# Indices 1 2 3 4 5 6 
#
# 1 56.0306 -0.3971 10.7420 0.0000 0.0000 0.0000
# 2 -0.3971 78.8108 33.3904 0.0000 0.0000 0.0000
# 3 10.7420 33.3904 152.7677 0.0000 0.0000 0.0000
# 4 0.0000 0.0000 0.0000 54.3567 0.0000 0.0000
# 5 0.0000 0.0000 0.0000 0.0000 76.6524 0.0000
# 6 0.0000 0.0000 0.0000 0.0000 0.0000 23.6476
#
#
#
# Elastic Compliance Matrix: (Units=1/GPa)
#
#
# Indices 1 2 3 4 5 6 
#
# 1 0.018126 0.000696 -0.001427 0.000000 0.000000 0.000000
# 2 0.000696 0.014010 -0.003111 0.000000 0.000000 0.000000
# 3 -0.001427 -0.003111 0.007326 0.000000 0.000000 0.000000
# 4 0.000000 0.000000 0.000000 0.018397 0.000000 0.000000
# 5 0.000000 0.000000 0.000000 0.000000 0.013046 0.000000
# 6 0.000000 0.000000 0.000000 0.000000 0.000000 0.042288
#
#
# Mechanical properties :
#
#
# Convention : Reuss Voigt Hill
#
# Bulk Modulus (GPa) = 31.46803 41.67552 36.57177
# Shear Modulus (GPa) = 38.03164 47.18959 42.61062
#
# Velocity S-wave (km/s) = 4.07394 4.53801 4.31222
# Velocity P-wave (km/s) = 5.98849 6.75613 6.38386
#
# Compressibility (1/GPa) = 0.03177829
#
# Stress axis : x y z
#
# Youngs Moduli (GPa) = 55.16992 71.37639 136.49644
#
# Poissons Ratio (x) = -0.04966 0.19473
# Poissons Ratio (y) = -0.03839 0.42466
# Poissons Ratio (z) = 0.07871 0.22206
#
# Static dielectric constant tensor:
#      x y z
#    x 1.903400 0.000000 0.000000 
#    y 0.000000 1.797710 0.000000 
#    z 0.000000 0.000000 1.797040 
# 
# From -- ./inp_files/32167.got.cif
#   From: 2010.05.17/outbox.cif.g08.bks.cpg/sg24_17_cif.got.tgz:32167.got - 2010.06.04 00:33:39.
