data_PCOD9335216
_publ_section_title
;
Structure prediction by ZEFSAII (Michael W. Deem and Ramdas Pophale) SiO2 
 PCOD9335216
Probable space group: I 21 21 21
;
_chemical_formula_sum "Si O2"
_cell_formula_units_Z 36
_cell_length_a 11.115120
_cell_length_b 18.683708
_cell_length_c 7.683655
_cell_angle_alpha 90.000000
_cell_angle_beta 90.000000
_cell_angle_gamma 90.000000
_cell_volume 1595.677362
_symmetry_space_group_name_H-M "I 21 21 21"
_symmetry_group_IT_number 24
_symmetry_cell_setting 'orthorhombic'
loop_
_space_group_symop_operation_xyz
x,y,z
-x,1/2-y,z
x,-y,1/2-z
1/2-x,y,-z
1/2+x,1/2+y,1/2+z
1/2-x,-y,1/2+z
1/2+x,1/2-y,-z
-x,1/2+y,1/2-z
loop_
_atom_site_type_symbol
_atom_site_label
_atom_site_fract_x
_atom_site_fract_y
_atom_site_fract_z
Si Si1 0.942429 0.675058 0.696632
Si Si2 0.690410 0.714217 0.809361
Si Si3 0.126918 0.647646 0.390369
Si Si4 0.108644 0.078876 0.485110
Si Si5 0.057291 0.500000 0.250000
O O1 0.800904 0.691930 0.684723
O O2 0.984385 0.844461 0.524349
O O3 0.000000 0.750000 0.763064
O O4 0.944814 0.612050 0.838808
O O5 0.629533 0.784327 0.736558
O O6 0.609699 0.644558 0.846322
O O7 0.750000 0.728402 0.000000
O O8 0.250000 0.651106 0.500000
O O9 0.127778 0.572380 0.289682
O O10 0.250000 0.059454 0.500000
O O11 0.029273 0.015664 0.412926
#
# Coordination Sequence:
#
# PCOD9335216 Si02
#       5
#     8   8   8   8   4
#     4  10  21  42  71  99 126 171 225 293 332 378
#     4   9  22  44  73 100 129 173 232 292 332 387
#     4  12  27  42  66 101 138 178 225 276 336 417
#     4   9  24  46  68 100 129 179 226 285 338 395
#     4  12  30  40  64  98 142 188 210 264 350 428
#
# _framework density 22.560952
#
# number of rings (size 3 to 8) (size 9 to 14) (size 15 to 20)
#    0.000    2.222    2.222    0.000    9.333    7.111 
#    0.000    0.000    0.000    0.000    0.000    0.000 
#    0.000    0.000    0.000    0.000    0.000    0.000 
#
# Total GULP energy -100670.215911 kJ/mol
# GULP energy per Si atom -5592.789773 kJ/mol
# Density = 2.250960 g / cm^3
# Si number density = 22.560952 Si / 1000 Ang^3
#
#
#
# Elastic Constant Matrix: (Units=GPa)
#
#
# Indices 1 2 3 4 5 6 
#
# 1 52.7878 14.8888 35.3542 -0.0001 0.0000 0.0000
# 2 14.8888 84.7442 7.8689 0.0000 0.0000 0.0000
# 3 35.3542 7.8689 81.7172 -0.0008 -0.0003 0.0000
# 4 -0.0001 0.0000 -0.0008 37.2005 -0.0001 0.0000
# 5 0.0000 0.0000 -0.0003 -0.0001 35.8760 -0.0001
# 6 0.0000 0.0000 0.0000 0.0000 -0.0001 20.1709
#
#
#
# Elastic Compliance Matrix: (Units=1/GPa)
#
#
# Indices 1 2 3 4 5 6 
#
# 1 0.027838 -0.003807 -0.011677 0.000000 0.000000 0.000000
# 2 -0.003807 0.012427 0.000450 0.000000 0.000000 0.000000
# 3 -0.011677 0.000450 0.017246 0.000000 0.000000 0.000000
# 4 0.000000 0.000000 0.000000 0.026881 0.000000 0.000000
# 5 0.000000 0.000000 0.000000 0.000000 0.027874 0.000000
# 6 0.000000 0.000000 0.000000 0.000000 0.000000 0.049576
#
#
# Mechanical properties :
#
#
# Convention : Reuss Voigt Hill
#
# Bulk Modulus (GPa) = 36.43791 37.27479 36.85635
# Shear Modulus (GPa) = 24.86835 29.39195 27.13015
#
# Velocity S-wave (km/s) = 3.32365 3.61332 3.47151
# Velocity P-wave (km/s) = 5.56011 5.82802 5.69564
#
# Compressibility (1/GPa) = 0.02744394
#
# Stress axis : x y z
#
# Youngs Moduli (GPa) = 35.92176 80.46857 57.98417
#
# Poissons Ratio (x) = 0.30632 0.67710
# Poissons Ratio (y) = 0.13674 -0.02611
# Poissons Ratio (z) = 0.41947 -0.03623
#
# Static dielectric constant tensor:
#      x y z
#    x 1.863620 0.000000 0.000000 
#    y 0.000000 1.797160 0.000000 
#    z 0.000000 0.000000 1.857000 
# 
# From -- ./inp_files/12189.got.cif
#   From: 2010.05.17/outbox.cif.g08.bks.cpg/sg24_7_cif.got.tgz:12189.got - 2010.06.04 00:33:39.
