data_PCOD9335565
_publ_section_title
;
Structure prediction by ZEFSAII (Michael W. Deem and Ramdas Pophale) SiO2 
 PCOD9335565
Probable space group: I 21 21 21
;
_chemical_formula_sum "Si O2"
_cell_formula_units_Z 40
_cell_length_a 10.495155
_cell_length_b 21.258312
_cell_length_c 7.973203
_cell_angle_alpha 90.000000
_cell_angle_beta 90.000000
_cell_angle_gamma 90.000000
_cell_volume 1778.895576
_symmetry_space_group_name_H-M "I 21 21 21"
_symmetry_group_IT_number 24
_symmetry_cell_setting 'orthorhombic'
loop_
_space_group_symop_operation_xyz
x,y,z
-x,1/2-y,z
x,-y,1/2-z
1/2-x,y,-z
1/2+x,1/2+y,1/2+z
1/2-x,-y,1/2+z
1/2+x,1/2-y,-z
-x,1/2+y,1/2-z
loop_
_atom_site_type_symbol
_atom_site_label
_atom_site_fract_x
_atom_site_fract_y
_atom_site_fract_z
Si Si1 0.197249 0.376244 0.180673
Si Si2 0.135092 0.766190 0.380471
Si Si3 0.556090 0.072037 0.309660
Si Si4 0.688078 0.432080 0.180027
Si Si5 0.561678 0.616554 0.836102
O O1 0.186717 0.300669 0.182562
O O2 0.306563 0.396313 0.307474
O O3 0.057134 0.402689 0.217600
O O4 0.250000 0.396132 0.000000
O O5 0.250000 0.792275 0.500000
O O6 0.093502 0.811745 0.226740
O O7 0.000000 0.750000 0.471080
O O8 0.449777 0.100949 0.181135
O O9 0.488140 0.091623 0.484833
O O10 0.584065 0.000000 0.250000
O O11 0.653235 0.500000 0.250000
O O12 0.800749 0.411690 0.301469
O O13 0.750000 0.434851 0.000000
#
# Coordination Sequence:
#
# PCOD9335565 Si02
#       5
#     8   8   8   8   8
#     4  10  22  41  66  97 132 174 225 281 345 412
#     4   9  20  40  66  98 135 176 224 280 344 410
#     4  11  24  42  63  95 134 176 227 283 344 405
#     4  11  22  39  61  88 123 165 216 272 333 402
#     4  11  22  40  65  94 131 175 225 278 338 407
#
# _framework density 22.485861
#
# number of rings (size 3 to 8) (size 9 to 14) (size 15 to 20)
#    0.000    1.600    0.000    5.400    0.000    5.600 
#    0.000   12.000    0.000    0.000    0.000    0.000 
#    0.000    0.000    0.000    0.000    0.000    0.000 
#
# Total GULP energy -111345.836004 kJ/mol
# GULP energy per Si atom -5567.291800 kJ/mol
# Density = 2.243468 g / cm^3
# Si number density = 22.485861 Si / 1000 Ang^3
#
#
#
# Elastic Constant Matrix: (Units=GPa)
#
#
# Indices 1 2 3 4 5 6 
#
# 1 163.7588 41.2467 25.0690 0.0000 0.0001 0.0001
# 2 41.2467 58.2378 20.1996 -0.0003 0.0006 -0.0004
# 3 25.0690 20.1996 100.8863 -0.0013 0.0014 -0.0012
# 4 0.0000 -0.0003 -0.0013 23.9533 0.0008 -0.0004
# 5 0.0001 0.0006 0.0014 0.0008 43.4618 0.0002
# 6 0.0001 -0.0004 -0.0012 -0.0004 0.0002 21.0520
#
#
#
# Elastic Compliance Matrix: (Units=1/GPa)
#
#
# Indices 1 2 3 4 5 6 
#
# 1 0.007501 -0.005014 -0.000860 0.000000 0.000000 0.000000
# 2 -0.005014 0.021804 -0.003120 0.000000 0.000000 0.000000
# 3 -0.000860 -0.003120 0.010750 0.000001 0.000000 0.000001
# 4 0.000000 0.000000 0.000001 0.041748 -0.000001 0.000001
# 5 0.000000 0.000000 0.000000 -0.000001 0.023009 0.000000
# 6 0.000000 0.000000 0.000001 0.000001 0.000000 0.047501
#
#
# Mechanical properties :
#
#
# Convention : Reuss Voigt Hill
#
# Bulk Modulus (GPa) = 45.31452 55.10149 50.20801
# Shear Modulus (GPa) = 28.14392 33.45127 30.79760
#
# Velocity S-wave (km/s) = 3.54167 3.86120 3.70488
# Velocity P-wave (km/s) = 6.07625 6.66608 6.37799
#
# Compressibility (1/GPa) = 0.02206798
#
# Stress axis : x y z
#
# Youngs Moduli (GPa) = 133.31218 45.86216 93.01915
#
# Poissons Ratio (x) = 0.22997 0.07999
# Poissons Ratio (y) = 0.66848 0.29019
# Poissons Ratio (z) = 0.11464 0.14308
#
# Static dielectric constant tensor:
#      x y z
#    x 1.964010 -0.000010 0.000000 
#    y -0.000010 2.283800 -0.000030 
#    z 0.000000 -0.000030 2.100500 
# 
# From -- ./inp_files/9219.got.cif
#   From: 2010.05.17/outbox.cif.g08.bks.cpg/sg24_5_cif.got.tgz:9219.got - 2010.06.04 00:33:39.
