data_PCOD9335212
_publ_section_title
;
Structure prediction by ZEFSAII (Michael W. Deem and Ramdas Pophale) SiO2 
 PCOD9335212
Probable space group: I 21 21 21
;
_chemical_formula_sum "Si O2"
_cell_formula_units_Z 36
_cell_length_a 12.061964
_cell_length_b 12.124170
_cell_length_c 11.296928
_cell_angle_alpha 90.000000
_cell_angle_beta 90.000000
_cell_angle_gamma 90.000000
_cell_volume 1652.077460
_symmetry_space_group_name_H-M "I 21 21 21"
_symmetry_group_IT_number 24
_symmetry_cell_setting 'orthorhombic'
loop_
_space_group_symop_operation_xyz
x,y,z
-x,1/2-y,z
x,-y,1/2-z
1/2-x,y,-z
1/2+x,1/2+y,1/2+z
1/2-x,-y,1/2+z
1/2+x,1/2-y,-z
-x,1/2+y,1/2-z
loop_
_atom_site_type_symbol
_atom_site_label
_atom_site_fract_x
_atom_site_fract_y
_atom_site_fract_z
Si Si1 0.106423 0.506732 0.616890
Si Si2 0.699252 0.321982 0.724277
Si Si3 0.896987 0.169756 0.076828
Si Si4 0.388615 0.000000 0.250000
Si Si5 0.250000 0.325251 0.500000
Si Si6 0.011472 0.000000 0.250000
O O1 0.154499 0.500000 0.750000
O O2 0.139438 0.616059 0.546595
O O3 0.151559 0.403311 0.545583
O O4 0.973985 0.504993 0.639625
O O5 0.676930 0.245606 0.838043
O O6 0.808895 0.395075 0.743112
O O7 0.711840 0.247965 0.609230
O O8 0.595185 0.404521 0.705370
O O9 0.000000 0.250000 0.049907
O O10 0.937891 0.063509 0.153313
#
# Coordination Sequence:
#
# PCOD9335212 Si02
#       6
#     8   8   8   4   4   4
#     4  10  26  45  67  98 147 186 237 302 361 430
#     4  10  23  42  74 107 140 189 247 295 371 428
#     4  10  21  42  70 101 139 190 237 297 361 433
#     4   9  24  50  67 108 142 186 245 300 357 440
#     4  12  26  42  70 104 142 188 238 300 358 434
#     4   9  20  42  67 106 148 188 239 298 363 444
#
# _framework density 21.790745999999999
#
# number of rings (size 3 to 8) (size 9 to 14) (size 15 to 20)
#    0.667    1.333    0.000    1.333    6.222    2.667 
#    0.000    0.000    0.000    0.000    0.000    0.000 
#    0.000    0.000    0.000    0.000    0.000    0.000 
#
# Total GULP energy -100604.153910 kJ/mol
# GULP energy per Si atom -5589.119662 kJ/mol
# Density = 2.174115 g / cm^3
# Si number density = 21.790746 Si / 1000 Ang^3
#
#
#
# Elastic Constant Matrix: (Units=GPa)
#
#
# Indices 1 2 3 4 5 6 
#
# 1 91.9112 56.4521 54.3478 0.0000 0.0000 0.0000
# 2 56.4521 165.5612 99.9945 0.0000 0.0000 0.0000
# 3 54.3478 99.9945 136.8989 0.0000 0.0000 0.0000
# 4 0.0000 0.0000 0.0000 -6.8346 0.0000 0.0000
# 5 0.0000 0.0000 0.0000 0.0000 -42.9564 0.0000
# 6 0.0000 0.0000 0.0000 0.0000 0.0000 22.8566
#
#
#
# Elastic Compliance Matrix: (Units=1/GPa)
#
#
# Indices 1 2 3 4 5 6 
#
# 1 0.014859 -0.002691 -0.003933 0.000000 0.000000 0.000000
# 2 -0.002691 0.011295 -0.007182 0.000000 0.000000 0.000000
# 3 -0.003933 -0.007182 0.014112 0.000000 0.000000 0.000000
# 4 0.000000 0.000000 0.000000 -0.146315 0.000000 0.000000
# 5 0.000000 0.000000 0.000000 0.000000 -0.023279 0.000000
# 6 0.000000 0.000000 0.000000 0.000000 0.000000 0.043751
#
#
# Mechanical properties :
#
#
# Convention : Reuss Voigt Hill
#
# Bulk Modulus (GPa) = 79.02919 90.66222 84.84571
# Shear Modulus (GPa) = -93.02983 6.85160 -43.08912
#
# Velocity S-wave (km/s) = -6.54103 1.77513 -4.45163
# Velocity P-wave (km/s) = 4.54980 6.77478 3.54943
#
# Compressibility (1/GPa) = 0.01265355
#
# Stress axis : x y z
#
# Youngs Moduli (GPa) = 67.30134 88.53127 70.86030
#
# Poissons Ratio (x) = 0.23822 0.27872
# Poissons Ratio (y) = 0.18109 0.50894
# Poissons Ratio (z) = 0.26472 0.63586
#
# Static dielectric constant tensor:
#      x y z
#    x 1.823240 0.000000 0.000000 
#    y 0.000000 1.756700 0.000000 
#    z 0.000000 0.000000 1.793010 
# 
# From -- ./inp_files/20493.got.cif
#   From: 2010.05.17/outbox.cif.g08.bks.cpg/sg24_11_cif.got.tgz:20493.got - 2010.06.04 00:33:39.
