data_PCOD9335645
_publ_section_title
;
Structure prediction by ZEFSAII (Michael W. Deem and Ramdas Pophale) SiO2 
 PCOD9335645
Probable space group: I 21 21 21
;
_chemical_formula_sum "Si O2"
_cell_formula_units_Z 36
_cell_length_a 20.851155
_cell_length_b 9.521951
_cell_length_c 7.635109
_cell_angle_alpha 90.000000
_cell_angle_beta 90.000000
_cell_angle_gamma 90.000000
_cell_volume 1515.902609
_symmetry_space_group_name_H-M "I 21 21 21"
_symmetry_group_IT_number 24
_symmetry_cell_setting 'orthorhombic'
loop_
_space_group_symop_operation_xyz
x,y,z
-x,1/2-y,z
x,-y,1/2-z
1/2-x,y,-z
1/2+x,1/2+y,1/2+z
1/2-x,-y,1/2+z
1/2+x,1/2-y,-z
-x,1/2+y,1/2-z
loop_
_atom_site_type_symbol
_atom_site_label
_atom_site_fract_x
_atom_site_fract_y
_atom_site_fract_z
Si Si1 0.750000 0.208127 0.000000
Si Si2 0.000000 0.250000 0.230397
Si Si3 0.183696 0.500000 0.250000
Si Si4 0.639519 0.630793 0.333201
Si Si5 0.482759 0.991633 0.980375
Si Si6 0.387116 0.392495 0.399272
O O1 0.813630 0.295975 0.966592
O O2 0.729769 0.114390 0.836132
O O3 0.976118 0.123936 0.104302
O O4 0.960577 0.361640 0.352065
O O5 0.143032 0.430716 0.410950
O O6 0.675656 0.500000 0.250000
O O7 0.576050 0.567532 0.425505
O O8 0.624770 0.739543 0.178664
O O9 0.536482 0.913877 0.090791
O O10 0.363776 0.500000 0.250000
#
# Coordination Sequence:
#
# PCOD9335645 Si02
#       6
#     4   4   4   8   8   8
#     4  12  28  52  84 110 158 220 268 332 396 486
#     4  10  22  42  70 120 150 210 256 320 408 462
#     4  12  26  54  88 116 154 206 300 330 388 498
#     4  12  28  50  73 118 164 212 262 333 410 481
#     4  11  24  43  76 114 164 203 264 330 409 479
#     4  12  25  48  82 118 152 211 264 339 406 470
#
# _framework density 23.748228000000001
#
# number of rings (size 3 to 8) (size 9 to 14) (size 15 to 20)
#    0.000    0.444    2.222    6.000    3.111    3.556 
#    4.000    0.000    0.000    0.000    0.000    0.000 
#    0.000    0.000    0.000    0.000    0.000    0.000 
#
# Total GULP energy -100440.448341 kJ/mol
# GULP energy per Si atom -5580.024908 kJ/mol
# Density = 2.369418 g / cm^3
# Si number density = 23.748228 Si / 1000 Ang^3
#
#
#
# Elastic Constant Matrix: (Units=GPa)
#
#
# Indices 1 2 3 4 5 6 
#
# 1 119.0839 40.4863 41.9830 0.0000 0.0000 0.0000
# 2 40.4863 195.2293 62.7948 0.0000 0.0000 0.0000
# 3 41.9830 62.7948 117.9959 0.0000 0.0000 0.0000
# 4 0.0000 0.0000 0.0000 46.1942 0.0000 0.0000
# 5 0.0000 0.0000 0.0000 0.0000 25.5184 0.0000
# 6 0.0000 0.0000 0.0000 0.0000 0.0000 68.1390
#
#
#
# Elastic Compliance Matrix: (Units=1/GPa)
#
#
# Indices 1 2 3 4 5 6 
#
# 1 0.009793 -0.001098 -0.002900 0.000000 0.000000 0.000000
# 2 -0.001098 0.006303 -0.002964 0.000000 0.000000 0.000000
# 3 -0.002900 -0.002964 0.011084 0.000000 0.000000 0.000000
# 4 0.000000 0.000000 0.000000 0.021648 0.000000 0.000000
# 5 0.000000 0.000000 0.000000 0.000000 0.039187 0.000000
# 6 0.000000 0.000000 0.000000 0.000000 0.000000 0.014676
#
#
# Mechanical properties :
#
#
# Convention : Reuss Voigt Hill
#
# Bulk Modulus (GPa) = 75.43417 80.31526 77.87471
# Shear Modulus (GPa) = 41.31077 47.10666 44.20872
#
# Velocity S-wave (km/s) = 4.17529 4.45858 4.31926
# Velocity P-wave (km/s) = 7.42140 7.77162 7.59853
#
# Compressibility (1/GPa) = 0.01325659
#
# Stress axis : x y z
#
# Youngs Moduli (GPa) = 102.11189 158.65031 90.22073
#
# Poissons Ratio (x) = 0.17421 0.26164
# Poissons Ratio (y) = 0.11213 0.26739
# Poissons Ratio (z) = 0.29613 0.47019
#
# Static dielectric constant tensor:
#      x y z
#    x 1.892200 0.000000 0.000000 
#    y 0.000000 1.923930 0.000000 
#    z 0.000000 0.000000 1.532380 
# 
# From -- ./inp_files/14838.got.cif
#   From: 2010.05.17/outbox.cif.g08.bks.cpg/sg24_8_cif.got.tgz:14838.got - 2010.06.04 00:33:39.
