data_PCOD9335876
_publ_section_title
;
Structure prediction by ZEFSAII (Michael W. Deem and Ramdas Pophale) SiO2 
 PCOD9335876
Probable space group: I 21 21 21
;
_chemical_formula_sum "Si O2"
_cell_formula_units_Z 36
_cell_length_a 5.219016
_cell_length_b 12.434032
_cell_length_c 24.525003
_cell_angle_alpha 90.000000
_cell_angle_beta 90.000000
_cell_angle_gamma 90.000000
_cell_volume 1591.511123
_symmetry_space_group_name_H-M "I 21 21 21"
_symmetry_group_IT_number 24
_symmetry_cell_setting 'orthorhombic'
loop_
_space_group_symop_operation_xyz
x,y,z
-x,1/2-y,z
x,-y,1/2-z
1/2-x,y,-z
1/2+x,1/2+y,1/2+z
1/2-x,-y,1/2+z
1/2+x,1/2-y,-z
-x,1/2+y,1/2-z
loop_
_atom_site_type_symbol
_atom_site_label
_atom_site_fract_x
_atom_site_fract_y
_atom_site_fract_z
Si Si1 0.248184 0.175515 0.207851
Si Si2 0.744158 0.324659 0.328900
Si Si3 0.750000 0.676696 0.500000
Si Si4 0.494396 0.371719 0.537239
Si Si5 0.717844 0.471832 0.897536
O O1 0.500000 0.250000 0.201843
O O2 0.251113 0.123580 0.268210
O O3 0.219072 0.097803 0.156579
O O4 0.000000 0.250000 0.206872
O O5 0.500000 0.250000 0.329363
O O6 0.683547 0.412079 0.375871
O O7 0.000000 0.250000 0.331662
O O8 0.500000 0.750000 0.512076
O O9 0.814673 0.602345 0.552799
O O10 0.500000 0.250000 0.560140
O O11 0.250000 0.372466 0.500000
O O12 0.461550 0.474505 0.576889
O O13 0.750000 0.385733 0.500000
#
# Coordination Sequence:
#
# PCOD9335876 Si02
#       5
#     8   8   4   8   8
#     4  10  23  44  68  99 138 176 227 284 335 398
#     4  10  24  44  69 106 137 168 224 288 343 405
#     4  12  30  48  64  96 136 176 232 276 322 402
#     4  10  23  41  61  93 133 171 222 280 334 395
#     4  12  24  45  71  98 131 191 220 277 338 413
#
# _framework density 22.620013
#
# number of rings (size 3 to 8) (size 9 to 14) (size 15 to 20)
#    0.000    1.333    1.111    2.667    1.556    9.778 
#    0.000    6.667    0.000    0.000    0.000    0.000 
#    0.000    0.000    0.000    0.000    0.000    0.000 
#
# Total GULP energy -100279.064229 kJ/mol
# GULP energy per Si atom -5571.059124 kJ/mol
# Density = 2.256853 g / cm^3
# Si number density = 22.620013 Si / 1000 Ang^3
#
#
#
# Elastic Constant Matrix: (Units=GPa)
#
#
# Indices 1 2 3 4 5 6 
#
# 1 138.5100 38.5556 26.5238 0.0000 0.0000 0.0000
# 2 38.5556 115.6249 71.1671 0.0000 0.0000 0.0000
# 3 26.5238 71.1671 181.8438 0.0000 0.0000 0.0000
# 4 0.0000 0.0000 0.0000 71.7636 0.0000 0.0000
# 5 0.0000 0.0000 0.0000 0.0000 -2.3839 0.0000
# 6 0.0000 0.0000 0.0000 0.0000 0.0000 18.8818
#
#
#
# Elastic Compliance Matrix: (Units=1/GPa)
#
#
# Indices 1 2 3 4 5 6 
#
# 1 0.007962 -0.002556 -0.000161 0.000000 0.000000 0.000000
# 2 -0.002556 0.012213 -0.004407 0.000000 0.000000 0.000000
# 3 -0.000161 -0.004407 0.007248 0.000000 0.000000 0.000000
# 4 0.000000 0.000000 0.000000 0.013935 0.000000 0.000000
# 5 0.000000 0.000000 0.000000 0.000000 -0.419479 0.000000
# 6 0.000000 0.000000 0.000000 0.000000 0.000000 0.052961
#
#
# Mechanical properties :
#
#
# Convention : Reuss Voigt Hill
#
# Bulk Modulus (GPa) = 75.90169 78.71906 77.31037
# Shear Modulus (GPa) = -16.31212 37.63445 10.66117
#
# Velocity S-wave (km/s) = -2.68831 4.08336 2.17334
# Velocity P-wave (km/s) = 4.89815 7.55698 6.36788
#
# Compressibility (1/GPa) = 0.01317494
#
# Stress axis : x y z
#
# Youngs Moduli (GPa) = 125.59699 81.87672 137.97847
#
# Poissons Ratio (x) = 0.20926 0.02223
# Poissons Ratio (y) = 0.32100 0.60809
# Poissons Ratio (z) = 0.02023 0.36084
#
# Static dielectric constant tensor:
#      x y z
#    x 1.839640 0.000000 0.000000 
#    y 0.000000 1.844960 0.000000 
#    z 0.000000 0.000000 1.981470 
# 
# From -- ./inp_files/6167.got.cif
#   From: 2010.05.17/outbox.cif.g08.bks.cpg/sg24_4_cif.got.tgz:6167.got - 2010.06.04 00:33:39.
