data_PCOD9335351
_publ_section_title
;
Structure prediction by ZEFSAII (Michael W. Deem and Ramdas Pophale) SiO2 
 PCOD9335351
Probable space group: I 21 21 21
;
_chemical_formula_sum "Si O2"
_cell_formula_units_Z 44
_cell_length_a 13.834591
_cell_length_b 9.942233
_cell_length_c 14.892100
_cell_angle_alpha 90.000000
_cell_angle_beta 90.000000
_cell_angle_gamma 90.000000
_cell_volume 2048.359616
_symmetry_space_group_name_H-M "I 21 21 21"
_symmetry_group_IT_number 24
_symmetry_cell_setting 'orthorhombic'
loop_
_space_group_symop_operation_xyz
x,y,z
-x,1/2-y,z
x,-y,1/2-z
1/2-x,y,-z
1/2+x,1/2+y,1/2+z
1/2-x,-y,1/2+z
1/2+x,1/2-y,-z
-x,1/2+y,1/2-z
loop_
_atom_site_type_symbol
_atom_site_label
_atom_site_fract_x
_atom_site_fract_y
_atom_site_fract_z
Si Si1 0.642414 0.977522 0.651096
Si Si2 0.798424 0.723604 0.126290
Si Si3 0.287580 0.000000 0.750000
Si Si4 0.406014 0.841352 0.060808
Si Si5 0.523501 0.394859 0.983425
Si Si6 0.285812 0.804839 0.603332
O O1 0.696563 0.117356 0.636663
O O2 0.597776 0.000000 0.750000
O O3 0.565950 0.954926 0.571792
O O4 0.709381 0.844476 0.644667
O O5 0.842256 0.623751 0.200989
O O6 0.685039 0.685699 0.124364
O O7 0.857341 0.690640 0.036150
O O8 0.237771 0.086639 0.830357
O O9 0.500000 0.750000 0.076639
O O10 0.440030 0.994698 0.052482
O O11 0.500000 0.250000 0.025919
O O12 0.605313 0.359630 0.910120
O O13 0.250000 0.801297 0.500000
#
# Coordination Sequence:
#
# PCOD9335351 Si02
#       6
#     8   8   4   8   8   8
#     4  11  23  41  63  99 137 173 218 284 354 406
#     4  11  24  39  67  96 132 180 215 282 340 402
#     4  12  22  40  64  94 136 174 228 280 336 414
#     4  11  22  41  66  97 130 173 229 271 337 409
#     4  10  22  37  60  97 136 171 211 280 347 406
#     4  11  24  40  64  96 142 183 225 277 349 421
#
# _framework density 21.480602999999999
#
# number of rings (size 3 to 8) (size 9 to 14) (size 15 to 20)
#    0.000    1.091    5.455    1.091    3.818    0.000 
#    3.273    0.000    2.000    3.273    0.000    0.000 
#    0.000    0.000    0.000    0.000    0.000    0.000 
#
# Total GULP energy -122668.341950 kJ/mol
# GULP energy per Si atom -5575.833725 kJ/mol
# Density = 2.143171 g / cm^3
# Si number density = 21.480603 Si / 1000 Ang^3
#
#
#
# Elastic Constant Matrix: (Units=GPa)
#
#
# Indices 1 2 3 4 5 6 
#
# 1 80.5590 54.5724 5.1865 0.0000 0.0000 0.0000
# 2 54.5724 244.3174 40.5857 0.0000 0.0000 0.0000
# 3 5.1865 40.5857 54.9635 0.0000 0.0000 0.0000
# 4 0.0000 0.0000 0.0000 29.7763 0.0000 0.0000
# 5 0.0000 0.0000 0.0000 0.0000 15.2021 0.0000
# 6 0.0000 0.0000 0.0000 0.0000 0.0000 20.5329
#
#
#
# Elastic Compliance Matrix: (Units=1/GPa)
#
#
# Indices 1 2 3 4 5 6 
#
# 1 0.014694 -0.003478 0.001182 0.000000 0.000000 0.000000
# 2 -0.003478 0.005489 -0.003725 0.000000 0.000000 0.000000
# 3 0.001182 -0.003725 0.020833 0.000000 0.000000 0.000000
# 4 0.000000 0.000000 0.000000 0.033584 0.000000 0.000000
# 5 0.000000 0.000000 0.000000 0.000000 0.065780 0.000000
# 6 0.000000 0.000000 0.000000 0.000000 0.000000 0.048702
#
#
# Mechanical properties :
#
#
# Convention : Reuss Voigt Hill
#
# Bulk Modulus (GPa) = 34.51524 64.50323 49.50924
# Shear Modulus (GPa) = 23.72128 31.73529 27.72829
#
# Velocity S-wave (km/s) = 3.32672 3.84786 3.59674
# Velocity P-wave (km/s) = 5.55510 7.05940 6.35194
#
# Compressibility (1/GPa) = 0.02897271
#
# Stress axis : x y z
#
# Youngs Moduli (GPa) = 68.05729 182.19125 48.00137
#
# Poissons Ratio (x) = 0.63373 -0.05674
# Poissons Ratio (y) = 0.23673 0.17879
# Poissons Ratio (z) = -0.08044 0.67861
#
# Static dielectric constant tensor:
#      x y z
#    x 1.819020 0.000000 0.000000 
#    y 0.000000 1.801580 0.000000 
#    z 0.000000 0.000000 1.826650 
# 
# From -- ./inp_files/30652.got.cif
#   From: 2010.05.17/outbox.cif.g08.bks.cpg/sg24_16_cif.got.tgz:30652.got - 2010.06.04 00:33:39.
