data_PCOD9335055
_publ_section_title
;
Structure prediction by ZEFSAII (Michael W. Deem and Ramdas Pophale) SiO2 
 PCOD9335055
Probable space group: I 21 21 21
;
_chemical_formula_sum "Si O2"
_cell_formula_units_Z 56
_cell_length_a 15.601440
_cell_length_b 8.815569
_cell_length_c 19.534068
_cell_angle_alpha 90.000000
_cell_angle_beta 90.000000
_cell_angle_gamma 90.000000
_cell_volume 2686.629193
_symmetry_space_group_name_H-M "I 21 21 21"
_symmetry_group_IT_number 24
_symmetry_cell_setting 'orthorhombic'
loop_
_space_group_symop_operation_xyz
x,y,z
-x,1/2-y,z
x,-y,1/2-z
1/2-x,y,-z
1/2+x,1/2+y,1/2+z
1/2-x,-y,1/2+z
1/2+x,1/2-y,-z
-x,1/2+y,1/2-z
loop_
_atom_site_type_symbol
_atom_site_label
_atom_site_fract_x
_atom_site_fract_y
_atom_site_fract_z
Si Si1 0.345248 0.653200 0.999179
Si Si2 0.030359 0.415610 0.852692
Si Si3 0.016218 0.414103 0.008317
Si Si4 0.878756 0.661503 0.858903
Si Si5 0.190382 0.644882 0.731263
Si Si6 0.334980 0.983300 0.958964
Si Si7 0.726605 0.565297 0.674921
O O1 0.416760 0.541714 0.967993
O O2 0.374133 0.728995 0.073396
O O3 0.250000 0.580258 0.000000
O O4 0.331497 0.801873 0.952734
O O5 0.050758 0.387346 0.931864
O O6 0.117672 0.436440 0.813341
O O7 0.000000 0.250000 0.826128
O O8 0.964916 0.558674 0.847917
O O9 0.000000 0.250000 0.041846
O O10 0.921370 0.481611 0.000494
O O11 0.853134 0.758971 0.792340
O O12 0.803304 0.535830 0.857890
O O13 0.248343 0.500000 0.750000
O O14 0.239701 0.766928 0.686407
O O15 0.343063 0.055378 0.884273
O O16 0.250000 0.034389 0.000000
O O17 0.704552 0.500000 0.750000
#
# Coordination Sequence:
#
# PCOD9335055 Si02
#       7
#     8   8   8   8   8   8   8
#     4  11  22  42  68  95 126 168 228 281 339 403
#     4  11  22  34  55  86 130 174 210 265 330 398
#     4  11  25  41  59  94 132 167 219 277 338 409
#     4  11  21  40  58  91 129 170 226 270 320 408
#     4  11  25  35  54  88 133 179 224 261 330 411
#     4  11  21  41  69  94 126 175 225 277 341 393
#     4  10  21  40  64  91 126 172 221 281 336 399
#
# _framework density 20.843964
#
# number of rings (size 3 to 8) (size 9 to 14) (size 15 to 20)
#    0.000    1.143    5.714    1.286    4.000    1.714 
#    2.571    0.000    0.000    1.714    0.000    0.000 
#    0.000    0.000    0.000    0.000    0.000    0.000 
#
# Total GULP energy -156060.668171 kJ/mol
# GULP energy per Si atom -5573.595292 kJ/mol
# Density = 2.079652 g / cm^3
# Si number density = 20.843964 Si / 1000 Ang^3
#
#
#
# Elastic Constant Matrix: (Units=GPa)
#
#
# Indices 1 2 3 4 5 6 
#
# 1 77.5264 29.8158 13.7761 0.0000 0.0000 0.0000
# 2 29.8158 114.0320 17.5629 0.0000 0.0000 0.0000
# 3 13.7761 17.5629 92.0181 0.0000 0.0000 0.0000
# 4 0.0000 0.0000 0.0000 21.3823 0.0000 0.0000
# 5 0.0000 0.0000 0.0000 0.0000 22.2136 0.0000
# 6 0.0000 0.0000 0.0000 0.0000 0.0000 -39.4970
#
#
#
# Elastic Compliance Matrix: (Units=1/GPa)
#
#
# Indices 1 2 3 4 5 6 
#
# 1 0.014538 -0.003571 -0.001495 0.000000 0.000000 0.000000
# 2 -0.003571 0.009912 -0.001357 0.000000 0.000000 0.000000
# 3 -0.001495 -0.001357 0.011350 0.000000 0.000000 0.000000
# 4 0.000000 0.000000 0.000000 0.046768 0.000000 0.000000
# 5 0.000000 0.000000 0.000000 0.000000 0.045018 0.000000
# 6 0.000000 0.000000 0.000000 0.000000 0.000000 -0.025318
#
#
# Mechanical properties :
#
#
# Convention : Reuss Voigt Hill
#
# Bulk Modulus (GPa) = 43.56528 45.09847 44.33188
# Shear Modulus (GPa) = 40.72831 15.64788 28.18810
#
# Velocity S-wave (km/s) = 4.42516 2.74289 3.68141
# Velocity P-wave (km/s) = 6.85970 5.63156 6.27574
#
# Compressibility (1/GPa) = 0.02295406
#
# Stress axis : x y z
#
# Youngs Moduli (GPa) = 68.78612 100.88574 88.10351
#
# Poissons Ratio (x) = 0.36026 0.13171
# Poissons Ratio (y) = 0.24563 0.11958
# Poissons Ratio (z) = 0.10283 0.13693
#
# Static dielectric constant tensor:
#      x y z
#    x 1.806830 0.000000 0.000000 
#    y 0.000000 1.880170 0.000000 
#    z 0.000000 0.000000 1.907500 
# 
# From -- ./inp_files/33753.got.cif
#   From: 2010.05.17/outbox.cif.g08.bks.cpg/sg24_17_cif.got.tgz:33753.got - 2010.06.04 00:33:39.
