data_PCOD9335077
_publ_section_title
;
Structure prediction by ZEFSAII (Michael W. Deem and Ramdas Pophale) SiO2 
 PCOD9335077
Probable space group: I 21 21 21
;
_chemical_formula_sum "Si O2"
_cell_formula_units_Z 64
_cell_length_a 16.408580
_cell_length_b 15.452359
_cell_length_c 11.422563
_cell_angle_alpha 90.000000
_cell_angle_beta 90.000000
_cell_angle_gamma 90.000000
_cell_volume 2896.205342
_symmetry_space_group_name_H-M "I 21 21 21"
_symmetry_group_IT_number 24
_symmetry_cell_setting 'orthorhombic'
loop_
_space_group_symop_operation_xyz
x,y,z
-x,1/2-y,z
x,-y,1/2-z
1/2-x,y,-z
1/2+x,1/2+y,1/2+z
1/2-x,-y,1/2+z
1/2+x,1/2-y,-z
-x,1/2+y,1/2-z
loop_
_atom_site_type_symbol
_atom_site_label
_atom_site_fract_x
_atom_site_fract_y
_atom_site_fract_z
Si Si1 0.040061 0.087734 0.330895
Si Si2 0.386296 0.948282 0.075849
Si Si3 0.383522 0.218353 0.845435
Si Si4 0.287820 0.341726 0.379272
Si Si5 0.544358 0.900519 0.220756
Si Si6 0.782682 0.665533 0.770929
Si Si7 0.370191 0.398516 0.731248
Si Si8 0.425407 0.848227 0.401254
O O1 0.100563 0.077826 0.440752
O O2 0.064776 0.168264 0.251716
O O3 0.945101 0.108259 0.362861
O O4 0.045032 0.000000 0.250000
O O5 0.463361 0.905265 0.141784
O O6 0.307864 0.918252 0.151597
O O7 0.398659 0.050966 0.084130
O O8 0.294629 0.175794 0.815292
O O9 0.387266 0.321612 0.824240
O O10 0.415565 0.194833 0.973302
O O11 0.250000 0.373587 0.500000
O O12 0.380004 0.361469 0.347708
O O13 0.273673 0.239817 0.367281
O O14 0.224666 0.382699 0.289786
O O15 0.513812 0.852279 0.338897
O O16 0.565203 0.000000 0.250000
O O17 0.859446 0.688524 0.689080
O O18 0.375419 0.500000 0.750000
#
# Coordination Sequence:
#
# PCOD9335077 Si02
#       8
#     8   8   8   8   8   8   8   8
#     4  11  22  40  64 101 134 177 234 272 352 418
#     4  10  21  40  65  97 139 178 220 286 341 418
#     4  11  23  43  67  98 135 183 224 288 341 425
#     4  11  23  42  64  96 131 174 231 286 338 404
#     4   9  20  41  70  97 131 177 225 282 348 415
#     4  10  24  40  62  97 136 177 226 275 348 411
#     4  10  24  45  66  93 134 174 232 288 346 409
#     4  10  21  44  66  99 139 175 227 281 348 418
#
# _framework density 22.097881000000001
#
# number of rings (size 3 to 8) (size 9 to 14) (size 15 to 20)
#    0.000    1.750    1.250    3.000    3.500    3.000 
#    9.000    2.500    0.000    0.000    0.000    0.000 
#    0.000    0.000    0.000    0.000    0.000    0.000 
#
# Total GULP energy -178356.294679 kJ/mol
# GULP energy per Si atom -5573.634209 kJ/mol
# Density = 2.204759 g / cm^3
# Si number density = 22.097881 Si / 1000 Ang^3
#
#
#
# Elastic Constant Matrix: (Units=GPa)
#
#
# Indices 1 2 3 4 5 6 
#
# 1 109.8831 30.5508 27.9171 0.0000 0.0000 0.0000
# 2 30.5508 107.5623 48.3901 0.0000 0.0000 0.0000
# 3 27.9171 48.3901 122.2639 0.0000 0.0000 0.0000
# 4 0.0000 0.0000 0.0000 -40.9920 0.0000 0.0000
# 5 0.0000 0.0000 0.0000 0.0000 31.6769 0.0000
# 6 0.0000 0.0000 0.0000 0.0000 0.0000 39.4635
#
#
#
# Elastic Compliance Matrix: (Units=1/GPa)
#
#
# Indices 1 2 3 4 5 6 
#
# 1 0.010080 -0.002223 -0.001422 0.000000 0.000000 0.000000
# 2 -0.002223 0.011801 -0.004163 0.000000 0.000000 0.000000
# 3 -0.001422 -0.004163 0.010151 0.000000 0.000000 0.000000
# 4 0.000000 0.000000 0.000000 -0.024395 0.000000 0.000000
# 5 0.000000 0.000000 0.000000 0.000000 0.031569 0.000000
# 6 0.000000 0.000000 0.000000 0.000000 0.000000 0.025340
#
#
# Mechanical properties :
#
#
# Convention : Reuss Voigt Hill
#
# Bulk Modulus (GPa) = 60.91497 61.49171 61.20334
# Shear Modulus (GPa) = 58.38763 21.55311 39.97037
#
# Velocity S-wave (km/s) = 5.14584 3.12644 4.25760
# Velocity P-wave (km/s) = 7.93297 6.39689 7.20598
#
# Compressibility (1/GPa) = 0.01641633
#
# Stress axis : x y z
#
# Youngs Moduli (GPa) = 99.20699 84.73604 98.50939
#
# Poissons Ratio (x) = 0.18841 0.14004
# Poissons Ratio (y) = 0.22058 0.41010
# Poissons Ratio (z) = 0.14103 0.35276
#
# Static dielectric constant tensor:
#      x y z
#    x 1.924600 0.000000 0.000000 
#    y 0.000000 1.790410 0.000000 
#    z 0.000000 0.000000 1.874310 
# 
# From -- ./inp_files/21712.got.cif
#   From: 2010.05.17/outbox.cif.g08.bks.cpg/sg24_11_cif.got.tgz:21712.got - 2010.06.04 00:33:39.
