data_PCOD9335418
_publ_section_title
;
Structure prediction by ZEFSAII (Michael W. Deem and Ramdas Pophale) SiO2 
 PCOD9335418
Probable space group: I 21 21 21
;
_chemical_formula_sum "Si O2"
_cell_formula_units_Z 40
_cell_length_a 28.331033
_cell_length_b 9.313161
_cell_length_c 8.147881
_cell_angle_alpha 90.000000
_cell_angle_beta 90.000000
_cell_angle_gamma 90.000000
_cell_volume 2149.830392
_symmetry_space_group_name_H-M "I 21 21 21"
_symmetry_group_IT_number 24
_symmetry_cell_setting 'orthorhombic'
loop_
_space_group_symop_operation_xyz
x,y,z
-x,1/2-y,z
x,-y,1/2-z
1/2-x,y,-z
1/2+x,1/2+y,1/2+z
1/2-x,-y,1/2+z
1/2+x,1/2-y,-z
-x,1/2+y,1/2-z
loop_
_atom_site_type_symbol
_atom_site_label
_atom_site_fract_x
_atom_site_fract_y
_atom_site_fract_z
Si Si1 0.769604 0.344056 0.813103
Si Si2 0.140812 0.315557 0.899314
Si Si3 0.891030 0.091010 0.416555
Si Si4 0.547148 0.162161 0.304106
Si Si5 0.834754 0.670213 0.254546
O O1 0.786023 0.500000 0.750000
O O2 0.811580 0.229269 0.804489
O O3 0.720969 0.303723 0.724336
O O4 0.750000 0.359297 0.000000
O O5 0.093063 0.282937 0.798200
O O6 0.135218 0.480693 0.958799
O O7 0.147283 0.225609 0.067816
O O8 0.937448 0.147215 0.506949
O O9 0.861375 0.231215 0.374464
O O10 0.899328 0.000000 0.250000
O O11 0.500000 0.250000 0.277688
O O12 0.538203 0.000000 0.250000
O O13 0.842461 0.500000 0.250000
#
# Coordination Sequence:
#
# PCOD9335418 Si02
#       5
#     8   8   8   8   8
#     4   9  18  32  52  81 112 144 183 224 265 317
#     4   9  19  36  55  78 111 144 179 227 275 325
#     4   9  19  39  57  76 111 144 178 225 275 333
#     4  10  22  39  58  80 105 137 180 230 279 326
#     4   9  18  34  56  83 113 147 184 222 267 323
#
# _framework density 18.606117999999999
#
# number of rings (size 3 to 8) (size 9 to 14) (size 15 to 20)
#    0.000    2.800    0.000    0.000    0.000    7.200 
#    0.000   33.000    0.000    0.000    0.000    0.000 
#    0.000    0.000    0.000    0.000    0.000    0.000 
#
# Total GULP energy -111425.478491 kJ/mol
# GULP energy per Si atom -5571.273925 kJ/mol
# Density = 1.856377 g / cm^3
# Si number density = 18.606118 Si / 1000 Ang^3
#
#
#
# Elastic Constant Matrix: (Units=GPa)
#
#
# Indices 1 2 3 4 5 6 
#
# 1 136.9686 80.7162 48.4670 0.0000 0.0000 0.0000
# 2 80.7162 83.6131 30.6963 0.0000 0.0000 0.0000
# 3 48.4670 30.6963 45.9899 0.0000 0.0000 0.0000
# 4 0.0000 0.0000 0.0000 20.0840 0.0000 0.0000
# 5 0.0000 0.0000 0.0000 0.0000 11.2736 0.0000
# 6 0.0000 0.0000 0.0000 0.0000 0.0000 29.9371
#
#
#
# Elastic Compliance Matrix: (Units=1/GPa)
#
#
# Indices 1 2 3 4 5 6 
#
# 1 0.020478 -0.015691 -0.011108 0.000000 0.000000 0.000000
# 2 -0.015691 0.027864 -0.002062 0.000000 0.000000 0.000000
# 3 -0.011108 -0.002062 0.034827 0.000000 0.000000 0.000000
# 4 0.000000 0.000000 0.000000 0.049791 0.000000 0.000000
# 5 0.000000 0.000000 0.000000 0.000000 0.088703 0.000000
# 6 0.000000 0.000000 0.000000 0.000000 0.000000 0.033403
#
#
# Mechanical properties :
#
#
# Convention : Reuss Voigt Hill
#
# Bulk Modulus (GPa) = 39.29780 65.14781 52.22281
# Shear Modulus (GPa) = 15.56319 19.37176 17.46747
#
# Velocity S-wave (km/s) = 2.89529 3.23019 3.06731
# Velocity P-wave (km/s) = 5.68715 7.00017 6.37754
#
# Compressibility (1/GPa) = 0.02544672
#
# Stress axis : x y z
#
# Youngs Moduli (GPa) = 48.83227 35.88869 28.71326
#
# Poissons Ratio (x) = 0.56312 0.31896
# Poissons Ratio (y) = 0.76621 0.05921
# Poissons Ratio (z) = 0.54245 0.07401
#
# Static dielectric constant tensor:
#      x y z
#    x 1.631920 0.000000 0.000000 
#    y 0.000000 1.626990 0.000000 
#    z 0.000000 0.000000 1.721930 
# 
# From -- ./inp_files/9229.got.cif
#   From: 2010.05.17/outbox.cif.g08.bks.cpg/sg24_5_cif.got.tgz:9229.got - 2010.06.04 00:33:39.
