data_PCOD9335350
_publ_section_title
;
Structure prediction by ZEFSAII (Michael W. Deem and Ramdas Pophale) SiO2 
 PCOD9335350
Probable space group: I 21 21 21
;
_chemical_formula_sum "Si O2"
_cell_formula_units_Z 24
_cell_length_a 5.076607
_cell_length_b 11.071174
_cell_length_c 20.132846
_cell_angle_alpha 90.000000
_cell_angle_beta 90.000000
_cell_angle_gamma 90.000000
_cell_volume 1131.546465
_symmetry_space_group_name_H-M "I 21 21 21"
_symmetry_group_IT_number 24
_symmetry_cell_setting 'orthorhombic'
loop_
_space_group_symop_operation_xyz
x,y,z
-x,1/2-y,z
x,-y,1/2-z
1/2-x,y,-z
1/2+x,1/2+y,1/2+z
1/2-x,-y,1/2+z
1/2+x,1/2-y,-z
-x,1/2+y,1/2-z
loop_
_atom_site_type_symbol
_atom_site_label
_atom_site_fract_x
_atom_site_fract_y
_atom_site_fract_z
Si Si1 0.109113 0.030304 0.365956
Si Si2 0.000000 0.750000 0.235809
Si Si3 0.750000 0.333229 0.500000
Si Si4 0.387976 0.587855 0.313132
O O1 0.095278 0.139370 0.311282
O O2 0.176096 0.088320 0.436135
O O3 0.328653 0.931679 0.346295
O O4 0.825204 0.968182 0.363817
O O5 0.240091 0.703370 0.281446
O O6 0.500000 0.250000 0.482989
O O7 0.399668 0.500000 0.250000
#
# Coordination Sequence:
#
# PCOD9335350 Si02
#       4
#     8   4   4   8
#     4  11  23  39  60  93 124 163 208 251 315 375
#     4  10  22  42  62  94 130 162 206 266 316 380
#     4  12  24  40  62  88 128 170 202 260 314 372
#     4  10  22  37  60  90 124 163 203 255 313 370
#
# _framework density 21.209911000000002
#
# number of rings (size 3 to 8) (size 9 to 14) (size 15 to 20)
#    0.000    1.333    1.667    5.000    4.667    6.667 
#    0.000    0.000    0.000    4.000    0.000    0.000 
#    0.000    0.000    0.000    0.000    0.000    0.000 
#
# Total GULP energy -67055.223504 kJ/mol
# GULP energy per Si atom -5587.935292 kJ/mol
# Density = 2.116164 g / cm^3
# Si number density = 21.209911 Si / 1000 Ang^3
#
#
#
# Elastic Constant Matrix: (Units=GPa)
#
#
# Indices 1 2 3 4 5 6 
#
# 1 118.8295 15.0336 15.4719 0.0000 0.0000 0.0000
# 2 15.0336 75.4977 35.3552 0.0000 0.0000 0.0000
# 3 15.4719 35.3552 105.3489 0.0000 0.0000 0.0000
# 4 0.0000 0.0000 0.0000 -34.0842 0.0000 0.0000
# 5 0.0000 0.0000 0.0000 0.0000 29.3221 0.0000
# 6 0.0000 0.0000 0.0000 0.0000 0.0000 24.8446
#
#
#
# Elastic Compliance Matrix: (Units=1/GPa)
#
#
# Indices 1 2 3 4 5 6 
#
# 1 0.008693 -0.001344 -0.000825 0.000000 0.000000 0.000000
# 2 -0.001344 0.015923 -0.005146 0.000000 0.000000 0.000000
# 3 -0.000825 -0.005146 0.011341 0.000000 0.000000 0.000000
# 4 0.000000 0.000000 0.000000 -0.029339 0.000000 0.000000
# 5 0.000000 0.000000 0.000000 0.000000 0.034104 0.000000
# 6 0.000000 0.000000 0.000000 0.000000 0.000000 0.040250
#
#
# Mechanical properties :
#
#
# Convention : Reuss Voigt Hill
#
# Bulk Modulus (GPa) = 46.89511 47.93305 47.41408
# Shear Modulus (GPa) = 48.67958 19.60421 34.14189
#
# Velocity S-wave (km/s) = 4.79595 3.04352 4.01648
# Velocity P-wave (km/s) = 7.26816 5.91600 6.62666
#
# Compressibility (1/GPa) = 0.02132418
#
# Stress axis : x y z
#
# Youngs Moduli (GPa) = 115.03522 62.80154 88.17851
#
# Poissons Ratio (x) = 0.08443 0.07279
# Poissons Ratio (y) = 0.15466 0.45380
# Poissons Ratio (z) = 0.09496 0.32320
#
# Static dielectric constant tensor:
#      x y z
#    x 1.800680 0.000000 0.000000 
#    y 0.000000 1.897550 0.000000 
#    z 0.000000 0.000000 1.706560 
# 
# From -- ./inp_files/1707.got.cif
#   From: 2010.05.17/outbox.cif.g08.bks.cpg/sg24_1_cif.got.tgz:1707.got - 2010.06.04 00:33:39.
