data_PCOD9335331
_publ_section_title
;
Structure prediction by ZEFSAII (Michael W. Deem and Ramdas Pophale) SiO2 
 PCOD9335331
Probable space group: I 21 21 21
;
_chemical_formula_sum "Si O2"
_cell_formula_units_Z 44
_cell_length_a 5.305797
_cell_length_b 14.375651
_cell_length_c 28.799762
_cell_angle_alpha 90.000000
_cell_angle_beta 90.000000
_cell_angle_gamma 90.000000
_cell_volume 2196.681282
_symmetry_space_group_name_H-M "I 21 21 21"
_symmetry_group_IT_number 24
_symmetry_cell_setting 'orthorhombic'
loop_
_space_group_symop_operation_xyz
x,y,z
-x,1/2-y,z
x,-y,1/2-z
1/2-x,y,-z
1/2+x,1/2+y,1/2+z
1/2-x,-y,1/2+z
1/2+x,1/2-y,-z
-x,1/2+y,1/2-z
loop_
_atom_site_type_symbol
_atom_site_label
_atom_site_fract_x
_atom_site_fract_y
_atom_site_fract_z
Si Si1 0.023314 0.498782 0.874949
Si Si2 0.750000 0.690977 0.500000
Si Si3 0.804169 0.384137 0.796318
Si Si4 0.000000 0.750000 0.345183
Si Si5 0.560593 0.000000 0.750000
Si Si6 0.482745 0.922861 0.585354
Si Si7 0.940179 0.858915 0.797103
O O1 0.007435 0.424393 0.831902
O O2 0.754181 0.485177 0.899311
O O3 0.252900 0.476984 0.909793
O O4 0.043309 0.595115 0.847509
O O5 0.500000 0.750000 0.481888
O O6 0.613690 0.627401 0.538625
O O7 0.724604 0.281603 0.811565
O O8 0.571549 0.455693 0.795662
O O9 0.861478 0.389909 0.742098
O O10 0.978513 0.837353 0.378943
O O11 0.703040 0.090538 0.727995
O O12 0.000000 0.750000 0.800653
#
# Coordination Sequence:
#
# PCOD9335331 Si02
#       7
#     8   4   8   4   4   8   8
#     4  11  23  42  58  89 131 178 224 272 337 395
#     4  12  24  46  70 108 134 164 226 274 354 444
#     4  11  22  36  57  83 128 181 232 280 318 384
#     4  10  22  36  56  90 122 172 224 252 334 382
#     4  12  20  42  50  84 130 178 240 296 324 374
#     4  11  25  41  68  90 135 172 209 281 340 419
#     4  12  24  36  62  88 129 189 239 293 328 383
#
# _framework density 20.030217
#
# number of rings (size 3 to 8) (size 9 to 14) (size 15 to 20)
#    0.000    0.727    4.545    4.364    2.545    1.455 
#    0.000    0.000    0.000    0.000    0.000    2.545 
#    0.000    0.000    0.000    0.000    0.000    0.000 
#
# Total GULP energy -122476.235542 kJ/mol
# GULP energy per Si atom -5567.101616 kJ/mol
# Density = 1.998463 g / cm^3
# Si number density = 20.030217 Si / 1000 Ang^3
#
#
#
# Elastic Constant Matrix: (Units=GPa)
#
#
# Indices 1 2 3 4 5 6 
#
# 1 129.6578 41.1773 36.7259 0.0000 0.0000 0.0000
# 2 41.1773 70.4817 39.4871 0.0000 0.0000 0.0000
# 3 36.7259 39.4871 77.6082 0.0000 0.0000 0.0000
# 4 0.0000 0.0000 0.0000 28.2237 0.0000 0.0000
# 5 0.0000 0.0000 0.0000 0.0000 41.8767 0.0000
# 6 0.0000 0.0000 0.0000 0.0000 0.0000 11.0953
#
#
#
# Elastic Compliance Matrix: (Units=1/GPa)
#
#
# Indices 1 2 3 4 5 6 
#
# 1 0.009781 -0.004366 -0.002407 0.000000 0.000000 0.000000
# 2 -0.004366 0.021793 -0.009023 0.000000 0.000000 0.000000
# 3 -0.002407 -0.009023 0.018615 0.000000 0.000000 0.000000
# 4 0.000000 0.000000 0.000000 0.035431 0.000000 0.000000
# 5 0.000000 0.000000 0.000000 0.000000 0.023880 0.000000
# 6 0.000000 0.000000 0.000000 0.000000 0.000000 0.090128
#
#
# Mechanical properties :
#
#
# Convention : Reuss Voigt Hill
#
# Bulk Modulus (GPa) = 53.76792 56.94757 55.35775
# Shear Modulus (GPa) = 21.05977 26.92963 23.99470
#
# Velocity S-wave (km/s) = 3.24605 3.67065 3.46486
# Velocity P-wave (km/s) = 6.39928 6.81597 6.61091
#
# Compressibility (1/GPa) = 0.01859845
#
# Stress axis : x y z
#
# Youngs Moduli (GPa) = 102.23964 45.88530 53.71969
#
# Poissons Ratio (x) = 0.20032 0.12932
# Poissons Ratio (y) = 0.44634 0.48469
# Poissons Ratio (z) = 0.24612 0.41401
#
# Static dielectric constant tensor:
#      x y z
#    x 1.923380 0.000000 0.000000 
#    y 0.000000 1.564060 0.000000 
#    z 0.000000 0.000000 1.749650 
# 
# From -- ./inp_files/37869.got.cif
#   From: 2010.05.17/outbox.cif.g08.bks.cpg/sg24_19_cif.got.tgz:37869.got - 2010.06.04 00:33:39.
