data_PCOD9335239
_publ_section_title
;
Structure prediction by ZEFSAII (Michael W. Deem and Ramdas Pophale) SiO2 
 PCOD9335239
Probable space group: I 21 21 21
;
_chemical_formula_sum "Si O2"
_cell_formula_units_Z 28
_cell_length_a 14.622479
_cell_length_b 9.036710
_cell_length_c 9.941326
_cell_angle_alpha 90.000000
_cell_angle_beta 90.000000
_cell_angle_gamma 90.000000
_cell_volume 1313.637892
_symmetry_space_group_name_H-M "I 21 21 21"
_symmetry_group_IT_number 24
_symmetry_cell_setting 'orthorhombic'
loop_
_space_group_symop_operation_xyz
x,y,z
-x,1/2-y,z
x,-y,1/2-z
1/2-x,y,-z
1/2+x,1/2+y,1/2+z
1/2-x,-y,1/2+z
1/2+x,1/2-y,-z
-x,1/2+y,1/2-z
loop_
_atom_site_type_symbol
_atom_site_label
_atom_site_fract_x
_atom_site_fract_y
_atom_site_fract_z
Si Si1 0.962960 0.500000 0.250000
Si Si2 0.750000 0.032121 0.000000
Si Si3 0.201443 0.186330 0.130522
Si Si4 0.000000 0.250000 0.454210
Si Si5 0.318809 0.245997 0.386806
O O1 0.891472 0.391900 0.172379
O O2 0.015089 0.391618 0.354785
O O3 0.777714 0.310176 0.752251
O O4 0.805151 0.923925 0.901409
O O5 0.250000 0.119966 0.000000
O O6 0.186584 0.356996 0.085315
O O7 0.082633 0.211889 0.554353
O O8 0.250000 0.190036 0.500000
#
# Coordination Sequence:
#
# PCOD9335239 Si02
#       5
#     4   4   8   4   8
#     4  12  26  44  68 112 140 194 246 306 356 444
#     4   8  20  38  74  92 128 184 232 292 354 434
#     4  10  23  41  73  97 135 195 235 295 359 438
#     4  12  28  40  76 104 154 188 250 308 366 438
#     4  10  21  43  69 101 141 184 239 300 365 423
#
# _framework density 21.314855000000001
#
# number of rings (size 3 to 8) (size 9 to 14) (size 15 to 20)
#    1.714    0.000    2.857    0.857    8.000    0.000 
#    0.000    7.143    0.000    0.000    0.000    0.000 
#    0.000    0.000    0.000    0.000    0.000    0.000 
#
# Total GULP energy -77954.498315 kJ/mol
# GULP energy per Si atom -5568.178451 kJ/mol
# Density = 2.126634 g / cm^3
# Si number density = 21.314855 Si / 1000 Ang^3
#
#
#
# Elastic Constant Matrix: (Units=GPa)
#
#
# Indices 1 2 3 4 5 6 
#
# 1 63.2839 -10.8269 31.4917 0.0000 0.0000 0.0000
# 2 -10.8269 105.1750 23.9354 0.0000 0.0000 0.0000
# 3 31.4917 23.9354 155.0847 0.0000 0.0000 0.0000
# 4 0.0000 0.0000 0.0000 -22.8663 0.0000 0.0000
# 5 0.0000 0.0000 0.0000 0.0000 16.4605 0.0000
# 6 0.0000 0.0000 0.0000 0.0000 0.0000 64.1316
#
#
#
# Elastic Compliance Matrix: (Units=1/GPa)
#
#
# Indices 1 2 3 4 5 6 
#
# 1 0.018361 0.002838 -0.004166 0.000000 0.000000 0.000000
# 2 0.002838 0.010293 -0.002165 0.000000 0.000000 0.000000
# 3 -0.004166 -0.002165 0.007628 0.000000 0.000000 0.000000
# 4 0.000000 0.000000 0.000000 -0.043732 0.000000 0.000000
# 5 0.000000 0.000000 0.000000 0.000000 0.060751 0.000000
# 6 0.000000 0.000000 0.000000 0.000000 0.000000 0.015593
#
#
# Mechanical properties :
#
#
# Convention : Reuss Voigt Hill
#
# Bulk Modulus (GPa) = 34.13475 45.86047 39.99761
# Shear Modulus (GPa) = 58.38056 30.14138 44.26097
#
# Velocity S-wave (km/s) = 5.23919 3.76453 4.56184
# Velocity P-wave (km/s) = 7.25590 6.36067 6.82298
#
# Compressibility (1/GPa) = 0.02929566
#
# Stress axis : x y z
#
# Youngs Moduli (GPa) = 54.46416 97.15506 131.09160
#
# Poissons Ratio (x) = -0.27575 0.54618
# Poissons Ratio (y) = -0.15458 0.28380
# Poissons Ratio (z) = 0.22692 0.21033
#
# Static dielectric constant tensor:
#      x y z
#    x 1.815240 0.000000 0.000000 
#    y 0.000000 1.870600 0.000000 
#    z 0.000000 0.000000 1.722770 
# 
# From -- ./inp_files/20337.got.cif
#   From: 2010.05.17/outbox.cif.g08.bks.cpg/sg24_11_cif.got.tgz:20337.got - 2010.06.04 00:33:39.
