data_PCOD9335666
_publ_section_title
;
Structure prediction by ZEFSAII (Michael W. Deem and Ramdas Pophale) SiO2 
 PCOD9335666
Probable space group: I 21 21 21
;
_chemical_formula_sum "Si O2"
_cell_formula_units_Z 32
_cell_length_a 18.290586
_cell_length_b 8.623859
_cell_length_c 8.068924
_cell_angle_alpha 90.000000
_cell_angle_beta 90.000000
_cell_angle_gamma 90.000000
_cell_volume 1272.755235
_symmetry_space_group_name_H-M "I 21 21 21"
_symmetry_group_IT_number 24
_symmetry_cell_setting 'orthorhombic'
loop_
_space_group_symop_operation_xyz
x,y,z
-x,1/2-y,z
x,-y,1/2-z
1/2-x,y,-z
1/2+x,1/2+y,1/2+z
1/2-x,-y,1/2+z
1/2+x,1/2-y,-z
-x,1/2+y,1/2-z
loop_
_atom_site_type_symbol
_atom_site_label
_atom_site_fract_x
_atom_site_fract_y
_atom_site_fract_z
Si Si1 0.250000 0.952511 0.500000
Si Si2 0.000000 0.250000 0.008394
Si Si3 0.750000 0.026352 0.500000
Si Si4 0.855761 0.278686 0.428881
Si Si5 0.535266 0.500000 0.750000
Si Si6 0.349653 0.723802 0.315628
O O1 0.290007 0.852483 0.361916
O O2 0.189249 0.063582 0.430034
O O3 0.991970 0.085021 0.104458
O O4 0.074726 0.237863 0.906410
O O5 0.799117 0.140603 0.381544
O O6 0.690532 0.922891 0.402668
O O7 0.922607 0.344402 0.320618
O O8 0.869200 0.232634 0.620974
#
# Coordination Sequence:
#
# PCOD9335666 Si02
#       6
#     4   4   4   8   4   8
#     4  10  22  42  80 110 140 192 264 316 372 456
#     4  12  30  50  74 110 164 210 262 318 396 478
#     4  10  26  46  82 120 152 196 266 322 376 460
#     4  11  25  47  81 112 151 200 263 328 386 462
#     4  12  30  50  74 116 156 208 258 338 388 464
#     4  11  25  50  77 112 153 209 256 315 395 471
#
# _framework density 25.142305
#
# number of rings (size 3 to 8) (size 9 to 14) (size 15 to 20)
#    0.000    1.000    2.500    1.500   10.500    3.000 
#    4.500    0.000    0.000    0.000    0.000    0.000 
#    0.000    0.000    0.000    0.000    0.000    0.000 
#
# Total GULP energy -89329.321076 kJ/mol
# GULP energy per Si atom -5583.082567 kJ/mol
# Density = 2.508508 g / cm^3
# Si number density = 25.142305 Si / 1000 Ang^3
#
#
#
# Elastic Constant Matrix: (Units=GPa)
#
#
# Indices 1 2 3 4 5 6 
#
# 1 51.3043 18.9174 29.7179 0.0000 0.0000 0.0000
# 2 18.9174 149.9393 33.7072 0.0000 0.0000 0.0000
# 3 29.7179 33.7072 99.1292 0.0000 0.0000 0.0000
# 4 0.0000 0.0000 0.0000 36.4831 0.0000 0.0000
# 5 0.0000 0.0000 0.0000 0.0000 28.8791 0.0000
# 6 0.0000 0.0000 0.0000 0.0000 0.0000 -51.1589
#
#
#
# Elastic Compliance Matrix: (Units=1/GPa)
#
#
# Indices 1 2 3 4 5 6 
#
# 1 0.023904 -0.001521 -0.006649 0.000000 0.000000 0.000000
# 2 -0.001521 0.007318 -0.002032 0.000000 0.000000 0.000000
# 3 -0.006649 -0.002032 0.012772 0.000000 0.000000 0.000000
# 4 0.000000 0.000000 0.000000 0.027410 0.000000 0.000000
# 5 0.000000 0.000000 0.000000 0.000000 0.034627 0.000000
# 6 0.000000 0.000000 0.000000 0.000000 0.000000 -0.019547
#
#
# Mechanical properties :
#
#
# Convention : Reuss Voigt Hill
#
# Bulk Modulus (GPa) = 42.39207 51.67308 47.03257
# Shear Modulus (GPa) = 43.57212 17.37600 30.47406
#
# Velocity S-wave (km/s) = 4.16747 2.63174 3.48525
# Velocity P-wave (km/s) = 6.32887 5.46183 5.91127
#
# Compressibility (1/GPa) = 0.02358932
#
# Stress axis : x y z
#
# Youngs Moduli (GPa) = 41.83438 136.64606 78.29520
#
# Poissons Ratio (x) = 0.20786 0.52057
# Poissons Ratio (y) = 0.06364 0.15913
# Poissons Ratio (z) = 0.27815 0.27772
#
# Static dielectric constant tensor:
#      x y z
#    x 2.109590 0.000000 0.000000 
#    y 0.000000 2.037600 0.000000 
#    z 0.000000 0.000000 2.186230 
# 
# From -- ./inp_files/14802.got.cif
#   From: 2010.05.17/outbox.cif.g08.bks.cpg/sg24_8_cif.got.tgz:14802.got - 2010.06.04 00:33:39.
