data_PCOD9335546
_publ_section_title
;
Structure prediction by ZEFSAII (Michael W. Deem and Ramdas Pophale) SiO2 
 PCOD9335546
Probable space group: I 21 21 21
;
_chemical_formula_sum "Si O2"
_cell_formula_units_Z 40
_cell_length_a 25.232351
_cell_length_b 10.011102
_cell_length_c 7.449328
_cell_angle_alpha 90.000000
_cell_angle_beta 90.000000
_cell_angle_gamma 90.000000
_cell_volume 1881.727365
_symmetry_space_group_name_H-M "I 21 21 21"
_symmetry_group_IT_number 24
_symmetry_cell_setting 'orthorhombic'
loop_
_space_group_symop_operation_xyz
x,y,z
-x,1/2-y,z
x,-y,1/2-z
1/2-x,y,-z
1/2+x,1/2+y,1/2+z
1/2-x,-y,1/2+z
1/2+x,1/2-y,-z
-x,1/2+y,1/2-z
loop_
_atom_site_type_symbol
_atom_site_label
_atom_site_fract_x
_atom_site_fract_y
_atom_site_fract_z
Si Si1 0.070508 0.500000 0.250000
Si Si2 0.496113 0.107422 0.025961
Si Si3 0.204130 0.000000 0.750000
Si Si4 0.921541 0.000000 0.750000
Si Si5 0.250000 0.219033 0.500000
Si Si6 0.383948 0.013811 0.533490
Si Si7 0.365327 0.679438 0.960480
O O1 0.029499 0.502073 0.412135
O O2 0.108644 0.373285 0.275523
O O3 0.500000 0.250000 0.931073
O O4 0.436563 0.059156 0.036701
O O5 0.535682 0.115075 0.194834
O O6 0.237974 0.121550 0.669461
O O7 0.165780 0.961573 0.582828
O O8 0.883382 0.068844 0.604582
O O9 0.302298 0.303595 0.540513
O O10 0.386694 0.172654 0.496684
O O11 0.378793 0.000000 0.750000
#
# Coordination Sequence:
#
# PCOD9335546 Si02
#       7
#     4   8   4   4   4   8   8
#     4  10  22  41  61  96 131 177 234 260 334 424
#     4  11  23  37  64  99 134 184 214 273 345 418
#     4  10  25  42  69 108 133 176 233 296 362 424
#     4  10  25  39  62  92 144 179 237 278 336 428
#     4  10  24  46  70  96 136 176 232 294 364 406
#     4  11  23  43  73 103 144 179 228 291 363 429
#     4  10  24  44  64  96 136 183 232 295 342 415
#
# _framework density 21.257065999999998
#
# number of rings (size 3 to 8) (size 9 to 14) (size 15 to 20)
#    0.000    1.600    1.000    1.800   14.000    2.400 
#    0.000    0.000    0.000    0.000    0.000    0.000 
#    0.000    0.000    0.000    0.000    0.000    0.000 
#
# Total GULP energy -111454.463889 kJ/mol
# GULP energy per Si atom -5572.723194 kJ/mol
# Density = 2.120868 g / cm^3
# Si number density = 21.257066 Si / 1000 Ang^3
#
#
#
# Elastic Constant Matrix: (Units=GPa)
#
#
# Indices 1 2 3 4 5 6 
#
# 1 144.3723 29.9042 37.7945 0.0000 0.0000 0.0000
# 2 29.9042 53.9223 4.8206 0.0000 0.0000 0.0000
# 3 37.7945 4.8206 82.9430 0.0000 0.0000 0.0000
# 4 0.0000 0.0000 0.0000 31.4677 0.0000 0.0000
# 5 0.0000 0.0000 0.0000 0.0000 20.8997 0.0000
# 6 0.0000 0.0000 0.0000 0.0000 0.0000 34.1736
#
#
#
# Elastic Compliance Matrix: (Units=1/GPa)
#
#
# Indices 1 2 3 4 5 6 
#
# 1 0.008862 -0.004578 -0.003772 0.000000 0.000000 0.000000
# 2 -0.004578 0.021006 0.000865 0.000000 0.000000 0.000000
# 3 -0.003772 0.000865 0.013725 0.000000 0.000000 0.000000
# 4 0.000000 0.000000 0.000000 0.031779 0.000000 0.000000
# 5 0.000000 0.000000 0.000000 0.000000 0.047848 0.000000
# 6 0.000000 0.000000 0.000000 0.000000 0.000000 0.029262
#
#
# Mechanical properties :
#
#
# Convention : Reuss Voigt Hill
#
# Bulk Modulus (GPa) = 34.93550 47.36403 41.14976
# Shear Modulus (GPa) = 28.24967 31.22276 29.73622
#
# Velocity S-wave (km/s) = 3.64944 3.83667 3.74423
# Velocity P-wave (km/s) = 5.85050 6.47740 6.17191
#
# Compressibility (1/GPa) = 0.02862418
#
# Stress axis : x y z
#
# Youngs Moduli (GPa) = 112.83884 47.60437 72.85945
#
# Poissons Ratio (x) = 0.21791 0.27484
# Poissons Ratio (y) = 0.51653 -0.06302
# Poissons Ratio (z) = 0.42565 -0.04118
#
# Static dielectric constant tensor:
#      x y z
#    x 1.742520 0.000000 0.000000 
#    y 0.000000 1.881510 0.000000 
#    z 0.000000 0.000000 2.095570 
# 
# From -- ./inp_files/15692.got.cif
#   From: 2010.05.17/outbox.cif.g08.bks.cpg/sg24_8_cif.got.tgz:15692.got - 2010.06.04 00:33:39.
