data_PCOD9335159
_publ_section_title
;
Structure prediction by ZEFSAII (Michael W. Deem and Ramdas Pophale) SiO2 
 PCOD9335159
Probable space group: I 21 21 21
;
_chemical_formula_sum "Si O2"
_cell_formula_units_Z 40
_cell_length_a 14.759026
_cell_length_b 12.172012
_cell_length_c 11.269426
_cell_angle_alpha 90.000000
_cell_angle_beta 90.000000
_cell_angle_gamma 90.000000
_cell_volume 2024.519041
_symmetry_space_group_name_H-M "I 21 21 21"
_symmetry_group_IT_number 24
_symmetry_cell_setting 'orthorhombic'
loop_
_space_group_symop_operation_xyz
x,y,z
-x,1/2-y,z
x,-y,1/2-z
1/2-x,y,-z
1/2+x,1/2+y,1/2+z
1/2-x,-y,1/2+z
1/2+x,1/2-y,-z
-x,1/2+y,1/2-z
loop_
_atom_site_type_symbol
_atom_site_label
_atom_site_fract_x
_atom_site_fract_y
_atom_site_fract_z
Si Si1 0.893788 0.514997 0.892302
Si Si2 0.852681 0.000000 0.250000
Si Si3 0.250000 0.853034 0.500000
Si Si4 0.599015 0.007543 0.485026
Si Si5 0.107748 0.740140 0.890391
Si Si6 0.711925 0.167476 0.170138
O O1 0.884648 0.500000 0.750000
O O2 0.859788 0.638240 0.923652
O O3 0.999516 0.501042 0.926481
O O4 0.834364 0.427934 0.964209
O O5 0.784632 0.897151 0.251887
O O6 0.905673 0.992060 0.373548
O O7 0.262309 0.768116 0.607662
O O8 0.635032 0.131237 0.461900
O O9 0.664264 0.918141 0.421426
O O10 0.135190 0.714957 0.755539
O O11 0.000000 0.750000 0.899799
#
# Coordination Sequence:
#
# PCOD9335159 Si02
#       6
#     8   4   4   8   8   8
#     4  11  24  45  66  93 132 176 220 262 325 399
#     4  12  24  40  62 102 132 162 216 274 332 372
#     4  12  26  42  62 104 130 168 222 264 336 386
#     4  11  23  42  67  98 129 172 218 274 325 384
#     4  10  21  41  70  94 122 170 227 266 316 387
#     4  12  22  40  67  99 130 167 217 277 325 381
#
# _framework density 19.757778999999999
#
# number of rings (size 3 to 8) (size 9 to 14) (size 15 to 20)
#    0.000    0.800    6.000    2.400    0.000    1.600 
#    1.800    4.000    0.000    0.000    0.000    0.000 
#    0.000    0.000    0.000    0.000    0.000    0.000 
#
# Total GULP energy -111623.564309 kJ/mol
# GULP energy per Si atom -5581.178215 kJ/mol
# Density = 1.971281 g / cm^3
# Si number density = 19.757779 Si / 1000 Ang^3
#
#
#
# Elastic Constant Matrix: (Units=GPa)
#
#
# Indices 1 2 3 4 5 6 
#
# 1 52.3907 43.6545 19.7807 0.0000 0.0000 0.0000
# 2 43.6545 148.5292 32.1695 0.0000 0.0000 0.0000
# 3 19.7807 32.1695 86.7371 0.0000 0.0000 0.0000
# 4 0.0000 0.0000 0.0000 40.5152 0.0000 0.0000
# 5 0.0000 0.0000 0.0000 0.0000 33.8594 0.0000
# 6 0.0000 0.0000 0.0000 0.0000 0.0000 23.5385
#
#
#
# Elastic Compliance Matrix: (Units=1/GPa)
#
#
# Indices 1 2 3 4 5 6 
#
# 1 0.026162 -0.006956 -0.003386 0.000000 0.000000 0.000000
# 2 -0.006956 0.009170 -0.001815 0.000000 0.000000 0.000000
# 3 -0.003386 -0.001815 0.012974 0.000000 0.000000 0.000000
# 4 0.000000 0.000000 0.000000 0.024682 0.000000 0.000000
# 5 0.000000 0.000000 0.000000 0.000000 0.029534 0.000000
# 6 0.000000 0.000000 0.000000 0.000000 0.000000 0.042484
#
#
# Mechanical properties :
#
#
# Convention : Reuss Voigt Hill
#
# Bulk Modulus (GPa) = 41.68001 53.20736 47.44368
# Shear Modulus (GPa) = 28.19797 32.38610 30.29203
#
# Velocity S-wave (km/s) = 3.78191 4.05304 3.91982
# Velocity P-wave (km/s) = 6.34127 6.99222 6.67469
#
# Compressibility (1/GPa) = 0.02399232
#
# Stress axis : x y z
#
# Youngs Moduli (GPa) = 38.22358 109.04965 77.07442
#
# Poissons Ratio (x) = 0.75853 0.26101
# Poissons Ratio (y) = 0.26588 0.13987
# Poissons Ratio (z) = 0.12944 0.19790
#
# Static dielectric constant tensor:
#      x y z
#    x 1.667300 0.000000 0.000000 
#    y 0.000000 1.734630 0.000000 
#    z 0.000000 0.000000 1.701860 
# 
# From -- ./inp_files/13848.got.cif
#   From: 2010.05.17/outbox.cif.g08.bks.cpg/sg24_7_cif.got.tgz:13848.got - 2010.06.04 00:33:39.
