data_PCOD9335694
_publ_section_title
;
Structure prediction by ZEFSAII (Michael W. Deem and Ramdas Pophale) SiO2 
 PCOD9335694
Probable space group: I 21 21 21
;
_chemical_formula_sum "Si O2"
_cell_formula_units_Z 48
_cell_length_a 11.011021
_cell_length_b 22.122215
_cell_length_c 9.184839
_cell_angle_alpha 90.000000
_cell_angle_beta 90.000000
_cell_angle_gamma 90.000000
_cell_volume 2237.318160
_symmetry_space_group_name_H-M "I 21 21 21"
_symmetry_group_IT_number 24
_symmetry_cell_setting 'orthorhombic'
loop_
_space_group_symop_operation_xyz
x,y,z
-x,1/2-y,z
x,-y,1/2-z
1/2-x,y,-z
1/2+x,1/2+y,1/2+z
1/2-x,-y,1/2+z
1/2+x,1/2-y,-z
-x,1/2+y,1/2-z
loop_
_atom_site_type_symbol
_atom_site_label
_atom_site_fract_x
_atom_site_fract_y
_atom_site_fract_z
Si Si1 0.756149 0.875439 0.673329
Si Si2 0.079256 0.000000 0.750000
Si Si3 0.987415 0.121366 0.344297
Si Si4 0.755749 0.261013 0.827604
Si Si5 0.500000 0.250000 0.669956
Si Si6 0.629995 0.035901 0.419094
Si Si7 0.760543 0.383415 0.674922
O O1 0.750000 0.883931 0.500000
O O2 0.615541 0.876621 0.722480
O O3 0.806974 0.806823 0.700338
O O4 0.821510 0.924253 0.780376
O O5 0.158657 0.940760 0.780164
O O6 0.981341 0.008011 0.879558
O O7 0.935820 0.078987 0.467184
O O8 0.993065 0.188034 0.415495
O O9 0.119372 0.105655 0.282055
O O10 0.618447 0.256857 0.768267
O O11 0.806320 0.320496 0.745879
O O12 0.750000 0.271280 0.000000
O O13 0.750000 0.011824 0.500000
O O14 0.750000 0.378049 0.500000
#
# Coordination Sequence:
#
# PCOD9335694 Si02
#       7
#     8   4   8   8   4   8   8
#     4   9  19  39  66 101 132 163 215 271 330 388
#     4  12  26  46  62  96 124 166 226 282 310 394
#     4   9  18  39  63  94 125 172 206 263 323 388
#     4   9  19  38  61  95 131 168 207 261 326 389
#     4   8  16  32  64  90 132 160 202 256 322 392
#     4  10  22  43  69  90 124 163 223 278 324 384
#     4  11  23  43  64  92 133 174 216 263 323 396
#
# _framework density 21.454257999999999
#
# number of rings (size 3 to 8) (size 9 to 14) (size 15 to 20)
#    0.000    2.333    1.667    0.000    0.000    6.000 
#   15.000    3.333    0.000    0.000    0.000    0.000 
#    0.000    0.000    0.000    0.000    0.000    0.000 
#
# Total GULP energy -133708.083339 kJ/mol
# GULP energy per Si atom -5571.170139 kJ/mol
# Density = 2.140543 g / cm^3
# Si number density = 21.454258 Si / 1000 Ang^3
#
#
#
# Elastic Constant Matrix: (Units=GPa)
#
#
# Indices 1 2 3 4 5 6 
#
# 1 95.5969 61.3031 20.9650 0.0001 0.0000 0.0000
# 2 61.3031 131.0972 48.8377 0.0002 0.0000 0.0000
# 3 20.9650 48.8377 93.5097 0.0005 -0.0002 -0.0002
# 4 0.0001 0.0002 0.0005 22.9981 0.0000 -0.0001
# 5 0.0000 0.0000 -0.0002 0.0000 3.4784 0.0000
# 6 0.0000 0.0000 -0.0002 -0.0001 0.0000 27.5575
#
#
#
# Elastic Compliance Matrix: (Units=1/GPa)
#
#
# Indices 1 2 3 4 5 6 
#
# 1 0.014951 -0.007130 0.000372 0.000000 0.000000 0.000000
# 2 -0.007130 0.012871 -0.005123 0.000000 0.000000 0.000000
# 3 0.000372 -0.005123 0.013287 0.000000 0.000001 0.000000
# 4 0.000000 0.000000 0.000000 0.043482 0.000000 0.000000
# 5 0.000000 0.000000 0.000001 0.000000 0.287491 0.000000
# 6 0.000000 0.000000 0.000000 0.000000 0.000000 0.036288
#
#
# Mechanical properties :
#
#
# Convention : Reuss Voigt Hill
#
# Bulk Modulus (GPa) = 57.65317 64.71282 61.18300
# Shear Modulus (GPa) = 11.41777 23.41333 17.41555
#
# Velocity S-wave (km/s) = 2.30943 3.30709 2.85222
# Velocity P-wave (km/s) = 5.83457 6.69411 6.27906
#
# Compressibility (1/GPa) = 0.01734510
#
# Stress axis : x y z
#
# Youngs Moduli (GPa) = 66.88411 77.69631 75.26374
#
# Poissons Ratio (x) = 0.55397 -0.02797
# Poissons Ratio (y) = 0.47688 0.38561
# Poissons Ratio (z) = -0.02486 0.39807
#
# Static dielectric constant tensor:
#      x y z
#    x 1.792360 0.000000 0.000000 
#    y 0.000000 1.877360 0.000000 
#    z 0.000000 0.000000 1.769170 
# 
# From -- ./inp_files/11313.got.cif
#   From: 2010.05.17/outbox.cif.g08.bks.cpg/sg24_6_cif.got.tgz:11313.got - 2010.06.04 00:33:39.
