data_PCOD9335416
_publ_section_title
;
Structure prediction by ZEFSAII (Michael W. Deem and Ramdas Pophale) SiO2 
 PCOD9335416
Probable space group: I 21 21 21
;
_chemical_formula_sum "Si O2"
_cell_formula_units_Z 32
_cell_length_a 11.256500
_cell_length_b 5.889966
_cell_length_c 23.159968
_cell_angle_alpha 90.000000
_cell_angle_beta 90.000000
_cell_angle_gamma 90.000000
_cell_volume 1535.515195
_symmetry_space_group_name_H-M "I 21 21 21"
_symmetry_group_IT_number 24
_symmetry_cell_setting 'orthorhombic'
loop_
_space_group_symop_operation_xyz
x,y,z
-x,1/2-y,z
x,-y,1/2-z
1/2-x,y,-z
1/2+x,1/2+y,1/2+z
1/2-x,-y,1/2+z
1/2+x,1/2-y,-z
-x,1/2+y,1/2-z
loop_
_atom_site_type_symbol
_atom_site_label
_atom_site_fract_x
_atom_site_fract_y
_atom_site_fract_z
Si Si1 0.640203 0.245563 0.154551
Si Si2 0.331077 0.625946 0.837597
Si Si3 0.717111 0.490806 0.564665
Si Si4 0.500000 0.250000 0.888592
Si Si5 0.289835 0.000000 0.750000
O O1 0.500000 0.250000 0.161038
O O2 0.679631 0.355565 0.093625
O O3 0.705637 0.403318 0.200632
O O4 0.705220 0.006043 0.166266
O O5 0.314768 0.778770 0.894586
O O6 0.433223 0.438922 0.849439
O O7 0.353678 0.790078 0.782692
O O8 0.750000 0.427501 0.500000
O O9 0.599945 0.642700 0.571233
#
# Coordination Sequence:
#
# PCOD9335416 Si02
#       5
#     8   8   8   4   4
#     4  10  23  40  67  99 132 170 219 269 335 402
#     4  10  22  43  67  98 137 173 223 275 340 395
#     4  10  23  42  68  98 132 172 220 276 336 396
#     4  10  22  44  70  90 142 174 224 276 332 404
#     4  10  22  38  70  98 136 170 218 274 336 400
#
# _framework density 20.83991
#
# number of rings (size 3 to 8) (size 9 to 14) (size 15 to 20)
#    0.000    2.000    0.000    1.500    5.250    7.000 
#    4.500    0.000  198.000    0.000    0.000    0.000 
#    0.000    0.000    0.000    0.000    0.000    0.000 
#
# Total GULP energy -89356.608390 kJ/mol
# GULP energy per Si atom -5584.788024 kJ/mol
# Density = 2.079248 g / cm^3
# Si number density = 20.839910 Si / 1000 Ang^3
#
#
#
# Elastic Constant Matrix: (Units=GPa)
#
#
# Indices 1 2 3 4 5 6 
#
# 1 118.3482 49.3188 32.1110 0.0000 0.0000 0.0000
# 2 49.3188 115.8337 43.7283 0.0000 0.0000 0.0000
# 3 32.1110 43.7283 125.3302 0.0000 0.0000 0.0000
# 4 0.0000 0.0000 0.0000 19.4407 0.0000 0.0000
# 5 0.0000 0.0000 0.0000 0.0000 10.9672 0.0000
# 6 0.0000 0.0000 0.0000 0.0000 0.0000 13.7149
#
#
#
# Elastic Compliance Matrix: (Units=1/GPa)
#
#
# Indices 1 2 3 4 5 6 
#
# 1 0.010452 -0.003961 -0.001296 0.000000 0.000000 0.000000
# 2 -0.003961 0.011444 -0.002978 0.000000 0.000000 0.000000
# 3 -0.001296 -0.002978 0.009350 0.000000 0.000000 0.000000
# 4 0.000000 0.000000 0.000000 0.051438 0.000000 0.000000
# 5 0.000000 0.000000 0.000000 0.000000 0.091181 0.000000
# 6 0.000000 0.000000 0.000000 0.000000 0.000000 0.072913
#
#
# Mechanical properties :
#
#
# Convention : Reuss Voigt Hill
#
# Bulk Modulus (GPa) = 67.67708 67.75870 67.71789
# Shear Modulus (GPa) = 18.64469 24.44818 21.54643
#
# Velocity S-wave (km/s) = 2.99434 3.42883 3.21892
# Velocity P-wave (km/s) = 6.67083 6.94697 6.81030
#
# Compressibility (1/GPa) = 0.01477605
#
# Stress axis : x y z
#
# Youngs Moduli (GPa) = 95.67665 87.38435 106.95231
#
# Poissons Ratio (x) = 0.34612 0.13860
# Poissons Ratio (y) = 0.37897 0.31850
# Poissons Ratio (z) = 0.12399 0.26022
#
# Static dielectric constant tensor:
#      x y z
#    x 1.718140 0.000000 0.000000 
#    y 0.000000 1.913410 0.000000 
#    z 0.000000 0.000000 1.741500 
# 
# From -- ./inp_files/2024.got.cif
#   From: 2010.05.17/outbox.cif.g08.bks.cpg/sg24_2_cif.got.tgz:2024.got - 2010.06.04 00:33:39.
