data_PCOD9335774
_publ_section_title
;
Structure prediction by ZEFSAII (Michael W. Deem and Ramdas Pophale) SiO2 
 PCOD9335774
Probable space group: I 21 21 21
;
_chemical_formula_sum "Si O2"
_cell_formula_units_Z 48
_cell_length_a 14.757287
_cell_length_b 5.100769
_cell_length_c 28.207116
_cell_angle_alpha 90.000000
_cell_angle_beta 90.000000
_cell_angle_gamma 90.000000
_cell_volume 2123.248686
_symmetry_space_group_name_H-M "I 21 21 21"
_symmetry_group_IT_number 24
_symmetry_cell_setting 'orthorhombic'
loop_
_space_group_symop_operation_xyz
x,y,z
-x,1/2-y,z
x,-y,1/2-z
1/2-x,y,-z
1/2+x,1/2+y,1/2+z
1/2-x,-y,1/2+z
1/2+x,1/2-y,-z
-x,1/2+y,1/2-z
loop_
_atom_site_type_symbol
_atom_site_label
_atom_site_fract_x
_atom_site_fract_y
_atom_site_fract_z
Si Si1 0.823033 0.073106 0.666464
Si Si2 0.897414 0.644351 0.391230
Si Si3 0.439975 0.477971 0.080820
Si Si4 0.500000 0.750000 0.932536
Si Si5 0.148877 0.419047 0.014565
Si Si6 0.500000 0.250000 0.279997
Si Si7 0.782866 0.579073 0.303611
O O1 0.850509 0.031550 0.612089
O O2 0.916366 0.162694 0.689123
O O3 0.754178 0.311827 0.673349
O O4 0.790998 0.811097 0.693577
O O5 0.921286 0.341912 0.396317
O O6 0.844765 0.730332 0.439031
O O7 0.856681 0.695195 0.340314
O O8 0.000000 0.750000 0.397921
O O9 0.500000 0.750000 0.075496
O O10 0.500000 0.250000 0.105244
O O11 0.399660 0.330720 0.034052
O O12 0.430167 0.613822 0.968574
O O13 0.250000 0.509618 0.000000
O O14 0.529160 0.500000 0.250000
O O15 0.808954 0.500000 0.250000
#
# Coordination Sequence:
#
# PCOD9335774 Si02
#       7
#     8   8   8   4   8   4   8
#     4  12  26  46  69 107 148 193 246 307 369 437
#     4  10  25  47  73 103 141 190 239 309 369 448
#     4  12  25  44  68 104 149 193 244 302 356 441
#     4  10  22  45  70 100 142 182 245 294 366 436
#     4  11  24  43  71 107 145 196 238 300 370 443
#     4  12  24  41  70  98 140 198 251 292 368 436
#     4  12  27  49  73 107 145 189 248 318 374 441
#
# _framework density 22.606867999999999
#
# number of rings (size 3 to 8) (size 9 to 14) (size 15 to 20)
#    0.000    0.667    1.667    6.500    8.167    0.667 
#    1.500    0.000    0.000    0.000    0.000    0.000 
#    0.000    0.000    0.000    0.000    0.000    0.000 
#
# Total GULP energy -133602.249919 kJ/mol
# GULP energy per Si atom -5566.760413 kJ/mol
# Density = 2.255541 g / cm^3
# Si number density = 22.606868 Si / 1000 Ang^3
#
#
#
# Elastic Constant Matrix: (Units=GPa)
#
#
# Indices 1 2 3 4 5 6 
#
# 1 99.2257 22.8222 52.6379 0.0000 0.0000 0.0000
# 2 22.8222 65.7775 8.1483 0.0000 0.0000 0.0000
# 3 52.6379 8.1483 121.8854 0.0000 0.0000 0.0000
# 4 0.0000 0.0000 0.0000 28.5061 0.0000 0.0000
# 5 0.0000 0.0000 0.0000 0.0000 -11.2516 0.0000
# 6 0.0000 0.0000 0.0000 0.0000 0.0000 16.6514
#
#
#
# Elastic Compliance Matrix: (Units=1/GPa)
#
#
# Indices 1 2 3 4 5 6 
#
# 1 0.014128 -0.004181 -0.005822 0.000000 0.000000 0.000000
# 2 -0.004181 0.016567 0.000698 0.000000 0.000000 0.000000
# 3 -0.005822 0.000698 0.010672 0.000000 0.000000 0.000000
# 4 0.000000 0.000000 0.000000 0.035080 0.000000 0.000000
# 5 0.000000 0.000000 0.000000 0.000000 -0.088876 0.000000
# 6 0.000000 0.000000 0.000000 0.000000 0.000000 0.060055
#
#
# Mechanical properties :
#
#
# Convention : Reuss Voigt Hill
#
# Bulk Modulus (GPa) = 43.94123 50.45615 47.19869
# Shear Modulus (GPa) = 67.73149 20.33320 44.03235
#
# Velocity S-wave (km/s) = 5.47956 3.00230 4.41811
# Velocity P-wave (km/s) = 7.71450 5.86394 6.85198
#
# Compressibility (1/GPa) = 0.02275767
#
# Stress axis : x y z
#
# Youngs Moduli (GPa) = 70.78119 60.36159 93.70274
#
# Poissons Ratio (x) = 0.25235 0.54553
# Poissons Ratio (y) = 0.29591 -0.06540
# Poissons Ratio (z) = 0.41208 -0.04213
#
# Static dielectric constant tensor:
#      x y z
#    x 1.806130 0.000000 0.000000 
#    y 0.000000 1.807170 0.000000 
#    z 0.000000 0.000000 1.941680 
# 
# From -- ./inp_files/37385.got.cif
#   From: 2010.05.17/outbox.cif.g08.bks.cpg/sg24_19_cif.got.tgz:37385.got - 2010.06.04 00:33:39.
