data_PCOD9335057
_publ_section_title
;
Structure prediction by ZEFSAII (Michael W. Deem and Ramdas Pophale) SiO2 
 PCOD9335057
Probable space group: I 21 21 21
;
_chemical_formula_sum "Si O2"
_cell_formula_units_Z 60
_cell_length_a 9.062804
_cell_length_b 25.773881
_cell_length_c 11.453125
_cell_angle_alpha 90.000000
_cell_angle_beta 90.000000
_cell_angle_gamma 90.000000
_cell_volume 2675.262533
_symmetry_space_group_name_H-M "I 21 21 21"
_symmetry_group_IT_number 24
_symmetry_cell_setting 'orthorhombic'
loop_
_space_group_symop_operation_xyz
x,y,z
-x,1/2-y,z
x,-y,1/2-z
1/2-x,y,-z
1/2+x,1/2+y,1/2+z
1/2-x,-y,1/2+z
1/2+x,1/2-y,-z
-x,1/2+y,1/2-z
loop_
_atom_site_type_symbol
_atom_site_label
_atom_site_fract_x
_atom_site_fract_y
_atom_site_fract_z
Si Si1 0.423783 0.516596 0.006179
Si Si2 0.486432 0.350544 0.761370
Si Si3 0.577376 0.139645 0.510481
Si Si4 0.914125 0.500000 0.750000
Si Si5 0.836286 0.558662 0.382775
Si Si6 0.792409 0.165563 0.873271
Si Si7 0.048139 0.810662 0.780188
Si Si8 0.700175 0.714023 0.626808
O O1 0.428594 0.577478 0.974001
O O2 0.484421 0.513185 0.138985
O O3 0.250000 0.499819 0.000000
O O4 0.541795 0.484380 0.926449
O O5 0.497665 0.337285 0.626130
O O6 0.573876 0.398523 0.813058
O O7 0.313231 0.361314 0.780441
O O8 0.535372 0.303685 0.846612
O O9 0.750000 0.155172 0.500000
O O10 0.492333 0.158799 0.396127
O O11 0.796624 0.541787 0.702369
O O12 0.750000 0.575367 0.500000
O O13 0.957369 0.164197 0.827723
O O14 0.752509 0.226666 0.872093
O O15 0.750000 0.144781 0.000000
O O16 0.000000 0.750000 0.794565
O O17 0.214103 0.811227 0.735888
O O18 0.750000 0.694813 0.500000
#
# Coordination Sequence:
#
# PCOD9335057 Si02
#       8
#     8   8   8   4   8   8   8   8
#     4  10  24  45  70  95 127 172 226 280 337 406
#     4  12  23  38  64  94 128 170 216 267 318 401
#     4  11  24  43  63  92 131 172 216 267 320 392
#     4  10  22  44  68  90 136 172 206 282 340 408
#     4  10  23  43  65  99 132 168 220 281 343 400
#     4  10  21  40  64  92 128 172 213 270 331 379
#     4  10  22  42  64  93 134 171 216 269 324 390
#     4  10  22  40  63  96 130 165 215 270 326 391
#
# _framework density 22.427703999999999
#
# number of rings (size 3 to 8) (size 9 to 14) (size 15 to 20)
#    0.000    1.600    1.333    2.400    1.867    6.933 
#    2.400    0.000    0.000    0.000    0.000    0.000 
#    0.000    0.000    0.000    0.000    0.000    0.000 
#
# Total GULP energy -167461.488286 kJ/mol
# GULP energy per Si atom -5582.049610 kJ/mol
# Density = 2.237666 g / cm^3
# Si number density = 22.427704 Si / 1000 Ang^3
#
#
#
# Elastic Constant Matrix: (Units=GPa)
#
#
# Indices 1 2 3 4 5 6 
#
# 1 95.8945 13.5193 32.0763 0.0000 0.0000 0.0000
# 2 13.5193 43.0262 17.7520 -0.0002 -0.0001 -0.0001
# 3 32.0763 17.7520 129.8060 -0.0012 0.0001 0.0000
# 4 0.0000 -0.0002 -0.0012 21.0321 0.0000 0.0000
# 5 0.0000 -0.0001 0.0001 0.0000 40.3737 -0.0001
# 6 0.0000 -0.0001 0.0000 0.0000 -0.0001 25.5702
#
#
#
# Elastic Compliance Matrix: (Units=1/GPa)
#
#
# Indices 1 2 3 4 5 6 
#
# 1 0.011640 -0.002618 -0.002518 0.000000 0.000000 0.000000
# 2 -0.002618 0.025220 -0.002802 0.000000 0.000000 0.000000
# 3 -0.002518 -0.002802 0.008709 0.000000 0.000000 0.000000
# 4 0.000000 0.000000 0.000000 0.047546 0.000000 0.000000
# 5 0.000000 0.000000 0.000000 0.000000 0.024769 0.000000
# 6 0.000000 0.000000 0.000000 0.000000 0.000000 0.039108
#
#
# Mechanical properties :
#
#
# Convention : Reuss Voigt Hill
#
# Bulk Modulus (GPa) = 33.67892 43.93576 38.80734
# Shear Modulus (GPa) = 27.35725 31.08713 29.22219
#
# Velocity S-wave (km/s) = 3.49635 3.72708 3.61356
# Velocity P-wave (km/s) = 5.59898 6.17689 5.89502
#
# Compressibility (1/GPa) = 0.02969216
#
# Stress axis : x y z
#
# Youngs Moduli (GPa) = 85.91375 39.65032 114.82014
#
# Poissons Ratio (x) = 0.10382 0.28914
# Poissons Ratio (y) = 0.22495 0.32174
# Poissons Ratio (z) = 0.21635 0.11110
#
# Static dielectric constant tensor:
#      x y z
#    x 1.792730 0.000000 0.000000 
#    y 0.000000 1.890420 0.000000 
#    z 0.000000 0.000000 1.831730 
# 
# From -- ./inp_files/18794.got.cif
#   From: 2010.05.17/outbox.cif.g08.bks.cpg/sg24_10_cif.got.tgz:18794.got - 2010.06.04 00:33:39.
