data_PCOD9335820
_publ_section_title
;
Structure prediction by ZEFSAII (Michael W. Deem and Ramdas Pophale) SiO2 
 PCOD9335820
Probable space group: I 21 21 21
;
_chemical_formula_sum "Si O2"
_cell_formula_units_Z 36
_cell_length_a 13.517443
_cell_length_b 11.188596
_cell_length_c 8.883380
_cell_angle_alpha 90.000000
_cell_angle_beta 90.000000
_cell_angle_gamma 90.000000
_cell_volume 1343.533128
_symmetry_space_group_name_H-M "I 21 21 21"
_symmetry_group_IT_number 24
_symmetry_cell_setting 'orthorhombic'
loop_
_space_group_symop_operation_xyz
x,y,z
-x,1/2-y,z
x,-y,1/2-z
1/2-x,y,-z
1/2+x,1/2+y,1/2+z
1/2-x,-y,1/2+z
1/2+x,1/2-y,-z
-x,1/2+y,1/2-z
loop_
_atom_site_type_symbol
_atom_site_label
_atom_site_fract_x
_atom_site_fract_y
_atom_site_fract_z
Si Si1 0.750000 0.668540 0.500000
Si Si2 0.500000 0.750000 0.878128
Si Si3 0.138733 0.368406 0.134480
Si Si4 0.250000 0.586252 0.000000
Si Si5 0.000000 0.250000 0.892907
Si Si6 0.139351 0.191424 0.631370
Si Si7 0.210218 0.000000 0.250000
O O1 0.729815 0.774784 0.625275
O O2 0.823007 0.577055 0.401772
O O3 0.569097 0.831158 0.773426
O O4 0.568217 0.670350 0.987625
O O5 0.184772 0.503082 0.400033
O O6 0.066616 0.334622 0.995086
O O7 0.319500 0.676101 0.093705
O O8 0.926236 0.317616 0.781662
O O9 0.224169 0.097765 0.663534
#
# Coordination Sequence:
#
# PCOD9335820 Si02
#       7
#     4   4   8   4   4   8   4
#     4  11  25  46  76 104 147 209 262 318 382 465
#     4  10  26  48  72 118 158 198 260 316 414 472
#     4  10  24  50  74 114 158 197 254 329 394 471
#     4  11  27  48  86 116 153 205 278 328 386 491
#     4  10  22  48  68 108 156 204 244 304 418 450
#     4  11  26  47  74 112 148 209 261 320 396 467
#     4  12  26  48  74 102 152 202 264 322 376 484
#
# _framework density 26.795021999999999
#
# number of rings (size 3 to 8) (size 9 to 14) (size 15 to 20)
#    0.000    1.333    2.222    0.667    6.222    7.111 
#    4.000    0.000    0.000    0.000    0.000    0.000 
#    0.000    0.000    0.000    0.000    0.000    0.000 
#
# Total GULP energy -100203.076661 kJ/mol
# GULP energy per Si atom -5566.837592 kJ/mol
# Density = 2.673403 g / cm^3
# Si number density = 26.795022 Si / 1000 Ang^3
#
#
#
# Elastic Constant Matrix: (Units=GPa)
#
#
# Indices 1 2 3 4 5 6 
#
# 1 97.6678 28.5300 60.2878 0.0000 0.0000 0.0000
# 2 28.5300 144.1911 45.4928 0.0000 0.0000 0.0000
# 3 60.2878 45.4928 217.2145 0.0000 0.0000 0.0000
# 4 0.0000 0.0000 0.0000 192.4114 0.0000 0.0000
# 5 0.0000 0.0000 0.0000 0.0000 249.5785 0.0000
# 6 0.0000 0.0000 0.0000 0.0000 0.0000 -457.5517
#
#
#
# Elastic Compliance Matrix: (Units=1/GPa)
#
#
# Indices 1 2 3 4 5 6 
#
# 1 0.012649 -0.001494 -0.003198 0.000000 0.000000 0.000000
# 2 -0.001494 0.007602 -0.001178 0.000000 0.000000 0.000000
# 3 -0.003198 -0.001178 0.005738 0.000000 0.000000 0.000000
# 4 0.000000 0.000000 0.000000 0.005197 0.000000 0.000000
# 5 0.000000 0.000000 0.000000 0.000000 0.004007 0.000000
# 6 0.000000 0.000000 0.000000 0.000000 0.000000 -0.002186
#
#
# Mechanical properties :
#
#
# Convention : Reuss Voigt Hill
#
# Bulk Modulus (GPa) = 70.17168 80.85495 75.51331
# Shear Modulus (GPa) = 101.01667 18.53849 59.77758
#
# Velocity S-wave (km/s) = 6.14668 2.63318 4.72839
# Velocity P-wave (km/s) = 8.75332 6.28377 7.61927
#
# Compressibility (1/GPa) = 0.01425076
#
# Stress axis : x y z
#
# Youngs Moduli (GPa) = 79.05678 131.53826 174.27819
#
# Poissons Ratio (x) = 0.19650 0.55732
# Poissons Ratio (y) = 0.11810 0.20523
# Poissons Ratio (z) = 0.25282 0.15490
#
# Static dielectric constant tensor:
#      x y z
#    x 1.772460 0.000000 0.000000 
#    y 0.000000 2.041220 0.000000 
#    z 0.000000 0.000000 2.328440 
# 
# From -- ./inp_files/12276.got.cif
#   From: 2010.05.17/outbox.cif.g08.bks.cpg/sg24_7_cif.got.tgz:12276.got - 2010.06.04 00:33:39.
