data_PCOD9335123
_publ_section_title
;
Structure prediction by ZEFSAII (Michael W. Deem and Ramdas Pophale) SiO2 
 PCOD9335123
Probable space group: I 21 21 21
;
_chemical_formula_sum "Si O2"
_cell_formula_units_Z 56
_cell_length_a 20.639130
_cell_length_b 13.861624
_cell_length_c 10.194365
_cell_angle_alpha 90.000000
_cell_angle_beta 90.000000
_cell_angle_gamma 90.000000
_cell_volume 2916.524842
_symmetry_space_group_name_H-M "I 21 21 21"
_symmetry_group_IT_number 24
_symmetry_cell_setting 'orthorhombic'
loop_
_space_group_symop_operation_xyz
x,y,z
-x,1/2-y,z
x,-y,1/2-z
1/2-x,y,-z
1/2+x,1/2+y,1/2+z
1/2-x,-y,1/2+z
1/2+x,1/2-y,-z
-x,1/2+y,1/2-z
loop_
_atom_site_type_symbol
_atom_site_label
_atom_site_fract_x
_atom_site_fract_y
_atom_site_fract_z
Si Si1 0.750000 0.924213 0.500000
Si Si2 0.180462 0.714683 0.702375
Si Si3 0.575944 0.248899 0.992656
Si Si4 0.791295 0.294040 0.374344
Si Si5 0.616980 0.035666 0.894646
Si Si6 0.500000 0.750000 0.928467
Si Si7 0.621271 0.849245 0.029016
Si Si8 0.083233 0.113621 0.255535
O O1 0.788368 0.859964 0.602777
O O2 0.694523 0.975207 0.583267
O O3 0.122820 0.762638 0.618034
O O4 0.239609 0.778267 0.758485
O O5 0.152716 0.660432 0.829437
O O6 0.500000 0.250000 0.027676
O O7 0.593843 0.144128 0.926818
O O8 0.587027 0.331603 0.883988
O O9 0.750000 0.328068 0.500000
O O10 0.827096 0.194582 0.422600
O O11 0.849441 0.362371 0.329690
O O12 0.599481 0.000000 0.750000
O O13 0.594323 0.954955 0.997144
O O14 0.525014 0.664852 0.834250
O O15 0.560289 0.779573 0.015831
O O16 0.073191 0.000000 0.250000
#
# Coordination Sequence:
#
# PCOD9335123 Si02
#       8
#     4   8   8   8   8   4   8   8
#     4  10  22  32  56  92 126 154 200 244 318 384
#     4  10  21  41  62  89 130 165 203 256 325 371
#     4  11  25  40  60  91 126 167 207 259 311 377
#     4   9  19  40  64  93 121 157 206 261 313 374
#     4  11  23  36  62  95 124 162 205 259 316 379
#     4  10  22  40  62  92 118 162 214 258 320 364
#     4  10  22  36  67  92 124 169 205 258 312 384
#     4  11  23  41  67  90 122 166 219 261 319 386
#
# _framework density 19.200934
#
# number of rings (size 3 to 8) (size 9 to 14) (size 15 to 20)
#    0.000    1.714    0.714    4.286    8.000    1.714 
#    2.571    0.000    0.000    0.000    0.000    0.000 
#    0.000    0.000    0.000    0.000    0.000    0.000 
#
# Total GULP energy -156233.467500 kJ/mol
# GULP energy per Si atom -5579.766696 kJ/mol
# Density = 1.915723 g / cm^3
# Si number density = 19.200934 Si / 1000 Ang^3
#
#
#
# Elastic Constant Matrix: (Units=GPa)
#
#
# Indices 1 2 3 4 5 6 
#
# 1 108.3130 26.3924 29.5114 0.0000 0.0000 0.0000
# 2 26.3924 111.9024 33.7995 0.0000 0.0000 0.0000
# 3 29.5114 33.7995 72.8438 0.0000 0.0000 0.0000
# 4 0.0000 0.0000 0.0000 17.8606 0.0000 0.0000
# 5 0.0000 0.0000 0.0000 0.0000 30.9019 0.0000
# 6 0.0000 0.0000 0.0000 0.0000 0.0000 18.9910
#
#
#
# Elastic Compliance Matrix: (Units=1/GPa)
#
#
# Indices 1 2 3 4 5 6 
#
# 1 0.010562 -0.001394 -0.003632 0.000000 0.000000 0.000000
# 2 -0.001394 0.010577 -0.004343 0.000000 0.000000 0.000000
# 3 -0.003632 -0.004343 0.017215 0.000000 0.000000 0.000000
# 4 0.000000 0.000000 0.000000 0.055989 0.000000 0.000000
# 5 0.000000 0.000000 0.000000 0.000000 0.032360 0.000000
# 6 0.000000 0.000000 0.000000 0.000000 0.000000 0.052657
#
#
# Mechanical properties :
#
#
# Convention : Reuss Voigt Hill
#
# Bulk Modulus (GPa) = 50.98072 52.49620 51.73846
# Shear Modulus (GPa) = 24.43364 27.10776 25.77070
#
# Velocity S-wave (km/s) = 3.57111 3.76146 3.66752
# Velocity P-wave (km/s) = 6.60399 6.80181 6.70363
#
# Compressibility (1/GPa) = 0.01961526
#
# Stress axis : x y z
#
# Youngs Moduli (GPa) = 94.68094 94.54576 58.09017
#
# Poissons Ratio (x) = 0.13179 0.21099
# Poissons Ratio (y) = 0.13198 0.25228
# Poissons Ratio (z) = 0.34389 0.41061
#
# Static dielectric constant tensor:
#      x y z
#    x 1.720170 0.000000 0.000000 
#    y 0.000000 1.705100 0.000000 
#    z 0.000000 0.000000 1.661120 
# 
# From -- ./inp_files/15278.got.cif
#   From: 2010.05.17/outbox.cif.g08.bks.cpg/sg24_8_cif.got.tgz:15278.got - 2010.06.04 00:33:39.
