data_PCOD9335648
_publ_section_title
;
Structure prediction by ZEFSAII (Michael W. Deem and Ramdas Pophale) SiO2 
 PCOD9335648
Probable space group: I 21 21 21
;
_chemical_formula_sum "Si O2"
_cell_formula_units_Z 32
_cell_length_a 12.742272
_cell_length_b 7.958217
_cell_length_c 11.878623
_cell_angle_alpha 90.000000
_cell_angle_beta 90.000000
_cell_angle_gamma 90.000000
_cell_volume 1204.560860
_symmetry_space_group_name_H-M "I 21 21 21"
_symmetry_group_IT_number 24
_symmetry_cell_setting 'orthorhombic'
loop_
_space_group_symop_operation_xyz
x,y,z
-x,1/2-y,z
x,-y,1/2-z
1/2-x,y,-z
1/2+x,1/2+y,1/2+z
1/2-x,-y,1/2+z
1/2+x,1/2-y,-z
-x,1/2+y,1/2-z
loop_
_atom_site_type_symbol
_atom_site_label
_atom_site_fract_x
_atom_site_fract_y
_atom_site_fract_z
Si Si1 0.411057 0.861427 0.051845
Si Si2 0.074110 0.381603 0.963798
Si Si3 0.228234 0.000000 0.750000
Si Si4 0.750000 0.103808 0.500000
Si Si5 0.116735 0.693711 0.287722
O O1 0.500000 0.750000 0.115166
O O2 0.341979 0.964187 0.139885
O O3 0.341342 0.740422 0.973754
O O4 0.486576 0.988942 0.989317
O O5 0.176553 0.484083 0.920396
O O6 0.117892 0.301098 0.076416
O O7 0.000000 0.250000 0.897228
O O8 0.297705 0.832983 0.742067
O O9 0.135685 0.500000 0.250000
O O10 0.000000 0.750000 0.250932
#
# Coordination Sequence:
#
# PCOD9335648 Si02
#       5
#     8   8   4   4   8
#     4  10  25  47  69 103 141 189 241 301 362 443
#     4  10  24  41  67 102 138 184 239 293 359 444
#     4  12  26  46  78 104 148 194 240 306 378 430
#     4  10  22  42  70  98 136 188 234 296 360 430
#     4  11  24  43  70 108 144 184 237 301 365 440
#
# _framework density 26.5657
#
# number of rings (size 3 to 8) (size 9 to 14) (size 15 to 20)
#    0.000    1.500    1.250    1.500   10.500    4.000 
#    6.750    0.000    0.000    0.000    0.000    0.000 
#    0.000    0.000    0.000    0.000    0.000    0.000 
#
# Total GULP energy -89140.633467 kJ/mol
# GULP energy per Si atom -5571.289592 kJ/mol
# Density = 2.650524 g / cm^3
# Si number density = 26.565700 Si / 1000 Ang^3
#
#
#
# Elastic Constant Matrix: (Units=GPa)
#
#
# Indices 1 2 3 4 5 6 
#
# 1 201.9718 100.2517 26.6279 0.0000 0.0000 0.0000
# 2 100.2517 173.0269 23.2046 0.0000 0.0000 0.0000
# 3 26.6279 23.2046 75.4323 0.0000 0.0000 0.0000
# 4 0.0000 0.0000 0.0000 22.8272 0.0000 0.0000
# 5 0.0000 0.0000 0.0000 0.0000 44.3414 0.0000
# 6 0.0000 0.0000 0.0000 0.0000 0.0000 81.8425
#
#
#
# Elastic Compliance Matrix: (Units=1/GPa)
#
#
# Indices 1 2 3 4 5 6 
#
# 1 0.007068 -0.003922 -0.001288 0.000000 0.000000 0.000000
# 2 -0.003922 0.008205 -0.001139 0.000000 0.000000 0.000000
# 3 -0.001288 -0.001139 0.014062 0.000000 0.000000 0.000000
# 4 0.000000 0.000000 0.000000 0.043807 0.000000 0.000000
# 5 0.000000 0.000000 0.000000 0.000000 0.022552 0.000000
# 6 0.000000 0.000000 0.000000 0.000000 0.000000 0.012219
#
#
# Mechanical properties :
#
#
# Convention : Reuss Voigt Hill
#
# Bulk Modulus (GPa) = 60.11520 83.39993 71.75756
# Shear Modulus (GPa) = 39.63265 49.82533 44.72899
#
# Velocity S-wave (km/s) = 3.86667 4.33546 4.10776
# Velocity P-wave (km/s) = 6.52785 7.51822 7.04047
#
# Compressibility (1/GPa) = 0.01663473
#
# Stress axis : x y z
#
# Youngs Moduli (GPa) = 141.48288 121.87852 71.11243
#
# Poissons Ratio (x) = 0.47806 0.09162
# Poissons Ratio (y) = 0.55495 0.08102
# Poissons Ratio (z) = 0.18229 0.13887
#
# Static dielectric constant tensor:
#      x y z
#    x 2.061450 0.000000 0.000000 
#    y 0.000000 2.213930 0.000000 
#    z 0.000000 0.000000 2.029420 
# 
# From -- ./inp_files/18043.got.cif
#   From: 2010.05.17/outbox.cif.g08.bks.cpg/sg24_10_cif.got.tgz:18043.got - 2010.06.04 00:33:39.
