data_PCOD9335021
_publ_section_title
;
Structure prediction by ZEFSAII (Michael W. Deem and Ramdas Pophale) SiO2 
 PCOD9335021
Probable space group: I 21 21 21
;
_chemical_formula_sum "Si O2"
_cell_formula_units_Z 32
_cell_length_a 8.612517
_cell_length_b 5.836644
_cell_length_c 27.395067
_cell_angle_alpha 90.000000
_cell_angle_beta 90.000000
_cell_angle_gamma 90.000000
_cell_volume 1377.100588
_symmetry_space_group_name_H-M "I 21 21 21"
_symmetry_group_IT_number 24
_symmetry_cell_setting 'orthorhombic'
loop_
_space_group_symop_operation_xyz
x,y,z
-x,1/2-y,z
x,-y,1/2-z
1/2-x,y,-z
1/2+x,1/2+y,1/2+z
1/2-x,-y,1/2+z
1/2+x,1/2-y,-z
-x,1/2+y,1/2-z
loop_
_atom_site_type_symbol
_atom_site_label
_atom_site_fract_x
_atom_site_fract_y
_atom_site_fract_z
Si Si1 0.278077 0.267375 0.240507
Si Si2 0.500000 0.250000 0.386775
Si Si3 0.662726 0.124091 0.049882
Si Si4 0.000000 0.750000 0.183018
Si Si5 0.768868 0.586020 0.361609
O O1 0.374528 0.500000 0.250000
O O2 0.243255 0.262775 0.182895
O O3 0.137254 0.303421 0.278784
O O4 0.315943 0.000000 0.250000
O O5 0.385008 0.399292 0.420164
O O6 0.615492 0.421753 0.358686
O O7 0.500000 0.250000 0.039104
O O8 0.758014 0.287759 0.086723
O O9 0.750000 0.075399 0.000000
O O10 0.924348 0.557053 0.148768
#
# Coordination Sequence:
#
# PCOD9335021 Si02
#       5
#     8   4   8   4   8
#     4  10  21  39  68 102 144 187 245 309 362 441
#     4  10  24  46  71 102 150 198 245 318 400 472
#     4  10  24  47  74 104 147 192 258 322 399 470
#     4  10  22  42  73 104 146 192 249 318 368 450
#     4  10  23  43  75 103 148 199 248 320 392 459
#
# _framework density 23.237228000000002
#
# number of rings (size 3 to 8) (size 9 to 14) (size 15 to 20)
#    0.000    2.000    0.000    2.250    7.000    6.000 
#    2.250    1.250   74.250    0.000    0.000    0.000 
#    0.000    0.000    0.000    0.000    0.000    0.000 
#
# Total GULP energy -89332.131738 kJ/mol
# GULP energy per Si atom -5583.258234 kJ/mol
# Density = 2.318434 g / cm^3
# Si number density = 23.237228 Si / 1000 Ang^3
#
#
#
# Elastic Constant Matrix: (Units=GPa)
#
#
# Indices 1 2 3 4 5 6 
#
# 1 118.6376 56.0977 77.6287 0.0000 0.0000 0.0000
# 2 56.0977 167.7520 58.8792 0.0000 0.0000 0.0000
# 3 77.6287 58.8792 148.8583 0.0000 0.0000 0.0000
# 4 0.0000 0.0000 0.0000 13.9342 0.0000 0.0000
# 5 0.0000 0.0000 0.0000 0.0000 342.5463 0.0000
# 6 0.0000 0.0000 0.0000 0.0000 0.0000 -4.9784
#
#
#
# Elastic Compliance Matrix: (Units=1/GPa)
#
#
# Indices 1 2 3 4 5 6 
#
# 1 0.013570 -0.002385 -0.006133 0.000000 0.000000 0.000000
# 2 -0.002385 0.007341 -0.001660 0.000000 0.000000 0.000000
# 3 -0.006133 -0.001660 0.010573 0.000000 0.000000 0.000000
# 4 0.000000 0.000000 0.000000 0.071766 0.000000 0.000000
# 5 0.000000 0.000000 0.000000 0.000000 0.002919 0.000000
# 6 0.000000 0.000000 0.000000 0.000000 0.000000 -0.200868
#
#
# Mechanical properties :
#
#
# Convention : Reuss Voigt Hill
#
# Bulk Modulus (GPa) = 89.86760 91.16212 90.51486
# Shear Modulus (GPa) = -70.78853 86.47659 7.84403
#
# Velocity S-wave (km/s) = -5.52536 6.10700 1.83928
# Velocity P-wave (km/s) = 1.39575 9.43629 6.59907
#
# Compressibility (1/GPa) = 0.01112748
#
# Stress axis : x y z
#
# Youngs Moduli (GPa) = 73.69145 136.21295 94.58215
#
# Poissons Ratio (x) = 0.32490 0.58010
# Poissons Ratio (y) = 0.17577 0.15700
# Poissons Ratio (z) = 0.45197 0.22610
#
# Static dielectric constant tensor:
#      x y z
#    x 1.885470 0.000000 0.000000 
#    y 0.000000 1.969410 0.000000 
#    z 0.000000 0.000000 1.880020 
# 
# From -- ./inp_files/38097.got.cif
#   From: 2010.05.17/outbox.cif.g08.bks.cpg/sg24_20_cif.got.tgz:38097.got - 2010.06.04 00:33:39.
