data_PCOD9335003
_publ_section_title
;
Structure prediction by ZEFSAII (Michael W. Deem and Ramdas Pophale) SiO2 
 PCOD9335003
Probable space group: I 21 21 21
;
_chemical_formula_sum "Si O2"
_cell_formula_units_Z 28
_cell_length_a 4.946793
_cell_length_b 32.883927
_cell_length_c 7.284061
_cell_angle_alpha 90.000000
_cell_angle_beta 90.000000
_cell_angle_gamma 90.000000
_cell_volume 1184.898056
_symmetry_space_group_name_H-M "I 21 21 21"
_symmetry_group_IT_number 24
_symmetry_cell_setting 'orthorhombic'
loop_
_space_group_symop_operation_xyz
x,y,z
-x,1/2-y,z
x,-y,1/2-z
1/2-x,y,-z
1/2+x,1/2+y,1/2+z
1/2-x,-y,1/2+z
1/2+x,1/2-y,-z
-x,1/2+y,1/2-z
loop_
_atom_site_type_symbol
_atom_site_label
_atom_site_fract_x
_atom_site_fract_y
_atom_site_fract_z
Si Si1 0.242668 0.617088 0.776778
Si Si2 0.000000 0.250000 0.106326
Si Si3 0.767985 0.329579 0.279409
Si Si4 0.998705 0.037596 0.370348
O O1 0.465316 0.648262 0.714854
O O2 0.360261 0.572095 0.741159
O O3 0.965366 0.638623 0.722366
O O4 0.250000 0.616572 0.000000
O O5 0.181173 0.216315 0.211921
O O6 0.250000 0.271498 0.000000
O O7 0.750000 0.327182 0.500000
O O8 0.750000 0.024124 0.500000
O O9 0.250000 0.052635 0.500000
O O10 0.099467 0.000000 0.250000
#
# Coordination Sequence:
#
# PCOD9335003 Si02
#       4
#     8   4   8   8
#     4   9  18  36  62  89 118 159 215 266 304 359
#     4  12  26  42  60  94 136 164 194 266 350 396
#     4  10  21  39  65  89 114 163 221 260 302 379
#     4  11  22  39  64  97 133 171 214 267 322 379
#
# _framework density 23.630728000000001
#
# number of rings (size 3 to 8) (size 9 to 14) (size 15 to 20)
#    0.000    1.714    0.000    6.857    0.000    4.571 
#    0.000    5.714    0.000    0.000    0.000    0.000 
#    0.000    0.000    0.000    0.000    0.000    0.000 
#
# Total GULP energy -77970.872216 kJ/mol
# GULP energy per Si atom -5569.348015 kJ/mol
# Density = 2.357694 g / cm^3
# Si number density = 23.630728 Si / 1000 Ang^3
#
#
#
# Elastic Constant Matrix: (Units=GPa)
#
#
# Indices 1 2 3 4 5 6 
#
# 1 135.0972 17.1420 2.1682 0.0001 0.0000 0.0000
# 2 17.1420 152.5744 17.3615 0.0001 0.0000 0.0002
# 3 2.1682 17.3615 54.5517 -0.0002 0.0000 0.0004
# 4 0.0001 0.0001 -0.0002 -137.9389 0.0000 0.0001
# 5 0.0000 0.0000 0.0000 0.0000 15.9379 0.0000
# 6 0.0000 0.0002 0.0004 0.0001 0.0000 32.7055
#
#
#
# Elastic Compliance Matrix: (Units=1/GPa)
#
#
# Indices 1 2 3 4 5 6 
#
# 1 0.007509 -0.000840 -0.000031 0.000000 0.000000 0.000000
# 2 -0.000840 0.006894 -0.002161 0.000000 0.000000 0.000000
# 3 -0.000031 -0.002161 0.019020 0.000000 0.000000 0.000000
# 4 0.000000 0.000000 0.000000 -0.007250 0.000000 0.000000
# 5 0.000000 0.000000 0.000000 0.000000 0.062744 0.000000
# 6 0.000000 0.000000 0.000000 0.000000 0.000000 0.030576
#
#
# Mechanical properties :
#
#
# Convention : Reuss Voigt Hill
#
# Bulk Modulus (GPa) = 36.55007 46.17409 41.36208
# Shear Modulus (GPa) = 37.12569 2.51100 19.81835
#
# Velocity S-wave (km/s) = 3.96798 1.03194 2.89912
# Velocity P-wave (km/s) = 6.04102 4.58281 5.36172
#
# Compressibility (1/GPa) = 0.02735973
#
# Stress axis : x y z
#
# Youngs Moduli (GPa) = 133.17038 145.04420 52.57575
#
# Poissons Ratio (x) = 0.12186 0.00163
# Poissons Ratio (y) = 0.11188 0.11361
# Poissons Ratio (z) = 0.00414 0.31341
#
# Static dielectric constant tensor:
#      x y z
#    x 1.924330 0.000000 0.000000 
#    y 0.000000 2.026430 0.000000 
#    z 0.000000 0.000000 2.032860 
# 
# From -- ./inp_files/8173.got.cif
#   From: 2010.05.17/outbox.cif.g08.bks.cpg/sg24_5_cif.got.tgz:8173.got - 2010.06.04 00:33:39.
