data_PCOD9335747
_publ_section_title
;
Structure prediction by ZEFSAII (Michael W. Deem and Ramdas Pophale) SiO2 
 PCOD9335747
Probable space group: I 21 21 21
;
_chemical_formula_sum "Si O2"
_cell_formula_units_Z 48
_cell_length_a 27.414021
_cell_length_b 5.348942
_cell_length_c 14.508138
_cell_angle_alpha 90.000000
_cell_angle_beta 90.000000
_cell_angle_gamma 90.000000
_cell_volume 2127.415444
_symmetry_space_group_name_H-M "I 21 21 21"
_symmetry_group_IT_number 24
_symmetry_cell_setting 'orthorhombic'
loop_
_space_group_symop_operation_xyz
x,y,z
-x,1/2-y,z
x,-y,1/2-z
1/2-x,y,-z
1/2+x,1/2+y,1/2+z
1/2-x,-y,1/2+z
1/2+x,1/2-y,-z
-x,1/2+y,1/2-z
loop_
_atom_site_type_symbol
_atom_site_label
_atom_site_fract_x
_atom_site_fract_y
_atom_site_fract_z
Si Si1 0.932921 0.000000 0.250000
Si Si2 0.531261 0.500000 0.250000
Si Si3 0.209499 0.738823 0.918403
Si Si4 0.500000 0.750000 0.902775
Si Si5 0.260220 0.500000 0.750000
Si Si6 0.342785 0.196549 0.826190
Si Si7 0.548936 0.412345 0.051746
Si Si8 0.345783 0.778371 0.466676
O O1 0.967454 0.915081 0.166591
O O2 0.895070 0.799828 0.292781
O O3 0.500000 0.250000 0.239304
O O4 0.556821 0.538278 0.151694
O O5 0.229262 0.680530 0.815419
O O6 0.180522 0.485435 0.948594
O O7 0.178125 0.993507 0.910912
O O8 0.250000 0.777836 0.000000
O O9 0.537950 0.605012 0.969225
O O10 0.298739 0.390929 0.823328
O O11 0.328241 0.000000 0.750000
O O12 0.343546 0.110992 0.929796
O O13 0.500000 0.250000 0.051343
O O14 0.596419 0.242658 0.043470
#
# Coordination Sequence:
#
# PCOD9335747 Si02
#       8
#     4   4   8   4   4   8   8   8
#     4  11  28  40  66 110 147 199 250 306 371 460
#     4  10  22  44  71 104 137 197 248 299 376 440
#     4  12  27  49  71 110 144 193 244 309 365 444
#     4  12  26  44  68 106 154 194 246 314 374 438
#     4  11  26  46  79 102 146 190 242 305 387 436
#     4  11  24  46  72 103 144 198 246 297 378 460
#     4  11  26  46  76 105 151 199 251 313 375 443
#     4  12  28  45  77 107 151 192 249 304 373 441
#
# _framework density 22.562586
#
# number of rings (size 3 to 8) (size 9 to 14) (size 15 to 20)
#    0.000    0.667    2.500    3.500   14.000    1.333 
#    0.000    0.833    0.000    0.000    0.000    0.000 
#    0.000    0.000    0.000    0.000    0.000    0.000 
#
# Total GULP energy -133966.916456 kJ/mol
# GULP energy per Si atom -5581.954852 kJ/mol
# Density = 2.251123 g / cm^3
# Si number density = 22.562586 Si / 1000 Ang^3
#
#
#
# Elastic Constant Matrix: (Units=GPa)
#
#
# Indices 1 2 3 4 5 6 
#
# 1 116.4206 27.8625 9.0291 0.0000 0.0000 0.0000
# 2 27.8625 70.2464 -11.1886 0.0000 0.0000 0.0000
# 3 9.0291 -11.1886 110.9016 0.0000 0.0000 0.0000
# 4 0.0000 0.0000 0.0000 30.5386 0.0000 0.0000
# 5 0.0000 0.0000 0.0000 0.0000 0.9736 0.0000
# 6 0.0000 0.0000 0.0000 0.0000 0.0000 17.6076
#
#
#
# Elastic Compliance Matrix: (Units=1/GPa)
#
#
# Indices 1 2 3 4 5 6 
#
# 1 0.009643 -0.004014 -0.001190 0.000000 0.000000 0.000000
# 2 -0.004014 0.016139 0.001955 0.000000 0.000000 0.000000
# 3 -0.001190 0.001955 0.009311 0.000000 0.000000 0.000000
# 4 0.000000 0.000000 0.000000 0.032745 0.000000 0.000000
# 5 0.000000 0.000000 0.000000 0.000000 1.027071 0.000000
# 6 0.000000 0.000000 0.000000 0.000000 0.000000 0.056794
#
#
# Mechanical properties :
#
#
# Convention : Reuss Voigt Hill
#
# Bulk Modulus (GPa) = 34.97164 38.77494 36.87329
# Shear Modulus (GPa) = 4.28180 27.94833 16.11506
#
# Velocity S-wave (km/s) = 1.37908 3.52334 2.67542
# Velocity P-wave (km/s) = 4.25080 5.81160 5.09137
#
# Compressibility (1/GPa) = 0.02859460
#
# Stress axis : x y z
#
# Youngs Moduli (GPa) = 103.70726 61.96103 107.39832
#
# Poissons Ratio (x) = 0.24872 0.12781
# Poissons Ratio (y) = 0.41630 -0.20997
# Poissons Ratio (z) = 0.12341 -0.12114
#
# Static dielectric constant tensor:
#      x y z
#    x 1.870850 0.000000 0.000000 
#    y 0.000000 1.802720 0.000000 
#    z 0.000000 0.000000 1.818580 
# 
# From -- ./inp_files/28069.got.cif
#   From: 2010.05.17/outbox.cif.g08.bks.cpg/sg24_15_cif.got.tgz:28069.got - 2010.06.04 00:33:39.
