data_PCOD9335090
_publ_section_title
;
Structure prediction by ZEFSAII (Michael W. Deem and Ramdas Pophale) SiO2 
 PCOD9335090
Probable space group: I 21 21 21
;
_chemical_formula_sum "Si O2"
_cell_formula_units_Z 48
_cell_length_a 17.694509
_cell_length_b 11.830937
_cell_length_c 8.242187
_cell_angle_alpha 90.000000
_cell_angle_beta 90.000000
_cell_angle_gamma 90.000000
_cell_volume 1725.441031
_symmetry_space_group_name_H-M "I 21 21 21"
_symmetry_group_IT_number 24
_symmetry_cell_setting 'orthorhombic'
loop_
_space_group_symop_operation_xyz
x,y,z
-x,1/2-y,z
x,-y,1/2-z
1/2-x,y,-z
1/2+x,1/2+y,1/2+z
1/2-x,-y,1/2+z
1/2+x,1/2-y,-z
-x,1/2+y,1/2-z
loop_
_atom_site_type_symbol
_atom_site_label
_atom_site_fract_x
_atom_site_fract_y
_atom_site_fract_z
Si Si1 0.394220 0.306544 0.357565
Si Si2 0.575379 0.179894 0.700593
Si Si3 0.250000 0.043793 0.000000
Si Si4 0.423378 0.465473 0.029046
Si Si5 0.750000 0.936036 0.500000
Si Si6 0.233976 0.759683 0.243709
Si Si7 0.593223 0.448451 0.421053
O O1 0.422349 0.378990 0.518913
O O2 0.417550 0.377815 0.196968
O O3 0.306511 0.269457 0.363110
O O4 0.570904 0.317814 0.385505
O O5 0.500000 0.250000 0.713420
O O6 0.647222 0.261453 0.691564
O O7 0.580403 0.100502 0.854654
O O8 0.247512 0.130166 0.848452
O O9 0.172281 0.972755 0.015575
O O10 0.518292 0.483540 0.029012
O O11 0.327902 0.496041 0.043309
O O12 0.766381 0.851920 0.353609
O O13 0.613809 0.500000 0.250000
#
# Coordination Sequence:
#
# PCOD9335090 Si02
#       7
#     8   8   4   8   4   8   8
#     4  10  21  43  63  94 129 166 215 275 317 389
#     4  10  21  40  67  92 127 167 216 268 332 376
#     4  11  28  43  62 100 134 177 222 267 334 390
#     4  10  23  42  67 103 123 167 222 274 326 393
#     4  11  26  43  64  98 136 173 214 271 332 406
#     4  11  24  44  62  92 138 176 212 269 337 388
#     4  12  24  42  69  99 131 175 225 271 330 397
#
# _framework density 27.818974999999998
#
# number of rings (size 3 to 8) (size 9 to 14) (size 15 to 20)
#    1.000    0.333    3.333    2.000    4.667    3.333 
#    0.000    2.500    0.000    0.000    0.000    0.000 
#    0.000    0.000    0.000    0.000    0.000    0.000 
#
# Total GULP energy -133926.802194 kJ/mol
# GULP energy per Si atom -5580.283425 kJ/mol
# Density = 2.775566 g / cm^3
# Si number density = 27.818975 Si / 1000 Ang^3
#
#
#
# Elastic Constant Matrix: (Units=GPa)
#
#
# Indices 1 2 3 4 5 6 
#
# 1 313.5738 110.7230 85.0547 0.0000 0.0000 0.0000
# 2 110.7230 189.8913 83.3166 0.0000 0.0000 0.0000
# 3 85.0547 83.3166 176.5151 0.0000 0.0000 0.0000
# 4 0.0000 0.0000 0.0000 63.4624 0.0000 0.0000
# 5 0.0000 0.0000 0.0000 0.0000 53.8804 0.0000
# 6 0.0000 0.0000 0.0000 0.0000 0.0000 71.2209
#
#
#
# Elastic Compliance Matrix: (Units=1/GPa)
#
#
# Indices 1 2 3 4 5 6 
#
# 1 0.004175 -0.001957 -0.001088 0.000000 0.000000 0.000000
# 2 -0.001957 0.007559 -0.002625 0.000000 0.000000 0.000000
# 3 -0.001088 -0.002625 0.007428 0.000000 0.000000 0.000000
# 4 0.000000 0.000000 0.000000 0.015757 0.000000 0.000000
# 5 0.000000 0.000000 0.000000 0.000000 0.018560 0.000000
# 6 0.000000 0.000000 0.000000 0.000000 0.000000 0.014041
#
#
# Mechanical properties :
#
#
# Convention : Reuss Voigt Hill
#
# Bulk Modulus (GPa) = 127.83457 137.57430 132.70443
# Shear Modulus (GPa) = 61.37360 64.43847 62.90604
#
# Velocity S-wave (km/s) = 4.70209 4.81807 4.76043
# Velocity P-wave (km/s) = 8.69089 8.97287 8.83301
#
# Compressibility (1/GPa) = 0.00782261
#
# Stress axis : x y z
#
# Youngs Moduli (GPa) = 239.50752 132.29218 134.61670
#
# Poissons Ratio (x) = 0.25891 0.14647
# Poissons Ratio (y) = 0.46874 0.35335
# Poissons Ratio (z) = 0.26060 0.34725
#
# Static dielectric constant tensor:
#      x y z
#    x 2.182600 0.000000 0.000000 
#    y 0.000000 2.241140 0.000000 
#    z 0.000000 0.000000 2.228600 
# 
# From -- ./inp_files/12855.got.cif
#   From: 2010.05.17/outbox.cif.g08.bks.cpg/sg24_7_cif.got.tgz:12855.got - 2010.06.04 00:33:39.
