data_PCOD9335183
_publ_section_title
;
Structure prediction by ZEFSAII (Michael W. Deem and Ramdas Pophale) SiO2 
 PCOD9335183
Probable space group: I 21 21 21
;
_chemical_formula_sum "Si O2"
_cell_formula_units_Z 48
_cell_length_a 11.159253
_cell_length_b 12.625537
_cell_length_c 16.811108
_cell_angle_alpha 90.000000
_cell_angle_beta 90.000000
_cell_angle_gamma 90.000000
_cell_volume 2368.543259
_symmetry_space_group_name_H-M "I 21 21 21"
_symmetry_group_IT_number 24
_symmetry_cell_setting 'orthorhombic'
loop_
_space_group_symop_operation_xyz
x,y,z
-x,1/2-y,z
x,-y,1/2-z
1/2-x,y,-z
1/2+x,1/2+y,1/2+z
1/2-x,-y,1/2+z
1/2+x,1/2-y,-z
-x,1/2+y,1/2-z
loop_
_atom_site_type_symbol
_atom_site_label
_atom_site_fract_x
_atom_site_fract_y
_atom_site_fract_z
Si Si1 0.500000 0.750000 0.944672
Si Si2 0.929011 0.103285 0.582676
Si Si3 0.500000 0.250000 0.931871
Si Si4 0.748622 0.278512 0.158619
Si Si5 0.863685 0.876955 0.549486
Si Si6 0.161709 0.991726 0.844145
Si Si7 0.240597 0.227313 0.349939
O O1 0.616645 0.760375 0.890008
O O2 0.494114 0.650638 0.005064
O O3 0.847910 0.196631 0.619510
O O4 0.028552 0.050608 0.639142
O O5 0.851085 0.001142 0.561670
O O6 0.617644 0.264834 0.877623
O O7 0.475277 0.346661 0.993562
O O8 0.654019 0.188953 0.130044
O O9 0.696527 0.391152 0.128148
O O10 0.759371 0.271828 0.254151
O O11 0.750000 0.837047 0.500000
O O12 0.240723 0.894744 0.875745
O O13 0.179113 0.000000 0.750000
#
# Coordination Sequence:
#
# PCOD9335183 Si02
#       7
#     4   8   4   8   8   8   8
#     4  12  25  42  67  96 134 178 220 282 333 398
#     4  12  24  42  65  94 133 171 222 273 329 394
#     4  10  21  42  65 102 128 176 216 276 335 404
#     4  10  23  43  68  96 135 170 225 273 335 400
#     4  10  22  39  61  94 127 165 209 263 327 393
#     4  10  23  41  65  94 128 170 222 271 324 391
#     4  11  24  44  65  99 129 178 224 275 336 390
#
# _framework density 20.265622
#
# number of rings (size 3 to 8) (size 9 to 14) (size 15 to 20)
#    0.000    1.333    1.667    3.000    4.667    0.000 
#    0.000    0.000    0.000    0.000    0.000    0.000 
#    0.000    0.000    0.000    0.000    0.000    0.000 
#
# Total GULP energy -133817.231150 kJ/mol
# GULP energy per Si atom -5575.717965 kJ/mol
# Density = 2.021950 g / cm^3
# Si number density = 20.265622 Si / 1000 Ang^3
#
#
#
# Elastic Constant Matrix: (Units=GPa)
#
#
# Indices 1 2 3 4 5 6 
#
# 1 66.5740 21.2776 22.7111 0.0000 0.0000 0.0000
# 2 21.2776 130.2960 42.8169 0.0000 0.0000 0.0000
# 3 22.7111 42.8169 68.8198 0.0000 0.0000 0.0000
# 4 0.0000 0.0000 0.0000 23.6572 0.0000 0.0000
# 5 0.0000 0.0000 0.0000 0.0000 40.5292 0.0000
# 6 0.0000 0.0000 0.0000 0.0000 0.0000 29.9040
#
#
#
# Elastic Compliance Matrix: (Units=1/GPa)
#
#
# Indices 1 2 3 4 5 6 
#
# 1 0.017069 -0.001177 -0.004901 0.000000 0.000000 0.000000
# 2 -0.001177 0.009728 -0.005664 0.000000 0.000000 0.000000
# 3 -0.004901 -0.005664 0.019672 0.000000 0.000000 0.000000
# 4 0.000000 0.000000 0.000000 0.042270 0.000000 0.000000
# 5 0.000000 0.000000 0.000000 0.000000 0.024674 0.000000
# 6 0.000000 0.000000 0.000000 0.000000 0.000000 0.033440
#
#
# Mechanical properties :
#
#
# Convention : Reuss Voigt Hill
#
# Bulk Modulus (GPa) = 43.50539 48.81123 46.15831
# Shear Modulus (GPa) = 28.09009 30.74371 29.41690
#
# Velocity S-wave (km/s) = 3.72707 3.89914 3.81408
# Velocity P-wave (km/s) = 6.32737 6.66402 6.49787
#
# Compressibility (1/GPa) = 0.02298566
#
# Stress axis : x y z
#
# Youngs Moduli (GPa) = 58.58630 102.79238 50.83385
#
# Poissons Ratio (x) = 0.12099 0.24912
# Poissons Ratio (y) = 0.06896 0.28793
# Poissons Ratio (z) = 0.28711 0.58223
#
# Static dielectric constant tensor:
#      x y z
#    x 1.791740 0.000000 0.000000 
#    y 0.000000 1.729350 0.000000 
#    z 0.000000 0.000000 1.727590 
# 
# From -- ./inp_files/30242.got.cif
#   From: 2010.05.17/outbox.cif.g08.bks.cpg/sg24_16_cif.got.tgz:30242.got - 2010.06.04 00:33:39.
