data_PCOD9335952
_publ_section_title
;
Structure prediction by ZEFSAII (Michael W. Deem and Ramdas Pophale) SiO2 
 PCOD9335952
Probable space group: I 21 21 21
;
_chemical_formula_sum "Si O2"
_cell_formula_units_Z 40
_cell_length_a 30.603454
_cell_length_b 7.130708
_cell_length_c 9.127394
_cell_angle_alpha 90.000000
_cell_angle_beta 90.000000
_cell_angle_gamma 90.000000
_cell_volume 1991.819114
_symmetry_space_group_name_H-M "I 21 21 21"
_symmetry_group_IT_number 24
_symmetry_cell_setting 'orthorhombic'
loop_
_space_group_symop_operation_xyz
x,y,z
-x,1/2-y,z
x,-y,1/2-z
1/2-x,y,-z
1/2+x,1/2+y,1/2+z
1/2-x,-y,1/2+z
1/2+x,1/2-y,-z
-x,1/2+y,1/2-z
loop_
_atom_site_type_symbol
_atom_site_label
_atom_site_fract_x
_atom_site_fract_y
_atom_site_fract_z
Si Si1 0.750000 0.709837 0.000000
Si Si2 0.550484 0.703073 0.818086
Si Si3 0.162669 0.604363 0.904041
Si Si4 0.373147 0.280920 0.888134
Si Si5 0.904431 0.559683 0.909245
Si Si6 0.803313 0.500000 0.250000
O O1 0.787358 0.840930 0.931900
O O2 0.726661 0.579303 0.879596
O O3 0.500000 0.750000 0.798152
O O4 0.556375 0.500000 0.750000
O O5 0.586574 0.812410 0.723131
O O6 0.562589 0.677175 0.988158
O O7 0.157264 0.500000 0.750000
O O8 0.136534 0.800148 0.897093
O O9 0.144403 0.466280 0.030910
O O10 0.334745 0.169630 0.802905
O O11 0.389857 0.130369 0.008861
O O12 0.921155 0.500000 0.750000
#
# Coordination Sequence:
#
# PCOD9335952 Si02
#       6
#     4   8   8   8   8   4
#     4  12  30  42  68 102 132 182 238 292 334 412
#     4  10  23  43  72 104 133 179 232 288 339 418
#     4  12  27  42  71 102 134 184 234 285 348 417
#     4  11  23  47  70  98 141 183 227 284 353 408
#     4  11  22  46  66  99 141 182 221 277 359 411
#     4  12  26  48  68  96 144 186 226 294 348 406
#
# _framework density 20.082142999999999
#
# number of rings (size 3 to 8) (size 9 to 14) (size 15 to 20)
#    0.000    0.800    7.000    0.000    9.800    1.600 
#    0.000    5.000    0.000    0.000    0.000    0.000 
#    0.000    0.000    0.000    0.000    0.000    0.000 
#
# Total GULP energy -111751.147207 kJ/mol
# GULP energy per Si atom -5587.557360 kJ/mol
# Density = 2.003644 g / cm^3
# Si number density = 20.082143 Si / 1000 Ang^3
#
#
#
# Elastic Constant Matrix: (Units=GPa)
#
#
# Indices 1 2 3 4 5 6 
#
# 1 131.9227 41.0486 69.7970 0.0000 0.0000 0.0000
# 2 41.0486 102.1187 41.5257 0.0000 0.0000 0.0000
# 3 69.7970 41.5257 147.4546 0.0000 0.0000 0.0000
# 4 0.0000 0.0000 0.0000 29.8177 0.0000 0.0000
# 5 0.0000 0.0000 0.0000 0.0000 15.2154 0.0000
# 6 0.0000 0.0000 0.0000 0.0000 0.0000 30.1008
#
#
#
# Elastic Compliance Matrix: (Units=1/GPa)
#
#
# Indices 1 2 3 4 5 6 
#
# 1 0.010658 -0.002522 -0.004335 0.000000 0.000000 0.000000
# 2 -0.002522 0.011656 -0.002089 0.000000 0.000000 0.000000
# 3 -0.004335 -0.002089 0.009422 0.000000 0.000000 0.000000
# 4 0.000000 0.000000 0.000000 0.033537 0.000000 0.000000
# 5 0.000000 0.000000 0.000000 0.000000 0.065723 0.000000
# 6 0.000000 0.000000 0.000000 0.000000 0.000000 0.033222
#
#
# Mechanical properties :
#
#
# Convention : Reuss Voigt Hill
#
# Bulk Modulus (GPa) = 72.22770 76.24872 74.23821
# Shear Modulus (GPa) = 26.77760 30.30177 28.53968
#
# Velocity S-wave (km/s) = 3.65554 3.88866 3.77390
# Velocity P-wave (km/s) = 7.33904 7.62975 7.48581
#
# Compressibility (1/GPa) = 0.01384510
#
# Stress axis : x y z
#
# Youngs Moduli (GPa) = 93.82356 85.79632 106.13533
#
# Poissons Ratio (x) = 0.21634 0.46009
# Poissons Ratio (y) = 0.23658 0.22170
# Poissons Ratio (z) = 0.40672 0.17921
#
# Static dielectric constant tensor:
#      x y z
#    x 1.786070 0.000000 0.000000 
#    y 0.000000 1.721220 0.000000 
#    z 0.000000 0.000000 1.744260 
# 
# From -- ./inp_files/15654.got.cif
#   From: 2010.05.17/outbox.cif.g08.bks.cpg/sg24_8_cif.got.tgz:15654.got - 2010.06.04 00:33:39.
