data_PCOD9335059
_publ_section_title
;
Structure prediction by ZEFSAII (Michael W. Deem and Ramdas Pophale) SiO2 
 PCOD9335059
Probable space group: I 21 21 21
;
_chemical_formula_sum "Si O2"
_cell_formula_units_Z 32
_cell_length_a 13.713111
_cell_length_b 4.990668
_cell_length_c 19.692501
_cell_angle_alpha 90.000000
_cell_angle_beta 90.000000
_cell_angle_gamma 90.000000
_cell_volume 1347.707196
_symmetry_space_group_name_H-M "I 21 21 21"
_symmetry_group_IT_number 24
_symmetry_cell_setting 'orthorhombic'
loop_
_space_group_symop_operation_xyz
x,y,z
-x,1/2-y,z
x,-y,1/2-z
1/2-x,y,-z
1/2+x,1/2+y,1/2+z
1/2-x,-y,1/2+z
1/2+x,1/2-y,-z
-x,1/2+y,1/2-z
loop_
_atom_site_type_symbol
_atom_site_label
_atom_site_fract_x
_atom_site_fract_y
_atom_site_fract_z
Si Si1 0.884477 0.189955 0.890227
Si Si2 0.116810 0.760106 0.458547
Si Si3 0.384625 0.267464 0.629211
Si Si4 0.808900 0.326802 0.685777
O O1 0.833393 0.468650 0.873734
O O2 0.000000 0.250000 0.886607
O O3 0.856788 0.954481 0.837186
O O4 0.852573 0.145697 0.968335
O O5 0.142483 0.559881 0.398120
O O6 0.000000 0.750000 0.463086
O O7 0.135643 0.060831 0.432987
O O8 0.500000 0.250000 0.646217
O O9 0.307682 0.209752 0.688446
O O10 0.845060 0.500000 0.750000
#
# Coordination Sequence:
#
# PCOD9335059 Si02
#       4
#     8   8   8   8
#     4  11  24  43  66  93 128 165 208 270 324 372
#     4   9  19  37  64  96 125 160 208 259 327 390
#     4  10  21  40  64  94 131 164 204 266 322 375
#     4  12  26  42  62  93 127 171 224 254 302 388
#
# _framework density 23.744032000000001
#
# number of rings (size 3 to 8) (size 9 to 14) (size 15 to 20)
#    0.000    1.500    0.000    4.500    0.000   12.000 
#    0.000    6.250    0.000    0.000    0.000    0.000 
#    0.000    0.000    0.000    0.000    0.000    0.000 
#
# Total GULP energy -89317.534616 kJ/mol
# GULP energy per Si atom -5582.345913 kJ/mol
# Density = 2.368999 g / cm^3
# Si number density = 23.744032 Si / 1000 Ang^3
#
#
#
# Elastic Constant Matrix: (Units=GPa)
#
#
# Indices 1 2 3 4 5 6 
#
# 1 128.4824 25.5519 14.5189 0.0000 0.0000 0.0000
# 2 25.5519 122.4703 1.3753 0.0000 0.0000 0.0000
# 3 14.5189 1.3753 34.8840 0.0000 0.0000 0.0000
# 4 0.0000 0.0000 0.0000 25.1689 0.0000 0.0000
# 5 0.0000 0.0000 0.0000 0.0000 13.5211 0.0000
# 6 0.0000 0.0000 0.0000 0.0000 0.0000 32.1075
#
#
#
# Elastic Compliance Matrix: (Units=1/GPa)
#
#
# Indices 1 2 3 4 5 6 
#
# 1 0.008522 -0.001739 -0.003478 0.000000 0.000000 0.000000
# 2 -0.001739 0.008524 0.000388 0.000000 0.000000 0.000000
# 3 -0.003478 0.000388 0.030099 0.000000 0.000000 0.000000
# 4 0.000000 0.000000 0.000000 0.039732 0.000000 0.000000
# 5 0.000000 0.000000 0.000000 0.000000 0.073959 0.000000
# 6 0.000000 0.000000 0.000000 0.000000 0.000000 0.031145
#
#
# Mechanical properties :
#
#
# Convention : Reuss Voigt Hill
#
# Bulk Modulus (GPa) = 26.67705 40.96988 33.82347
# Shear Modulus (GPa) = 23.34982 30.45221 26.90102
#
# Velocity S-wave (km/s) = 3.13932 3.58512 3.36960
# Velocity P-wave (km/s) = 4.93964 5.86768 5.42355
#
# Compressibility (1/GPa) = 0.03748540
#
# Stress axis : x y z
#
# Youngs Moduli (GPa) = 117.34243 117.31985 33.22387
#
# Poissons Ratio (x) = 0.20401 0.11556
# Poissons Ratio (y) = 0.20405 -0.01288
# Poissons Ratio (z) = 0.40816 -0.04549
#
# Static dielectric constant tensor:
#      x y z
#    x 2.012890 0.000000 0.000000 
#    y 0.000000 1.939190 0.000000 
#    z 0.000000 0.000000 2.072590 
# 
# From -- ./inp_files/3057.got.cif
#   From: 2010.05.17/outbox.cif.g08.bks.cpg/sg24_2_cif.got.tgz:3057.got - 2010.06.04 00:33:39.
