data_PCOD9335993
_publ_section_title
;
Structure prediction by ZEFSAII (Michael W. Deem and Ramdas Pophale) SiO2 
 PCOD9335993
Probable space group: I 21 21 21
;
_chemical_formula_sum "Si O2"
_cell_formula_units_Z 32
_cell_length_a 19.195401
_cell_length_b 8.808038
_cell_length_c 8.360075
_cell_angle_alpha 90.000000
_cell_angle_beta 90.000000
_cell_angle_gamma 90.000000
_cell_volume 1413.469828
_symmetry_space_group_name_H-M "I 21 21 21"
_symmetry_group_IT_number 24
_symmetry_cell_setting 'orthorhombic'
loop_
_space_group_symop_operation_xyz
x,y,z
-x,1/2-y,z
x,-y,1/2-z
1/2-x,y,-z
1/2+x,1/2+y,1/2+z
1/2-x,-y,1/2+z
1/2+x,1/2-y,-z
-x,1/2+y,1/2-z
loop_
_atom_site_type_symbol
_atom_site_label
_atom_site_fract_x
_atom_site_fract_y
_atom_site_fract_z
Si Si1 0.576954 0.308010 0.568022
Si Si2 0.426522 0.825524 0.557345
Si Si3 0.299915 0.140890 0.142857
Si Si4 0.694239 0.877857 0.123758
O O1 0.500000 0.250000 0.525212
O O2 0.575832 0.490567 0.547233
O O3 0.587271 0.281505 0.758264
O O4 0.634198 0.216089 0.467220
O O5 0.500000 0.750000 0.513076
O O6 0.365230 0.777839 0.439332
O O7 0.264669 0.255686 0.266291
O O8 0.322592 0.000000 0.250000
O O9 0.250000 0.090048 0.000000
O O10 0.667205 0.000000 0.250000
O O11 0.750000 0.945154 0.000000
#
# Coordination Sequence:
#
# PCOD9335993 Si02
#       4
#     8   8   8   8
#     4  10  23  45  72 102 146 194 241 298 367 444
#     4  10  23  44  72 106 142 190 243 303 369 437
#     4  12  25  43  72 104 140 190 243 307 365 434
#     4  12  27  48  70 107 148 195 245 304 368 434
#
# _framework density 22.639324999999999
#
# number of rings (size 3 to 8) (size 9 to 14) (size 15 to 20)
#    0.000    1.000    2.500    3.000    7.000    1.000 
#    4.500    0.000    0.000    0.000    0.000    0.000 
#    0.000    0.000    0.000    0.000    0.000    0.000 
#
# Total GULP energy -89457.172721 kJ/mol
# GULP energy per Si atom -5591.073295 kJ/mol
# Density = 2.258780 g / cm^3
# Si number density = 22.639325 Si / 1000 Ang^3
#
#
#
# Elastic Constant Matrix: (Units=GPa)
#
#
# Indices 1 2 3 4 5 6 
#
# 1 141.4543 38.9922 80.9541 0.0000 0.0000 0.0000
# 2 38.9922 71.8367 49.2361 0.0000 0.0000 0.0000
# 3 80.9541 49.2361 127.3613 0.0000 0.0000 0.0000
# 4 0.0000 0.0000 0.0000 44.6795 0.0000 0.0000
# 5 0.0000 0.0000 0.0000 0.0000 39.7694 0.0000
# 6 0.0000 0.0000 0.0000 0.0000 0.0000 28.2593
#
#
#
# Elastic Compliance Matrix: (Units=1/GPa)
#
#
# Indices 1 2 3 4 5 6 
#
# 1 0.011252 -0.001640 -0.006518 0.000000 0.000000 0.000000
# 2 -0.001640 0.019177 -0.006371 0.000000 0.000000 0.000000
# 3 -0.006518 -0.006371 0.014458 0.000000 0.000000 0.000000
# 4 0.000000 0.000000 0.000000 0.022382 0.000000 0.000000
# 5 0.000000 0.000000 0.000000 0.000000 0.025145 0.000000
# 6 0.000000 0.000000 0.000000 0.000000 0.000000 0.035387
#
#
# Mechanical properties :
#
#
# Convention : Reuss Voigt Hill
#
# Bulk Modulus (GPa) = 63.17739 75.44633 69.31186
# Shear Modulus (GPa) = 30.83863 33.97297 32.40580
#
# Velocity S-wave (km/s) = 3.69476 3.87798 3.78748
# Velocity P-wave (km/s) = 6.79473 7.31091 7.05754
#
# Compressibility (1/GPa) = 0.01582845
#
# Stress axis : x y z
#
# Youngs Moduli (GPa) = 88.87599 52.14451 69.16774
#
# Poissons Ratio (x) = 0.08552 0.45082
# Poissons Ratio (y) = 0.14576 0.44069
# Poissons Ratio (z) = 0.57928 0.33223
#
# Static dielectric constant tensor:
#      x y z
#    x 1.807370 0.000000 0.000000 
#    y 0.000000 1.886610 0.000000 
#    z 0.000000 0.000000 1.830860 
# 
# From -- ./inp_files/14771.got.cif
#   From: 2010.05.17/outbox.cif.g08.bks.cpg/sg24_8_cif.got.tgz:14771.got - 2010.06.04 00:33:39.
