data_PCOD9335819
_publ_section_title
;
Structure prediction by ZEFSAII (Michael W. Deem and Ramdas Pophale) SiO2 
 PCOD9335819
Probable space group: I 21 21 21
;
_chemical_formula_sum "Si O2"
_cell_formula_units_Z 32
_cell_length_a 5.369870
_cell_length_b 25.512397
_cell_length_c 10.662876
_cell_angle_alpha 90.000000
_cell_angle_beta 90.000000
_cell_angle_gamma 90.000000
_cell_volume 1460.795408
_symmetry_space_group_name_H-M "I 21 21 21"
_symmetry_group_IT_number 24
_symmetry_cell_setting 'orthorhombic'
loop_
_space_group_symop_operation_xyz
x,y,z
-x,1/2-y,z
x,-y,1/2-z
1/2-x,y,-z
1/2+x,1/2+y,1/2+z
1/2-x,-y,1/2+z
1/2+x,1/2-y,-z
-x,1/2+y,1/2-z
loop_
_atom_site_type_symbol
_atom_site_label
_atom_site_fract_x
_atom_site_fract_y
_atom_site_fract_z
Si Si1 0.009873 0.360567 0.636434
Si Si2 0.495613 0.189161 0.714042
Si Si3 0.211066 0.400840 0.144992
Si Si4 0.750000 0.552676 0.000000
Si Si5 0.423376 0.000000 0.750000
O O1 0.260437 0.326165 0.632489
O O2 0.739473 0.326235 0.353645
O O3 0.043290 0.388470 0.773178
O O4 0.970907 0.406568 0.535240
O O5 0.500000 0.250000 0.745759
O O6 0.538306 0.150344 0.831744
O O7 0.086287 0.450283 0.210598
O O8 0.250000 0.410528 0.000000
O O9 0.783467 0.518057 0.123801
#
# Coordination Sequence:
#
# PCOD9335819 Si02
#       5
#     8   8   8   4   4
#     4  10  24  46  72 106 154 187 250 317 367 449
#     4  10  22  47  74 111 148 203 250 308 376 449
#     4  10  26  44  72 112 151 199 253 311 379 451
#     4  12  26  48  76 114 150 202 254 320 378 456
#     4  12  28  44  82 104 158 198 258 312 384 462
#
# _framework density 21.905874000000001
#
# number of rings (size 3 to 8) (size 9 to 14) (size 15 to 20)
#    1.500    0.000    2.500    0.750    7.000    4.000 
#    4.500    2.500    0.000    0.000    0.000    0.000 
#    0.000    0.000    0.000    0.000    0.000    0.000 
#
# Total GULP energy -89277.066609 kJ/mol
# GULP energy per Si atom -5579.816663 kJ/mol
# Density = 2.185602 g / cm^3
# Si number density = 21.905874 Si / 1000 Ang^3
#
#
#
# Elastic Constant Matrix: (Units=GPa)
#
#
# Indices 1 2 3 4 5 6 
#
# 1 135.1448 50.2404 15.0588 0.0000 0.0000 0.0000
# 2 50.2404 148.1788 61.8076 0.0000 0.0000 0.0000
# 3 15.0588 61.8076 127.6079 -0.0001 0.0000 0.0000
# 4 0.0000 0.0000 -0.0001 25.7384 0.0000 0.0000
# 5 0.0000 0.0000 0.0000 0.0000 22.2138 0.0000
# 6 0.0000 0.0000 0.0000 0.0000 0.0000 21.2000
#
#
#
# Elastic Compliance Matrix: (Units=1/GPa)
#
#
# Indices 1 2 3 4 5 6 
#
# 1 0.008491 -0.003084 0.000492 0.000000 0.000000 0.000000
# 2 -0.003084 0.009577 -0.004275 0.000000 0.000000 0.000000
# 3 0.000492 -0.004275 0.009849 0.000000 0.000000 0.000000
# 4 0.000000 0.000000 0.000000 0.038852 0.000000 0.000000
# 5 0.000000 0.000000 0.000000 0.000000 0.045017 0.000000
# 6 0.000000 0.000000 0.000000 0.000000 0.000000 0.047170
#
#
# Mechanical properties :
#
#
# Convention : Reuss Voigt Hill
#
# Bulk Modulus (GPa) = 70.50612 73.90502 72.20557
# Shear Modulus (GPa) = 28.18184 32.75209 30.46697
#
# Velocity S-wave (km/s) = 3.59067 3.87088 3.73341
# Velocity P-wave (km/s) = 7.03181 7.33410 7.18455
#
# Compressibility (1/GPa) = 0.01418317
#
# Stress axis : x y z
#
# Youngs Moduli (GPa) = 117.76912 104.41243 101.53257
#
# Poissons Ratio (x) = 0.32202 -0.04993
# Poissons Ratio (y) = 0.36321 0.43404
# Poissons Ratio (z) = -0.05791 0.44636
#
# Static dielectric constant tensor:
#      x y z
#    x 1.841290 0.000000 0.000000 
#    y 0.000000 1.783790 0.000000 
#    z 0.000000 0.000000 1.829120 
# 
# From -- ./inp_files/9194.got.cif
#   From: 2010.05.17/outbox.cif.g08.bks.cpg/sg24_5_cif.got.tgz:9194.got - 2010.06.04 00:33:39.
