data_PCOD9335396
_publ_section_title
;
Structure prediction by ZEFSAII (Michael W. Deem and Ramdas Pophale) SiO2 
 PCOD9335396
Probable space group: I 21 21 21
;
_chemical_formula_sum "Si O2"
_cell_formula_units_Z 36
_cell_length_a 5.093992
_cell_length_b 23.504211
_cell_length_c 14.277948
_cell_angle_alpha 90.000000
_cell_angle_beta 90.000000
_cell_angle_gamma 90.000000
_cell_volume 1709.502466
_symmetry_space_group_name_H-M "I 21 21 21"
_symmetry_group_IT_number 24
_symmetry_cell_setting 'orthorhombic'
loop_
_space_group_symop_operation_xyz
x,y,z
-x,1/2-y,z
x,-y,1/2-z
1/2-x,y,-z
1/2+x,1/2+y,1/2+z
1/2-x,-y,1/2+z
1/2+x,1/2-y,-z
-x,1/2+y,1/2-z
loop_
_atom_site_type_symbol
_atom_site_label
_atom_site_fract_x
_atom_site_fract_y
_atom_site_fract_z
Si Si1 0.047441 0.476483 0.156754
Si Si2 0.250000 0.398507 0.000000
Si Si3 0.509783 0.594774 0.935827
Si Si4 0.948506 0.185534 0.869077
Si Si5 0.927633 0.360344 0.233382
O O1 0.188524 0.500000 0.250000
O O2 0.934646 0.530484 0.102178
O O3 0.870432 0.425078 0.196416
O O4 0.219696 0.441773 0.085044
O O5 0.031968 0.355288 0.959922
O O6 0.492812 0.632447 0.841653
O O7 0.750000 0.613504 0.000000
O O8 0.250000 0.594175 0.000000
O O9 0.836714 0.327526 0.789820
O O10 0.664233 0.169403 0.824525
O O11 0.000000 0.250000 0.898061
#
# Coordination Sequence:
#
# PCOD9335396 Si02
#       5
#     8   4   8   8   8
#     4   9  20  36  58  91 130 170 203 250 316 385
#     4  10  22  38  64  94 132 162 218 258 310 390
#     4  11  22  37  64  93 129 169 214 261 321 390
#     4  11  24  42  66  90 125 171 217 271 327 376
#     4  10  23  41  62  92 129 169 215 268 324 386
#
# _framework density 21.058759999999999
#
# number of rings (size 3 to 8) (size 9 to 14) (size 15 to 20)
#    0.000    1.778    1.111    2.000    3.111    6.222 
#    0.000    6.667    0.000   13.333    0.000    0.000 
#    0.000    0.000    0.000    0.000    0.000    0.000 
#
# Total GULP energy -100282.037944 kJ/mol
# GULP energy per Si atom -5571.224330 kJ/mol
# Density = 2.101083 g / cm^3
# Si number density = 21.058760 Si / 1000 Ang^3
#
#
#
# Elastic Constant Matrix: (Units=GPa)
#
#
# Indices 1 2 3 4 5 6 
#
# 1 51.1491 -0.4051 19.5932 0.0000 0.0000 0.0000
# 2 -0.4051 86.7025 33.7641 0.0000 0.0000 0.0000
# 3 19.5932 33.7641 122.7618 0.0000 0.0000 0.0000
# 4 0.0000 0.0000 0.0000 5.1142 0.0000 0.0000
# 5 0.0000 0.0000 0.0000 0.0000 28.8441 0.0000
# 6 0.0000 0.0000 0.0000 0.0000 0.0000 12.1331
#
#
#
# Elastic Compliance Matrix: (Units=1/GPa)
#
#
# Indices 1 2 3 4 5 6 
#
# 1 0.021014 0.001573 -0.003786 0.000000 0.000000 0.000000
# 2 0.001573 0.013035 -0.003836 0.000000 0.000000 0.000000
# 3 -0.003786 -0.003836 0.009805 0.000000 0.000000 0.000000
# 4 0.000000 0.000000 0.000000 0.195535 0.000000 0.000000
# 5 0.000000 0.000000 0.000000 0.000000 0.034669 0.000000
# 6 0.000000 0.000000 0.000000 0.000000 0.000000 0.082419
#
#
# Mechanical properties :
#
#
# Convention : Reuss Voigt Hill
#
# Bulk Modulus (GPa) = 31.49199 40.72421 36.10810
# Shear Modulus (GPa) = 13.18700 23.06236 18.12468
#
# Velocity S-wave (km/s) = 2.50511 3.31289 2.93690
# Velocity P-wave (km/s) = 4.83263 5.83215 5.35576
#
# Compressibility (1/GPa) = 0.03175411
#
# Stress axis : x y z
#
# Youngs Moduli (GPa) = 47.58838 76.71708 101.98627
#
# Poissons Ratio (x) = -0.12065 0.38616
# Poissons Ratio (y) = -0.07484 0.39123
# Poissons Ratio (z) = 0.18019 0.29429
#
# Static dielectric constant tensor:
#      x y z
#    x 1.767780 0.000000 0.000000 
#    y 0.000000 1.776760 0.000000 
#    z 0.000000 0.000000 1.809480 
# 
# From -- ./inp_files/17538.got.cif
#   From: 2010.05.17/outbox.cif.g08.bks.cpg/sg24_9_cif.got.tgz:17538.got - 2010.06.04 00:33:39.
