data_PCOD9335584
_publ_section_title
;
Structure prediction by ZEFSAII (Michael W. Deem and Ramdas Pophale) SiO2 
 PCOD9335584
Probable space group: I 21 21 21
;
_chemical_formula_sum "Si O2"
_cell_formula_units_Z 48
_cell_length_a 9.385454
_cell_length_b 16.517671
_cell_length_c 14.563544
_cell_angle_alpha 90.000000
_cell_angle_beta 90.000000
_cell_angle_gamma 90.000000
_cell_volume 2257.725662
_symmetry_space_group_name_H-M "I 21 21 21"
_symmetry_group_IT_number 24
_symmetry_cell_setting 'orthorhombic'
loop_
_space_group_symop_operation_xyz
x,y,z
-x,1/2-y,z
x,-y,1/2-z
1/2-x,y,-z
1/2+x,1/2+y,1/2+z
1/2-x,-y,1/2+z
1/2+x,1/2-y,-z
-x,1/2+y,1/2-z
loop_
_atom_site_type_symbol
_atom_site_label
_atom_site_fract_x
_atom_site_fract_y
_atom_site_fract_z
Si Si1 0.350349 0.218264 0.692564
Si Si2 0.239041 0.965558 0.149431
Si Si3 0.558522 0.965517 0.075929
Si Si4 0.500000 0.250000 0.872008
Si Si5 0.353926 0.707252 0.072357
Si Si6 0.961695 0.929467 0.405075
Si Si7 0.258191 0.500000 0.750000
O O1 0.500000 0.250000 0.651564
O O2 0.313282 0.127716 0.660454
O O3 0.375189 0.222981 0.801299
O O4 0.234173 0.284358 0.665115
O O5 0.389008 0.966601 0.095800
O O6 0.271934 0.000000 0.250000
O O7 0.112125 0.023275 0.112268
O O8 0.604831 0.879632 0.034952
O O9 0.650029 0.970302 0.169866
O O10 0.593067 0.030900 0.998910
O O11 0.468826 0.333435 0.922008
O O12 0.500000 0.750000 0.088449
O O13 0.250000 0.749881 0.000000
O O14 0.866474 0.945370 0.312832
#
# Coordination Sequence:
#
# PCOD9335584 Si02
#       7
#     8   8   8   4   8   8   4
#     4  10  22  41  71 105 134 191 238 292 370 432
#     4  12  22  46  72 106 144 189 241 298 375 438
#     4  12  28  43  71 106 145 186 241 303 365 433
#     4  10  22  44  76  98 136 184 252 294 352 436
#     4  12  25  39  60 101 145 180 231 297 363 436
#     4  12  25  46  75 105 139 197 245 298 371 438
#     4  12  24  48  72 100 144 186 238 302 358 438
#
# _framework density 21.260331999999998
#
# number of rings (size 3 to 8) (size 9 to 14) (size 15 to 20)
#    0.500    0.000    5.000    3.500    7.000    0.000 
#    0.000    3.333    1.833    0.000    0.000    0.000 
#    0.000    0.000    0.000    0.000    0.000    0.000 
#
# Total GULP energy -133864.640456 kJ/mol
# GULP energy per Si atom -5577.693352 kJ/mol
# Density = 2.121194 g / cm^3
# Si number density = 21.260332 Si / 1000 Ang^3
#
#
#
# Elastic Constant Matrix: (Units=GPa)
#
#
# Indices 1 2 3 4 5 6 
#
# 1 159.3095 49.9591 29.0315 0.0000 0.0000 0.0000
# 2 49.9591 177.1120 42.8824 0.0000 0.0000 0.0000
# 3 29.0315 42.8824 85.2332 0.0000 0.0000 0.0000
# 4 0.0000 0.0000 0.0000 37.2876 0.0000 0.0000
# 5 0.0000 0.0000 0.0000 0.0000 22.1466 0.0000
# 6 0.0000 0.0000 0.0000 0.0000 0.0000 20.0334
#
#
#
# Elastic Compliance Matrix: (Units=1/GPa)
#
#
# Indices 1 2 3 4 5 6 
#
# 1 0.007073 -0.001608 -0.001600 0.000000 0.000000 0.000000
# 2 -0.001608 0.006795 -0.002871 0.000000 0.000000 0.000000
# 3 -0.001600 -0.002871 0.013722 0.000000 0.000000 0.000000
# 4 0.000000 0.000000 0.000000 0.026819 0.000000 0.000000
# 5 0.000000 0.000000 0.000000 0.000000 0.045154 0.000000
# 6 0.000000 0.000000 0.000000 0.000000 0.000000 0.049917
#
#
# Mechanical properties :
#
#
# Convention : Reuss Voigt Hill
#
# Bulk Modulus (GPa) = 64.80098 73.93341 69.36720
# Shear Modulus (GPa) = 29.97957 35.87898 32.92927
#
# Velocity S-wave (km/s) = 3.75923 4.11250 3.93983
# Velocity P-wave (km/s) = 7.02768 7.57634 7.30716
#
# Compressibility (1/GPa) = 0.01543186
#
# Stress axis : x y z
#
# Youngs Moduli (GPa) = 141.38551 147.17264 72.87552
#
# Poissons Ratio (x) = 0.23660 0.11662
# Poissons Ratio (y) = 0.22730 0.20922
# Poissons Ratio (z) = 0.22626 0.42253
#
# Static dielectric constant tensor:
#      x y z
#    x 1.791250 0.000000 0.000000 
#    y 0.000000 1.779610 0.000000 
#    z 0.000000 0.000000 1.795630 
# 
# From -- ./inp_files/24862.got.cif
#   From: 2010.05.17/outbox.cif.g08.bks.cpg/sg24_13_cif.got.tgz:24862.got - 2010.06.04 00:33:39.
