data_PCOD9335777
_publ_section_title
;
Structure prediction by ZEFSAII (Michael W. Deem and Ramdas Pophale) SiO2 
 PCOD9335777
Probable space group: I 21 21 21
;
_chemical_formula_sum "Si O2"
_cell_formula_units_Z 64
_cell_length_a 14.288978
_cell_length_b 23.259509
_cell_length_c 7.295958
_cell_angle_alpha 90.000000
_cell_angle_beta 90.000000
_cell_angle_gamma 90.000000
_cell_volume 2424.845293
_symmetry_space_group_name_H-M "I 21 21 21"
_symmetry_group_IT_number 24
_symmetry_cell_setting 'orthorhombic'
loop_
_space_group_symop_operation_xyz
x,y,z
-x,1/2-y,z
x,-y,1/2-z
1/2-x,y,-z
1/2+x,1/2+y,1/2+z
1/2-x,-y,1/2+z
1/2+x,1/2-y,-z
-x,1/2+y,1/2-z
loop_
_atom_site_type_symbol
_atom_site_label
_atom_site_fract_x
_atom_site_fract_y
_atom_site_fract_z
Si Si1 0.242046 0.749274 0.722781
Si Si2 0.434210 0.197697 0.796502
Si Si3 0.422104 0.550140 0.988904
Si Si4 0.873489 0.854557 0.749923
Si Si5 0.144631 0.429113 0.070514
Si Si6 0.291186 0.065207 0.289023
Si Si7 0.414478 0.932382 0.792010
Si Si8 0.578540 0.673163 0.278046
O O1 0.250000 0.749578 0.500000
O O2 0.333359 0.783512 0.779783
O O3 0.152981 0.782686 0.802169
O O4 0.136277 0.886763 0.726030
O O5 0.500000 0.250000 0.737165
O O6 0.454169 0.131220 0.753145
O O7 0.432007 0.196281 0.016128
O O8 0.411591 0.482513 0.014283
O O9 0.378088 0.565832 0.786790
O O10 0.533190 0.564451 0.990360
O O11 0.367461 0.587354 0.135446
O O12 0.882988 0.870952 0.534533
O O13 0.782080 0.815935 0.774808
O O14 0.974409 0.828283 0.802828
O O15 0.250000 0.438454 0.000000
O O16 0.250000 0.070568 0.500000
O O17 0.188042 0.072585 0.199956
O O18 0.321524 0.000000 0.250000
O O19 0.436495 0.000000 0.750000
#
# Coordination Sequence:
#
# PCOD9335777 Si02
#       8
#     8   8   8   8   8   8   8   8
#     4  10  22  45  72 111 149 202 262 321 388 479
#     4  11  24  46  80 114 154 212 264 329 403 483
#     4  11  26  46  73 112 149 200 256 321 398 478
#     4  12  25  43  79 109 150 204 264 321 398 478
#     4  11  26  48  71 105 157 195 253 331 394 480
#     4  11  26  41  72 108 153 201 253 325 399 475
#     4  11  23  46  74 109 155 194 255 326 403 469
#     4  11  23  43  72 109 153 198 260 326 395 477
#
# _framework density 26.393436000000001
#
# number of rings (size 3 to 8) (size 9 to 14) (size 15 to 20)
#    0.000    1.000    2.500    4.125    7.000    2.000 
#    0.000    2.500    8.250    1.500    0.000    0.000 
#    0.000    0.000    0.000    0.000    0.000    0.000 
#
# Total GULP energy -178490.389988 kJ/mol
# GULP energy per Si atom -5577.824687 kJ/mol
# Density = 2.633336 g / cm^3
# Si number density = 26.393436 Si / 1000 Ang^3
#
#
#
# Elastic Constant Matrix: (Units=GPa)
#
#
# Indices 1 2 3 4 5 6 
#
# 1 98.6172 27.0527 3.1988 -0.0001 -0.0002 -0.0001
# 2 27.0527 150.1912 29.1018 -0.0001 -0.0007 -0.0001
# 3 3.1988 29.1018 77.9648 -0.0014 0.0063 -0.0016
# 4 -0.0001 -0.0001 -0.0014 14.6756 0.0037 -0.0004
# 5 -0.0002 -0.0007 0.0063 0.0037 -70.9181 -0.0016
# 6 -0.0001 -0.0001 -0.0016 -0.0004 -0.0016 45.5454
#
#
#
# Elastic Compliance Matrix: (Units=1/GPa)
#
#
# Indices 1 2 3 4 5 6 
#
# 1 0.010674 -0.001981 0.000302 0.000000 0.000000 0.000000
# 2 -0.001981 0.007545 -0.002735 0.000000 0.000000 0.000000
# 3 0.000302 -0.002735 0.013835 0.000001 0.000001 0.000000
# 4 0.000000 0.000000 0.000001 0.068140 0.000004 0.000001
# 5 0.000000 0.000000 0.000001 0.000004 -0.014101 -0.000001
# 6 0.000000 0.000000 0.000000 0.000001 -0.000001 0.021956
#
#
# Mechanical properties :
#
#
# Convention : Reuss Voigt Hill
#
# Bulk Modulus (GPa) = 43.05774 49.49775 46.27774
# Shear Modulus (GPa) = 40.12207 15.68858 27.90532
#
# Velocity S-wave (km/s) = 3.90314 2.44070 3.25512
# Velocity P-wave (km/s) = 6.05491 5.17080 5.63024
#
# Compressibility (1/GPa) = 0.02322463
#
# Stress axis : x y z
#
# Youngs Moduli (GPa) = 93.68665 132.53882 72.28134
#
# Poissons Ratio (x) = 0.26256 -0.02179
# Poissons Ratio (y) = 0.18560 0.19769
# Poissons Ratio (z) = -0.02825 0.36250
#
# Static dielectric constant tensor:
#      x y z
#    x 1.860060 0.000000 0.000000 
#    y 0.000000 2.359670 0.000000 
#    z 0.000000 0.000000 1.994360 
# 
# From -- ./inp_files/14603.got.cif
#   From: 2010.05.17/outbox.cif.g08.bks.cpg/sg24_8_cif.got.tgz:14603.got - 2010.06.04 00:33:39.
