data_PCOD9335000
_publ_section_title
;
Structure prediction by ZEFSAII (Michael W. Deem and Ramdas Pophale) SiO2 
 PCOD9335000
Probable space group: I 21 21 21
;
_chemical_formula_sum "Si O2"
_cell_formula_units_Z 20
_cell_length_a 4.490952
_cell_length_b 32.502150
_cell_length_c 5.300191
_cell_angle_alpha 90.000000
_cell_angle_beta 90.000000
_cell_angle_gamma 90.000000
_cell_volume 773.645536
_symmetry_space_group_name_H-M "I 21 21 21"
_symmetry_group_IT_number 24
_symmetry_cell_setting 'orthorhombic'
loop_
_space_group_symop_operation_xyz
x,y,z
-x,1/2-y,z
x,-y,1/2-z
1/2-x,y,-z
1/2+x,1/2+y,1/2+z
1/2-x,-y,1/2+z
1/2+x,1/2-y,-z
-x,1/2+y,1/2-z
loop_
_atom_site_type_symbol
_atom_site_label
_atom_site_fract_x
_atom_site_fract_y
_atom_site_fract_z
Si Si1 0.448897 0.588464 0.747662
Si Si2 0.952773 0.000000 0.250000
Si Si3 0.250000 0.159956 0.500000
Si Si4 0.750000 0.779855 0.000000
O O1 0.250000 0.590760 0.500000
O O2 0.614515 0.544111 0.747287
O O3 0.250000 0.588269 0.000000
O O4 0.640845 0.629068 0.783977
O O5 0.750000 0.999712 0.500000
O O6 0.513421 0.188158 0.383610
O O7 0.500000 0.750000 0.867950
#
# Coordination Sequence:
#
# PCOD9335000 Si02
#       4
#     8   4   4   4
#     4  10  21  39  65 103 143 196 242 297 350 426
#     4   8  16  34  58  90 142 190 242 288 346 406
#     4  11  20  40  70 108 140 192 242 298 368 439
#     4   9  20  40  72 108 140 184 234 310 376 449
#
# _framework density 25.851635000000002
#
# number of rings (size 3 to 8) (size 9 to 14) (size 15 to 20)
#    0.000    2.400    2.000    0.000    0.000    1.600 
#    0.000   12.000    0.000    7.200    0.000    0.000 
#    0.000    0.000    0.000    0.000    0.000    0.000 
#
# Total GULP energy -55741.552631 kJ/mol
# GULP energy per Si atom -5574.155263 kJ/mol
# Density = 2.579280 g / cm^3
# Si number density = 25.851635 Si / 1000 Ang^3
#
#
#
# Elastic Constant Matrix: (Units=GPa)
#
#
# Indices 1 2 3 4 5 6 
#
# 1 139.9401 96.7985 50.0636 0.0000 0.0001 -0.0007
# 2 96.7985 238.5901 23.8813 0.0019 0.0001 -0.0008
# 3 50.0636 23.8813 179.0538 0.0018 0.0006 -0.0004
# 4 0.0000 0.0019 0.0018 -10.6378 0.0001 -0.0008
# 5 0.0001 0.0001 0.0006 0.0001 55.2747 0.0023
# 6 -0.0007 -0.0008 -0.0004 -0.0008 0.0023 -390.0624
#
#
#
# Elastic Compliance Matrix: (Units=1/GPa)
#
#
# Indices 1 2 3 4 5 6 
#
# 1 0.010936 -0.004187 -0.002499 -0.000001 0.000000 0.000000
# 2 -0.004187 0.005851 0.000390 0.000001 0.000000 0.000000
# 3 -0.002499 0.000390 0.006232 0.000001 0.000000 0.000000
# 4 -0.000001 0.000001 0.000001 -0.094005 0.000000 0.000000
# 5 0.000000 0.000000 0.000000 0.000000 0.018091 0.000000
# 6 0.000000 0.000000 0.000000 0.000000 0.000000 -0.002564
#
#
# Mechanical properties :
#
#
# Convention : Reuss Voigt Hill
#
# Bulk Modulus (GPa) = 95.90498 99.89676 97.90087
# Shear Modulus (GPa) = -126.93251 -43.29572 -85.11412
#
# Velocity S-wave (km/s) = -7.01477 -4.09684 -5.74418
# Velocity P-wave (km/s) = 5.33203 4.04319 2.45796
#
# Compressibility (1/GPa) = 0.01042699
#
# Stress axis : x y z
#
# Youngs Moduli (GPa) = 91.44067 170.91630 160.47042
#
# Poissons Ratio (x) = 0.71558 0.40107
# Poissons Ratio (y) = 0.38284 -0.06262
# Poissons Ratio (z) = 0.22854 -0.06670
#
# Static dielectric constant tensor:
#      x y z
#    x 2.166010 0.000000 0.000000 
#    y 0.000000 2.116720 0.000000 
#    z 0.000000 0.000000 2.019970 
# 
# From -- ./inp_files/390.got.cif
#   From: 2010.05.17/outbox.cif.g08.bks.cpg/sg24_1_cif.got.tgz:390.got - 2010.06.04 00:33:39.
