data_PCOD9335580
_publ_section_title
;
Structure prediction by ZEFSAII (Michael W. Deem and Ramdas Pophale) SiO2 
 PCOD9335580
Probable space group: I 21 21 21
;
_chemical_formula_sum "Si O2"
_cell_formula_units_Z 40
_cell_length_a 10.216771
_cell_length_b 18.687699
_cell_length_c 10.598165
_cell_angle_alpha 90.000000
_cell_angle_beta 90.000000
_cell_angle_gamma 90.000000
_cell_volume 2023.485824
_symmetry_space_group_name_H-M "I 21 21 21"
_symmetry_group_IT_number 24
_symmetry_cell_setting 'orthorhombic'
loop_
_space_group_symop_operation_xyz
x,y,z
-x,1/2-y,z
x,-y,1/2-z
1/2-x,y,-z
1/2+x,1/2+y,1/2+z
1/2-x,-y,1/2+z
1/2+x,1/2-y,-z
-x,1/2+y,1/2-z
loop_
_atom_site_type_symbol
_atom_site_label
_atom_site_fract_x
_atom_site_fract_y
_atom_site_fract_z
Si Si1 0.715860 0.916598 0.747422
Si Si2 0.229596 0.053294 0.143786
Si Si3 0.006356 0.832019 0.398843
Si Si4 0.505099 0.628485 0.313804
Si Si5 0.750000 0.825541 0.000000
Si Si6 0.500000 0.250000 0.391270
O O1 0.617125 0.874541 0.656481
O O2 0.714557 0.876776 0.882460
O O3 0.865350 0.908919 0.701912
O O4 0.680094 0.000000 0.750000
O O5 0.136524 0.123244 0.137128
O O6 0.373952 0.075213 0.186245
O O7 0.174802 0.000000 0.250000
O O8 0.250000 0.025004 0.000000
O O9 0.003324 0.833480 0.550408
O O10 0.000000 0.750000 0.354368
O O11 0.528841 0.684074 0.201677
O O12 0.874368 0.775596 0.969382
#
# Coordination Sequence:
#
# PCOD9335580 Si02
#       6
#     8   8   8   8   4   4
#     4  11  25  43  66  96 133 172 219 264 331 387
#     4  10  23  44  64  97 132 173 217 267 332 393
#     4  11  24  40  70  97 127 164 222 272 321 380
#     4  10  22  41  70  92 129 168 218 268 325 388
#     4  10  26  42  66  96 136 174 212 266 336 386
#     4  10  22  44  62 100 130 168 218 268 330 386
#
# _framework density 19.767869000000001
#
# number of rings (size 3 to 8) (size 9 to 14) (size 15 to 20)
#    0.000    1.600    1.000    1.800    9.800    1.600 
#   12.600    0.000    0.000    0.000    0.000    0.000 
#    0.000    0.000    0.000    0.000    0.000    0.000 
#
# Total GULP energy -111718.583795 kJ/mol
# GULP energy per Si atom -5585.929190 kJ/mol
# Density = 1.972288 g / cm^3
# Si number density = 19.767869 Si / 1000 Ang^3
#
#
#
# Elastic Constant Matrix: (Units=GPa)
#
#
# Indices 1 2 3 4 5 6 
#
# 1 134.2229 65.3041 66.7499 -0.0001 0.0000 0.0000
# 2 65.3041 142.2909 62.2516 0.0002 0.0000 0.0001
# 3 66.7499 62.2516 82.2604 -0.0001 0.0000 0.0001
# 4 -0.0001 0.0002 -0.0001 56.2271 -0.0002 -0.0003
# 5 0.0000 0.0000 0.0000 -0.0002 34.5756 0.0000
# 6 0.0000 0.0001 0.0001 -0.0003 0.0000 7.6344
#
#
#
# Elastic Compliance Matrix: (Units=1/GPa)
#
#
# Indices 1 2 3 4 5 6 
#
# 1 0.012860 -0.001998 -0.008923 0.000000 0.000000 0.000000
# 2 -0.001998 0.010817 -0.006564 0.000000 0.000000 0.000000
# 3 -0.008923 -0.006564 0.024364 0.000000 0.000000 0.000000
# 4 0.000000 0.000000 0.000000 0.017785 0.000000 0.000001
# 5 0.000000 0.000000 0.000000 0.000000 0.028922 0.000000
# 6 0.000000 0.000000 0.000000 0.000001 0.000000 0.130986
#
#
# Mechanical properties :
#
#
# Convention : Reuss Voigt Hill
#
# Bulk Modulus (GPa) = 76.50881 83.04282 79.77581
# Shear Modulus (GPa) = 18.86354 30.65199 24.75777
#
# Velocity S-wave (km/s) = 3.09245 3.94203 3.54280
# Velocity P-wave (km/s) = 7.17904 7.92589 7.56169
#
# Compressibility (1/GPa) = 0.01307039
#
# Stress axis : x y z
#
# Youngs Moduli (GPa) = 77.76073 92.44882 41.04333
#
# Poissons Ratio (x) = 0.18474 0.36623
# Poissons Ratio (y) = 0.15539 0.26942
# Poissons Ratio (z) = 0.69385 0.60685
#
# Static dielectric constant tensor:
#      x y z
#    x 1.649920 0.000000 0.000000 
#    y 0.000000 1.687610 0.000000 
#    z 0.000000 0.000000 1.703210 
# 
# From -- ./inp_files/10723.got.cif
#   From: 2010.05.17/outbox.cif.g08.bks.cpg/sg24_6_cif.got.tgz:10723.got - 2010.06.04 00:33:39.
