data_PCOD9335850
_publ_section_title
;
Structure prediction by ZEFSAII (Michael W. Deem and Ramdas Pophale) SiO2 
 PCOD9335850
Probable space group: I 21 21 21
;
_chemical_formula_sum "Si O2"
_cell_formula_units_Z 56
_cell_length_a 8.905568
_cell_length_b 14.410690
_cell_length_c 20.738250
_cell_angle_alpha 90.000000
_cell_angle_beta 90.000000
_cell_angle_gamma 90.000000
_cell_volume 2661.451189
_symmetry_space_group_name_H-M "I 21 21 21"
_symmetry_group_IT_number 24
_symmetry_cell_setting 'orthorhombic'
loop_
_space_group_symop_operation_xyz
x,y,z
-x,1/2-y,z
x,-y,1/2-z
1/2-x,y,-z
1/2+x,1/2+y,1/2+z
1/2-x,-y,1/2+z
1/2+x,1/2-y,-z
-x,1/2+y,1/2-z
loop_
_atom_site_type_symbol
_atom_site_label
_atom_site_fract_x
_atom_site_fract_y
_atom_site_fract_z
Si Si1 0.270556 0.177964 0.436993
Si Si2 0.701373 0.992574 0.599802
Si Si3 0.863396 0.680455 0.558292
Si Si4 0.000000 0.250000 0.370577
Si Si5 0.000048 0.981931 0.977577
Si Si6 0.167479 0.708774 0.353680
Si Si7 0.500000 0.750000 0.167810
Si Si8 0.263556 0.366030 0.711343
O O1 0.250000 0.243844 0.500000
O O2 0.102571 0.177871 0.409769
O O3 0.373472 0.210708 0.379031
O O4 0.372433 0.094435 0.464726
O O5 0.851232 0.031892 0.565766
O O6 0.562700 0.013189 0.550952
O O7 0.700643 0.880523 0.601527
O O8 0.710331 0.036480 0.672569
O O9 0.750000 0.698166 0.500000
O O10 0.778079 0.708067 0.624464
O O11 0.000000 0.750000 0.552497
O O12 0.925568 0.577410 0.547572
O O13 0.119396 0.304763 0.329052
O O14 0.193210 0.662991 0.283799
O O15 0.000000 0.750000 0.359148
O O16 0.590670 0.830490 0.205039
#
# Coordination Sequence:
#
# PCOD9335850 Si02
#       8
#     8   8   8   4   8   8   4   8
#     4  11  21  38  62 101 135 175 225 284 356 414
#     4  11  23  43  70 102 141 183 235 300 359 433
#     4  12  24  42  69 105 140 176 228 300 366 434
#     4  10  23  40  64  94 139 174 234 282 334 424
#     4  11  23  41  68 104 140 179 231 298 368 419
#     4  12  26  45  70 100 138 189 242 294 367 434
#     4  10  23  38  66  94 135 184 234 282 338 426
#     4  11  23  45  67  95 139 188 236 287 349 429
#
# _framework density 21.041153000000001
#
# number of rings (size 3 to 8) (size 9 to 14) (size 15 to 20)
#    0.000    0.857    3.571    4.286    1.000    2.286 
#    0.000    0.000    0.000    0.000    0.000    0.000 
#    0.000    0.000    0.000    0.000    0.000    0.000 
#
# Total GULP energy -155930.181967 kJ/mol
# GULP energy per Si atom -5568.935070 kJ/mol
# Density = 2.099326 g / cm^3
# Si number density = 21.041153 Si / 1000 Ang^3
#
#
#
# Elastic Constant Matrix: (Units=GPa)
#
#
# Indices 1 2 3 4 5 6 
#
# 1 142.4669 51.2975 33.1641 0.0000 0.0000 0.0000
# 2 51.2975 77.6767 20.9998 0.0001 0.0000 0.0000
# 3 33.1641 20.9998 65.6599 0.0001 0.0000 0.0000
# 4 0.0000 0.0001 0.0001 491.5295 0.0000 0.0000
# 5 0.0000 0.0000 0.0000 0.0000 30.6860 0.0000
# 6 0.0000 0.0000 0.0000 0.0000 0.0000 32.9018
#
#
#
# Elastic Compliance Matrix: (Units=1/GPa)
#
#
# Indices 1 2 3 4 5 6 
#
# 1 0.009767 -0.005601 -0.003142 0.000000 0.000000 0.000000
# 2 -0.005601 0.017304 -0.002705 0.000000 0.000000 0.000000
# 3 -0.003142 -0.002705 0.017682 0.000000 0.000000 0.000000
# 4 0.000000 0.000000 0.000000 0.002034 0.000000 0.000000
# 5 0.000000 0.000000 0.000000 0.000000 0.032588 0.000000
# 6 0.000000 0.000000 0.000000 0.000000 0.000000 0.030393
#
#
# Mechanical properties :
#
#
# Convention : Reuss Voigt Hill
#
# Bulk Modulus (GPa) = 45.75182 55.19182 50.47182
# Shear Modulus (GPa) = 35.72657 123.04627 79.38642
#
# Velocity S-wave (km/s) = 4.12507 7.65544 6.14907
# Velocity P-wave (km/s) = 6.66929 10.21902 8.62867
#
# Compressibility (1/GPa) = 0.02185705
#
# Stress axis : x y z
#
# Youngs Moduli (GPa) = 102.38287 57.78994 56.55384
#
# Poissons Ratio (x) = 0.32367 0.17769
# Poissons Ratio (y) = 0.57343 0.15300
# Poissons Ratio (z) = 0.32169 0.15634
#
# Static dielectric constant tensor:
#      x y z
#    x 1.533580 0.000000 0.000000 
#    y 0.000000 1.777340 0.000000 
#    z 0.000000 0.000000 1.962080 
# 
# From -- ./inp_files/32870.got.cif
#   From: 2010.05.17/outbox.cif.g08.bks.cpg/sg24_17_cif.got.tgz:32870.got - 2010.06.04 00:33:39.
