data_PCOD9335468
_publ_section_title
;
Structure prediction by ZEFSAII (Michael W. Deem and Ramdas Pophale) SiO2 
 PCOD9335468
Probable space group: I 21 21 21
;
_chemical_formula_sum "Si O2"
_cell_formula_units_Z 40
_cell_length_a 20.963034
_cell_length_b 16.056217
_cell_length_c 5.134256
_cell_angle_alpha 90.000000
_cell_angle_beta 90.000000
_cell_angle_gamma 90.000000
_cell_volume 1728.123942
_symmetry_space_group_name_H-M "I 21 21 21"
_symmetry_group_IT_number 24
_symmetry_cell_setting 'orthorhombic'
loop_
_space_group_symop_operation_xyz
x,y,z
-x,1/2-y,z
x,-y,1/2-z
1/2-x,y,-z
1/2+x,1/2+y,1/2+z
1/2-x,-y,1/2+z
1/2+x,1/2-y,-z
-x,1/2+y,1/2-z
loop_
_atom_site_type_symbol
_atom_site_label
_atom_site_fract_x
_atom_site_fract_y
_atom_site_fract_z
Si Si1 0.674723 0.672281 0.072169
Si Si2 0.620885 0.584884 0.590015
Si Si3 0.098564 0.343851 0.613746
Si Si4 0.482715 0.655722 0.614730
Si Si5 0.223113 0.593193 0.749703
O O1 0.652779 0.607528 0.307129
O O2 0.640500 0.759516 0.140292
O O3 0.750000 0.670181 0.000000
O O4 0.643961 0.653129 0.793431
O O5 0.637613 0.500000 0.750000
O O6 0.544273 0.596402 0.591476
O O7 0.070597 0.366956 0.331089
O O8 0.148512 0.410958 0.719697
O O9 0.043202 0.338213 0.823167
O O10 0.500000 0.750000 0.698153
O O11 0.252321 0.500000 0.750000
O O12 0.250000 0.638091 0.500000
O O13 0.250000 0.637613 0.000000
#
# Coordination Sequence:
#
# PCOD9335468 Si02
#       5
#     8   8   8   8   8
#     4  12  25  44  70  99 133 180 231 284 341 407
#     4  12  27  46  68  99 137 181 229 284 344 410
#     4  12  23  40  72 100 133 174 229 274 339 413
#     4  12  23  43  69  96 136 173 214 282 346 398
#     4  10  22  40  61  93 138 175 212 268 326 388
#
# _framework density 23.146487
#
# number of rings (size 3 to 8) (size 9 to 14) (size 15 to 20)
#    0.000    0.400    4.000    4.800    0.000    4.800 
#    0.000    0.000    0.000    0.000    0.000    0.000 
#    0.000    0.000    0.000    0.000    0.000    0.000 
#
# Total GULP energy -111515.624628 kJ/mol
# GULP energy per Si atom -5575.781231 kJ/mol
# Density = 2.309381 g / cm^3
# Si number density = 23.146487 Si / 1000 Ang^3
#
#
#
# Elastic Constant Matrix: (Units=GPa)
#
#
# Indices 1 2 3 4 5 6 
#
# 1 95.5091 15.5301 25.4414 0.0000 0.0000 0.0000
# 2 15.5301 35.9556 2.9232 0.0000 0.0000 0.0000
# 3 25.4414 2.9232 143.0596 0.0000 0.0000 0.0000
# 4 0.0000 0.0000 0.0000 -137.9075 0.0000 0.0000
# 5 0.0000 0.0000 0.0000 0.0000 51.2370 0.0000
# 6 0.0000 0.0000 0.0000 0.0000 0.0000 16.5418
#
#
#
# Elastic Compliance Matrix: (Units=1/GPa)
#
#
# Indices 1 2 3 4 5 6 
#
# 1 0.011805 -0.004936 -0.001999 0.000000 0.000000 0.000000
# 2 -0.004936 0.029923 0.000266 0.000000 0.000000 0.000000
# 3 -0.001999 0.000266 0.007340 0.000000 0.000000 0.000000
# 4 0.000000 0.000000 0.000000 -0.007251 0.000000 0.000000
# 5 0.000000 0.000000 0.000000 0.000000 0.019517 0.000000
# 6 0.000000 0.000000 0.000000 0.000000 0.000000 0.060453
#
#
# Mechanical properties :
#
#
# Convention : Reuss Voigt Hill
#
# Bulk Modulus (GPa) = 27.98707 40.25706 34.12206
# Shear Modulus (GPa) = 34.00573 1.34958 17.67765
#
# Velocity S-wave (km/s) = 3.83711 0.76441 2.76656
# Velocity P-wave (km/s) = 5.63460 4.26722 4.99790
#
# Compressibility (1/GPa) = 0.03573079
#
# Stress axis : x y z
#
# Youngs Moduli (GPa) = 84.70799 33.41958 136.23853
#
# Poissons Ratio (x) = 0.16498 0.27228
# Poissons Ratio (y) = 0.41816 -0.03630
# Poissons Ratio (z) = 0.16929 -0.00891
#
# Static dielectric constant tensor:
#      x y z
#    x 2.416060 0.000000 0.000000 
#    y 0.000000 1.966970 0.000000 
#    z 0.000000 0.000000 1.899260 
# 
# From -- ./inp_files/4502.got.cif
#   From: 2010.05.17/outbox.cif.g08.bks.cpg/sg24_3_cif.got.tgz:4502.got - 2010.06.04 00:33:39.
