data_PCOD9335725
_publ_section_title
;
Structure prediction by ZEFSAII (Michael W. Deem and Ramdas Pophale) SiO2 
 PCOD9335725
Probable space group: I 21 21 21
;
_chemical_formula_sum "Si O2"
_cell_formula_units_Z 40
_cell_length_a 17.700368
_cell_length_b 5.299458
_cell_length_c 20.030012
_cell_angle_alpha 90.000000
_cell_angle_beta 90.000000
_cell_angle_gamma 90.000000
_cell_volume 1878.862332
_symmetry_space_group_name_H-M "I 21 21 21"
_symmetry_group_IT_number 24
_symmetry_cell_setting 'orthorhombic'
loop_
_space_group_symop_operation_xyz
x,y,z
-x,1/2-y,z
x,-y,1/2-z
1/2-x,y,-z
1/2+x,1/2+y,1/2+z
1/2-x,-y,1/2+z
1/2+x,1/2-y,-z
-x,1/2+y,1/2-z
loop_
_atom_site_type_symbol
_atom_site_label
_atom_site_fract_x
_atom_site_fract_y
_atom_site_fract_z
Si Si1 0.653482 0.981304 0.893250
Si Si2 0.000000 0.250000 0.425264
Si Si3 0.750000 0.280899 0.500000
Si Si4 0.325951 0.000000 0.250000
Si Si5 0.100607 0.113000 0.996946
Si Si6 0.044923 0.020837 0.855379
Si Si7 0.724790 0.000000 0.750000
O O1 0.627475 0.193102 0.946453
O O2 0.677193 0.034232 0.818075
O O3 0.577100 0.814118 0.887284
O O4 0.725519 0.867301 0.933093
O O5 0.971904 0.472478 0.472711
O O6 0.674047 0.436581 0.487114
O O7 0.380907 0.029818 0.312864
O O8 0.274928 0.751295 0.248912
O O9 0.074734 0.165780 0.922125
O O10 0.000000 0.250000 0.819114
O O11 0.000000 0.750000 0.865754
#
# Coordination Sequence:
#
# PCOD9335725 Si02
#       7
#     8   4   4   4   8   8   4
#     4  11  25  45  70 102 143 188 244 305 372 437
#     4  10  22  44  66 100 136 174 238 300 362 434
#     4  10  24  40  72 104 144 178 242 300 364 436
#     4  12  28  49  73 102 156 194 246 298 374 458
#     4  11  23  42  70 106 139 185 241 304 369 435
#     4  12  25  44  74 110 147 194 242 302 371 448
#     4  12  30  49  71 106 144 202 246 308 370 452
#
# _framework density 21.289480000000001
#
# number of rings (size 3 to 8) (size 9 to 14) (size 15 to 20)
#    0.000    0.800    1.000    5.400   14.000    0.000 
#    3.600    0.000    0.000    0.000    0.000    0.000 
#    0.000    0.000    0.000    0.000    0.000    0.000 
#
# Total GULP energy -111471.379308 kJ/mol
# GULP energy per Si atom -5573.568965 kJ/mol
# Density = 2.124102 g / cm^3
# Si number density = 21.289480 Si / 1000 Ang^3
#
#
#
# Elastic Constant Matrix: (Units=GPa)
#
#
# Indices 1 2 3 4 5 6 
#
# 1 114.4215 38.5687 69.4072 0.0000 0.0000 0.0000
# 2 38.5687 99.4889 31.3980 0.0000 0.0000 0.0000
# 3 69.4072 31.3980 150.3405 0.0000 0.0000 0.0000
# 4 0.0000 0.0000 0.0000 278.7616 0.0000 0.0000
# 5 0.0000 0.0000 0.0000 0.0000 13.3927 0.0000
# 6 0.0000 0.0000 0.0000 0.0000 0.0000 34.7284
#
#
#
# Elastic Compliance Matrix: (Units=1/GPa)
#
#
# Indices 1 2 3 4 5 6 
#
# 1 0.013133 -0.003402 -0.005353 0.000000 0.000000 0.000000
# 2 -0.003402 0.011642 -0.000861 0.000000 0.000000 0.000000
# 3 -0.005353 -0.000861 0.009302 0.000000 0.000000 0.000000
# 4 0.000000 0.000000 0.000000 0.003587 0.000000 0.000000
# 5 0.000000 0.000000 0.000000 0.000000 0.074668 0.000000
# 6 0.000000 0.000000 0.000000 0.000000 0.000000 0.028795
#
#
# Mechanical properties :
#
#
# Convention : Reuss Voigt Hill
#
# Bulk Modulus (GPa) = 67.35526 71.44430 69.39978
# Shear Modulus (GPa) = 30.24667 80.36834 55.30751
#
# Velocity S-wave (km/s) = 3.77335 6.15079 5.10247
# Velocity P-wave (km/s) = 7.11974 9.16920 8.20869
#
# Compressibility (1/GPa) = 0.01484665
#
# Stress axis : x y z
#
# Youngs Moduli (GPa) = 76.14250 85.89668 107.49817
#
# Poissons Ratio (x) = 0.29223 0.57540
# Poissons Ratio (y) = 0.25904 0.09253
# Poissons Ratio (z) = 0.40757 0.07393
#
# Static dielectric constant tensor:
#      x y z
#    x -41.590890 0.000000 0.000000 
#    y 0.000000 1.834240 0.000000 
#    z 0.000000 0.000000 1.815760 
# 
# From -- ./inp_files/28647.got.cif
#   From: 2010.05.17/outbox.cif.g08.bks.cpg/sg24_15_cif.got.tgz:28647.got - 2010.06.04 00:33:39.
