data_PCOD9335603
_publ_section_title
;
Structure prediction by ZEFSAII (Michael W. Deem and Ramdas Pophale) SiO2 
 PCOD9335603
Probable space group: I 21 21 21
;
_chemical_formula_sum "Si O2"
_cell_formula_units_Z 44
_cell_length_a 7.711044
_cell_length_b 16.320603
_cell_length_c 16.813378
_cell_angle_alpha 90.000000
_cell_angle_beta 90.000000
_cell_angle_gamma 90.000000
_cell_volume 2115.944922
_symmetry_space_group_name_H-M "I 21 21 21"
_symmetry_group_IT_number 24
_symmetry_cell_setting 'orthorhombic'
loop_
_space_group_symop_operation_xyz
x,y,z
-x,1/2-y,z
x,-y,1/2-z
1/2-x,y,-z
1/2+x,1/2+y,1/2+z
1/2-x,-y,1/2+z
1/2+x,1/2-y,-z
-x,1/2+y,1/2-z
loop_
_atom_site_type_symbol
_atom_site_label
_atom_site_fract_x
_atom_site_fract_y
_atom_site_fract_z
Si Si1 0.408744 0.836981 0.940951
Si Si2 0.821868 0.296693 0.261361
Si Si3 0.717718 0.538981 0.673254
Si Si4 0.106338 0.497894 0.413600
Si Si5 0.530116 0.924301 0.424905
Si Si6 0.000000 0.750000 0.667056
O O1 0.500000 0.750000 0.958028
O O2 0.323957 0.828919 0.852203
O O3 0.557890 0.907340 0.946080
O O4 0.250000 0.853853 0.000000
O O5 0.818855 0.369390 0.198499
O O6 0.660485 0.245303 0.228918
O O7 0.000000 0.250000 0.253700
O O8 0.806665 0.500000 0.750000
O O9 0.530631 0.502170 0.656950
O O10 0.850424 0.534215 0.601295
O O11 0.302708 0.523504 0.393938
O O12 0.050137 0.565146 0.480293
O O13 0.519178 0.831934 0.388579
#
# Coordination Sequence:
#
# PCOD9335603 Si02
#       6
#     8   8   8   8   8   4
#     4  11  25  42  65  97 132 186 231 289 345 408
#     4  10  22  42  64  95 133 171 223 278 339 410
#     4  11  21  40  65  95 127 177 216 275 341 406
#     4  11  23  45  65  97 136 175 232 279 350 412
#     4  10  24  42  68  98 133 175 222 289 340 432
#     4  10  22  46  68 104 132 172 230 280 362 410
#
# _framework density 20.794492999999999
#
# number of rings (size 3 to 8) (size 9 to 14) (size 15 to 20)
#    0.000    1.455    1.818    2.727    3.818    0.727 
#   27.818    0.000    0.000    0.000    0.000    0.000 
#    0.000    0.000    0.000    0.000    0.000    0.000 
#
# Total GULP energy -122542.355517 kJ/mol
# GULP energy per Si atom -5570.107069 kJ/mol
# Density = 2.074716 g / cm^3
# Si number density = 20.794493 Si / 1000 Ang^3
#
#
#
# Elastic Constant Matrix: (Units=GPa)
#
#
# Indices 1 2 3 4 5 6 
#
# 1 108.8701 39.7812 38.6625 0.0000 0.0000 0.0000
# 2 39.7812 89.9829 22.3359 0.0000 0.0000 0.0000
# 3 38.6625 22.3359 67.8901 0.0000 0.0000 0.0000
# 4 0.0000 0.0000 0.0000 28.6801 0.0000 0.0000
# 5 0.0000 0.0000 0.0000 0.0000 29.7110 0.0000
# 6 0.0000 0.0000 0.0000 0.0000 0.0000 27.9591
#
#
#
# Elastic Compliance Matrix: (Units=1/GPa)
#
#
# Indices 1 2 3 4 5 6 
#
# 1 0.012822 -0.004199 -0.005921 0.000000 0.000000 0.000000
# 2 -0.004199 0.013477 -0.002043 0.000000 0.000000 0.000000
# 3 -0.005921 -0.002043 0.018773 0.000000 0.000000 0.000000
# 4 0.000000 0.000000 0.000000 0.034867 0.000000 0.000000
# 5 0.000000 0.000000 0.000000 0.000000 0.033658 0.000000
# 6 0.000000 0.000000 0.000000 0.000000 0.000000 0.035767
#
#
# Mechanical properties :
#
#
# Convention : Reuss Voigt Hill
#
# Bulk Modulus (GPa) = 48.19765 52.03359 50.11562
# Shear Modulus (GPa) = 27.68493 28.33428 28.00960
#
# Velocity S-wave (km/s) = 3.65274 3.69533 3.67409
# Velocity P-wave (km/s) = 6.40456 6.57908 6.49241
#
# Compressibility (1/GPa) = 0.02074790
#
# Stress axis : x y z
#
# Youngs Moduli (GPa) = 77.99029 74.20275 53.26692
#
# Poissons Ratio (x) = 0.31158 0.31537
# Poissons Ratio (y) = 0.32748 0.10880
# Poissons Ratio (z) = 0.46175 0.15156
#
# Static dielectric constant tensor:
#      x y z
#    x 1.725720 0.000000 0.000000 
#    y 0.000000 1.806010 0.000000 
#    z 0.000000 0.000000 1.735590 
# 
# From -- ./inp_files/24722.got.cif
#   From: 2010.05.17/outbox.cif.g08.bks.cpg/sg24_13_cif.got.tgz:24722.got - 2010.06.04 00:33:39.
