data_PCOD9335157
_publ_section_title
;
Structure prediction by ZEFSAII (Michael W. Deem and Ramdas Pophale) SiO2 
 PCOD9335157
Probable space group: I 21 21 21
;
_chemical_formula_sum "Si O2"
_cell_formula_units_Z 64
_cell_length_a 11.835251
_cell_length_b 7.279414
_cell_length_c 29.116274
_cell_angle_alpha 90.000000
_cell_angle_beta 90.000000
_cell_angle_gamma 90.000000
_cell_volume 2508.474497
_symmetry_space_group_name_H-M "I 21 21 21"
_symmetry_group_IT_number 24
_symmetry_cell_setting 'orthorhombic'
loop_
_space_group_symop_operation_xyz
x,y,z
-x,1/2-y,z
x,-y,1/2-z
1/2-x,y,-z
1/2+x,1/2+y,1/2+z
1/2-x,-y,1/2+z
1/2+x,1/2-y,-z
-x,1/2+y,1/2-z
loop_
_atom_site_type_symbol
_atom_site_label
_atom_site_fract_x
_atom_site_fract_y
_atom_site_fract_z
Si Si1 0.987135 0.468482 0.527217
Si Si2 0.272816 0.967691 0.074342
Si Si3 0.419223 0.505779 0.303105
Si Si4 0.161037 0.912854 0.675595
Si Si5 0.660968 0.061605 0.397889
Si Si6 0.527728 0.529703 0.599726
Si Si7 0.166520 0.504551 0.040952
Si Si8 0.920740 0.427862 0.200036
O O1 0.041390 0.478416 0.578525
O O2 0.069394 0.576357 0.493080
O O3 0.000000 0.250000 0.514461
O O4 0.858056 0.522126 0.534022
O O5 0.290859 0.748468 0.080256
O O6 0.314439 0.045897 0.122896
O O7 0.141203 0.006210 0.070402
O O8 0.384448 0.500000 0.250000
O O9 0.387883 0.710150 0.318950
O O10 0.554410 0.467243 0.305900
O O11 0.352364 0.403556 0.343938
O O12 0.283877 0.912393 0.699419
O O13 0.746851 0.915905 0.421586
O O14 0.500000 0.750000 0.599780
O O15 0.423682 0.419622 0.578217
O O16 0.551638 0.469684 0.652190
O O17 0.250000 0.575089 0.000000
O O18 0.951912 0.500000 0.250000
O O19 0.000000 0.250000 0.195741
#
# Coordination Sequence:
#
# PCOD9335157 Si02
#       8
#     8   8   8   8   8   8   8   8
#     4   9  19  39  66  97 133 167 222 285 343 407
#     4  10  21  41  69  97 131 184 221 285 345 414
#     4  11  24  40  67 103 138 183 228 279 338 413
#     4  10  23  43  65  98 139 185 214 284 343 404
#     4  10  22  39  66  99 131 178 225 278 344 402
#     4  10  24  44  64  94 138 178 223 285 345 411
#     4  10  23  43  65  93 132 172 223 289 344 411
#     4  10  23  45  67  93 133 178 222 273 328 403
#
# _framework density 25.513514000000001
#
# number of rings (size 3 to 8) (size 9 to 14) (size 15 to 20)
#    0.000    2.000    1.250    0.375    7.000    5.000 
#    6.750    0.000    0.000    0.000    0.000    0.000 
#    0.000    0.000    0.000    0.000    0.000    0.000 
#
# Total GULP energy -178354.834460 kJ/mol
# GULP energy per Si atom -5573.588577 kJ/mol
# Density = 2.545544 g / cm^3
# Si number density = 25.513514 Si / 1000 Ang^3
#
#
#
# Elastic Constant Matrix: (Units=GPa)
#
#
# Indices 1 2 3 4 5 6 
#
# 1 204.0681 23.1748 86.3445 0.0000 0.0000 0.0000
# 2 23.1748 49.8535 19.0566 0.0000 0.0000 0.0000
# 3 86.3445 19.0566 194.3336 0.0000 0.0000 0.0000
# 4 0.0000 0.0000 0.0000 16.5043 0.0000 0.0000
# 5 0.0000 0.0000 0.0000 0.0000 33.5550 0.0000
# 6 0.0000 0.0000 0.0000 0.0000 0.0000 24.3722
#
#
#
# Elastic Compliance Matrix: (Units=1/GPa)
#
#
# Indices 1 2 3 4 5 6 
#
# 1 0.006204 -0.001901 -0.002570 0.000000 0.000000 0.000000
# 2 -0.001901 0.021423 -0.001256 0.000000 0.000000 0.000000
# 3 -0.002570 -0.001256 0.006411 0.000000 0.000000 0.000000
# 4 0.000000 0.000000 0.000000 0.060590 0.000000 0.000000
# 5 0.000000 0.000000 0.000000 0.000000 0.029802 0.000000
# 6 0.000000 0.000000 0.000000 0.000000 0.000000 0.041030
#
#
# Mechanical properties :
#
#
# Convention : Reuss Voigt Hill
#
# Bulk Modulus (GPa) = 44.28173 78.37853 61.33013
# Shear Modulus (GPa) = 27.10884 36.19824 31.65354
#
# Velocity S-wave (km/s) = 3.26318 3.77077 3.52612
# Velocity P-wave (km/s) = 5.62065 7.05304 6.37719
#
# Compressibility (1/GPa) = 0.02258268
#
# Stress axis : x y z
#
# Youngs Moduli (GPa) = 161.19624 46.67930 155.98753
#
# Poissons Ratio (x) = 0.08876 0.40087
# Poissons Ratio (y) = 0.30651 0.19591
# Poissons Ratio (z) = 0.41425 0.05862
#
# Static dielectric constant tensor:
#      x y z
#    x 2.130120 0.000000 0.000000 
#    y 0.000000 2.310600 0.000000 
#    z 0.000000 0.000000 2.330580 
# 
# From -- ./inp_files/38624.got.cif
#   From: 2010.05.17/outbox.cif.g08.bks.cpg/sg24_20_cif.got.tgz:38624.got - 2010.06.04 00:33:39.
