data_PCOD9335282
_publ_section_title
;
Structure prediction by ZEFSAII (Michael W. Deem and Ramdas Pophale) SiO2 
 PCOD9335282
Probable space group: I 21 21 21
;
_chemical_formula_sum "Si O2"
_cell_formula_units_Z 36
_cell_length_a 8.741787
_cell_length_b 21.510311
_cell_length_c 7.658490
_cell_angle_alpha 90.000000
_cell_angle_beta 90.000000
_cell_angle_gamma 90.000000
_cell_volume 1440.091409
_symmetry_space_group_name_H-M "I 21 21 21"
_symmetry_group_IT_number 24
_symmetry_cell_setting 'orthorhombic'
loop_
_space_group_symop_operation_xyz
x,y,z
-x,1/2-y,z
x,-y,1/2-z
1/2-x,y,-z
1/2+x,1/2+y,1/2+z
1/2-x,-y,1/2+z
1/2+x,1/2-y,-z
-x,1/2+y,1/2-z
loop_
_atom_site_type_symbol
_atom_site_label
_atom_site_fract_x
_atom_site_fract_y
_atom_site_fract_z
Si Si1 0.327080 0.760472 0.672362
Si Si2 0.250000 0.156745 0.500000
Si Si3 0.820594 0.119758 0.244778
Si Si4 0.413228 0.957307 0.576266
Si Si5 0.527412 0.923123 0.104182
O O1 0.500000 0.750000 0.621767
O O2 0.250000 0.787690 0.500000
O O3 0.270799 0.690425 0.710911
O O4 0.320728 0.800079 0.849112
O O5 0.368775 0.114652 0.390014
O O6 0.660763 0.082844 0.253440
O O7 0.897000 0.109135 0.433161
O O8 0.956419 0.093415 0.121647
O O9 0.250000 0.935791 0.500000
O O10 0.386962 0.000000 0.750000
O O11 0.483339 0.007212 0.443329
#
# Coordination Sequence:
#
# PCOD9335282 Si02
#       5
#     8   4   8   8   8
#     4  12  29  48  73 116 154 202 264 321 399 474
#     4  12  24  48  88 106 156 218 252 342 392 474
#     4  10  23  46  72 108 156 195 254 322 392 474
#     4  10  22  46  73 108 148 199 253 319 390 471
#     4  10  21  45  79 111 140 201 268 309 398 476
#
# _framework density 24.998411999999998
#
# number of rings (size 3 to 8) (size 9 to 14) (size 15 to 20)
#    0.000    1.333    3.333    1.333    3.111    0.889 
#   16.000    0.000    0.000    0.000    0.000    0.000 
#    0.000    0.000    0.000    0.000    0.000    0.000 
#
# Total GULP energy -100694.789474 kJ/mol
# GULP energy per Si atom -5594.154971 kJ/mol
# Density = 2.494151 g / cm^3
# Si number density = 24.998412 Si / 1000 Ang^3
#
#
#
# Elastic Constant Matrix: (Units=GPa)
#
#
# Indices 1 2 3 4 5 6 
#
# 1 163.4950 45.6765 34.5532 0.0002 0.0003 -0.0001
# 2 45.6765 121.0325 7.3167 0.0000 -0.0002 0.0000
# 3 34.5532 7.3167 108.8724 -0.0012 0.0044 -0.0007
# 4 0.0002 0.0000 -0.0012 -2.3721 0.0013 0.0000
# 5 0.0003 -0.0002 0.0044 0.0013 53.9490 0.0002
# 6 -0.0001 0.0000 -0.0007 0.0000 0.0002 53.1958
#
#
#
# Elastic Compliance Matrix: (Units=1/GPa)
#
#
# Indices 1 2 3 4 5 6 
#
# 1 0.007303 -0.002627 -0.002141 0.000002 0.000000 0.000000
# 2 -0.002627 0.009241 0.000213 0.000000 0.000000 0.000000
# 3 -0.002141 0.000213 0.009850 -0.000005 -0.000001 0.000000
# 4 0.000002 0.000000 -0.000005 -0.421564 0.000010 0.000000
# 5 0.000000 0.000000 -0.000001 0.000010 0.018536 0.000000
# 6 0.000000 0.000000 0.000000 0.000000 0.000000 0.018798
#
#
# Mechanical properties :
#
#
# Convention : Reuss Voigt Hill
#
# Bulk Modulus (GPa) = 57.85894 63.16585 60.51240
# Shear Modulus (GPa) = -14.57876 41.34477 13.38300
#
# Velocity S-wave (km/s) = -2.41755 4.07122 2.31628
# Velocity P-wave (km/s) = 3.92461 6.88641 5.60469
#
# Compressibility (1/GPa) = 0.01728341
#
# Stress axis : x y z
#
# Youngs Moduli (GPa) = 136.93563 108.21785 101.51942
#
# Poissons Ratio (x) = 0.28424 0.21737
# Poissons Ratio (y) = 0.35967 -0.02158
# Poissons Ratio (z) = 0.29320 -0.02301
#
# Static dielectric constant tensor:
#      x y z
#    x 2.015840 0.000000 0.000000 
#    y 0.000000 2.048610 0.000000 
#    z 0.000000 0.000000 2.026100 
# 
# From -- ./inp_files/9088.got.cif
#   From: 2010.05.17/outbox.cif.g08.bks.cpg/sg24_5_cif.got.tgz:9088.got - 2010.06.04 00:33:39.
