data_PCOD9335928
_publ_section_title
;
Structure prediction by ZEFSAII (Michael W. Deem and Ramdas Pophale) SiO2 
 PCOD9335928
Probable space group: I 21 21 21
;
_chemical_formula_sum "Si O2"
_cell_formula_units_Z 64
_cell_length_a 8.653802
_cell_length_b 31.451181
_cell_length_c 12.128850
_cell_angle_alpha 90.000000
_cell_angle_beta 90.000000
_cell_angle_gamma 90.000000
_cell_volume 3301.136916
_symmetry_space_group_name_H-M "I 21 21 21"
_symmetry_group_IT_number 24
_symmetry_cell_setting 'orthorhombic'
loop_
_space_group_symop_operation_xyz
x,y,z
-x,1/2-y,z
x,-y,1/2-z
1/2-x,y,-z
1/2+x,1/2+y,1/2+z
1/2-x,-y,1/2+z
1/2+x,1/2-y,-z
-x,1/2+y,1/2-z
loop_
_atom_site_type_symbol
_atom_site_label
_atom_site_fract_x
_atom_site_fract_y
_atom_site_fract_z
Si Si1 0.434777 0.294351 0.264144
Si Si2 0.063761 0.621239 0.370730
Si Si3 0.067552 0.818771 1.000000
Si Si4 0.566508 0.451444 0.282175
Si Si5 0.431050 0.412145 0.500000
Si Si6 0.436240 0.378761 0.129269
Si Si7 0.933491 0.548556 0.217824
Si Si8 0.934777 0.794351 0.235855
O O1 0.500000 0.250000 0.219346
O O2 0.495337 0.300263 0.388501
O O3 0.481679 0.335577 0.193097
O O4 0.250000 0.292633 0.265572
O O5 0.250000 0.616738 0.359365
O O6 0.027232 0.623887 0.500000
O O7 0.018321 0.664423 0.306902
O O8 0.983645 0.581221 0.313003
O O9 0.028510 0.868805 0.999999
O O10 0.995335 0.800263 0.111497
O O11 0.250000 0.811401 0.000000
O O12 0.533733 0.500000 0.250000
O O13 0.474846 0.438174 0.391420
O O14 0.516356 0.418779 0.186996
O O15 0.750000 0.447382 0.302589
O O16 0.250000 0.401027 0.500000
O O17 0.474847 0.438174 0.608580
O O18 0.966266 0.500000 0.250000
O O19 0.000000 0.750000 0.280652
#
# Coordination Sequence:
#
# PCOD9335928 Si02
#       8
#     8   8   8   8   8   8   8   8
#     4  11  23  40  63  92 127 166 211 261 314 376
#     4  10  23  43  65  91 125 167 214 261 311 374
#     4  12  23  39  64  94 129 164 206 261 319 377
#     4  11  25  43  65  95 130 167 210 261 314 371
#     4  12  24  41  67  96 128 168 210 259 316 377
#     4  10  23  43  65  91 125 167 214 261 311 374
#     4  11  25  43  65  95 130 167 210 261 314 371
#     4  11  23  40  63  92 127 166 211 261 314 376
#
# _framework density 19.387262
#
# number of rings (size 3 to 8) (size 9 to 14) (size 15 to 20)
#    0.000    1.000    2.500    4.125    1.750    4.000 
#    0.000    0.000    0.000    0.000    0.000    0.000 
#    0.000    0.000    0.000    0.000    0.000    0.000 
#
# Total GULP energy -179042.137235 kJ/mol
# GULP energy per Si atom -5595.066789 kJ/mol
# Density = 1.934314 g / cm^3
# Si number density = 19.387262 Si / 1000 Ang^3
#
#
#
# Elastic Constant Matrix: (Units=GPa)
#
#
# Indices 1 2 3 4 5 6 
#
# 1 49.8937 38.6197 27.1062 -0.0001 0.0000 0.0000
# 2 38.6197 152.0773 51.9865 0.0001 -0.0004 0.0000
# 3 27.1062 51.9865 110.9083 0.0000 -0.0029 0.0000
# 4 -0.0001 0.0001 0.0000 49.4615 -0.0027 -0.0001
# 5 0.0000 -0.0004 -0.0029 -0.0027 134.4595 0.0001
# 6 0.0000 0.0000 0.0000 -0.0001 0.0001 34.2250
#
#
#
# Elastic Compliance Matrix: (Units=1/GPa)
#
#
# Indices 1 2 3 4 5 6 
#
# 1 0.026308 -0.005338 -0.003928 0.000000 0.000000 0.000000
# 2 -0.005338 0.008914 -0.002873 0.000000 0.000000 0.000000
# 3 -0.003928 -0.002873 0.011323 0.000000 0.000000 0.000000
# 4 0.000000 0.000000 0.000000 0.020218 0.000000 0.000000
# 5 0.000000 0.000000 0.000000 0.000000 0.007437 0.000000
# 6 0.000000 0.000000 0.000000 0.000000 0.000000 0.029218
#
#
# Mechanical properties :
#
#
# Convention : Reuss Voigt Hill
#
# Bulk Modulus (GPa) = 44.91032 60.92268 52.91650
# Shear Modulus (GPa) = 37.00433 56.64031 46.82232
#
# Velocity S-wave (km/s) = 4.37360 5.41097 4.91971
# Velocity P-wave (km/s) = 6.97995 8.39824 7.72173
#
# Compressibility (1/GPa) = 0.02226660
#
# Stress axis : x y z
#
# Youngs Moduli (GPa) = 38.01058 112.18922 88.31424
#
# Poissons Ratio (x) = 0.59891 0.34686
# Poissons Ratio (y) = 0.20291 0.25376
# Poissons Ratio (z) = 0.14929 0.32236
#
# Static dielectric constant tensor:
#      x y z
#    x 1.651710 0.000000 0.000000 
#    y 0.000000 1.667270 0.000000 
#    z 0.000000 0.000000 1.647170 
# 
# From -- ./inp_files/18906.got.cif
#   From: 2010.05.17/outbox.cif.g08.bks.cpg/sg24_10_cif.got.tgz:18906.got - 2010.06.04 00:33:39.
