data_PCOD9335726
_publ_section_title
;
Structure prediction by ZEFSAII (Michael W. Deem and Ramdas Pophale) SiO2 
 PCOD9335726
Probable space group: I 21 21 21
;
_chemical_formula_sum "Si O2"
_cell_formula_units_Z 40
_cell_length_a 5.547946
_cell_length_b 19.150204
_cell_length_c 14.083277
_cell_angle_alpha 90.000000
_cell_angle_beta 90.000000
_cell_angle_gamma 90.000000
_cell_volume 1496.267874
_symmetry_space_group_name_H-M "I 21 21 21"
_symmetry_group_IT_number 24
_symmetry_cell_setting 'orthorhombic'
loop_
_space_group_symop_operation_xyz
x,y,z
-x,1/2-y,z
x,-y,1/2-z
1/2-x,y,-z
1/2+x,1/2+y,1/2+z
1/2-x,-y,1/2+z
1/2+x,1/2-y,-z
-x,1/2+y,1/2-z
loop_
_atom_site_type_symbol
_atom_site_label
_atom_site_fract_x
_atom_site_fract_y
_atom_site_fract_z
Si Si1 0.897133 0.671829 0.628794
Si Si2 0.750000 0.787985 0.000000
Si Si3 0.699909 0.849956 0.192873
Si Si4 0.494778 0.972127 0.411840
Si Si5 0.500000 0.250000 0.806730
Si Si6 0.008919 0.524666 0.122172
O O1 0.970063 0.609030 0.560697
O O2 0.613762 0.687546 0.633973
O O3 0.000000 0.750000 0.606482
O O4 0.987810 0.639014 0.730615
O O5 0.500000 0.750000 0.964890
O O6 0.866587 0.832648 0.914530
O O7 0.918798 0.904174 0.175302
O O8 0.798876 0.779355 0.238685
O O9 0.502895 0.020277 0.506412
O O10 0.748011 0.980602 0.358915
O O11 0.254899 0.995233 0.356197
#
# Coordination Sequence:
#
# PCOD9335726 Si02
#       6
#     8   4   8   8   4   8
#     4  10  24  44  72 103 141 190 239 311 360 436
#     4  12  24  38  64  96 136 182 236 282 338 416
#     4  11  24  43  65 101 141 189 234 291 360 420
#     4  10  23  47  69 104 140 188 243 291 364 431
#     4  10  22  44  66 100 140 178 246 296 362 418
#     4  10  24  44  71  98 147 187 233 300 353 444
#
# _framework density 26.733179
#
# number of rings (size 3 to 8) (size 9 to 14) (size 15 to 20)
#    0.000    1.600    1.000    3.000    8.400    2.400 
#    0.000    4.000    0.000    0.000    0.000    0.000 
#    0.000    0.000    0.000    0.000    0.000    0.000 
#
# Total GULP energy -111457.197794 kJ/mol
# GULP energy per Si atom -5572.859890 kJ/mol
# Density = 2.667233 g / cm^3
# Si number density = 26.733179 Si / 1000 Ang^3
#
#
#
# Elastic Constant Matrix: (Units=GPa)
#
#
# Indices 1 2 3 4 5 6 
#
# 1 165.1341 33.3462 22.7739 0.0000 0.0000 0.0000
# 2 33.3462 104.4724 22.2055 0.0000 0.0000 0.0000
# 3 22.7739 22.2055 102.0151 -0.0001 0.0000 0.0000
# 4 0.0000 0.0000 -0.0001 24.0414 0.0000 0.0000
# 5 0.0000 0.0000 0.0000 0.0000 13.9359 0.0000
# 6 0.0000 0.0000 0.0000 0.0000 0.0000 45.5161
#
#
#
# Elastic Compliance Matrix: (Units=1/GPa)
#
#
# Indices 1 2 3 4 5 6 
#
# 1 0.006581 -0.001875 -0.001061 0.000000 0.000000 0.000000
# 2 -0.001875 0.010570 -0.001882 0.000000 0.000000 0.000000
# 3 -0.001061 -0.001882 0.010449 0.000000 0.000000 0.000000
# 4 0.000000 0.000000 0.000000 0.041595 0.000000 0.000000
# 5 0.000000 0.000000 0.000000 0.000000 0.071757 0.000000
# 6 0.000000 0.000000 0.000000 0.000000 0.000000 0.021970
#
#
# Mechanical properties :
#
#
# Convention : Reuss Voigt Hill
#
# Bulk Modulus (GPa) = 55.66770 58.69696 57.18233
# Shear Modulus (GPa) = 28.00388 36.25176 32.12782
#
# Velocity S-wave (km/s) = 3.24007 3.68647 3.47045
# Velocity P-wave (km/s) = 5.90475 6.33437 6.12333
#
# Compressibility (1/GPa) = 0.01796374
#
# Stress axis : x y z
#
# Youngs Moduli (GPa) = 151.96155 94.60346 95.70265
#
# Poissons Ratio (x) = 0.17738 0.10153
# Poissons Ratio (y) = 0.28492 0.18014
# Poissons Ratio (z) = 0.16122 0.17807
#
# Static dielectric constant tensor:
#      x y z
#    x 2.196280 0.000000 0.000000 
#    y 0.000000 2.145360 0.000000 
#    z 0.000000 0.000000 2.287270 
# 
# From -- ./inp_files/28619.got.cif
#   From: 2010.05.17/outbox.cif.g08.bks.cpg/sg24_15_cif.got.tgz:28619.got - 2010.06.04 00:33:39.
