data_PCOD9335925
_publ_section_title
;
Structure prediction by ZEFSAII (Michael W. Deem and Ramdas Pophale) SiO2 
 PCOD9335925
Probable space group: I 21 21 21
;
_chemical_formula_sum "Si O2"
_cell_formula_units_Z 32
_cell_length_a 8.726655
_cell_length_b 9.668047
_cell_length_c 13.836725
_cell_angle_alpha 90.000000
_cell_angle_beta 90.000000
_cell_angle_gamma 90.000000
_cell_volume 1167.400485
_symmetry_space_group_name_H-M "I 21 21 21"
_symmetry_group_IT_number 24
_symmetry_cell_setting 'orthorhombic'
loop_
_space_group_symop_operation_xyz
x,y,z
-x,1/2-y,z
x,-y,1/2-z
1/2-x,y,-z
1/2+x,1/2+y,1/2+z
1/2-x,-y,1/2+z
1/2+x,1/2-y,-z
-x,1/2+y,1/2-z
loop_
_atom_site_type_symbol
_atom_site_label
_atom_site_fract_x
_atom_site_fract_y
_atom_site_fract_z
Si Si1 0.075544 0.600380 0.470892
Si Si2 0.341081 0.306835 0.784669
Si Si3 0.817475 0.757208 0.900122
Si Si4 0.847091 0.537735 0.643042
O O1 0.250000 0.606987 0.500000
O O2 0.097612 0.572842 0.356309
O O3 0.000000 0.750000 0.464183
O O4 0.974015 0.541826 0.558637
O O5 0.500000 0.250000 0.741879
O O6 0.228001 0.335960 0.696769
O O7 0.248316 0.180456 0.842306
O O8 0.752276 0.599852 0.885996
O O9 0.000000 0.750000 0.906925
O O10 0.750000 0.813368 0.000000
O O11 0.908207 0.500000 0.750000
#
# Coordination Sequence:
#
# PCOD9335925 Si02
#       4
#     8   8   8   8
#     4  11  22  38  73 105 145 183 254 313 378 442
#     4  10  23  42  73 107 143 188 258 317 376 456
#     4  11  26  46  75  98 155 203 254 302 391 458
#     4  10  24  43  72 111 144 201 243 314 384 458
#
# _framework density 27.411331000000001
#
# number of rings (size 3 to 8) (size 9 to 14) (size 15 to 20)
#    0.000    1.500    2.500    0.750   14.000    1.000 
#    0.000    0.000    0.000    0.000    0.000    0.000 
#    0.000    0.000    0.000    0.000    0.000    0.000 
#
# Total GULP energy -89321.616618 kJ/mol
# GULP energy per Si atom -5582.601039 kJ/mol
# Density = 2.734894 g / cm^3
# Si number density = 27.411331 Si / 1000 Ang^3
#
#
#
# Elastic Constant Matrix: (Units=GPa)
#
#
# Indices 1 2 3 4 5 6 
#
# 1 183.2826 23.4029 86.5480 0.0000 0.0000 0.0000
# 2 23.4029 126.4654 36.2586 0.0000 0.0000 0.0000
# 3 86.5480 36.2586 245.4471 0.0000 0.0000 0.0000
# 4 0.0000 0.0000 0.0000 43.0255 0.0000 0.0000
# 5 0.0000 0.0000 0.0000 0.0000 96.7189 0.0000
# 6 0.0000 0.0000 0.0000 0.0000 0.0000 26.1522
#
#
#
# Elastic Compliance Matrix: (Units=1/GPa)
#
#
# Indices 1 2 3 4 5 6 
#
# 1 0.006586 -0.000577 -0.002237 0.000000 0.000000 0.000000
# 2 -0.000577 0.008308 -0.001024 0.000000 0.000000 0.000000
# 3 -0.002237 -0.001024 0.005014 0.000000 0.000000 0.000000
# 4 0.000000 0.000000 0.000000 0.023242 0.000000 0.000000
# 5 0.000000 0.000000 0.000000 0.000000 0.010339 0.000000
# 6 0.000000 0.000000 0.000000 0.000000 0.000000 0.038238
#
#
# Mechanical properties :
#
#
# Convention : Reuss Voigt Hill
#
# Bulk Modulus (GPa) = 81.75420 94.17934 87.96677
# Shear Modulus (GPa) = 48.31825 60.44501 54.38163
#
# Velocity S-wave (km/s) = 4.20302 4.70095 4.45894
# Velocity P-wave (km/s) = 7.31051 7.99360 7.65968
#
# Compressibility (1/GPa) = 0.01223179
#
# Stress axis : x y z
#
# Youngs Moduli (GPa) = 151.83371 120.37115 199.43216
#
# Poissons Ratio (x) = 0.06950 0.44614
# Poissons Ratio (y) = 0.08767 0.20415
# Poissons Ratio (z) = 0.33966 0.12322
#
# Static dielectric constant tensor:
#      x y z
#    x 2.055780 0.000000 0.000000 
#    y 0.000000 2.172910 0.000000 
#    z 0.000000 0.000000 2.352500 
# 
# From -- ./inp_files/24309.got.cif
#   From: 2010.05.17/outbox.cif.g08.bks.cpg/sg24_13_cif.got.tgz:24309.got - 2010.06.04 00:33:39.
