data_PCOD9335803
_publ_section_title
;
Structure prediction by ZEFSAII (Michael W. Deem and Ramdas Pophale) SiO2 
 PCOD9335803
Probable space group: I 21 21 21
;
_chemical_formula_sum "Si O2"
_cell_formula_units_Z 64
_cell_length_a 12.864244
_cell_length_b 13.603864
_cell_length_c 14.300140
_cell_angle_alpha 90.000000
_cell_angle_beta 90.000000
_cell_angle_gamma 90.000000
_cell_volume 2502.573490
_symmetry_space_group_name_H-M "I 21 21 21"
_symmetry_group_IT_number 24
_symmetry_cell_setting 'orthorhombic'
loop_
_space_group_symop_operation_xyz
x,y,z
-x,1/2-y,z
x,-y,1/2-z
1/2-x,y,-z
1/2+x,1/2+y,1/2+z
1/2-x,-y,1/2+z
1/2+x,1/2-y,-z
-x,1/2+y,1/2-z
loop_
_atom_site_type_symbol
_atom_site_label
_atom_site_fract_x
_atom_site_fract_y
_atom_site_fract_z
Si Si1 0.091858 0.401370 0.811940
Si Si2 0.108220 0.690920 0.936843
Si Si3 0.878113 0.240824 0.361917
Si Si4 0.787227 0.457608 0.348134
Si Si5 0.283393 0.163825 0.899478
Si Si6 0.623278 0.664596 0.225171
Si Si7 0.123316 0.530200 0.499590
Si Si8 0.161151 0.643369 0.322274
O O1 0.098586 0.500000 0.750000
O O2 0.994567 0.349166 0.759525
O O3 0.213691 0.371398 0.822171
O O4 0.067094 0.401786 0.923224
O O5 0.159291 0.713151 0.035988
O O6 0.094804 0.574773 0.952257
O O7 0.000000 0.750000 0.938475
O O8 0.151151 0.740043 0.840679
O O9 0.838847 0.352205 0.353155
O O10 0.860817 0.154036 0.287231
O O11 0.000000 0.250000 0.362752
O O12 0.823018 0.500000 0.250000
O O13 0.813177 0.549174 0.413807
O O14 0.664849 0.427359 0.337711
O O15 0.193098 0.161814 0.819431
O O16 0.361332 0.245457 0.859495
O O17 0.250000 0.202974 0.000000
O O18 0.250000 0.532853 0.500000
O O19 0.105112 0.566689 0.392598
#
# Coordination Sequence:
#
# PCOD9335803 Si02
#       8
#     8   8   8   8   8   8   8   8
#     4  11  24  43  75 113 157 204 257 328 400 471
#     4  11  27  45  72 113 151 199 265 327 396 471
#     4  11  26  50  71 104 146 206 266 321 387 469
#     4  10  22  46  73 108 145 197 253 318 397 472
#     4  11  24  44  75 107 154 200 254 322 389 481
#     4  11  25  45  73 115 162 194 257 329 406 473
#     4  10  25  46  74 110 157 208 261 320 398 479
#     4  11  25  50  73 109 156 208 272 316 389 484
#
# _framework density 25.573675000000001
#
# number of rings (size 3 to 8) (size 9 to 14) (size 15 to 20)
#    0.000    1.250    2.500    3.000   10.500    0.000 
#    9.000    0.000    0.000    0.000    0.000    0.000 
#    0.000    0.000    0.000    0.000    0.000    0.000 
#
# Total GULP energy -178166.662669 kJ/mol
# GULP energy per Si atom -5567.708208 kJ/mol
# Density = 2.551547 g / cm^3
# Si number density = 25.573675 Si / 1000 Ang^3
#
#
#
# Elastic Constant Matrix: (Units=GPa)
#
#
# Indices 1 2 3 4 5 6 
#
# 1 68.6168 29.1940 33.9082 0.0000 0.0000 0.0000
# 2 29.1940 122.5530 46.3541 0.0000 0.0000 0.0000
# 3 33.9082 46.3541 163.4896 0.0000 0.0000 0.0000
# 4 0.0000 0.0000 0.0000 22.2660 0.0000 0.0000
# 5 0.0000 0.0000 0.0000 0.0000 -6.1953 0.0000
# 6 0.0000 0.0000 0.0000 0.0000 0.0000 32.1102
#
#
#
# Elastic Compliance Matrix: (Units=1/GPa)
#
#
# Indices 1 2 3 4 5 6 
#
# 1 0.017218 -0.003081 -0.002697 0.000000 0.000000 0.000000
# 2 -0.003081 0.009691 -0.002109 0.000000 0.000000 0.000000
# 3 -0.002697 -0.002109 0.007274 0.000000 0.000000 0.000000
# 4 0.000000 0.000000 0.000000 0.044912 0.000000 0.000000
# 5 0.000000 0.000000 0.000000 0.000000 -0.161412 0.000000
# 6 0.000000 0.000000 0.000000 0.000000 0.000000 0.031143
#
#
# Mechanical properties :
#
#
# Convention : Reuss Voigt Hill
#
# Bulk Modulus (GPa) = 54.32359 63.73021 59.02690
# Shear Modulus (GPa) = -170.85584 25.98305 -72.43640
#
# Velocity S-wave (km/s) = -8.18256 3.19095 -5.32786
# Velocity P-wave (km/s) = 8.24526 6.20891 3.83626
#
# Compressibility (1/GPa) = 0.01840821
#
# Stress axis : x y z
#
# Youngs Moduli (GPa) = 58.08011 103.18500 137.47753
#
# Poissons Ratio (x) = 0.31794 0.37082
# Poissons Ratio (y) = 0.17896 0.28990
# Poissons Ratio (z) = 0.15666 0.21759
#
# Static dielectric constant tensor:
#      x y z
#    x 2.134970 0.000000 0.000000 
#    y 0.000000 2.906910 0.000000 
#    z 0.000000 0.000000 2.084400 
# 
# From -- ./inp_files/27243.got.cif
#   From: 2010.05.17/outbox.cif.g08.bks.cpg/sg24_14_cif.got.tgz:27243.got - 2010.06.04 00:33:39.
