data_PCOD9335935
_publ_section_title
;
Structure prediction by ZEFSAII (Michael W. Deem and Ramdas Pophale) SiO2 
 PCOD9335935
Probable space group: I 21 21 21
;
_chemical_formula_sum "Si O2"
_cell_formula_units_Z 48
_cell_length_a 8.939192
_cell_length_b 14.093102
_cell_length_c 18.015512
_cell_angle_alpha 90.000000
_cell_angle_beta 90.000000
_cell_angle_gamma 90.000000
_cell_volume 2269.611220
_symmetry_space_group_name_H-M "I 21 21 21"
_symmetry_group_IT_number 24
_symmetry_cell_setting 'orthorhombic'
loop_
_space_group_symop_operation_xyz
x,y,z
-x,1/2-y,z
x,-y,1/2-z
1/2-x,y,-z
1/2+x,1/2+y,1/2+z
1/2-x,-y,1/2+z
1/2+x,1/2-y,-z
-x,1/2+y,1/2-z
loop_
_atom_site_type_symbol
_atom_site_label
_atom_site_fract_x
_atom_site_fract_y
_atom_site_fract_z
Si Si1 0.416879 0.656819 0.972787
Si Si2 0.261925 0.077973 0.693964
Si Si3 0.574083 0.846100 0.799755
Si Si4 0.383263 0.672364 0.442888
Si Si5 0.389115 0.996822 0.452511
Si Si6 0.825810 0.769068 0.721686
O O1 0.500000 0.750000 0.003984
O O2 0.395219 0.673331 0.885580
O O3 0.250000 0.642848 0.000000
O O4 0.520470 0.568937 0.994842
O O5 0.443477 0.075896 0.694442
O O6 0.186091 0.055689 0.615202
O O7 0.229644 0.178156 0.731741
O O8 0.201848 0.000000 0.750000
O O9 0.500000 0.750000 0.765664
O O10 0.730799 0.856082 0.757140
O O11 0.500000 0.750000 0.474421
O O12 0.250000 0.649940 0.500000
O O13 0.490335 0.581671 0.426447
O O14 0.313774 0.716795 0.367228
O O15 0.250000 0.954746 0.500000
O O16 0.000000 0.750000 0.732374
#
# Coordination Sequence:
#
# PCOD9335935 Si02
#       6
#     8   8   8   8   8   8
#     4  11  24  40  66 101 137 177 222 278 357 424
#     4  11  23  42  66  97 136 179 228 288 351 417
#     4   9  21  40  63  93 132 172 217 274 346 420
#     4  11  25  47  73 104 141 191 242 294 352 415
#     4  12  25  45  70 105 142 184 236 294 353 425
#     4  10  23  43  67  99 137 180 235 283 352 420
#
# _framework density 21.148996
#
# number of rings (size 3 to 8) (size 9 to 14) (size 15 to 20)
#    0.000    1.333    1.667    3.500    7.000    3.333 
#    3.000    0.833    0.000    0.000    0.000    0.000 
#    0.000    0.000    0.000    0.000    0.000    0.000 
#
# Total GULP energy -133613.053732 kJ/mol
# GULP energy per Si atom -5567.210572 kJ/mol
# Density = 2.110086 g / cm^3
# Si number density = 21.148996 Si / 1000 Ang^3
#
#
#
# Elastic Constant Matrix: (Units=GPa)
#
#
# Indices 1 2 3 4 5 6 
#
# 1 138.1363 14.3035 69.6214 0.0000 0.0000 0.0000
# 2 14.3035 43.7270 17.3845 0.0000 0.0000 0.0000
# 3 69.6214 17.3845 95.9633 0.0000 0.0000 0.0000
# 4 0.0000 0.0000 0.0000 12.1956 0.0000 0.0000
# 5 0.0000 0.0000 0.0000 0.0000 -39.1945 0.0000
# 6 0.0000 0.0000 0.0000 0.0000 0.0000 233.9834
#
#
#
# Elastic Compliance Matrix: (Units=1/GPa)
#
#
# Indices 1 2 3 4 5 6 
#
# 1 0.011421 -0.000476 -0.008200 0.000000 0.000000 0.000000
# 2 -0.000476 0.024664 -0.004123 0.000000 0.000000 0.000000
# 3 -0.008200 -0.004123 0.017117 0.000000 0.000000 0.000000
# 4 0.000000 0.000000 0.000000 0.081997 0.000000 0.000000
# 5 0.000000 0.000000 0.000000 0.000000 -0.025514 0.000000
# 6 0.000000 0.000000 0.000000 0.000000 0.000000 0.004274
#
#
# Mechanical properties :
#
#
# Convention : Reuss Voigt Hill
#
# Bulk Modulus (GPa) = 36.22597 53.38283 44.80440
# Shear Modulus (GPa) = 33.61173 53.16470 43.38822
#
# Velocity S-wave (km/s) = 3.99091 5.01924 4.53432
# Velocity P-wave (km/s) = 6.19698 7.67375 6.97456
#
# Compressibility (1/GPa) = 0.02760450
#
# Stress axis : x y z
#
# Youngs Moduli (GPa) = 87.55540 40.54503 58.42285
#
# Poissons Ratio (x) = 0.01930 0.47907
# Poissons Ratio (y) = 0.04167 0.24086
# Poissons Ratio (z) = 0.71795 0.16716
#
# Static dielectric constant tensor:
#      x y z
#    x 1.954670 0.000000 0.000000 
#    y 0.000000 2.994980 0.000000 
#    z 0.000000 0.000000 1.437800 
# 
# From -- ./inp_files/24792.got.cif
#   From: 2010.05.17/outbox.cif.g08.bks.cpg/sg24_13_cif.got.tgz:24792.got - 2010.06.04 00:33:39.
