data_PCOD9335532
_publ_section_title
;
Structure prediction by ZEFSAII (Michael W. Deem and Ramdas Pophale) SiO2 
 PCOD9335532
Probable space group: I 21 21 21
;
_chemical_formula_sum "Si O2"
_cell_formula_units_Z 24
_cell_length_a 5.103556
_cell_length_b 10.643347
_cell_length_c 20.125883
_cell_angle_alpha 90.000000
_cell_angle_beta 90.000000
_cell_angle_gamma 90.000000
_cell_volume 1093.216177
_symmetry_space_group_name_H-M "I 21 21 21"
_symmetry_group_IT_number 24
_symmetry_cell_setting 'orthorhombic'
loop_
_space_group_symop_operation_xyz
x,y,z
-x,1/2-y,z
x,-y,1/2-z
1/2-x,y,-z
1/2+x,1/2+y,1/2+z
1/2-x,-y,1/2+z
1/2+x,1/2-y,-z
-x,1/2+y,1/2-z
loop_
_atom_site_type_symbol
_atom_site_label
_atom_site_fract_x
_atom_site_fract_y
_atom_site_fract_z
Si Si1 0.000000 0.250000 0.391848
Si Si2 0.047167 0.393543 0.903334
Si Si3 0.250000 0.420975 0.500000
Si Si4 0.436370 0.006040 0.827716
O O1 0.813590 0.172865 0.440487
O O2 0.883365 0.361483 0.348606
O O3 0.036832 0.484775 0.967812
O O4 0.325638 0.428988 0.868801
O O5 0.000000 0.250000 0.923770
O O6 0.825116 0.422590 0.849190
O O7 0.495367 0.000000 0.750000
#
# Coordination Sequence:
#
# PCOD9335532 Si02
#       4
#     4   8   4   8
#     4  10  22  40  70  94 136 174 230 284 332 404
#     4  11  25  43  69 100 139 178 227 281 344 404
#     4  10  22  42  68 104 132 180 228 282 342 402
#     4  11  25  44  67 100 134 187 226 281 340 406
#
# _framework density 21.953572000000001
#
# number of rings (size 3 to 8) (size 9 to 14) (size 15 to 20)
#    0.000    1.333    0.000    4.000    4.667   13.333 
#    0.000    0.000    0.000    0.000    0.000    0.000 
#    0.000    0.000    0.000    0.000    0.000    0.000 
#
# Total GULP energy -66981.562054 kJ/mol
# GULP energy per Si atom -5581.796838 kJ/mol
# Density = 2.190360 g / cm^3
# Si number density = 21.953572 Si / 1000 Ang^3
#
#
#
# Elastic Constant Matrix: (Units=GPa)
#
#
# Indices 1 2 3 4 5 6 
#
# 1 95.1409 22.5920 9.3895 0.0000 0.0000 0.0000
# 2 22.5920 193.9674 36.1961 0.0000 0.0000 0.0000
# 3 9.3895 36.1961 96.5922 0.0000 0.0000 0.0000
# 4 0.0000 0.0000 0.0000 22.7377 0.0000 0.0000
# 5 0.0000 0.0000 0.0000 0.0000 10.6884 0.0000
# 6 0.0000 0.0000 0.0000 0.0000 0.0000 24.4394
#
#
#
# Elastic Compliance Matrix: (Units=1/GPa)
#
#
# Indices 1 2 3 4 5 6 
#
# 1 0.010845 -0.001147 -0.000625 0.000000 0.000000 0.000000
# 2 -0.001147 0.005664 -0.002011 0.000000 0.000000 0.000000
# 3 -0.000625 -0.002011 0.011167 0.000000 0.000000 0.000000
# 4 0.000000 0.000000 0.000000 0.043980 0.000000 0.000000
# 5 0.000000 0.000000 0.000000 0.000000 0.093560 0.000000
# 6 0.000000 0.000000 0.000000 0.000000 0.000000 0.040918
#
#
# Mechanical properties :
#
#
# Convention : Reuss Voigt Hill
#
# Bulk Modulus (GPa) = 49.72245 58.00619 53.86432
# Shear Modulus (GPa) = 22.68587 32.74128 27.71357
#
# Velocity S-wave (km/s) = 3.21807 3.86604 3.55684
# Velocity P-wave (km/s) = 6.04203 6.81233 6.43871
#
# Compressibility (1/GPa) = 0.02011164
#
# Stress axis : x y z
#
# Youngs Moduli (GPa) = 92.21155 176.54273 89.54836
#
# Poissons Ratio (x) = 0.20242 0.05593
# Poissons Ratio (y) = 0.10573 0.18010
# Poissons Ratio (z) = 0.05759 0.35505
#
# Static dielectric constant tensor:
#      x y z
#    x 1.821270 0.000000 0.000000 
#    y 0.000000 1.916700 0.000000 
#    z 0.000000 0.000000 1.818870 
# 
# From -- ./inp_files/15543.got.cif
#   From: 2010.05.17/outbox.cif.g08.bks.cpg/sg24_8_cif.got.tgz:15543.got - 2010.06.04 00:33:39.
