data_PCOD9335455
_publ_section_title
;
Structure prediction by ZEFSAII (Michael W. Deem and Ramdas Pophale) SiO2 
 PCOD9335455
Probable space group: I 21 21 21
;
_chemical_formula_sum "Si O2"
_cell_formula_units_Z 36
_cell_length_a 29.043696
_cell_length_b 8.339556
_cell_length_c 7.521135
_cell_angle_alpha 90.000000
_cell_angle_beta 90.000000
_cell_angle_gamma 90.000000
_cell_volume 1821.705610
_symmetry_space_group_name_H-M "I 21 21 21"
_symmetry_group_IT_number 24
_symmetry_cell_setting 'orthorhombic'
loop_
_space_group_symop_operation_xyz
x,y,z
-x,1/2-y,z
x,-y,1/2-z
1/2-x,y,-z
1/2+x,1/2+y,1/2+z
1/2-x,-y,1/2+z
1/2+x,1/2-y,-z
-x,1/2+y,1/2-z
loop_
_atom_site_type_symbol
_atom_site_label
_atom_site_fract_x
_atom_site_fract_y
_atom_site_fract_z
Si Si1 0.119903 0.189991 0.265399
Si Si2 0.550637 0.188662 0.030756
Si Si3 0.949298 0.805225 0.942332
Si Si4 0.250000 0.082444 0.000000
Si Si5 0.780517 0.724424 0.146237
O O1 0.874281 0.500000 0.250000
O O2 0.089460 0.228278 0.437130
O O3 0.169580 0.275534 0.288115
O O4 0.090603 0.249760 0.097094
O O5 0.500000 0.250000 0.972691
O O6 0.556806 0.240845 0.235737
O O7 0.551761 0.996384 0.034106
O O8 0.000000 0.750000 0.998617
O O9 0.250025 0.185546 0.178717
O O10 0.211129 0.947579 0.042477
O O11 0.750000 0.818283 0.000000
#
# Coordination Sequence:
#
# PCOD9335455 Si02
#       5
#     8   8   8   4   8
#     4  12  21  33  56  93 115 146 191 235 290 339
#     4  10  22  40  58  82 117 155 193 233 279 335
#     4  10  22  40  59  82 117 157 191 233 281 334
#     4   8  14  32  48  70 112 148 174 228 280 322
#     4   9  17  32  50  78 113 146 183 234 284 327
#
# _framework density 19.761700000000001
#
# number of rings (size 3 to 8) (size 9 to 14) (size 15 to 20)
#    0.667    1.333    2.222    2.667    0.000    4.444 
#    4.000    0.000    0.000    0.000   23.111    0.000 
#    0.000    0.000    0.000    0.000    0.000    0.000 
#
# Total GULP energy -100236.616395 kJ/mol
# GULP energy per Si atom -5568.700911 kJ/mol
# Density = 1.971672 g / cm^3
# Si number density = 19.761700 Si / 1000 Ang^3
#
#
#
# Elastic Constant Matrix: (Units=GPa)
#
#
# Indices 1 2 3 4 5 6 
#
# 1 123.1269 22.0667 75.0535 0.0000 0.0000 0.0000
# 2 22.0667 21.7806 15.3882 0.0000 0.0000 0.0000
# 3 75.0535 15.3882 119.6189 0.0000 0.0000 0.0000
# 4 0.0000 0.0000 0.0000 83.8461 0.0000 0.0000
# 5 0.0000 0.0000 0.0000 0.0000 58.5073 0.0000
# 6 0.0000 0.0000 0.0000 0.0000 0.0000 13.8516
#
#
#
# Elastic Compliance Matrix: (Units=1/GPa)
#
#
# Indices 1 2 3 4 5 6 
#
# 1 0.014651 -0.009183 -0.008011 0.000000 0.000000 0.000000
# 2 -0.009183 0.056259 -0.001475 0.000000 0.000000 0.000000
# 3 -0.008011 -0.001475 0.013576 0.000000 0.000000 0.000000
# 4 0.000000 0.000000 0.000000 0.011927 0.000000 0.000000
# 5 0.000000 0.000000 0.000000 0.000000 0.017092 0.000000
# 6 0.000000 0.000000 0.000000 0.000000 0.000000 0.072194
#
#
# Mechanical properties :
#
#
# Convention : Reuss Voigt Hill
#
# Bulk Modulus (GPa) = 21.21067 54.39370 37.80218
# Shear Modulus (GPa) = 20.94216 41.37553 31.15885
#
# Velocity S-wave (km/s) = 3.25889 4.58069 3.97511
# Velocity P-wave (km/s) = 4.99169 7.45396 6.34344
#
# Compressibility (1/GPa) = 0.04714609
#
# Stress axis : x y z
#
# Youngs Moduli (GPa) = 68.25581 17.77502 73.65865
#
# Poissons Ratio (x) = 0.16323 0.59008
# Poissons Ratio (y) = 0.62681 0.10867
# Poissons Ratio (z) = 0.54680 0.02623
#
# Static dielectric constant tensor:
#      x y z
#    x 1.693300 0.000000 0.000000 
#    y 0.000000 1.722460 0.000000 
#    z 0.000000 0.000000 1.723110 
# 
# From -- ./inp_files/16218.got.cif
#   From: 2010.05.17/outbox.cif.g08.bks.cpg/sg24_9_cif.got.tgz:16218.got - 2010.06.04 00:33:39.
