data_PCOD9335121
_publ_section_title
;
Structure prediction by ZEFSAII (Michael W. Deem and Ramdas Pophale) SiO2 
 PCOD9335121
Probable space group: I 21 21 21
;
_chemical_formula_sum "Si O2"
_cell_formula_units_Z 60
_cell_length_a 30.316081
_cell_length_b 8.182507
_cell_length_c 11.854452
_cell_angle_alpha 90.000000
_cell_angle_beta 90.000000
_cell_angle_gamma 90.000000
_cell_volume 2940.633678
_symmetry_space_group_name_H-M "I 21 21 21"
_symmetry_group_IT_number 24
_symmetry_cell_setting 'orthorhombic'
loop_
_space_group_symop_operation_xyz
x,y,z
-x,1/2-y,z
x,-y,1/2-z
1/2-x,y,-z
1/2+x,1/2+y,1/2+z
1/2-x,-y,1/2+z
1/2+x,1/2-y,-z
-x,1/2+y,1/2-z
loop_
_atom_site_type_symbol
_atom_site_label
_atom_site_fract_x
_atom_site_fract_y
_atom_site_fract_z
Si Si1 0.451144 0.176264 0.691430
Si Si2 0.464329 0.982901 0.487102
Si Si3 0.695720 0.586413 0.625907
Si Si4 0.373310 0.360584 0.819645
Si Si5 0.418571 0.000000 0.250000
Si Si6 0.437710 0.614932 0.495530
Si Si7 0.201386 0.093008 0.872169
Si Si8 0.872174 0.172267 0.801243
O O1 0.500000 0.250000 0.709343
O O2 0.411024 0.278345 0.741778
O O3 0.451493 0.000000 0.750000
O O4 0.445109 0.129284 0.560508
O O5 0.448614 0.987894 0.359679
O O6 0.448570 0.803587 0.528529
O O7 0.517038 0.982240 0.497650
O O8 0.689110 0.500000 0.750000
O O9 0.659788 0.728678 0.631457
O O10 0.691331 0.509779 0.496796
O O11 0.746976 0.638532 0.627247
O O12 0.348826 0.500000 0.750000
O O13 0.401245 0.444643 0.918372
O O14 0.390318 0.832962 0.234949
O O15 0.414381 0.622189 0.375847
O O16 0.168521 0.246703 0.867714
O O17 0.195893 0.000000 0.750000
O O18 0.857359 0.000000 0.750000
#
# Coordination Sequence:
#
# PCOD9335121 Si02
#       8
#     8   8   8   8   4   8   8   8
#     4  12  23  38  61  88 121 170 218 271 329 394
#     4  10  22  40  61  84 125 171 215 272 323 390
#     4  10  23  43  73 102 133 175 217 278 347 414
#     4  12  24  39  61  93 131 169 216 273 332 406
#     4  10  24  42  64  92 130 178 222 282 332 398
#     4  10  21  41  59  87 126 171 216 264 337 386
#     4  10  21  46  73 100 135 175 221 274 351 423
#     4  11  23  40  68  96 130 177 224 278 337 409
#
# _framework density 20.403766000000001
#
# number of rings (size 3 to 8) (size 9 to 14) (size 15 to 20)
#    0.000    1.333    3.333    2.400    0.933    2.667 
#    4.800    0.000    0.000    0.000    0.000    0.000 
#    0.000    0.000    0.000    0.000    0.000    0.000 
#
# Total GULP energy -167088.158183 kJ/mol
# GULP energy per Si atom -5569.605273 kJ/mol
# Density = 2.035733 g / cm^3
# Si number density = 20.403766 Si / 1000 Ang^3
#
#
#
# Elastic Constant Matrix: (Units=GPa)
#
#
# Indices 1 2 3 4 5 6 
#
# 1 60.9653 4.5819 27.5675 0.0000 0.0000 0.0000
# 2 4.5819 53.9527 29.9602 0.0000 0.0000 0.0000
# 3 27.5675 29.9602 119.9487 0.0000 0.0000 0.0000
# 4 0.0000 0.0000 0.0000 27.3549 0.0000 0.0000
# 5 0.0000 0.0000 0.0000 0.0000 21.3707 0.0000
# 6 0.0000 0.0000 0.0000 0.0000 0.0000 17.4696
#
#
#
# Elastic Compliance Matrix: (Units=1/GPa)
#
#
# Indices 1 2 3 4 5 6 
#
# 1 0.018343 0.000909 -0.004443 0.000000 0.000000 0.000000
# 2 0.000909 0.021565 -0.005595 0.000000 0.000000 0.000000
# 3 -0.004443 -0.005595 0.010756 0.000000 0.000000 0.000000
# 4 0.000000 0.000000 0.000000 0.036556 0.000000 0.000000
# 5 0.000000 0.000000 0.000000 0.000000 0.046793 0.000000
# 6 0.000000 0.000000 0.000000 0.000000 0.000000 0.057242
#
#
# Mechanical properties :
#
#
# Convention : Reuss Voigt Hill
#
# Bulk Modulus (GPa) = 30.85858 39.89844 35.37851
# Shear Modulus (GPa) = 22.69476 24.75620 23.72548
#
# Velocity S-wave (km/s) = 3.33871 3.48705 3.41368
# Velocity P-wave (km/s) = 5.47900 5.98411 5.73712
#
# Compressibility (1/GPa) = 0.03240590
#
# Stress axis : x y z
#
# Youngs Moduli (GPa) = 54.51530 46.37225 92.97496
#
# Poissons Ratio (x) = -0.04217 0.41309
# Poissons Ratio (y) = -0.04958 0.52022
# Poissons Ratio (z) = 0.24221 0.25947
#
# Static dielectric constant tensor:
#      x y z
#    x 1.695300 0.000000 0.000000 
#    y 0.000000 1.766630 0.000000 
#    z 0.000000 0.000000 1.856840 
# 
# From -- ./inp_files/23154.got.cif
#   From: 2010.05.17/outbox.cif.g08.bks.cpg/sg24_12_cif.got.tgz:23154.got - 2010.06.04 00:33:39.
