data_PCOD9335101
_publ_section_title
;
Structure prediction by ZEFSAII (Michael W. Deem and Ramdas Pophale) SiO2 
 PCOD9335101
Probable space group: I 21 21 21
;
_chemical_formula_sum "Si O2"
_cell_formula_units_Z 40
_cell_length_a 5.142285
_cell_length_b 26.534292
_cell_length_c 13.890415
_cell_angle_alpha 90.000000
_cell_angle_beta 90.000000
_cell_angle_gamma 90.000000
_cell_volume 1895.303952
_symmetry_space_group_name_H-M "I 21 21 21"
_symmetry_group_IT_number 24
_symmetry_cell_setting 'orthorhombic'
loop_
_space_group_symop_operation_xyz
x,y,z
-x,1/2-y,z
x,-y,1/2-z
1/2-x,y,-z
1/2+x,1/2+y,1/2+z
1/2-x,-y,1/2+z
1/2+x,1/2-y,-z
-x,1/2+y,1/2-z
loop_
_atom_site_type_symbol
_atom_site_label
_atom_site_fract_x
_atom_site_fract_y
_atom_site_fract_z
Si Si1 0.250502 0.716218 0.384111
Si Si2 0.498260 0.194122 0.431452
Si Si3 0.250000 0.539453 0.500000
Si Si4 0.317264 0.604050 0.691046
Si Si5 0.250000 0.969150 0.000000
Si Si6 0.659438 0.597865 0.186125
O O1 0.500000 0.750000 0.361614
O O2 0.250000 0.707075 0.500000
O O3 0.247299 0.662450 0.332091
O O4 0.000000 0.750000 0.360000
O O5 0.500000 0.250000 0.386936
O O6 0.250000 0.193875 0.500000
O O7 0.446437 0.150566 0.356046
O O8 0.750000 0.185943 0.500000
O O9 0.310177 0.574317 0.591275
O O10 0.498626 0.503842 0.488360
O O11 0.596893 0.602589 0.742453
O O12 0.094146 0.578710 0.757120
O O13 0.253805 0.934585 0.904875
#
# Coordination Sequence:
#
# PCOD9335101 Si02
#       6
#     8   8   4   8   4   8
#     4  10  21  40  68 100 139 186 227 271 336 414
#     4  10  21  40  67  99 141 187 225 269 333 408
#     4  12  28  50  72  98 138 178 230 294 360 398
#     4  12  26  45  71 105 139 180 229 285 344 418
#     4  12  28  48  74  98 134 182 228 298 350 404
#     4  12  26  43  74 104 137 179 235 281 344 415
#
# _framework density 21.104793999999998
#
# number of rings (size 3 to 8) (size 9 to 14) (size 15 to 20)
#    0.000    0.800    2.000    4.800    1.400    7.200 
#    0.000    0.000    0.000    0.000    0.000    0.000 
#    0.000    0.000    0.000    0.000    0.000    0.000 
#
# Total GULP energy -111913.457855 kJ/mol
# GULP energy per Si atom -5595.672893 kJ/mol
# Density = 2.105676 g / cm^3
# Si number density = 21.104794 Si / 1000 Ang^3
#
#
#
# Elastic Constant Matrix: (Units=GPa)
#
#
# Indices 1 2 3 4 5 6 
#
# 1 177.4319 48.7868 49.6562 0.0000 0.0000 0.0000
# 2 48.7868 117.8812 67.3266 0.0000 0.0000 0.0000
# 3 49.6562 67.3266 124.1920 0.0000 0.0000 0.0000
# 4 0.0000 0.0000 0.0000 -36.1999 0.0000 0.0000
# 5 0.0000 0.0000 0.0000 0.0000 63.8838 0.0000
# 6 0.0000 0.0000 0.0000 0.0000 0.0000 14.1226
#
#
#
# Elastic Compliance Matrix: (Units=1/GPa)
#
#
# Indices 1 2 3 4 5 6 
#
# 1 0.006592 -0.001771 -0.001675 0.000000 0.000000 0.000000
# 2 -0.001771 0.012764 -0.006211 0.000000 0.000000 0.000000
# 3 -0.001675 -0.006211 0.012089 0.000000 0.000000 0.000000
# 4 0.000000 0.000000 0.000000 -0.027624 0.000000 0.000000
# 5 0.000000 0.000000 0.000000 0.000000 0.015653 0.000000
# 6 0.000000 0.000000 0.000000 0.000000 0.000000 0.070808
#
#
# Mechanical properties :
#
#
# Convention : Reuss Voigt Hill
#
# Bulk Modulus (GPa) = 82.44752 83.44936 82.94844
# Shear Modulus (GPa) = 43.99837 25.27701 34.63769
#
# Velocity S-wave (km/s) = 4.57087 3.46452 4.05560
# Velocity P-wave (km/s) = 8.18582 7.45856 7.83064
#
# Compressibility (1/GPa) = 0.01212893
#
# Stress axis : x y z
#
# Youngs Moduli (GPa) = 151.70188 78.34774 82.71896
#
# Poissons Ratio (x) = 0.13877 0.13859
# Poissons Ratio (y) = 0.26870 0.51378
# Poissons Ratio (z) = 0.25417 0.48663
#
# Static dielectric constant tensor:
#      x y z
#    x 1.692150 0.000000 0.000000 
#    y 0.000000 1.785680 0.000000 
#    z 0.000000 0.000000 1.789940 
# 
# From -- ./inp_files/17656.got.cif
#   From: 2010.05.17/outbox.cif.g08.bks.cpg/sg24_9_cif.got.tgz:17656.got - 2010.06.04 00:33:39.
