data_PCOD9335187
_publ_section_title
;
Structure prediction by ZEFSAII (Michael W. Deem and Ramdas Pophale) SiO2 
 PCOD9335187
Probable space group: I 21 21 21
;
_chemical_formula_sum "Si O2"
_cell_formula_units_Z 40
_cell_length_a 12.785016
_cell_length_b 9.364915
_cell_length_c 16.630525
_cell_angle_alpha 90.000000
_cell_angle_beta 90.000000
_cell_angle_gamma 90.000000
_cell_volume 1991.182539
_symmetry_space_group_name_H-M "I 21 21 21"
_symmetry_group_IT_number 24
_symmetry_cell_setting 'orthorhombic'
loop_
_space_group_symop_operation_xyz
x,y,z
-x,1/2-y,z
x,-y,1/2-z
1/2-x,y,-z
1/2+x,1/2+y,1/2+z
1/2-x,-y,1/2+z
1/2+x,1/2-y,-z
-x,1/2+y,1/2-z
loop_
_atom_site_type_symbol
_atom_site_label
_atom_site_fract_x
_atom_site_fract_y
_atom_site_fract_z
Si Si1 0.883364 0.702718 0.093868
Si Si2 0.500000 0.250000 0.230036
Si Si3 0.396606 0.947982 0.476182
Si Si4 0.881106 0.869273 0.579704
Si Si5 0.691584 0.392771 0.319756
Si Si6 0.750000 0.084613 0.500000
O O1 0.790363 0.706093 0.159199
O O2 0.843800 0.812042 0.025580
O O3 0.000000 0.750000 0.118598
O O4 0.879254 0.543257 0.055224
O O5 0.428865 0.342823 0.168262
O O6 0.585800 0.324697 0.284848
O O7 0.520991 0.937742 0.466442
O O8 0.360442 0.783839 0.462876
O O9 0.345008 0.029753 0.401214
O O10 0.786277 0.978129 0.570836
O O11 0.727064 0.500000 0.250000
#
# Coordination Sequence:
#
# PCOD9335187 Si02
#       6
#     8   4   8   8   8   4
#     4  12  26  43  63  98 134 180 224 268 327 401
#     4  10  24  40  66 104 132 164 228 274 336 388
#     4  10  21  42  65  94 133 169 219 275 328 388
#     4  10  22  39  65 104 129 162 217 285 330 386
#     4  12  23  40  70  94 132 183 213 271 330 399
#     4  12  24  38  70  98 134 170 220 280 332 378
#
# _framework density 20.088566
#
# number of rings (size 3 to 8) (size 9 to 14) (size 15 to 20)
#    0.000    1.200    8.000    0.000    7.000    0.000 
#    0.000    2.000    4.400    0.000    0.000    0.000 
#    0.000    0.000    0.000    0.000    0.000    0.000 
#
# Total GULP energy -111493.489256 kJ/mol
# GULP energy per Si atom -5574.674463 kJ/mol
# Density = 2.004284 g / cm^3
# Si number density = 20.088566 Si / 1000 Ang^3
#
#
#
# Elastic Constant Matrix: (Units=GPa)
#
#
# Indices 1 2 3 4 5 6 
#
# 1 113.9650 55.3261 33.1428 0.0000 0.0000 0.0000
# 2 55.3261 78.4050 12.1131 0.0000 0.0000 0.0000
# 3 33.1428 12.1131 39.5244 0.0000 0.0000 0.0000
# 4 0.0000 0.0000 0.0000 141.7875 0.0000 0.0000
# 5 0.0000 0.0000 0.0000 0.0000 -72.1635 0.0000
# 6 0.0000 0.0000 0.0000 0.0000 0.0000 32.9572
#
#
#
# Elastic Compliance Matrix: (Units=1/GPa)
#
#
# Indices 1 2 3 4 5 6 
#
# 1 0.016990 -0.010274 -0.011098 0.000000 0.000000 0.000000
# 2 -0.010274 0.019601 0.002608 0.000000 0.000000 0.000000
# 3 -0.011098 0.002608 0.033808 0.000000 0.000000 0.000000
# 4 0.000000 0.000000 0.000000 0.007053 0.000000 0.000000
# 5 0.000000 0.000000 0.000000 0.000000 -0.013857 0.000000
# 6 0.000000 0.000000 0.000000 0.000000 0.000000 0.030342
#
#
# Mechanical properties :
#
#
# Convention : Reuss Voigt Hill
#
# Bulk Modulus (GPa) = 30.42224 48.11759 39.26992
# Shear Modulus (GPa) = 35.10703 29.27040 32.18872
#
# Velocity S-wave (km/s) = 4.18498 3.82130 4.00727
# Velocity P-wave (km/s) = 6.20717 6.59352 6.40326
#
# Compressibility (1/GPa) = 0.03287069
#
# Stress axis : x y z
#
# Youngs Moduli (GPa) = 58.85857 51.01697 29.57914
#
# Poissons Ratio (x) = 0.52416 0.32827
# Poissons Ratio (y) = 0.60473 -0.07715
# Poissons Ratio (z) = 0.65321 -0.13306
#
# Static dielectric constant tensor:
#      x y z
#    x 0.896570 0.000000 0.000000 
#    y 0.000000 1.960920 0.000000 
#    z 0.000000 0.000000 1.727750 
# 
# From -- ./inp_files/30087.got.cif
#   From: 2010.05.17/outbox.cif.g08.bks.cpg/sg24_16_cif.got.tgz:30087.got - 2010.06.04 00:33:39.
