data_PCOD9335867
_publ_section_title
;
Structure prediction by ZEFSAII (Michael W. Deem and Ramdas Pophale) SiO2 
 PCOD9335867
Probable space group: I 21 21 21
;
_chemical_formula_sum "Si O2"
_cell_formula_units_Z 48
_cell_length_a 14.892596
_cell_length_b 14.155702
_cell_length_c 12.144645
_cell_angle_alpha 90.000000
_cell_angle_beta 90.000000
_cell_angle_gamma 90.000000
_cell_volume 2560.275169
_symmetry_space_group_name_H-M "I 21 21 21"
_symmetry_group_IT_number 24
_symmetry_cell_setting 'orthorhombic'
loop_
_space_group_symop_operation_xyz
x,y,z
-x,1/2-y,z
x,-y,1/2-z
1/2-x,y,-z
1/2+x,1/2+y,1/2+z
1/2-x,-y,1/2+z
1/2+x,1/2-y,-z
-x,1/2+y,1/2-z
loop_
_atom_site_type_symbol
_atom_site_label
_atom_site_fract_x
_atom_site_fract_y
_atom_site_fract_z
Si Si1 0.423916 0.906760 0.678133
Si Si2 0.546276 0.000000 0.250000
Si Si3 0.500000 0.250000 0.682807
Si Si4 0.903147 0.209799 0.739102
Si Si5 0.856337 0.711045 0.997004
Si Si6 0.267980 0.164568 0.123325
Si Si7 0.904280 0.505072 0.554371
O O1 0.495639 0.839612 0.736408
O O2 0.327201 0.855817 0.678548
O O3 0.416498 0.000000 0.750000
O O4 0.439120 0.937483 0.552007
O O5 0.599962 0.902316 0.255423
O O6 0.481297 0.993827 0.144396
O O7 0.413699 0.244710 0.602253
O O8 0.893215 0.236820 0.611271
O O9 0.827696 0.265355 0.805967
O O10 0.000000 0.250000 0.776719
O O11 0.872131 0.598443 0.982531
O O12 0.750000 0.728309 0.000000
O O13 0.323114 0.066559 0.106145
O O14 0.250000 0.201426 0.000000
#
# Coordination Sequence:
#
# PCOD9335867 Si02
#       7
#     8   4   4   8   8   8   8
#     4  11  24  39  64  96 136 168 217 277 336 390
#     4  12  24  40  66 100 134 170 228 264 332 406
#     4  12  24  40  62 102 136 178 216 266 358 402
#     4  12  23  40  66  96 135 175 218 268 332 406
#     4  12  23  41  69  98 134 173 227 286 328 392
#     4  10  23  40  66 100 128 171 218 282 342 388
#     4  11  21  39  69 102 130 167 222 288 338 389
#
# _framework density 18.747983999999999
#
# number of rings (size 3 to 8) (size 9 to 14) (size 15 to 20)
#    0.000    0.667    5.833    2.500    3.500    2.667 
#    0.000    0.833    7.333    0.000    0.000    0.000 
#    0.000    0.000    0.000    0.000    0.000    0.000 
#
# Total GULP energy -134179.904099 kJ/mol
# GULP energy per Si atom -5590.829337 kJ/mol
# Density = 1.870531 g / cm^3
# Si number density = 18.747984 Si / 1000 Ang^3
#
#
#
# Elastic Constant Matrix: (Units=GPa)
#
#
# Indices 1 2 3 4 5 6 
#
# 1 73.1122 45.6272 41.1585 0.0000 0.0000 0.0000
# 2 45.6272 120.3382 42.2456 0.0000 0.0000 0.0000
# 3 41.1585 42.2456 75.3931 0.0000 0.0000 0.0000
# 4 0.0000 0.0000 0.0000 40.3040 0.0000 0.0000
# 5 0.0000 0.0000 0.0000 0.0000 31.0363 0.0000
# 6 0.0000 0.0000 0.0000 0.0000 0.0000 22.0145
#
#
#
# Elastic Compliance Matrix: (Units=1/GPa)
#
#
# Indices 1 2 3 4 5 6 
#
# 1 0.022038 -0.005144 -0.009148 0.000000 0.000000 0.000000
# 2 -0.005144 0.011546 -0.003661 0.000000 0.000000 0.000000
# 3 -0.009148 -0.003661 0.020310 0.000000 0.000000 0.000000
# 4 0.000000 0.000000 0.000000 0.024811 0.000000 0.000000
# 5 0.000000 0.000000 0.000000 0.000000 0.032220 0.000000
# 6 0.000000 0.000000 0.000000 0.000000 0.000000 0.045425
#
#
# Mechanical properties :
#
#
# Convention : Reuss Voigt Hill
#
# Bulk Modulus (GPa) = 55.59991 58.54511 57.07251
# Shear Modulus (GPa) = 25.22032 27.99177 26.60605
#
# Velocity S-wave (km/s) = 3.67171 3.86820 3.77124
# Velocity P-wave (km/s) = 6.90624 7.15862 7.03356
#
# Compressibility (1/GPa) = 0.01798564
#
# Stress axis : x y z
#
# Youngs Moduli (GPa) = 45.37588 86.61250 49.23775
#
# Poissons Ratio (x) = 0.44556 0.45045
# Poissons Ratio (y) = 0.23343 0.18027
# Poissons Ratio (z) = 0.41512 0.31710
#
# Static dielectric constant tensor:
#      x y z
#    x 1.644730 0.000000 0.000000 
#    y 0.000000 1.646030 0.000000 
#    z 0.000000 0.000000 1.665590 
# 
# From -- ./inp_files/20757.got.cif
#   From: 2010.05.17/outbox.cif.g08.bks.cpg/sg24_11_cif.got.tgz:20757.got - 2010.06.04 00:33:39.
