data_PCOD9335426
_publ_section_title
;
Structure prediction by ZEFSAII (Michael W. Deem and Ramdas Pophale) SiO2 
 PCOD9335426
Probable space group: I 21 21 21
;
_chemical_formula_sum "Si O2"
_cell_formula_units_Z 64
_cell_length_a 12.308775
_cell_length_b 7.224518
_cell_length_c 28.331266
_cell_angle_alpha 90.000000
_cell_angle_beta 90.000000
_cell_angle_gamma 90.000000
_cell_volume 2519.356881
_symmetry_space_group_name_H-M "I 21 21 21"
_symmetry_group_IT_number 24
_symmetry_cell_setting 'orthorhombic'
loop_
_space_group_symop_operation_xyz
x,y,z
-x,1/2-y,z
x,-y,1/2-z
1/2-x,y,-z
1/2+x,1/2+y,1/2+z
1/2-x,-y,1/2+z
1/2+x,1/2-y,-z
-x,1/2+y,1/2-z
loop_
_atom_site_type_symbol
_atom_site_label
_atom_site_fract_x
_atom_site_fract_y
_atom_site_fract_z
Si Si1 0.240002 0.366945 0.599068
Si Si2 0.249276 0.956664 0.305554
Si Si3 0.977941 0.973995 0.938632
Si Si4 0.780694 0.550648 0.557036
Si Si5 0.272836 0.484303 0.195313
Si Si6 0.518723 0.466953 0.195332
Si Si7 0.444460 0.551421 0.958565
Si Si8 0.593289 0.378986 0.878599
O O1 0.126225 0.478487 0.594847
O O2 0.232878 0.157824 0.578541
O O3 0.281235 0.404204 0.652463
O O4 0.326601 0.443392 0.562575
O O5 0.260700 0.734880 0.312181
O O6 0.365803 0.031354 0.325728
O O7 0.145652 0.002188 0.337382
O O8 0.233957 0.000000 0.250000
O O9 0.000000 0.750000 0.937630
O O10 0.091380 0.080638 0.932407
O O11 0.940635 0.035401 0.990294
O O12 0.750000 0.553183 0.500000
O O13 0.699850 0.672390 0.589375
O O14 0.238035 0.500000 0.250000
O O15 0.399051 0.551545 0.192335
O O16 0.500000 0.250000 0.185181
O O17 0.544288 0.500000 0.250000
O O18 0.500000 0.750000 0.966030
O O19 0.521732 0.465122 0.919924
O O20 0.500000 0.250000 0.855582
#
# Coordination Sequence:
#
# PCOD9335426 Si02
#       8
#     8   8   8   8   8   8   8   8
#     4  11  21  36  68 107 136 176 230 301 358 432
#     4  10  23  44  68  90 133 192 240 288 362 436
#     4   9  19  36  65 106 135 168 229 295 355 438
#     4  11  21  43  71 103 141 184 236 295 375 458
#     4  10  22  39  63 103 143 171 233 297 361 426
#     4   8  16  35  59  89 126 171 212 278 350 416
#     4  11  20  40  67  94 133 182 231 287 356 422
#     4  12  26  43  66  97 141 184 240 293 360 430
#
# _framework density 25.403307000000002
#
# number of rings (size 3 to 8) (size 9 to 14) (size 15 to 20)
#    0.000    1.750    2.500    2.625    3.500    0.000 
#    0.000    7.500    0.000    0.000    0.000    0.000 
#    0.000    0.000    0.000    0.000    0.000    0.000 
#
# Total GULP energy -178466.542906 kJ/mol
# GULP energy per Si atom -5577.079466 kJ/mol
# Density = 2.534549 g / cm^3
# Si number density = 25.403307 Si / 1000 Ang^3
#
#
#
# Elastic Constant Matrix: (Units=GPa)
#
#
# Indices 1 2 3 4 5 6 
#
# 1 118.7053 13.7561 29.2329 0.0000 0.0000 0.0000
# 2 13.7561 94.3685 4.1385 0.0000 0.0000 0.0000
# 3 29.2329 4.1385 159.5302 0.0000 0.0000 0.0000
# 4 0.0000 0.0000 0.0000 27.8955 0.0000 0.0000
# 5 0.0000 0.0000 0.0000 0.0000 51.2487 0.0000
# 6 0.0000 0.0000 0.0000 0.0000 0.0000 16.6884
#
#
#
# Elastic Compliance Matrix: (Units=1/GPa)
#
#
# Indices 1 2 3 4 5 6 
#
# 1 0.008964 -0.001236 -0.001611 0.000000 0.000000 0.000000
# 2 -0.001236 0.010779 -0.000053 0.000000 0.000000 0.000000
# 3 -0.001611 -0.000053 0.006565 0.000000 0.000000 0.000000
# 4 0.000000 0.000000 0.000000 0.035848 0.000000 0.000000
# 5 0.000000 0.000000 0.000000 0.000000 0.019513 0.000000
# 6 0.000000 0.000000 0.000000 0.000000 0.000000 0.059922
#
#
# Mechanical properties :
#
#
# Convention : Reuss Voigt Hill
#
# Bulk Modulus (GPa) = 48.75964 51.87323 50.31644
# Shear Modulus (GPa) = 32.41982 40.86495 36.64239
#
# Velocity S-wave (km/s) = 3.57628 4.01515 3.80205
# Velocity P-wave (km/s) = 6.02403 6.47761 6.25493
#
# Compressibility (1/GPa) = 0.02050877
#
# Stress axis : x y z
#
# Youngs Moduli (GPa) = 111.55629 92.77066 152.32508
#
# Poissons Ratio (x) = 0.11467 0.24533
# Poissons Ratio (y) = 0.13789 0.00809
# Poissons Ratio (z) = 0.17967 0.00493
#
# Static dielectric constant tensor:
#      x y z
#    x 2.639980 0.000000 0.000000 
#    y 0.000000 2.054270 0.000000 
#    z 0.000000 0.000000 1.998750 
# 
# From -- ./inp_files/38619.got.cif
#   From: 2010.05.17/outbox.cif.g08.bks.cpg/sg24_20_cif.got.tgz:38619.got - 2010.06.04 00:33:39.
