data_PCOD9335950
_publ_section_title
;
Structure prediction by ZEFSAII (Michael W. Deem and Ramdas Pophale) SiO2 
 PCOD9335950
Probable space group: I 21 21 21
;
_chemical_formula_sum "Si O2"
_cell_formula_units_Z 48
_cell_length_a 16.552983
_cell_length_b 8.258913
_cell_length_c 14.790362
_cell_angle_alpha 90.000000
_cell_angle_beta 90.000000
_cell_angle_gamma 90.000000
_cell_volume 2021.985160
_symmetry_space_group_name_H-M "I 21 21 21"
_symmetry_group_IT_number 24
_symmetry_cell_setting 'orthorhombic'
loop_
_space_group_symop_operation_xyz
x,y,z
-x,1/2-y,z
x,-y,1/2-z
1/2-x,y,-z
1/2+x,1/2+y,1/2+z
1/2-x,-y,1/2+z
1/2+x,1/2-y,-z
-x,1/2+y,1/2-z
loop_
_atom_site_type_symbol
_atom_site_label
_atom_site_fract_x
_atom_site_fract_y
_atom_site_fract_z
Si Si1 0.340028 0.479643 0.965675
Si Si2 0.153354 0.042411 0.644493
Si Si3 0.479417 0.939557 0.654058
Si Si4 0.490917 0.438533 0.458925
Si Si5 0.241723 0.657194 0.190582
Si Si6 0.309898 0.152185 0.866025
O O1 0.329068 0.599021 0.877936
O O2 0.340643 0.296012 0.929703
O O3 0.250000 0.502723 0.000000
O O4 0.399663 0.498436 0.052807
O O5 0.189431 0.226754 0.644956
O O6 0.071358 0.998877 0.590057
O O7 0.139171 0.000000 0.750000
O O8 0.226892 0.933393 0.607612
O O9 0.500000 0.750000 0.649311
O O10 0.384070 0.968814 0.643513
O O11 0.509061 0.000000 0.750000
O O12 0.513249 0.025602 0.566110
O O13 0.500000 0.250000 0.441764
O O14 0.270583 0.500000 0.250000
O O15 0.204532 0.771095 0.267926
#
# Coordination Sequence:
#
# PCOD9335950 Si02
#       6
#     8   8   8   8   8   8
#     4  11  24  43  67 100 146 189 234 300 368 439
#     4  10  23  48  78 107 142 195 254 304 367 439
#     4  12  26  43  69 104 150 186 239 303 369 440
#     4  12  28  45  69 111 150 193 241 302 369 442
#     4   9  20  42  73 102 137 190 247 302 365 443
#     4  10  23  43  72 101 138 186 247 300 374 427
#
# _framework density 23.739046999999999
#
# number of rings (size 3 to 8) (size 9 to 14) (size 15 to 20)
#    0.000    1.333    1.667    3.000    9.333    0.000 
#    0.000    9.167    0.000    0.000    0.000    0.000 
#    0.000    0.000    0.000    0.000    0.000    0.000 
#
# Total GULP energy -133857.195874 kJ/mol
# GULP energy per Si atom -5577.383161 kJ/mol
# Density = 2.368502 g / cm^3
# Si number density = 23.739047 Si / 1000 Ang^3
#
#
#
# Elastic Constant Matrix: (Units=GPa)
#
#
# Indices 1 2 3 4 5 6 
#
# 1 111.5285 39.1488 20.9529 0.0000 0.0000 0.0000
# 2 39.1488 67.7593 9.2898 0.0000 0.0000 0.0000
# 3 20.9529 9.2898 52.7146 0.0000 0.0000 0.0000
# 4 0.0000 0.0000 0.0000 29.8093 0.0000 0.0000
# 5 0.0000 0.0000 0.0000 0.0000 58.1982 0.0000
# 6 0.0000 0.0000 0.0000 0.0000 0.0000 21.1745
#
#
#
# Elastic Compliance Matrix: (Units=1/GPa)
#
#
# Indices 1 2 3 4 5 6 
#
# 1 0.011878 -0.006369 -0.003599 0.000000 0.000000 0.000000
# 2 -0.006369 0.018539 -0.000735 0.000000 0.000000 0.000000
# 3 -0.003599 -0.000735 0.020530 0.000000 0.000000 0.000000
# 4 0.000000 0.000000 0.000000 0.033547 0.000000 0.000000
# 5 0.000000 0.000000 0.000000 0.000000 0.017183 0.000000
# 6 0.000000 0.000000 0.000000 0.000000 0.000000 0.047227
#
#
# Mechanical properties :
#
#
# Convention : Reuss Voigt Hill
#
# Bulk Modulus (GPa) = 33.85239 41.19838 37.52538
# Shear Modulus (GPa) = 27.75355 32.67712 30.21533
#
# Velocity S-wave (km/s) = 3.42293 3.71416 3.57152
# Velocity P-wave (km/s) = 5.46929 5.98212 5.73144
#
# Compressibility (1/GPa) = 0.02954001
#
# Stress axis : x y z
#
# Youngs Moduli (GPa) = 84.18764 53.94052 48.70887
#
# Poissons Ratio (x) = 0.34357 0.17530
# Poissons Ratio (y) = 0.53622 0.03582
# Poissons Ratio (z) = 0.30298 0.03967
#
# Static dielectric constant tensor:
#      x y z
#    x 2.361010 0.000000 0.000000 
#    y 0.000000 1.934130 0.000000 
#    z 0.000000 0.000000 2.001840 
# 
# From -- ./inp_files/31091.got.cif
#   From: 2010.05.17/outbox.cif.g08.bks.cpg/sg24_16_cif.got.tgz:31091.got - 2010.06.04 00:33:39.
