data_PCOD9335488
_publ_section_title
;
Structure prediction by ZEFSAII (Michael W. Deem and Ramdas Pophale) SiO2 
 PCOD9335488
Probable space group: I 21 21 21
;
_chemical_formula_sum "Si O2"
_cell_formula_units_Z 36
_cell_length_a 20.305815
_cell_length_b 16.352187
_cell_length_c 5.249537
_cell_angle_alpha 90.000000
_cell_angle_beta 90.000000
_cell_angle_gamma 90.000000
_cell_volume 1743.079805
_symmetry_space_group_name_H-M "I 21 21 21"
_symmetry_group_IT_number 24
_symmetry_cell_setting 'orthorhombic'
loop_
_space_group_symop_operation_xyz
x,y,z
-x,1/2-y,z
x,-y,1/2-z
1/2-x,y,-z
1/2+x,1/2+y,1/2+z
1/2-x,-y,1/2+z
1/2+x,1/2-y,-z
-x,1/2+y,1/2-z
loop_
_atom_site_type_symbol
_atom_site_label
_atom_site_fract_x
_atom_site_fract_y
_atom_site_fract_z
Si Si1 0.490757 0.000000 0.250000
Si Si2 0.894172 0.079436 0.068119
Si Si3 0.250000 0.945984 0.000000
Si Si4 0.576603 0.260443 0.909163
Si Si5 0.250000 0.448444 0.000000
Si Si6 0.110709 0.138055 0.589086
O O1 0.440651 0.062451 0.386716
O O2 0.542317 0.940860 0.396045
O O3 0.902283 0.169532 0.178864
O O4 0.894207 0.000000 0.250000
O O5 0.821778 0.089334 0.940471
O O6 0.185066 0.894358 0.934304
O O7 0.264919 0.000000 0.750000
O O8 0.500000 0.250000 0.963108
O O9 0.591423 0.317536 0.670905
O O10 0.605852 0.301688 0.165617
O O11 0.262869 0.500000 0.750000
#
# Coordination Sequence:
#
# PCOD9335488 Si02
#       6
#     4   8   4   8   4   8
#     4  12  24  46  74 104 134 198 246 288 370 452
#     4  11  25  43  73 101 144 190 244 291 366 437
#     4  12  26  50  78 110 152 198 252 308 372 460
#     4  12  26  46  70 109 148 185 246 312 363 432
#     4  10  22  40  64 100 134 178 230 286 338 416
#     4  12  28  45  75 107 146 192 244 306 375 437
#
# _framework density 20.653098
#
# number of rings (size 3 to 8) (size 9 to 14) (size 15 to 20)
#    0.000    0.444    4.444    3.333    3.111    1.778 
#    0.000    1.111    0.000    0.000    0.000    0.000 
#    0.000    0.000    0.000    0.000    0.000    0.000 
#
# Total GULP energy -100333.722431 kJ/mol
# GULP energy per Si atom -5574.095691 kJ/mol
# Density = 2.060609 g / cm^3
# Si number density = 20.653098 Si / 1000 Ang^3
#
#
#
# Elastic Constant Matrix: (Units=GPa)
#
#
# Indices 1 2 3 4 5 6 
#
# 1 195.0498 67.0602 39.0792 0.0000 0.0000 0.0000
# 2 67.0602 109.3700 44.5521 0.0000 0.0000 0.0000
# 3 39.0792 44.5521 120.7786 0.0000 0.0000 0.0000
# 4 0.0000 0.0000 0.0000 34.0825 0.0000 0.0000
# 5 0.0000 0.0000 0.0000 0.0000 -0.1815 0.0000
# 6 0.0000 0.0000 0.0000 0.0000 0.0000 -7.3775
#
#
#
# Elastic Compliance Matrix: (Units=1/GPa)
#
#
# Indices 1 2 3 4 5 6 
#
# 1 0.006554 -0.003712 -0.000751 0.000000 0.000000 0.000000
# 2 -0.003712 0.012863 -0.003544 0.000000 0.000000 0.000000
# 3 -0.000751 -0.003544 0.009830 0.000000 0.000000 0.000000
# 4 0.000000 0.000000 0.000000 0.029341 0.000000 0.000000
# 5 0.000000 0.000000 0.000000 0.000000 -5.508297 0.000000
# 6 0.000000 0.000000 0.000000 0.000000 0.000000 -0.135548
#
#
# Mechanical properties :
#
#
# Convention : Reuss Voigt Hill
#
# Bulk Modulus (GPa) = 75.57326 80.73128 78.15227
# Shear Modulus (GPa) = -0.89850 23.60516 11.35333
#
# Velocity S-wave (km/s) = -0.66029 3.38440 2.34714
# Velocity P-wave (km/s) = 6.00748 7.37877 6.72815
#
# Compressibility (1/GPa) = 0.01323219
#
# Stress axis : x y z
#
# Youngs Moduli (GPa) = 152.58382 77.74177 101.73146
#
# Poissons Ratio (x) = 0.28861 0.07641
# Poissons Ratio (y) = 0.56646 0.36050
# Poissons Ratio (z) = 0.11461 0.27549
#
# Static dielectric constant tensor:
#      x y z
#    x 1.827340 0.000000 0.000000 
#    y 0.000000 1.899850 0.000000 
#    z 0.000000 0.000000 1.735020 
# 
# From -- ./inp_files/3401.got.cif
#   From: 2010.05.17/outbox.cif.g08.bks.cpg/sg24_2_cif.got.tgz:3401.got - 2010.06.04 00:33:39.
