data_PCOD9335401
_publ_section_title
;
Structure prediction by ZEFSAII (Michael W. Deem and Ramdas Pophale) SiO2 
 PCOD9335401
Probable space group: I 21 21 21
;
_chemical_formula_sum "Si O2"
_cell_formula_units_Z 48
_cell_length_a 5.341440
_cell_length_b 26.448091
_cell_length_c 14.528933
_cell_angle_alpha 90.000000
_cell_angle_beta 90.000000
_cell_angle_gamma 90.000000
_cell_volume 2052.515313
_symmetry_space_group_name_H-M "I 21 21 21"
_symmetry_group_IT_number 24
_symmetry_cell_setting 'orthorhombic'
loop_
_space_group_symop_operation_xyz
x,y,z
-x,1/2-y,z
x,-y,1/2-z
1/2-x,y,-z
1/2+x,1/2+y,1/2+z
1/2-x,-y,1/2+z
1/2+x,1/2-y,-z
-x,1/2+y,1/2-z
loop_
_atom_site_type_symbol
_atom_site_label
_atom_site_fract_x
_atom_site_fract_y
_atom_site_fract_z
Si Si1 0.042852 0.876139 0.642154
Si Si2 0.750000 0.783764 0.000000
Si Si3 0.451669 0.641858 0.145851
Si Si4 0.881772 0.950280 0.131654
Si Si5 0.255662 0.770051 0.395998
Si Si6 0.250000 0.104844 0.500000
Si Si7 0.962346 0.066207 0.154290
O O1 0.179701 0.828707 0.595256
O O2 0.253209 0.919558 0.627875
O O3 0.010201 0.856334 0.747341
O O4 0.759780 0.895548 0.621070
O O5 0.500000 0.750000 0.997171
O O6 0.769953 0.819746 0.908166
O O7 0.365855 0.583577 0.129547
O O8 0.693305 0.643167 0.083085
O O9 0.978691 0.935403 0.233976
O O10 0.049985 0.930946 0.049043
O O11 0.870450 0.010472 0.126867
O O12 0.500000 0.750000 0.345102
O O13 0.250000 0.747229 0.500000
O O14 0.000000 0.750000 0.352435
#
# Coordination Sequence:
#
# PCOD9335401 Si02
#       7
#     8   4   8   8   8   4   8
#     4  11  23  43  67 100 133 171 214 293 334 402
#     4  12  27  44  66  98 140 182 238 303 332 384
#     4  11  24  42  65  93 133 185 229 269 349 402
#     4  10  22  38  65  91 130 183 221 269 319 420
#     4  10  22  44  72  96 124 169 218 267 343 423
#     4  12  19  40  66  88 132 186 232 251 328 416
#     4  10  23  39  64  98 135 167 224 273 333 378
#
# _framework density 23.385940999999999
#
# number of rings (size 3 to 8) (size 9 to 14) (size 15 to 20)
#    0.000    1.333    3.333    1.500    2.333    2.000 
#    1.500    3.333    0.000    0.000    0.000    0.000 
#    0.000    0.000    0.000    0.000    0.000    0.000 
#
# Total GULP energy -133667.760369 kJ/mol
# GULP energy per Si atom -5569.490015 kJ/mol
# Density = 2.333271 g / cm^3
# Si number density = 23.385941 Si / 1000 Ang^3
#
#
#
# Elastic Constant Matrix: (Units=GPa)
#
#
# Indices 1 2 3 4 5 6 
#
# 1 130.5665 29.2692 23.5229 0.0000 0.0000 0.0000
# 2 29.2692 80.5454 11.9109 0.0001 0.0000 0.0000
# 3 23.5229 11.9109 66.5284 0.0002 0.0000 0.0000
# 4 0.0000 0.0001 0.0002 312.7666 -0.0003 0.0000
# 5 0.0000 0.0000 0.0000 -0.0003 -80.1001 0.0000
# 6 0.0000 0.0000 0.0000 0.0000 0.0000 23.2526
#
#
#
# Elastic Compliance Matrix: (Units=1/GPa)
#
#
# Indices 1 2 3 4 5 6 
#
# 1 0.008753 -0.002797 -0.002594 0.000000 0.000000 0.000000
# 2 -0.002797 0.013647 -0.001454 0.000000 0.000000 0.000000
# 3 -0.002594 -0.001454 0.016209 0.000000 0.000000 0.000000
# 4 0.000000 0.000000 0.000000 0.003197 0.000000 0.000000
# 5 0.000000 0.000000 0.000000 0.000000 -0.012484 0.000000
# 6 0.000000 0.000000 0.000000 0.000000 0.000000 0.043006
#
#
# Mechanical properties :
#
#
# Convention : Reuss Voigt Hill
#
# Bulk Modulus (GPa) = 40.13207 45.22736 42.67971
# Shear Modulus (GPa) = 53.00820 65.37964 59.19392
#
# Velocity S-wave (km/s) = 4.76612 5.29316 5.03654
# Velocity P-wave (km/s) = 6.89100 7.53248 7.21887
#
# Compressibility (1/GPa) = 0.02491773
#
# Stress axis : x y z
#
# Youngs Moduli (GPa) = 114.24184 73.27675 61.69502
#
# Poissons Ratio (x) = 0.20497 0.16005
# Poissons Ratio (y) = 0.31956 0.08972
# Poissons Ratio (z) = 0.29636 0.10656
#
# Static dielectric constant tensor:
#      x y z
#    x 1.897420 0.000000 0.000000 
#    y 0.000000 2.203610 0.000000 
#    z 0.000000 0.000000 2.009630 
# 
# From -- ./inp_files/23949.got.cif
#   From: 2010.05.17/outbox.cif.g08.bks.cpg/sg24_12_cif.got.tgz:23949.got - 2010.06.04 00:33:39.
