data_PCOD9335496
_publ_section_title
;
Structure prediction by ZEFSAII (Michael W. Deem and Ramdas Pophale) SiO2 
 PCOD9335496
Probable space group: I 21 21 21
;
_chemical_formula_sum "Si O2"
_cell_formula_units_Z 60
_cell_length_a 5.457748
_cell_length_b 21.267614
_cell_length_c 23.889575
_cell_angle_alpha 90.000000
_cell_angle_beta 90.000000
_cell_angle_gamma 90.000000
_cell_volume 2772.941275
_symmetry_space_group_name_H-M "I 21 21 21"
_symmetry_group_IT_number 24
_symmetry_cell_setting 'orthorhombic'
loop_
_space_group_symop_operation_xyz
x,y,z
-x,1/2-y,z
x,-y,1/2-z
1/2-x,y,-z
1/2+x,1/2+y,1/2+z
1/2-x,-y,1/2+z
1/2+x,1/2-y,-z
-x,1/2+y,1/2-z
loop_
_atom_site_type_symbol
_atom_site_label
_atom_site_fract_x
_atom_site_fract_y
_atom_site_fract_z
Si Si1 0.663460 0.313266 0.564222
Si Si2 0.616774 0.903773 0.867953
Si Si3 0.987729 0.181540 0.673476
Si Si4 0.899722 0.584167 0.353372
Si Si5 0.750000 0.917332 0.500000
Si Si6 0.404255 0.818455 0.557248
Si Si7 0.910232 0.020788 0.894739
Si Si8 0.767977 0.568778 0.231120
O O1 0.500000 0.250000 0.569462
O O2 0.750000 0.314042 0.500000
O O3 0.523839 0.378679 0.577883
O O4 0.866249 0.312822 0.614085
O O5 0.457135 0.937527 0.820324
O O6 0.713958 0.839636 0.840429
O O7 0.839785 0.948651 0.884861
O O8 0.089961 0.124017 0.710441
O O9 0.000000 0.250000 0.700586
O O10 0.813825 0.647130 0.386812
O O11 0.672409 0.538621 0.369947
O O12 0.899911 0.592605 0.287100
O O13 0.170233 0.557609 0.369729
O O14 0.600969 0.869455 0.537830
O O15 0.913560 0.960066 0.540062
O O16 0.500000 0.750000 0.571506
O O17 0.250000 0.810756 0.500000
O O18 0.664208 0.500000 0.250000
#
# Coordination Sequence:
#
# PCOD9335496 Si02
#       8
#     8   8   8   8   4   8   8   8
#     4  11  24  43  68 101 142 183 238 289 364 436
#     4  11  25  43  70 100 138 186 239 296 369 432
#     4  11  24  45  70  99 142 186 237 298 362 437
#     4  11  25  45  68 103 141 183 242 297 357 429
#     4  10  22  40  64  94 146 176 226 296 360 426
#     4  11  21  41  68 100 138 188 233 290 363 434
#     4  11  24  43  69 104 139 183 235 297 364 430
#     4  11  24  45  70 103 136 190 240 302 364 435
#
# _framework density 21.637671999999998
#
# number of rings (size 3 to 8) (size 9 to 14) (size 15 to 20)
#    0.000    1.067    4.667    1.200    3.733    1.600 
#    2.400    0.667    0.000    0.000    0.000    0.000 
#    0.000    0.000    0.000    0.000    0.000    0.000 
#
# Total GULP energy -167285.889191 kJ/mol
# GULP energy per Si atom -5576.196306 kJ/mol
# Density = 2.158842 g / cm^3
# Si number density = 21.637672 Si / 1000 Ang^3
#
#
#
# Elastic Constant Matrix: (Units=GPa)
#
#
# Indices 1 2 3 4 5 6 
#
# 1 52.3114 20.7227 16.8092 0.0000 0.0000 0.0000
# 2 20.7227 144.6076 55.9944 0.0000 0.0000 0.0000
# 3 16.8092 55.9944 110.3295 0.0000 0.0000 0.0000
# 4 0.0000 0.0000 0.0000 37.7845 0.0000 0.0000
# 5 0.0000 0.0000 0.0000 0.0000 23.4256 0.0000
# 6 0.0000 0.0000 0.0000 0.0000 0.0000 38.0803
#
#
#
# Elastic Compliance Matrix: (Units=1/GPa)
#
#
# Indices 1 2 3 4 5 6 
#
# 1 0.020631 -0.002165 -0.002045 0.000000 0.000000 0.000000
# 2 -0.002165 0.008834 -0.004154 0.000000 0.000000 0.000000
# 3 -0.002045 -0.004154 0.011483 0.000000 0.000000 0.000000
# 4 0.000000 0.000000 0.000000 0.026466 0.000000 0.000000
# 5 0.000000 0.000000 0.000000 0.000000 0.042688 0.000000
# 6 0.000000 0.000000 0.000000 0.000000 0.000000 0.026260
#
#
# Mechanical properties :
#
#
# Convention : Reuss Voigt Hill
#
# Bulk Modulus (GPa) = 41.28442 54.92235 48.10338
# Shear Modulus (GPa) = 31.02465 34.10622 32.56543
#
# Velocity S-wave (km/s) = 3.79070 3.97450 3.88369
# Velocity P-wave (km/s) = 6.18712 6.81909 6.51078
#
# Compressibility (1/GPa) = 0.02422222
#
# Stress axis : x y z
#
# Youngs Moduli (GPa) = 48.47111 113.20165 87.08347
#
# Poissons Ratio (x) = 0.24506 0.17804
# Poissons Ratio (y) = 0.10493 0.36170
# Poissons Ratio (z) = 0.09910 0.47018
#
# Static dielectric constant tensor:
#      x y z
#    x 1.826190 0.000000 0.000000 
#    y 0.000000 1.794660 0.000000 
#    z 0.000000 0.000000 1.814970 
# 
# From -- ./inp_files/34810.got.cif
#   From: 2010.05.17/outbox.cif.g08.bks.cpg/sg24_18_cif.got.tgz:34810.got - 2010.06.04 00:33:39.
