data_PCOD9335221
_publ_section_title
;
Structure prediction by ZEFSAII (Michael W. Deem and Ramdas Pophale) SiO2 
 PCOD9335221
Probable space group: I 21 21 21
;
_chemical_formula_sum "Si O2"
_cell_formula_units_Z 32
_cell_length_a 9.487665
_cell_length_b 11.898095
_cell_length_c 13.077677
_cell_angle_alpha 90.000000
_cell_angle_beta 90.000000
_cell_angle_gamma 90.000000
_cell_volume 1476.275392
_symmetry_space_group_name_H-M "I 21 21 21"
_symmetry_group_IT_number 24
_symmetry_cell_setting 'orthorhombic'
loop_
_space_group_symop_operation_xyz
x,y,z
-x,1/2-y,z
x,-y,1/2-z
1/2-x,y,-z
1/2+x,1/2+y,1/2+z
1/2-x,-y,1/2+z
1/2+x,1/2-y,-z
-x,1/2+y,1/2-z
loop_
_atom_site_type_symbol
_atom_site_label
_atom_site_fract_x
_atom_site_fract_y
_atom_site_fract_z
Si Si1 0.500000 0.250000 0.557944
Si Si2 0.398417 0.157310 0.946181
Si Si3 0.906990 0.022394 0.532510
Si Si4 0.182698 0.872424 0.228230
Si Si5 0.961006 0.500000 0.750000
O O1 0.570301 0.153871 0.489373
O O2 0.615838 0.310143 0.631773
O O3 0.500000 0.250000 0.994352
O O4 0.361412 0.191489 0.830825
O O5 0.250000 0.143985 0.000000
O O6 0.483141 0.042866 0.960674
O O7 0.750000 0.989918 0.500000
O O8 0.946386 0.989502 0.648396
O O9 0.127080 0.000000 0.250000
O O10 0.350864 0.897063 0.228005
#
# Coordination Sequence:
#
# PCOD9335221 Si02
#       5
#     4   8   8   8   4
#     4  12  26  44  76 116 156 194 258 328 380 460
#     4  12  23  45  72 104 147 201 258 316 378 457
#     4  12  28  46  72 109 151 197 259 322 388 458
#     4  10  21  42  76 101 142 198 244 299 388 447
#     4  10  24  50  72  98 148 202 250 306 388 454
#
# _framework density 21.676172000000001
#
# number of rings (size 3 to 8) (size 9 to 14) (size 15 to 20)
#    0.750    0.000    6.250    0.750    3.500    2.000 
#    6.750    0.000    0.000    0.000    0.000    0.000 
#    0.000    0.000    0.000    0.000    0.000    0.000 
#
# Total GULP energy -89313.001338 kJ/mol
# GULP energy per Si atom -5582.062584 kJ/mol
# Density = 2.162684 g / cm^3
# Si number density = 21.676172 Si / 1000 Ang^3
#
#
#
# Elastic Constant Matrix: (Units=GPa)
#
#
# Indices 1 2 3 4 5 6 
#
# 1 174.4122 30.4874 50.4471 0.0000 0.0000 0.0000
# 2 30.4874 72.7916 -4.2987 0.0000 0.0000 0.0000
# 3 50.4471 -4.2987 108.0692 0.0000 0.0000 0.0000
# 4 0.0000 0.0000 0.0000 77.4415 0.0000 0.0000
# 5 0.0000 0.0000 0.0000 0.0000 -6.1661 0.0000
# 6 0.0000 0.0000 0.0000 0.0000 0.0000 21.7663
#
#
#
# Elastic Compliance Matrix: (Units=1/GPa)
#
#
# Indices 1 2 3 4 5 6 
#
# 1 0.007335 -0.003282 -0.003555 0.000000 0.000000 0.000000
# 2 -0.003282 0.015239 0.002138 0.000000 0.000000 0.000000
# 3 -0.003555 0.002138 0.010998 0.000000 0.000000 0.000000
# 4 0.000000 0.000000 0.000000 0.012913 0.000000 0.000000
# 5 0.000000 0.000000 0.000000 0.000000 -0.162177 0.000000
# 6 0.000000 0.000000 0.000000 0.000000 0.000000 0.045943
#
#
# Mechanical properties :
#
#
# Convention : Reuss Voigt Hill
#
# Bulk Modulus (GPa) = 41.36562 56.50497 48.93530
# Shear Modulus (GPa) = -95.61474 37.18414 -29.21530
#
# Velocity S-wave (km/s) = -6.64878 4.14628 -3.67523
# Velocity P-wave (km/s) = 6.31006 7.00332 2.14822
#
# Compressibility (1/GPa) = 0.02417467
#
# Stress axis : x y z
#
# Youngs Moduli (GPa) = 136.32380 65.62179 90.92749
#
# Poissons Ratio (x) = 0.21539 0.32323
# Poissons Ratio (y) = 0.44745 -0.19443
# Poissons Ratio (z) = 0.48460 -0.14032
#
# Static dielectric constant tensor:
#      x y z
#    x 1.771620 0.000000 0.000000 
#    y 0.000000 1.829700 0.000000 
#    z 0.000000 0.000000 1.798680 
# 
# From -- ./inp_files/24368.got.cif
#   From: 2010.05.17/outbox.cif.g08.bks.cpg/sg24_13_cif.got.tgz:24368.got - 2010.06.04 00:33:39.
