data_PCOD9335543
_publ_section_title
;
Structure prediction by ZEFSAII (Michael W. Deem and Ramdas Pophale) SiO2 
 PCOD9335543
Probable space group: I 21 21 21
;
_chemical_formula_sum "Si O2"
_cell_formula_units_Z 56
_cell_length_a 25.475955
_cell_length_b 19.805918
_cell_length_c 5.246141
_cell_angle_alpha 90.000000
_cell_angle_beta 90.000000
_cell_angle_gamma 90.000000
_cell_volume 2647.069894
_symmetry_space_group_name_H-M "I 21 21 21"
_symmetry_group_IT_number 24
_symmetry_cell_setting 'orthorhombic'
loop_
_space_group_symop_operation_xyz
x,y,z
-x,1/2-y,z
x,-y,1/2-z
1/2-x,y,-z
1/2+x,1/2+y,1/2+z
1/2-x,-y,1/2+z
1/2+x,1/2-y,-z
-x,1/2+y,1/2-z
loop_
_atom_site_type_symbol
_atom_site_label
_atom_site_fract_x
_atom_site_fract_y
_atom_site_fract_z
Si Si1 0.586141 0.880042 0.493721
Si Si2 0.437937 0.744978 0.804141
Si Si3 0.507524 0.422911 0.351417
Si Si4 0.216877 0.798656 0.762469
Si Si5 0.598366 0.321280 0.209081
Si Si6 0.781877 0.000000 0.750000
Si Si7 0.299766 0.647555 0.306716
Si Si8 0.451176 0.500000 0.750000
O O1 0.572923 0.831193 0.725877
O O2 0.539155 0.880780 0.286489
O O3 0.643024 0.852528 0.428449
O O4 0.586941 0.959516 0.562115
O O5 0.500000 0.750000 0.831456
O O6 0.418855 0.791911 0.566544
O O7 0.412559 0.767022 0.068211
O O8 0.510911 0.500000 0.250000
O O9 0.560834 0.383298 0.293797
O O10 0.488799 0.441985 0.635925
O O11 0.250000 0.800849 0.500000
O O12 0.160646 0.833629 0.715562
O O13 0.205030 0.719594 0.831394
O O14 0.250000 0.826807 0.000000
O O15 0.750000 0.982115 0.500000
O O16 0.803832 0.925806 0.829627
O O17 0.250000 0.649481 0.500000
#
# Coordination Sequence:
#
# PCOD9335543 Si02
#       8
#     8   8   8   8   8   4   8   4
#     4  11  23  41  60  94 133 179 231 279 336 398
#     4  12  24  40  65 102 138 176 225 289 342 409
#     4  10  24  45  66 101 135 180 223 284 353 430
#     4  11  24  45  66  97 135 176 226 287 347 414
#     4  12  25  43  72 101 137 179 230 281 358 421
#     4  10  22  41  54  78 110 164 223 272 306 368
#     4  10  23  39  58  86 126 175 229 275 329 383
#     4  10  24  41  66  90 138 182 227 284 346 406
#
# _framework density 21.155465
#
# number of rings (size 3 to 8) (size 9 to 14) (size 15 to 20)
#    0.000    1.143    2.857    2.571    9.000    2.286 
#    0.000    0.000    0.000    0.857    0.000    0.000 
#    0.000    0.000    0.000    0.000    0.000    0.000 
#
# Total GULP energy -156053.554207 kJ/mol
# GULP energy per Si atom -5573.341222 kJ/mol
# Density = 2.110731 g / cm^3
# Si number density = 21.155465 Si / 1000 Ang^3
#
#
#
# Elastic Constant Matrix: (Units=GPa)
#
#
# Indices 1 2 3 4 5 6 
#
# 1 170.9848 26.4969 32.6939 0.0000 0.0000 0.0000
# 2 26.4969 63.8852 -2.2740 0.0000 0.0000 0.0000
# 3 32.6939 -2.2740 67.0826 0.0000 0.0000 0.0000
# 4 0.0000 0.0000 0.0000 24.7026 0.0000 0.0000
# 5 0.0000 0.0000 0.0000 0.0000 17.6773 0.0000
# 6 0.0000 0.0000 0.0000 0.0000 0.0000 28.5862
#
#
#
# Elastic Compliance Matrix: (Units=1/GPa)
#
#
# Indices 1 2 3 4 5 6 
#
# 1 0.006988 -0.003023 -0.003508 0.000000 0.000000 0.000000
# 2 -0.003023 0.016980 0.002049 0.000000 0.000000 0.000000
# 3 -0.003508 0.002049 0.016686 0.000000 0.000000 0.000000
# 4 0.000000 0.000000 0.000000 0.040481 0.000000 0.000000
# 5 0.000000 0.000000 0.000000 0.000000 0.056570 0.000000
# 6 0.000000 0.000000 0.000000 0.000000 0.000000 0.034982
#
#
# Mechanical properties :
#
#
# Convention : Reuss Voigt Hill
#
# Bulk Modulus (GPa) = 31.55638 46.19849 38.87743
# Shear Modulus (GPa) = 26.01263 30.52895 28.27079
#
# Velocity S-wave (km/s) = 3.51036 3.80291 3.65956
# Velocity P-wave (km/s) = 5.60169 6.41621 6.02274
#
# Compressibility (1/GPa) = 0.03168931
#
# Stress axis : x y z
#
# Youngs Moduli (GPa) = 143.10802 58.89331 59.92987
#
# Poissons Ratio (x) = 0.17804 0.21024
# Poissons Ratio (y) = 0.43263 -0.12279
# Poissons Ratio (z) = 0.50203 -0.12067
#
# Static dielectric constant tensor:
#      x y z
#    x 1.820520 0.000000 0.000000 
#    y 0.000000 1.868230 0.000000 
#    z 0.000000 0.000000 1.982500 
# 
# From -- ./inp_files/6529.got.cif
#   From: 2010.05.17/outbox.cif.g08.bks.cpg/sg24_4_cif.got.tgz:6529.got - 2010.06.04 00:33:39.
