data_PCOD9335973
_publ_section_title
;
Structure prediction by ZEFSAII (Michael W. Deem and Ramdas Pophale) SiO2 
 PCOD9335973
Probable space group: I 21 21 21
;
_chemical_formula_sum "Si O2"
_cell_formula_units_Z 40
_cell_length_a 9.122758
_cell_length_b 13.043080
_cell_length_c 14.359597
_cell_angle_alpha 90.000000
_cell_angle_beta 90.000000
_cell_angle_gamma 90.000000
_cell_volume 1708.632112
_symmetry_space_group_name_H-M "I 21 21 21"
_symmetry_group_IT_number 24
_symmetry_cell_setting 'orthorhombic'
loop_
_space_group_symop_operation_xyz
x,y,z
-x,1/2-y,z
x,-y,1/2-z
1/2-x,y,-z
1/2+x,1/2+y,1/2+z
1/2-x,-y,1/2+z
1/2+x,1/2-y,-z
-x,1/2+y,1/2-z
loop_
_atom_site_type_symbol
_atom_site_label
_atom_site_fract_x
_atom_site_fract_y
_atom_site_fract_z
Si Si1 0.219918 0.735107 0.720551
Si Si2 0.330596 0.548848 0.405134
Si Si3 0.664036 0.565958 0.404927
Si Si4 0.918925 0.907511 0.189014
Si Si5 0.215286 0.851469 0.106930
O O1 0.142908 0.639523 0.670590
O O2 0.191645 0.834592 0.658542
O O3 0.375519 0.678745 0.735598
O O4 0.200316 0.771632 0.826748
O O5 0.250000 0.584317 0.500000
O O6 0.499000 0.528935 0.429674
O O7 0.224991 0.459655 0.361612
O O8 0.750000 0.587773 0.500000
O O9 0.731022 0.463433 0.362818
O O10 0.040452 0.860404 0.122297
O O11 0.981866 0.000000 0.250000
O O12 0.250000 0.832469 0.000000
#
# Coordination Sequence:
#
# PCOD9335973 Si02
#       5
#     8   8   8   8   8
#     4  11  24  41  68 100 131 171 220 273 329 391
#     4  11  24  43  68  99 135 175 221 274 331 394
#     4  11  24  43  68  99 135 175 221 274 331 394
#     4  10  23  44  68  95 130 174 222 275 334 394
#     4  11  24  43  67  95 131 177 223 272 331 395
#
# _framework density 23.410540999999998
#
# number of rings (size 3 to 8) (size 9 to 14) (size 15 to 20)
#    0.000    1.200    0.000    6.000    0.000   12.000 
#    0.000    8.000    0.000    0.000    0.000    0.000 
#    0.000    0.000    0.000    0.000    0.000    0.000 
#
# Total GULP energy -111434.610820 kJ/mol
# GULP energy per Si atom -5571.730541 kJ/mol
# Density = 2.335726 g / cm^3
# Si number density = 23.410541 Si / 1000 Ang^3
#
#
#
# Elastic Constant Matrix: (Units=GPa)
#
#
# Indices 1 2 3 4 5 6 
#
# 1 141.7073 52.5885 59.0794 0.0000 0.0000 0.0000
# 2 52.5885 88.0244 21.9029 0.0000 0.0000 0.0000
# 3 59.0794 21.9029 109.0297 0.0000 0.0000 0.0000
# 4 0.0000 0.0000 0.0000 35.7647 0.0000 0.0000
# 5 0.0000 0.0000 0.0000 0.0000 37.6410 0.0000
# 6 0.0000 0.0000 0.0000 0.0000 0.0000 -13.6407
#
#
#
# Elastic Compliance Matrix: (Units=1/GPa)
#
#
# Indices 1 2 3 4 5 6 
#
# 1 0.011128 -0.005419 -0.004941 0.000000 0.000000 0.000000
# 2 -0.005419 0.014597 0.000004 0.000000 0.000000 0.000000
# 3 -0.004941 0.000004 0.011849 0.000000 0.000000 0.000000
# 4 0.000000 0.000000 0.000000 0.027961 0.000000 0.000000
# 5 0.000000 0.000000 0.000000 0.000000 0.026567 0.000000
# 6 0.000000 0.000000 0.000000 0.000000 0.000000 -0.073310
#
#
# Mechanical properties :
#
#
# Convention : Reuss Voigt Hill
#
# Bulk Modulus (GPa) = 59.30816 67.32257 63.31537
# Shear Modulus (GPa) = 110.81008 25.63238 68.22123
#
# Velocity S-wave (km/s) = 6.88739 3.31253 5.40412
# Velocity P-wave (km/s) = 9.41473 6.59168 8.12673
#
# Compressibility (1/GPa) = 0.01686109
#
# Stress axis : x y z
#
# Youngs Moduli (GPa) = 89.86593 68.50846 84.39878
#
# Poissons Ratio (x) = 0.37121 0.41703
# Poissons Ratio (y) = 0.48694 -0.00032
# Poissons Ratio (z) = 0.44404 -0.00026
#
# Static dielectric constant tensor:
#      x y z
#    x 2.047480 0.000000 0.000000 
#    y 0.000000 2.004910 0.000000 
#    z 0.000000 0.000000 1.879190 
# 
# From -- ./inp_files/24532.got.cif
#   From: 2010.05.17/outbox.cif.g08.bks.cpg/sg24_13_cif.got.tgz:24532.got - 2010.06.04 00:33:39.
