data_PCOD9335821
_publ_section_title
;
Structure prediction by ZEFSAII (Michael W. Deem and Ramdas Pophale) SiO2 
 PCOD9335821
Probable space group: I 21 21 21
;
_chemical_formula_sum "Si O2"
_cell_formula_units_Z 36
_cell_length_a 14.815419
_cell_length_b 10.657390
_cell_length_c 8.842517
_cell_angle_alpha 90.000000
_cell_angle_beta 90.000000
_cell_angle_gamma 90.000000
_cell_volume 1396.177711
_symmetry_space_group_name_H-M "I 21 21 21"
_symmetry_group_IT_number 24
_symmetry_cell_setting 'orthorhombic'
loop_
_space_group_symop_operation_xyz
x,y,z
-x,1/2-y,z
x,-y,1/2-z
1/2-x,y,-z
1/2+x,1/2+y,1/2+z
1/2-x,-y,1/2+z
1/2+x,1/2-y,-z
-x,1/2+y,1/2-z
loop_
_atom_site_type_symbol
_atom_site_label
_atom_site_fract_x
_atom_site_fract_y
_atom_site_fract_z
Si Si1 0.250000 0.452850 0.500000
Si Si2 0.000000 0.250000 0.904846
Si Si3 0.202621 0.894456 0.339123
Si Si4 0.000000 0.750000 0.095009
Si Si5 0.099778 0.369572 0.141079
Si Si6 0.646900 0.271542 0.348844
O O1 0.178796 0.536339 0.407338
O O2 0.305232 0.359597 0.390590
O O3 0.976191 0.132957 0.011480
O O4 0.915509 0.262751 0.796908
O O5 0.250000 0.922485 0.500000
O O6 0.147843 0.767000 0.365074
O O7 0.275764 0.864317 0.206465
O O8 0.146510 0.000000 0.250000
O O9 0.079860 0.801766 0.987227
O O10 0.047308 0.643630 0.199671
#
# Coordination Sequence:
#
# PCOD9335821 Si02
#       6
#     4   4   8   4   8   8
#     4  12  26  50  94 116 158 218 280 334 388 504
#     4  10  22  48  70 108 164 190 250 332 396 462
#     4  12  27  50  80 107 149 216 267 322 384 500
#     4  10  26  46  72 116 172 198 250 334 400 482
#     4  11  24  50  78 116 159 207 268 325 404 464
#     4  11  25  49  78 118 155 203 268 327 411 465
#
# _framework density 25.784686000000001
#
# number of rings (size 3 to 8) (size 9 to 14) (size 15 to 20)
#    0.000    0.889    3.333    1.333    4.667    8.000 
#   16.000    0.000    0.000    0.000    0.000    0.000 
#    0.000    0.000    0.000    0.000    0.000    0.000 
#
# Total GULP energy -100758.710209 kJ/mol
# GULP energy per Si atom -5597.706123 kJ/mol
# Density = 2.572600 g / cm^3
# Si number density = 25.784686 Si / 1000 Ang^3
#
#
#
# Elastic Constant Matrix: (Units=GPa)
#
#
# Indices 1 2 3 4 5 6 
#
# 1 146.0979 58.4123 87.0989 0.0000 0.0000 0.0000
# 2 58.4123 125.2291 70.1615 0.0000 0.0000 0.0000
# 3 87.0989 70.1615 199.2787 0.0000 0.0000 0.0000
# 4 0.0000 0.0000 0.0000 43.5612 0.0000 0.0000
# 5 0.0000 0.0000 0.0000 0.0000 61.9473 0.0000
# 6 0.0000 0.0000 0.0000 0.0000 0.0000 47.8846
#
#
#
# Elastic Compliance Matrix: (Units=1/GPa)
#
#
# Indices 1 2 3 4 5 6 
#
# 1 0.009963 -0.002750 -0.003386 0.000000 0.000000 0.000000
# 2 -0.002750 0.010707 -0.002568 0.000000 0.000000 0.000000
# 3 -0.003386 -0.002568 0.007402 0.000000 0.000000 0.000000
# 4 0.000000 0.000000 0.000000 0.022956 0.000000 0.000000
# 5 0.000000 0.000000 0.000000 0.000000 0.016143 0.000000
# 6 0.000000 0.000000 0.000000 0.000000 0.000000 0.020884
#
#
# Mechanical properties :
#
#
# Convention : Reuss Voigt Hill
#
# Bulk Modulus (GPa) = 93.77377 100.21678 96.99527
# Shear Modulus (GPa) = 45.86449 47.67417 46.76933
#
# Velocity S-wave (km/s) = 4.22210 4.30459 4.26354
# Velocity P-wave (km/s) = 7.75984 7.97854 7.86995
#
# Compressibility (1/GPa) = 0.01066396
#
# Stress axis : x y z
#
# Youngs Moduli (GPa) = 100.37113 93.40027 135.09528
#
# Poissons Ratio (x) = 0.25684 0.45748
# Poissons Ratio (y) = 0.27601 0.34688
# Poissons Ratio (z) = 0.33989 0.23982
#
# Static dielectric constant tensor:
#      x y z
#    x 2.050890 0.000000 0.000000 
#    y 0.000000 2.095420 0.000000 
#    z 0.000000 0.000000 2.135920 
# 
# From -- ./inp_files/13951.got.cif
#   From: 2010.05.17/outbox.cif.g08.bks.cpg/sg24_7_cif.got.tgz:13951.got - 2010.06.04 00:33:39.
