data_PCOD9335629
_publ_section_title
;
Structure prediction by ZEFSAII (Michael W. Deem and Ramdas Pophale) SiO2 
 PCOD9335629
Probable space group: I 21 21 21
;
_chemical_formula_sum "Si O2"
_cell_formula_units_Z 64
_cell_length_a 31.904925
_cell_length_b 18.131668
_cell_length_c 5.395423
_cell_angle_alpha 90.000000
_cell_angle_beta 90.000000
_cell_angle_gamma 90.000000
_cell_volume 3121.195595
_symmetry_space_group_name_H-M "I 21 21 21"
_symmetry_group_IT_number 24
_symmetry_cell_setting 'orthorhombic'
loop_
_space_group_symop_operation_xyz
x,y,z
-x,1/2-y,z
x,-y,1/2-z
1/2-x,y,-z
1/2+x,1/2+y,1/2+z
1/2-x,-y,1/2+z
1/2+x,1/2-y,-z
-x,1/2+y,1/2-z
loop_
_atom_site_type_symbol
_atom_site_label
_atom_site_fract_x
_atom_site_fract_y
_atom_site_fract_z
Si Si1 0.797465 0.424312 0.592392
Si Si2 0.798511 0.047513 0.999565
Si Si3 0.433052 0.178801 0.521251
Si Si4 0.123462 0.077801 0.213334
Si Si5 0.000058 0.048950 0.502122
Si Si6 0.130764 0.669679 0.484663
Si Si7 0.423806 0.658245 0.011134
Si Si8 0.648450 0.675297 0.325380
O O1 0.798809 0.500000 0.750000
O O2 0.750000 0.422894 0.500000
O O3 0.835850 0.425520 0.391620
O O4 0.806949 0.343032 0.707541
O O5 0.804804 0.000000 0.750000
O O6 0.750000 0.072214 0.000000
O O7 0.831128 0.113595 0.995299
O O8 0.805134 0.000000 0.250000
O O9 0.410222 0.143465 0.759127
O O10 0.466941 0.116500 0.462114
O O11 0.447904 0.262982 0.525268
O O12 0.391992 0.183520 0.347410
O O13 0.101561 0.000000 0.250000
O O14 0.140886 0.095552 0.947431
O O15 0.955226 0.090021 0.491404
O O16 0.002843 0.000000 0.750000
O O17 0.005260 0.000000 0.250000
O O18 0.107754 0.657932 0.222393
O O19 0.148204 0.753111 0.504497
O O20 0.099725 0.657769 0.722017
#
# Coordination Sequence:
#
# PCOD9335629 Si02
#       8
#     8   8   8   8   8   8   8   8
#     4  11  23  37  55  86 126 174 220 270 327 381
#     4  10  22  42  67  99 130 168 217 267 324 390
#     4  10  24  41  65  91 127 172 210 270 327 384
#     4  11  20  37  63  87 121 166 220 271 315 382
#     4  12  28  44  66 101 133 166 220 272 320 392
#     4  11  23  44  70  96 131 173 210 267 328 393
#     4  11  24  45  68  94 134 173 215 260 335 397
#     4  10  23  41  61  94 125 167 225 267 323 391
#
# _framework density 20.504963
#
# number of rings (size 3 to 8) (size 9 to 14) (size 15 to 20)
#    0.000    1.250    2.500    2.625    3.500    3.000 
#    2.250    3.125    0.000    0.000    0.000    0.000 
#    0.000    0.000    0.000    0.000    0.000    0.000 
#
# Total GULP energy -178224.376309 kJ/mol
# GULP energy per Si atom -5569.511760 kJ/mol
# Density = 2.045829 g / cm^3
# Si number density = 20.504963 Si / 1000 Ang^3
#
#
#
# Elastic Constant Matrix: (Units=GPa)
#
#
# Indices 1 2 3 4 5 6 
#
# 1 72.6555 49.3230 12.0945 0.0000 0.0000 -0.0001
# 2 49.3230 106.3788 21.4238 0.0000 0.0000 -0.0001
# 3 12.0945 21.4238 73.8226 0.0001 -0.0002 0.0004
# 4 0.0000 0.0000 0.0001 26.6823 -0.0001 0.0000
# 5 0.0000 0.0000 -0.0002 -0.0001 -4.6469 -0.0002
# 6 -0.0001 -0.0001 0.0004 0.0000 -0.0002 93.9757
#
#
#
# Elastic Compliance Matrix: (Units=1/GPa)
#
#
# Indices 1 2 3 4 5 6 
#
# 1 0.020113 -0.009199 -0.000625 0.000000 0.000000 0.000000
# 2 -0.009199 0.014192 -0.002611 0.000000 0.000000 0.000000
# 3 -0.000625 -0.002611 0.014406 0.000000 -0.000001 0.000000
# 4 0.000000 0.000000 0.000000 0.037478 0.000000 0.000000
# 5 0.000000 0.000000 -0.000001 0.000000 -0.215199 0.000000
# 6 0.000000 0.000000 0.000000 0.000000 0.000000 0.010641
#
#
# Mechanical properties :
#
#
# Convention : Reuss Voigt Hill
#
# Bulk Modulus (GPa) = 41.94916 46.50439 44.22677
# Shear Modulus (GPa) = -58.44511 34.53660 -11.95426
#
# Velocity S-wave (km/s) = -5.34460 4.10848 -2.41715
# Velocity P-wave (km/s) = 4.19332 6.72569 3.71827
#
# Compressibility (1/GPa) = 0.02383838
#
# Stress axis : x y z
#
# Youngs Moduli (GPa) = 49.71947 70.46405 69.41420
#
# Poissons Ratio (x) = 0.64823 0.04341
# Poissons Ratio (y) = 0.45739 0.18126
# Poissons Ratio (z) = 0.03109 0.18400
#
# Static dielectric constant tensor:
#      x y z
#    x 1.745070 0.000000 0.000000 
#    y 0.000000 1.954280 0.000000 
#    z 0.000000 0.000000 1.808220 
# 
# From -- ./inp_files/7862.got.cif
#   From: 2010.05.17/outbox.cif.g08.bks.cpg/sg24_4_cif.got.tgz:7862.got - 2010.06.04 00:33:39.
