data_PCOD9335353
_publ_section_title
;
Structure prediction by ZEFSAII (Michael W. Deem and Ramdas Pophale) SiO2 
 PCOD9335353
Probable space group: I 21 21 21
;
_chemical_formula_sum "Si O2"
_cell_formula_units_Z 64
_cell_length_a 19.238746
_cell_length_b 17.810548
_cell_length_c 9.190138
_cell_angle_alpha 90.000000
_cell_angle_beta 90.000000
_cell_angle_gamma 90.000000
_cell_volume 3149.024764
_symmetry_space_group_name_H-M "I 21 21 21"
_symmetry_group_IT_number 24
_symmetry_cell_setting 'orthorhombic'
loop_
_space_group_symop_operation_xyz
x,y,z
-x,1/2-y,z
x,-y,1/2-z
1/2-x,y,-z
1/2+x,1/2+y,1/2+z
1/2-x,-y,1/2+z
1/2+x,1/2-y,-z
-x,1/2+y,1/2-z
loop_
_atom_site_type_symbol
_atom_site_label
_atom_site_fract_x
_atom_site_fract_y
_atom_site_fract_z
Si Si1 0.172770 0.136384 0.943208
Si Si2 0.317938 0.839662 0.102569
Si Si3 0.116977 0.622936 0.191228
Si Si4 0.738965 0.076513 0.174549
Si Si5 0.675902 0.828077 0.086446
Si Si6 0.913755 0.484493 0.587142
Si Si7 0.531666 0.427011 0.682550
Si Si8 0.578559 0.722203 0.668255
O O1 0.188504 0.158520 0.777000
O O2 0.126482 0.060851 0.953073
O O3 0.250000 0.122570 0.000000
O O4 0.128222 0.197048 0.035514
O O5 0.350545 0.757359 0.079212
O O6 0.360519 0.915107 0.073605
O O7 0.250000 0.842292 0.000000
O O8 0.183810 0.587466 0.263266
O O9 0.112390 0.708999 0.245356
O O10 0.045880 0.584682 0.239906
O O11 0.126624 0.622896 0.016977
O O12 0.692148 0.141472 0.251618
O O13 0.712306 0.000000 0.250000
O O14 0.750000 0.075383 0.000000
O O15 0.750000 0.829617 0.000000
O O16 0.938019 0.500000 0.750000
O O17 0.973371 0.453827 0.483054
O O18 0.568298 0.500000 0.750000
O O19 0.569991 0.350285 0.725848
O O20 0.500000 0.750000 0.625971
#
# Coordination Sequence:
#
# PCOD9335353 Si02
#       8
#     8   8   8   8   8   8   8   8
#     4  11  24  37  64  99 132 169 222 275 330 397
#     4  10  22  37  61  90 131 170 212 268 333 397
#     4  10  22  39  62  92 120 165 224 255 335 401
#     4  11  23  40  64  91 127 160 207 279 338 399
#     4   9  20  37  59  88 123 159 205 271 324 390
#     4  10  22  41  57  91 132 172 218 270 330 394
#     4  11  21  39  66  84 123 171 215 267 319 399
#     4  10  23  41  63  96 132 175 223 279 333 411
#
# _framework density 20.323751000000001
#
# number of rings (size 3 to 8) (size 9 to 14) (size 15 to 20)
#    0.000    1.750    1.250    2.625    8.750    0.000 
#    0.000    5.625    0.000    0.000    0.000    0.000 
#    0.000    0.000    0.000    0.000    0.000    0.000 
#
# Total GULP energy -178242.358298 kJ/mol
# GULP energy per Si atom -5570.073697 kJ/mol
# Density = 2.027749 g / cm^3
# Si number density = 20.323751 Si / 1000 Ang^3
#
#
#
# Elastic Constant Matrix: (Units=GPa)
#
#
# Indices 1 2 3 4 5 6 
#
# 1 19.6123 6.0457 21.0347 0.0000 0.0000 0.0000
# 2 6.0457 110.8165 39.1368 0.0000 0.0000 0.0000
# 3 21.0347 39.1368 125.6481 0.0000 0.0000 0.0000
# 4 0.0000 0.0000 0.0000 27.5367 0.0000 0.0000
# 5 0.0000 0.0000 0.0000 0.0000 26.9334 0.0000
# 6 0.0000 0.0000 0.0000 0.0000 0.0000 -116.3822
#
#
#
# Elastic Compliance Matrix: (Units=1/GPa)
#
#
# Indices 1 2 3 4 5 6 
#
# 1 0.062157 0.000319 -0.010505 0.000000 0.000000 0.000000
# 2 0.000319 0.010141 -0.003212 0.000000 0.000000 0.000000
# 3 -0.010505 -0.003212 0.010718 0.000000 0.000000 0.000000
# 4 0.000000 0.000000 0.000000 0.036315 0.000000 0.000000
# 5 0.000000 0.000000 0.000000 0.000000 0.037129 0.000000
# 6 0.000000 0.000000 0.000000 0.000000 0.000000 -0.008592
#
#
# Mechanical properties :
#
#
# Convention : Reuss Voigt Hill
#
# Bulk Modulus (GPa) = 17.78738 43.16794 30.47766
# Shear Modulus (GPa) = 25.85268 0.27490 13.06379
#
# Velocity S-wave (km/s) = 3.57044 0.36818 2.53807
# Velocity P-wave (km/s) = 5.07626 4.63325 4.85980
#
# Compressibility (1/GPa) = 0.05621964
#
# Stress axis : x y z
#
# Youngs Moduli (GPa) = 16.08825 98.61027 93.30195
#
# Poissons Ratio (x) = -0.03146 0.98014
# Poissons Ratio (y) = -0.00513 0.29970
# Poissons Ratio (z) = 0.16901 0.31675
#
# Static dielectric constant tensor:
#      x y z
#    x 1.725450 0.000000 0.000000 
#    y 0.000000 1.748430 0.000000 
#    z 0.000000 0.000000 1.888910 
# 
# From -- ./inp_files/15408.got.cif
#   From: 2010.05.17/outbox.cif.g08.bks.cpg/sg24_8_cif.got.tgz:15408.got - 2010.06.04 00:33:39.
