data_PCOD9335577
_publ_section_title
;
Structure prediction by ZEFSAII (Michael W. Deem and Ramdas Pophale) SiO2 
 PCOD9335577
Probable space group: I 21 21 21
;
_chemical_formula_sum "Si O2"
_cell_formula_units_Z 40
_cell_length_a 18.373353
_cell_length_b 12.300218
_cell_length_c 7.482969
_cell_angle_alpha 90.000000
_cell_angle_beta 90.000000
_cell_angle_gamma 90.000000
_cell_volume 1691.122913
_symmetry_space_group_name_H-M "I 21 21 21"
_symmetry_group_IT_number 24
_symmetry_cell_setting 'orthorhombic'
loop_
_space_group_symop_operation_xyz
x,y,z
-x,1/2-y,z
x,-y,1/2-z
1/2-x,y,-z
1/2+x,1/2+y,1/2+z
1/2-x,-y,1/2+z
1/2+x,1/2-y,-z
-x,1/2+y,1/2-z
loop_
_atom_site_type_symbol
_atom_site_label
_atom_site_fract_x
_atom_site_fract_y
_atom_site_fract_z
Si Si1 0.666119 0.820031 0.988495
Si Si2 0.556720 0.660242 0.100329
Si Si3 0.173200 0.760568 0.421314
Si Si4 0.457017 0.920825 0.497509
Si Si5 0.383247 0.457566 0.939469
O O1 0.663844 0.773456 0.786108
O O2 0.619755 0.927751 0.040295
O O3 0.750000 0.850450 0.000000
O O4 0.633926 0.721873 0.106303
O O5 0.500000 0.750000 0.026959
O O6 0.530593 0.620946 0.294579
O O7 0.562431 0.548283 0.993035
O O8 0.250000 0.800998 0.500000
O O9 0.109750 0.847705 0.444046
O O10 0.159715 0.643751 0.517911
O O11 0.535312 0.912863 0.590385
O O12 0.352456 0.500000 0.750000
#
# Coordination Sequence:
#
# PCOD9335577 Si02
#       5
#     8   8   8   8   8
#     4  11  24  42  68  97 135 178 224 277 336 400
#     4  11  23  42  65  99 131 174 221 272 336 400
#     4  11  24  42  65  98 139 176 223 274 337 402
#     4  11  24  41  68  97 135 173 218 278 334 400
#     4  10  22  41  69 100 130 177 226 282 337 393
#
# _framework density 23.652922
#
# number of rings (size 3 to 8) (size 9 to 14) (size 15 to 20)
#    0.000    1.200    2.000    3.600    2.800    0.800 
#    0.000    0.000    0.000    0.000    0.000    0.000 
#    0.000    0.000    0.000    0.000    0.000    0.000 
#
# Total GULP energy -111682.672351 kJ/mol
# GULP energy per Si atom -5584.133618 kJ/mol
# Density = 2.359909 g / cm^3
# Si number density = 23.652922 Si / 1000 Ang^3
#
#
#
# Elastic Constant Matrix: (Units=GPa)
#
#
# Indices 1 2 3 4 5 6 
#
# 1 133.3118 64.4102 4.4532 0.0000 0.0000 0.0000
# 2 64.4102 162.6458 18.3488 0.0000 0.0000 0.0000
# 3 4.4532 18.3488 42.1548 0.0000 0.0000 0.0000
# 4 0.0000 0.0000 0.0000 26.8403 0.0000 0.0000
# 5 0.0000 0.0000 0.0000 0.0000 32.5742 0.0000
# 6 0.0000 0.0000 0.0000 0.0000 0.0000 40.5972
#
#
#
# Elastic Compliance Matrix: (Units=1/GPa)
#
#
# Indices 1 2 3 4 5 6 
#
# 1 0.009293 -0.003754 0.000652 0.000000 0.000000 0.000000
# 2 -0.003754 0.007982 -0.003078 0.000000 0.000000 0.000000
# 3 0.000652 -0.003078 0.024993 0.000000 0.000000 0.000000
# 4 0.000000 0.000000 0.000000 0.037257 0.000000 0.000000
# 5 0.000000 0.000000 0.000000 0.000000 0.030699 0.000000
# 6 0.000000 0.000000 0.000000 0.000000 0.000000 0.024632
#
#
# Mechanical properties :
#
#
# Convention : Reuss Voigt Hill
#
# Bulk Modulus (GPa) = 33.43445 56.94852 45.19149
# Shear Modulus (GPa) = 31.80955 36.72902 34.26928
#
# Velocity S-wave (km/s) = 3.67119 3.94487 3.81049
# Velocity P-wave (km/s) = 5.66889 6.69913 6.20543
#
# Compressibility (1/GPa) = 0.02990927
#
# Stress axis : x y z
#
# Youngs Moduli (GPa) = 107.60699 125.28020 40.01135
#
# Poissons Ratio (x) = 0.47027 -0.02610
# Poissons Ratio (y) = 0.40393 0.12315
# Poissons Ratio (z) = -0.07018 0.38559
#
# Static dielectric constant tensor:
#      x y z
#    x 1.890640 0.000000 0.000000 
#    y 0.000000 1.916990 0.000000 
#    z 0.000000 0.000000 2.019100 
# 
# From -- ./inp_files/10674.got.cif
#   From: 2010.05.17/outbox.cif.g08.bks.cpg/sg24_6_cif.got.tgz:10674.got - 2010.06.04 00:33:39.
