data_PCOD9335598
_publ_section_title
;
Structure prediction by ZEFSAII (Michael W. Deem and Ramdas Pophale) SiO2 
 PCOD9335598
Probable space group: I 21 21 21
;
_chemical_formula_sum "Si O2"
_cell_formula_units_Z 48
_cell_length_a 7.332550
_cell_length_b 10.225332
_cell_length_c 31.170004
_cell_angle_alpha 90.000000
_cell_angle_beta 90.000000
_cell_angle_gamma 90.000000
_cell_volume 2337.057022
_symmetry_space_group_name_H-M "I 21 21 21"
_symmetry_group_IT_number 24
_symmetry_cell_setting 'orthorhombic'
loop_
_space_group_symop_operation_xyz
x,y,z
-x,1/2-y,z
x,-y,1/2-z
1/2-x,y,-z
1/2+x,1/2+y,1/2+z
1/2-x,-y,1/2+z
1/2+x,1/2-y,-z
-x,1/2+y,1/2-z
loop_
_atom_site_type_symbol
_atom_site_label
_atom_site_fract_x
_atom_site_fract_y
_atom_site_fract_z
Si Si1 0.632505 0.870448 0.327421
Si Si2 0.158876 0.991986 0.390600
Si Si3 0.761038 0.099376 0.378272
Si Si4 0.798818 0.314500 0.681730
Si Si5 0.789162 0.292176 0.450163
Si Si6 0.586143 0.500000 0.250000
Si Si7 0.500000 0.250000 0.850052
O O1 0.500000 0.750000 0.337586
O O2 0.544823 0.936313 0.285509
O O3 0.846332 0.828849 0.323067
O O4 0.632565 0.981590 0.364009
O O5 0.132305 0.840781 0.379277
O O6 0.249457 0.068889 0.350862
O O7 0.241503 0.060229 0.432810
O O8 0.947941 0.034484 0.392401
O O9 0.809390 0.189539 0.336671
O O10 0.693319 0.193197 0.416415
O O11 0.000000 0.250000 0.677929
O O12 0.796027 0.384456 0.727885
O O13 0.750000 0.277481 0.500000
O O14 0.000000 0.250000 0.445275
#
# Coordination Sequence:
#
# PCOD9335598 Si02
#       7
#     8   8   8   8   8   4   4
#     4  11  23  41  61  87 123 167 218 265 320 379
#     4   9  20  39  63  85 122 166 210 252 324 390
#     4   9  20  40  62  85 124 164 206 261 326 389
#     4  11  20  35  59  85 117 158 200 265 320 361
#     4   9  18  35  61  98 124 150 199 266 320 387
#     4  12  24  38  56  88 126 154 212 280 308 370
#     4  10  22  42  64  84 118 178 212 250 322 394
#
# _framework density 20.538651000000002
#
# number of rings (size 3 to 8) (size 9 to 14) (size 15 to 20)
#    0.000    2.000    1.667    3.000    0.000    2.667 
#    0.000   10.833    3.667    9.000    2.167    0.000 
#    0.000    0.000    0.000    0.000    0.000    0.000 
#
# Total GULP energy -133610.216407 kJ/mol
# GULP energy per Si atom -5567.092350 kJ/mol
# Density = 2.049190 g / cm^3
# Si number density = 20.538651 Si / 1000 Ang^3
#
#
#
# Elastic Constant Matrix: (Units=GPa)
#
#
# Indices 1 2 3 4 5 6 
#
# 1 31.4117 8.2037 0.8852 0.0000 0.0000 0.0000
# 2 8.2037 114.9837 47.6925 0.0001 0.0000 0.0000
# 3 0.8852 47.6925 111.8172 0.0000 0.0000 0.0000
# 4 0.0000 0.0001 0.0000 -906.6811 0.0000 0.0000
# 5 0.0000 0.0000 0.0000 0.0000 29.8647 0.0000
# 6 0.0000 0.0000 0.0000 0.0000 0.0000 -1.7013
#
#
#
# Elastic Compliance Matrix: (Units=1/GPa)
#
#
# Indices 1 2 3 4 5 6 
#
# 1 0.032512 -0.002689 0.000889 0.000000 0.000000 0.000000
# 2 -0.002689 0.010788 -0.004580 0.000000 0.000000 0.000000
# 3 0.000889 -0.004580 0.010890 0.000000 0.000000 0.000000
# 4 0.000000 0.000000 0.000000 -0.001103 0.000000 0.000000
# 5 0.000000 0.000000 0.000000 0.000000 0.033484 0.000000
# 6 0.000000 0.000000 0.000000 0.000000 0.000000 -0.587795
#
#
# Mechanical properties :
#
#
# Convention : Reuss Voigt Hill
#
# Bulk Modulus (GPa) = 24.13610 41.30838 32.72224
# Shear Modulus (GPa) = -10.53399 -162.27479 -86.40439
#
# Velocity S-wave (km/s) = -2.26716 -8.89837 -6.49311
# Velocity P-wave (km/s) = 2.21895 9.24221 6.34408
#
# Compressibility (1/GPa) = 0.04143171
#
# Stress axis : x y z
#
# Youngs Moduli (GPa) = 30.75749 92.69153 91.82992
#
# Poissons Ratio (x) = 0.24920 -0.08167
# Poissons Ratio (y) = 0.08269 0.42060
# Poissons Ratio (z) = -0.02735 0.42455
#
# Static dielectric constant tensor:
#      x y z
#    x 2.513740 0.000000 0.000000 
#    y 0.000000 1.830460 0.000000 
#    z 0.000000 0.000000 2.119720 
# 
# From -- ./inp_files/38305.got.cif
#   From: 2010.05.17/outbox.cif.g08.bks.cpg/sg24_20_cif.got.tgz:38305.got - 2010.06.04 00:33:39.
