data_PCOD9335384
_publ_section_title
;
Structure prediction by ZEFSAII (Michael W. Deem and Ramdas Pophale) SiO2 
 PCOD9335384
Probable space group: I 21 21 21
;
_chemical_formula_sum "Si O2"
_cell_formula_units_Z 60
_cell_length_a 11.553478
_cell_length_b 30.566583
_cell_length_c 7.066690
_cell_angle_alpha 90.000000
_cell_angle_beta 90.000000
_cell_angle_gamma 90.000000
_cell_volume 2495.604006
_symmetry_space_group_name_H-M "I 21 21 21"
_symmetry_group_IT_number 24
_symmetry_cell_setting 'orthorhombic'
loop_
_space_group_symop_operation_xyz
x,y,z
-x,1/2-y,z
x,-y,1/2-z
1/2-x,y,-z
1/2+x,1/2+y,1/2+z
1/2-x,-y,1/2+z
1/2+x,1/2-y,-z
-x,1/2+y,1/2-z
loop_
_atom_site_type_symbol
_atom_site_label
_atom_site_fract_x
_atom_site_fract_y
_atom_site_fract_z
Si Si1 0.418780 0.911854 0.930765
Si Si2 0.473011 0.150015 0.903897
Si Si3 0.129036 0.467143 0.917655
Si Si4 0.250000 0.153150 0.500000
Si Si5 0.121676 0.990008 0.526273
Si Si6 0.380959 0.226404 0.721666
Si Si7 0.907496 0.881213 0.778317
Si Si8 0.282561 0.317033 0.780184
O O1 0.338298 0.883751 0.076614
O O2 0.383636 0.962344 0.924743
O O3 0.540252 0.904806 0.037590
O O4 0.413164 0.887016 0.728217
O O5 0.406687 0.196939 0.908293
O O6 0.590575 0.161105 0.785440
O O7 0.504399 0.136202 0.115936
O O8 0.106031 0.500000 0.750000
O O9 0.156238 0.419352 0.837372
O O10 0.002839 0.466959 0.021155
O O11 0.250000 0.483407 0.000000
O O12 0.337898 0.187785 0.589495
O O13 0.250000 0.969425 0.500000
O O14 0.121437 0.000000 0.750000
O O15 0.500000 0.250000 0.664197
O O16 0.291843 0.265969 0.732347
O O17 0.818846 0.842603 0.826072
O O18 0.250000 0.319368 0.000000
#
# Coordination Sequence:
#
# PCOD9335384 Si02
#       8
#     8   8   8   4   8   8   8   8
#     4  11  22  43  65  91 134 170 221 285 333 403
#     4   9  21  38  62  93 127 177 214 267 342 402
#     4  11  24  44  67 103 141 175 231 295 346 427
#     4  10  22  38  62  92 130 168 226 282 330 416
#     4  11  24  46  68  97 138 182 230 288 351 424
#     4   9  19  37  58  88 129 169 219 270 336 404
#     4  11  22  42  66  97 133 172 229 277 341 418
#     4   9  19  36  60  91 132 170 215 278 328 407
#
# _framework density 24.042275
#
# number of rings (size 3 to 8) (size 9 to 14) (size 15 to 20)
#    0.000    1.867    3.333    1.200    0.000    8.533 
#    0.000    3.333    0.000    0.000    0.000    0.000 
#    0.000    0.000    0.000    0.000    0.000    0.000 
#
# Total GULP energy -167069.096821 kJ/mol
# GULP energy per Si atom -5568.969894 kJ/mol
# Density = 2.398755 g / cm^3
# Si number density = 24.042275 Si / 1000 Ang^3
#
#
#
# Elastic Constant Matrix: (Units=GPa)
#
#
# Indices 1 2 3 4 5 6 
#
# 1 104.3028 25.6687 20.2551 -0.0009 0.0396 0.0003
# 2 25.6687 123.3500 4.0543 0.0001 -0.0162 0.0001
# 3 20.2551 4.0543 37.9524 0.0022 0.0706 -0.0005
# 4 -0.0009 0.0001 0.0022 12.9248 -0.0384 -0.0006
# 5 0.0396 -0.0162 0.0706 -0.0384 183.9386 0.0253
# 6 0.0003 0.0001 -0.0005 -0.0006 0.0253 37.1705
#
#
#
# Elastic Compliance Matrix: (Units=1/GPa)
#
#
# Indices 1 2 3 4 5 6 
#
# 1 0.011236 -0.002149 -0.005767 0.000002 0.000000 0.000000
# 2 -0.002149 0.008546 0.000234 0.000000 0.000001 0.000000
# 3 -0.005767 0.000234 0.029402 -0.000006 -0.000010 0.000000
# 4 0.000002 0.000000 -0.000006 0.077370 0.000016 0.000001
# 5 0.000000 0.000001 -0.000010 0.000016 0.005437 -0.000004
# 6 0.000000 0.000000 0.000000 0.000001 -0.000004 0.026903
#
#
# Mechanical properties :
#
#
# Convention : Reuss Voigt Hill
#
# Bulk Modulus (GPa) = 29.56807 40.61791 35.09299
# Shear Modulus (GPa) = 26.94949 61.18193 44.06571
#
# Velocity S-wave (km/s) = 3.35165 5.05004 4.28582
# Velocity P-wave (km/s) = 5.22524 7.13687 6.25452
#
# Compressibility (1/GPa) = 0.03382026
#
# Stress axis : x y z
#
# Youngs Moduli (GPa) = 88.99794 117.00752 34.01151
#
# Poissons Ratio (x) = 0.25141 0.19615
# Poissons Ratio (y) = 0.19123 -0.00795
# Poissons Ratio (z) = 0.51327 -0.02735
#
# Static dielectric constant tensor:
#      x y z
#    x 2.109610 0.000000 0.000000 
#    y 0.000000 1.896180 -0.000010 
#    z 0.000000 -0.000010 2.040130 
# 
# From -- ./inp_files/11614.got.cif
#   From: 2010.05.17/outbox.cif.g08.bks.cpg/sg24_6_cif.got.tgz:11614.got - 2010.06.04 00:33:39.
