data_PCOD9335702
_publ_section_title
;
Structure prediction by ZEFSAII (Michael W. Deem and Ramdas Pophale) SiO2 
 PCOD9335702
Probable space group: I 21 21 21
;
_chemical_formula_sum "Si O2"
_cell_formula_units_Z 48
_cell_length_a 8.803811
_cell_length_b 14.772832
_cell_length_c 14.395205
_cell_angle_alpha 90.000000
_cell_angle_beta 90.000000
_cell_angle_gamma 90.000000
_cell_volume 1872.200356
_symmetry_space_group_name_H-M "I 21 21 21"
_symmetry_group_IT_number 24
_symmetry_cell_setting 'orthorhombic'
loop_
_space_group_symop_operation_xyz
x,y,z
-x,1/2-y,z
x,-y,1/2-z
1/2-x,y,-z
1/2+x,1/2+y,1/2+z
1/2-x,-y,1/2+z
1/2+x,1/2-y,-z
-x,1/2+y,1/2-z
loop_
_atom_site_type_symbol
_atom_site_label
_atom_site_fract_x
_atom_site_fract_y
_atom_site_fract_z
Si Si1 0.710138 0.992225 0.408544
Si Si2 0.335839 0.791339 0.210039
Si Si3 0.206582 0.163145 0.101294
Si Si4 0.944236 0.093519 0.208370
Si Si5 0.387345 0.679387 0.895317
Si Si6 0.852059 0.466843 0.592581
O O1 0.750000 0.935999 0.500000
O O2 0.825956 0.078964 0.418182
O O3 0.536112 0.023585 0.410827
O O4 0.773404 0.934267 0.322096
O O5 0.500000 0.750000 0.223031
O O6 0.254494 0.780185 0.309211
O O7 0.262228 0.734883 0.126777
O O8 0.326795 0.893880 0.173245
O O9 0.033504 0.133049 0.120520
O O10 0.296839 0.068370 0.110239
O O11 0.250000 0.199454 0.000000
O O12 0.962152 0.158695 0.295490
O O13 0.012311 0.000000 0.250000
O O14 0.500000 0.750000 0.946885
O O15 0.750000 0.440203 0.500000
#
# Coordination Sequence:
#
# PCOD9335702 Si02
#       6
#     8   8   8   8   8   8
#     4  11  24  42  66 101 132 175 231 283 343 415
#     4  12  25  45  67 101 138 183 225 287 358 423
#     4  11  24  44  69  98 133 184 238 288 347 407
#     4  10  22  43  70  94 128 180 231 283 340 414
#     4  11  24  43  68  95 136 177 228 277 354 414
#     4  11  25  43  70 100 138 180 233 287 345 419
#
# _framework density 25.638280000000002
#
# number of rings (size 3 to 8) (size 9 to 14) (size 15 to 20)
#    0.000    1.000    3.333    3.500    7.000    2.000 
#    3.000    0.000    0.000    0.000    0.000    0.000 
#    0.000    0.000    0.000    0.000    0.000    0.000 
#
# Total GULP energy -134009.057888 kJ/mol
# GULP energy per Si atom -5583.710745 kJ/mol
# Density = 2.557993 g / cm^3
# Si number density = 25.638280 Si / 1000 Ang^3
#
#
#
# Elastic Constant Matrix: (Units=GPa)
#
#
# Indices 1 2 3 4 5 6 
#
# 1 149.3820 6.5770 34.0219 0.0000 0.0000 0.0000
# 2 6.5770 89.6159 1.3111 0.0000 0.0000 0.0000
# 3 34.0219 1.3111 99.5934 0.0000 0.0000 0.0000
# 4 0.0000 0.0000 0.0000 10.0878 0.0000 0.0000
# 5 0.0000 0.0000 0.0000 0.0000 40.1751 0.0000
# 6 0.0000 0.0000 0.0000 0.0000 0.0000 10.9582
#
#
#
# Elastic Compliance Matrix: (Units=1/GPa)
#
#
# Indices 1 2 3 4 5 6 
#
# 1 0.007281 -0.000498 -0.002481 0.000000 0.000000 0.000000
# 2 -0.000498 0.011195 0.000023 0.000000 0.000000 0.000000
# 3 -0.002481 0.000023 0.010888 0.000000 0.000000 0.000000
# 4 0.000000 0.000000 0.000000 0.099129 0.000000 0.000000
# 5 0.000000 0.000000 0.000000 0.000000 0.024891 0.000000
# 6 0.000000 0.000000 0.000000 0.000000 0.000000 0.091256
#
#
# Mechanical properties :
#
#
# Convention : Reuss Voigt Hill
#
# Bulk Modulus (GPa) = 42.64030 46.93458 44.78744
# Shear Modulus (GPa) = 19.35212 32.02299 25.68755
#
# Velocity S-wave (km/s) = 2.75037 3.53800 3.16875
# Velocity P-wave (km/s) = 5.17239 5.91913 5.55831
#
# Compressibility (1/GPa) = 0.02345199
#
# Stress axis : x y z
#
# Youngs Moduli (GPa) = 137.34057 89.32592 91.84454
#
# Poissons Ratio (x) = 0.04449 0.22784
# Poissons Ratio (y) = 0.06841 -0.00209
# Poissons Ratio (z) = 0.34071 -0.00203
#
# Static dielectric constant tensor:
#      x y z
#    x 2.070950 0.000000 0.000000 
#    y 0.000000 2.037210 0.000000 
#    z 0.000000 0.000000 2.070770 
# 
# From -- ./inp_files/24815.got.cif
#   From: 2010.05.17/outbox.cif.g08.bks.cpg/sg24_13_cif.got.tgz:24815.got - 2010.06.04 00:33:39.
