data_PCOD9335641
_publ_section_title
;
Structure prediction by ZEFSAII (Michael W. Deem and Ramdas Pophale) SiO2 
 PCOD9335641
Probable space group: I 21 21 21
;
_chemical_formula_sum "Si O2"
_cell_formula_units_Z 40
_cell_length_a 17.849165
_cell_length_b 13.036516
_cell_length_c 8.028363
_cell_angle_alpha 90.000000
_cell_angle_beta 90.000000
_cell_angle_gamma 90.000000
_cell_volume 1868.127214
_symmetry_space_group_name_H-M "I 21 21 21"
_symmetry_group_IT_number 24
_symmetry_cell_setting 'orthorhombic'
loop_
_space_group_symop_operation_xyz
x,y,z
-x,1/2-y,z
x,-y,1/2-z
1/2-x,y,-z
1/2+x,1/2+y,1/2+z
1/2-x,-y,1/2+z
1/2+x,1/2-y,-z
-x,1/2+y,1/2-z
loop_
_atom_site_type_symbol
_atom_site_label
_atom_site_fract_x
_atom_site_fract_y
_atom_site_fract_z
Si Si1 0.500000 0.250000 0.423938
Si Si2 0.587744 0.273136 0.995786
Si Si3 0.123940 0.145505 0.369381
Si Si4 0.250000 0.701539 0.000000
Si Si5 0.674561 0.550561 0.425278
Si Si6 0.130709 0.379330 0.755479
O O1 0.452904 0.173475 0.538682
O O2 0.439291 0.316520 0.323095
O O3 0.500000 0.250000 0.989147
O O4 0.610906 0.326873 0.822955
O O5 0.611943 0.365315 0.118324
O O6 0.632195 0.172648 0.060323
O O7 0.188036 0.224574 0.422203
O O8 0.148189 0.035460 0.442592
O O9 0.204853 0.640693 0.856226
O O10 0.695031 0.500000 0.250000
O O11 0.750000 0.600038 0.500000
O O12 0.115544 0.500000 0.750000
#
# Coordination Sequence:
#
# PCOD9335641 Si02
#       6
#     4   8   8   4   8   8
#     4  10  22  42  70 100 144 188 242 302 364 462
#     4  12  27  44  68 109 147 193 246 306 368 457
#     4  11  23  45  71 105 147 186 246 302 374 436
#     4  10  24  46  68 102 138 194 242 310 358 454
#     4  12  26  45  77 112 147 193 245 311 385 450
#     4  11  26  46  74 102 147 201 251 310 381 445
#
# _framework density 21.411818
#
# number of rings (size 3 to 8) (size 9 to 14) (size 15 to 20)
#    0.000    0.800    3.000    4.200    5.600    1.600 
#    0.000    3.000    0.000    0.000    0.000    0.000 
#    0.000    0.000    0.000    0.000    0.000    0.000 
#
# Total GULP energy -111693.827433 kJ/mol
# GULP energy per Si atom -5584.691372 kJ/mol
# Density = 2.136308 g / cm^3
# Si number density = 21.411818 Si / 1000 Ang^3
#
#
#
# Elastic Constant Matrix: (Units=GPa)
#
#
# Indices 1 2 3 4 5 6 
#
# 1 114.7401 37.4236 28.6099 0.0000 0.0000 0.0000
# 2 37.4236 143.5814 40.4469 0.0000 0.0000 0.0000
# 3 28.6099 40.4469 91.4769 0.0000 0.0000 0.0000
# 4 0.0000 0.0000 0.0000 25.8949 0.0000 0.0000
# 5 0.0000 0.0000 0.0000 0.0000 21.3405 0.0000
# 6 0.0000 0.0000 0.0000 0.0000 0.0000 31.7754
#
#
#
# Elastic Compliance Matrix: (Units=1/GPa)
#
#
# Indices 1 2 3 4 5 6 
#
# 1 0.009910 -0.001953 -0.002236 0.000000 0.000000 0.000000
# 2 -0.001953 0.008341 -0.003077 0.000000 0.000000 0.000000
# 3 -0.002236 -0.003077 0.012991 0.000000 0.000000 0.000000
# 4 0.000000 0.000000 0.000000 0.038618 0.000000 0.000000
# 5 0.000000 0.000000 0.000000 0.000000 0.046859 0.000000
# 6 0.000000 0.000000 0.000000 0.000000 0.000000 0.031471
#
#
# Mechanical properties :
#
#
# Convention : Reuss Voigt Hill
#
# Bulk Modulus (GPa) = 59.84390 62.52881 61.18635
# Shear Modulus (GPa) = 29.71035 32.02335 30.86685
#
# Velocity S-wave (km/s) = 3.72905 3.87148 3.80093
# Velocity P-wave (km/s) = 6.82281 7.01790 6.92104
#
# Compressibility (1/GPa) = 0.01671014
#
# Stress axis : x y z
#
# Youngs Moduli (GPa) = 100.90956 119.89628 76.97361
#
# Poissons Ratio (x) = 0.23417 0.17210
# Poissons Ratio (y) = 0.19709 0.23684
# Poissons Ratio (z) = 0.22561 0.36892
#
# Static dielectric constant tensor:
#      x y z
#    x 1.748650 0.000000 0.000000 
#    y 0.000000 1.755360 0.000000 
#    z 0.000000 0.000000 1.892710 
# 
# From -- ./inp_files/13874.got.cif
#   From: 2010.05.17/outbox.cif.g08.bks.cpg/sg24_7_cif.got.tgz:13874.got - 2010.06.04 00:33:39.
