data_PCOD9335323
_publ_section_title
;
Structure prediction by ZEFSAII (Michael W. Deem and Ramdas Pophale) SiO2 
 PCOD9335323
Probable space group: I 21 21 21
;
_chemical_formula_sum "Si O2"
_cell_formula_units_Z 60
_cell_length_a 23.299448
_cell_length_b 18.507804
_cell_length_c 6.245058
_cell_angle_alpha 90.000000
_cell_angle_beta 90.000000
_cell_angle_gamma 90.000000
_cell_volume 2693.004008
_symmetry_space_group_name_H-M "I 21 21 21"
_symmetry_group_IT_number 24
_symmetry_cell_setting 'orthorhombic'
loop_
_space_group_symop_operation_xyz
x,y,z
-x,1/2-y,z
x,-y,1/2-z
1/2-x,y,-z
1/2+x,1/2+y,1/2+z
1/2-x,-y,1/2+z
1/2+x,1/2-y,-z
-x,1/2+y,1/2-z
loop_
_atom_site_type_symbol
_atom_site_label
_atom_site_fract_x
_atom_site_fract_y
_atom_site_fract_z
Si Si1 0.317294 0.290252 0.487211
Si Si2 0.110051 0.643646 0.378979
Si Si3 0.486921 0.168704 0.846976
Si Si4 0.309268 0.882032 0.556492
Si Si5 0.697520 0.078524 0.152625
Si Si6 0.599070 0.282992 0.169130
Si Si7 0.108262 0.075439 0.374725
Si Si8 0.650476 0.500000 0.250000
O O1 0.250000 0.262720 0.500000
O O2 0.347312 0.320544 0.703711
O O3 0.310623 0.360077 0.331770
O O4 0.365316 0.234932 0.387472
O O5 0.142364 0.579500 0.498499
O O6 0.096802 0.705382 0.554738
O O7 0.045680 0.625082 0.309646
O O8 0.500000 0.250000 0.768750
O O9 0.438613 0.131653 0.702142
O O10 0.461239 0.179106 0.091409
O O11 0.250000 0.846301 0.500000
O O12 0.356934 0.830497 0.464428
O O13 0.328668 0.899002 0.795849
O O14 0.312713 0.955903 0.420183
O O15 0.707855 0.000000 0.250000
O O16 0.750000 0.099575 0.000000
O O17 0.096766 0.000000 0.250000
O O18 0.111504 0.056719 0.622283
#
# Coordination Sequence:
#
# PCOD9335323 Si02
#       8
#     8   8   8   8   8   8   8   4
#     4  11  22  39  64 100 134 171 218 276 341 399
#     4  10  22  41  66  95 130 171 218 278 330 393
#     4   9  19  43  68  90 129 174 216 277 323 391
#     4  10  22  35  59  89 122 159 205 261 314 384
#     4  11  23  40  63  95 134 173 219 271 336 401
#     4   9  22  40  63  94 129 169 212 267 335 393
#     4   9  20  41  60  86 126 167 212 261 325 378
#     4  10  22  38  60  86 118 168 210 258 320 380
#
# _framework density 22.279954
#
# number of rings (size 3 to 8) (size 9 to 14) (size 15 to 20)
#    0.000    2.133    1.333    0.400    4.667    3.200 
#    2.400   23.333    5.867    0.000    0.000    0.000 
#    0.000    0.000    0.000    0.000    0.000    0.000 
#
# Total GULP energy -167176.485392 kJ/mol
# GULP energy per Si atom -5572.549513 kJ/mol
# Density = 2.222924 g / cm^3
# Si number density = 22.279954 Si / 1000 Ang^3
#
#
#
# Elastic Constant Matrix: (Units=GPa)
#
#
# Indices 1 2 3 4 5 6 
#
# 1 147.9774 6.0212 36.9906 0.0000 0.0000 0.0000
# 2 6.0212 31.9260 6.0156 0.0000 0.0000 0.0000
# 3 36.9906 6.0156 80.7590 0.0000 0.0000 0.0000
# 4 0.0000 0.0000 0.0000 32.5252 0.0000 0.0000
# 5 0.0000 0.0000 0.0000 0.0000 27.6993 0.0000
# 6 0.0000 0.0000 0.0000 0.0000 0.0000 23.4688
#
#
#
# Elastic Compliance Matrix: (Units=1/GPa)
#
#
# Indices 1 2 3 4 5 6 
#
# 1 0.007651 -0.000794 -0.003445 0.000000 0.000000 0.000000
# 2 -0.000794 0.031851 -0.002009 0.000000 0.000000 0.000000
# 3 -0.003445 -0.002009 0.014110 0.000000 0.000000 0.000000
# 4 0.000000 0.000000 0.000000 0.030745 0.000000 0.000000
# 5 0.000000 0.000000 0.000000 0.000000 0.036102 0.000000
# 6 0.000000 0.000000 0.000000 0.000000 0.000000 0.042610
#
#
# Mechanical properties :
#
#
# Convention : Reuss Voigt Hill
#
# Bulk Modulus (GPa) = 24.32148 39.85748 32.08948
# Shear Modulus (GPa) = 26.41710 30.84765 28.63238
#
# Velocity S-wave (km/s) = 3.44712 3.72499 3.58874
# Velocity P-wave (km/s) = 5.17528 6.03564 5.62194
#
# Compressibility (1/GPa) = 0.04111592
#
# Stress axis : x y z
#
# Youngs Moduli (GPa) = 130.69561 31.39651 70.87018
#
# Poissons Ratio (x) = 0.02492 0.24418
# Poissons Ratio (y) = 0.10375 0.14237
# Poissons Ratio (z) = 0.45031 0.06307
#
# Static dielectric constant tensor:
#      x y z
#    x 1.921340 0.000000 0.000000 
#    y 0.000000 1.840110 0.000000 
#    z 0.000000 0.000000 1.898840 
# 
# From -- ./inp_files/6553.got.cif
#   From: 2010.05.17/outbox.cif.g08.bks.cpg/sg24_4_cif.got.tgz:6553.got - 2010.06.04 00:33:39.
