data_PCOD9335685
_publ_section_title
;
Structure prediction by ZEFSAII (Michael W. Deem and Ramdas Pophale) SiO2 
 PCOD9335685
Probable space group: I 21 21 21
;
_chemical_formula_sum "Si O2"
_cell_formula_units_Z 56
_cell_length_a 21.375527
_cell_length_b 13.431735
_cell_length_c 8.327996
_cell_angle_alpha 90.000000
_cell_angle_beta 90.000000
_cell_angle_gamma 90.000000
_cell_volume 2391.054381
_symmetry_space_group_name_H-M "I 21 21 21"
_symmetry_group_IT_number 24
_symmetry_cell_setting 'orthorhombic'
loop_
_space_group_symop_operation_xyz
x,y,z
-x,1/2-y,z
x,-y,1/2-z
1/2-x,y,-z
1/2+x,1/2+y,1/2+z
1/2-x,-y,1/2+z
1/2+x,1/2-y,-z
-x,1/2+y,1/2-z
loop_
_atom_site_type_symbol
_atom_site_label
_atom_site_fract_x
_atom_site_fract_y
_atom_site_fract_z
Si Si1 0.568467 0.740890 0.123595
Si Si2 0.322813 0.126382 0.991624
Si Si3 0.727545 0.905828 0.820658
Si Si4 0.871732 0.732031 0.195450
Si Si5 0.850058 0.154633 0.854966
Si Si6 0.552363 0.423398 0.116583
Si Si7 0.558550 0.094382 0.868667
O O1 0.500000 0.750000 0.050841
O O2 0.605912 0.833879 0.197112
O O3 0.556047 0.677546 0.282541
O O4 0.609516 0.696352 0.981021
O O5 0.348518 0.146401 0.813012
O O6 0.250000 0.097021 0.000000
O O7 0.330344 0.235855 0.076687
O O8 0.375479 0.055758 0.069580
O O9 0.685806 0.808245 0.818670
O O10 0.786205 0.893237 0.702792
O O11 0.691424 0.000000 0.750000
O O12 0.750000 0.922106 0.000000
O O13 0.926018 0.802876 0.272634
O O14 0.888749 0.097378 0.990756
O O15 0.528184 0.500000 0.250000
O O16 0.506989 0.409625 0.965891
O O17 0.558438 0.000000 0.750000
#
# Coordination Sequence:
#
# PCOD9335685 Si02
#       7
#     8   8   8   8   8   8   8
#     4  11  23  44  71  98 135 183 233 286 348 420
#     4  10  22  44  74  95 132 175 230 294 335 410
#     4  12  26  40  63 103 150 189 227 279 341 417
#     4  11  25  41  69 105 134 186 238 276 342 426
#     4  10  22  43  67  97 137 189 229 270 346 415
#     4  11  27  48  68  98 136 179 227 297 363 409
#     4  11  26  42  66 100 145 181 228 288 350 421
#
# _framework density 23.420631
#
# number of rings (size 3 to 8) (size 9 to 14) (size 15 to 20)
#    0.000    1.143    4.286    0.429   10.000    0.571 
#    0.000    2.143    0.000    0.000    0.000    0.000 
#    0.000    0.000    0.000    0.000    0.000    0.000 
#
# Total GULP energy -156517.394744 kJ/mol
# GULP energy per Si atom -5589.906955 kJ/mol
# Density = 2.336732 g / cm^3
# Si number density = 23.420631 Si / 1000 Ang^3
#
#
#
# Elastic Constant Matrix: (Units=GPa)
#
#
# Indices 1 2 3 4 5 6 
#
# 1 156.3732 15.2801 54.5158 0.0000 0.0000 0.0000
# 2 15.2801 22.3108 9.7876 0.0000 0.0000 0.0000
# 3 54.5158 9.7876 131.6085 0.0000 0.0000 0.0000
# 4 0.0000 0.0000 0.0000 26.5895 0.0000 0.0000
# 5 0.0000 0.0000 0.0000 0.0000 40.5134 0.0000
# 6 0.0000 0.0000 0.0000 0.0000 0.0000 15.3338
#
#
#
# Elastic Compliance Matrix: (Units=1/GPa)
#
#
# Indices 1 2 3 4 5 6 
#
# 1 0.007815 -0.004065 -0.002935 0.000000 0.000000 0.000000
# 2 -0.004065 0.048447 -0.001919 0.000000 0.000000 0.000000
# 3 -0.002935 -0.001919 0.008957 0.000000 0.000000 0.000000
# 4 0.000000 0.000000 0.000000 0.037609 0.000000 0.000000
# 5 0.000000 0.000000 0.000000 0.000000 0.024683 0.000000
# 6 0.000000 0.000000 0.000000 0.000000 0.000000 0.065215
#
#
# Mechanical properties :
#
#
# Convention : Reuss Voigt Hill
#
# Bulk Modulus (GPa) = 21.10549 52.16219 36.63384
# Shear Modulus (GPa) = 22.08884 31.86795 26.97839
#
# Velocity S-wave (km/s) = 3.07438 3.69274 3.39766
# Velocity P-wave (km/s) = 4.65118 6.36412 5.57385
#
# Compressibility (1/GPa) = 0.04738104
#
# Stress axis : x y z
#
# Youngs Moduli (GPa) = 127.95244 20.64102 111.64711
#
# Poissons Ratio (x) = 0.08391 0.32769
# Poissons Ratio (y) = 0.52013 0.21427
# Poissons Ratio (z) = 0.37555 0.03961
#
# Static dielectric constant tensor:
#      x y z
#    x 1.931440 0.000000 0.000000 
#    y 0.000000 2.099730 0.000000 
#    z 0.000000 0.000000 1.884840 
# 
# From -- ./inp_files/15242.got.cif
#   From: 2010.05.17/outbox.cif.g08.bks.cpg/sg24_8_cif.got.tgz:15242.got - 2010.06.04 00:33:39.
