data_PCOD9335516
_publ_section_title
;
Structure prediction by ZEFSAII (Michael W. Deem and Ramdas Pophale) SiO2 
 PCOD9335516
Probable space group: I 21 21 21
;
_chemical_formula_sum "Si O2"
_cell_formula_units_Z 32
_cell_length_a 8.629405
_cell_length_b 7.793655
_cell_length_c 19.523617
_cell_angle_alpha 90.000000
_cell_angle_beta 90.000000
_cell_angle_gamma 90.000000
_cell_volume 1313.053158
_symmetry_space_group_name_H-M "I 21 21 21"
_symmetry_group_IT_number 24
_symmetry_cell_setting 'orthorhombic'
loop_
_space_group_symop_operation_xyz
x,y,z
-x,1/2-y,z
x,-y,1/2-z
1/2-x,y,-z
1/2+x,1/2+y,1/2+z
1/2-x,-y,1/2+z
1/2+x,1/2-y,-z
-x,1/2+y,1/2-z
loop_
_atom_site_type_symbol
_atom_site_label
_atom_site_fract_x
_atom_site_fract_y
_atom_site_fract_z
Si Si1 0.165420 0.332381 0.794374
Si Si2 0.313436 0.065769 0.426098
Si Si3 0.383529 0.886953 0.805545
Si Si4 0.676420 0.980116 0.073099
O O1 0.129700 0.500000 0.750000
O O2 0.261285 0.209867 0.743507
O O3 0.239957 0.405101 0.864661
O O4 0.000000 0.250000 0.810274
O O5 0.250000 0.017857 0.500000
O O6 0.206092 0.007448 0.363463
O O7 0.490008 0.006290 0.424006
O O8 0.301578 0.274074 0.418731
O O9 0.500000 0.750000 0.837686
O O10 0.475866 0.000000 0.750000
O O11 0.750000 0.027588 0.000000
#
# Coordination Sequence:
#
# PCOD9335516 Si02
#       4
#     8   8   8   8
#     4  12  23  42  69  98 138 177 226 280 336 404
#     4  10  22  40  68  98 130 174 225 275 326 408
#     4  12  27  44  68 100 135 179 227 283 341 399
#     4  10  22  40  67  97 131 178 221 273 336 397
#
# _framework density 24.370681000000001
#
# number of rings (size 3 to 8) (size 9 to 14) (size 15 to 20)
#    0.000    1.000    2.500    4.500    7.000    0.000 
#    0.000    6.250    0.000    0.000    0.000    0.000 
#    0.000    0.000    0.000    0.000    0.000    0.000 
#
# Total GULP energy -89566.408463 kJ/mol
# GULP energy per Si atom -5597.900529 kJ/mol
# Density = 2.431521 g / cm^3
# Si number density = 24.370681 Si / 1000 Ang^3
#
#
#
# Elastic Constant Matrix: (Units=GPa)
#
#
# Indices 1 2 3 4 5 6 
#
# 1 86.1412 -0.2572 45.8404 0.0000 0.0000 0.0000
# 2 -0.2572 50.6025 35.6872 0.0000 0.0000 0.0000
# 3 45.8404 35.6872 201.1993 0.0000 0.0000 0.0000
# 4 0.0000 0.0000 0.0000 39.2132 0.0000 0.0000
# 5 0.0000 0.0000 0.0000 0.0000 46.1297 0.0000
# 6 0.0000 0.0000 0.0000 0.0000 0.0000 15.6998
#
#
#
# Elastic Compliance Matrix: (Units=1/GPa)
#
#
# Indices 1 2 3 4 5 6 
#
# 1 0.013494 0.002557 -0.003528 0.000000 0.000000 0.000000
# 2 0.002557 0.023072 -0.004675 0.000000 0.000000 0.000000
# 3 -0.003528 -0.004675 0.006603 0.000000 0.000000 0.000000
# 4 0.000000 0.000000 0.000000 0.025502 0.000000 0.000000
# 5 0.000000 0.000000 0.000000 0.000000 0.021678 0.000000
# 6 0.000000 0.000000 0.000000 0.000000 0.000000 0.063695
#
#
# Mechanical properties :
#
#
# Convention : Reuss Voigt Hill
#
# Bulk Modulus (GPa) = 31.37094 55.60931 43.49012
# Shear Modulus (GPa) = 28.41537 37.32005 32.86771
#
# Velocity S-wave (km/s) = 3.41833 3.91749 3.67639
# Velocity P-wave (km/s) = 5.33669 6.58255 5.99209
#
# Compressibility (1/GPa) = 0.03187664
#
# Stress axis : x y z
#
# Youngs Moduli (GPa) = 74.10791 43.34314 151.44317
#
# Poissons Ratio (x) = -0.11081 0.53427
# Poissons Ratio (y) = -0.18946 0.70796
# Poissons Ratio (z) = 0.26144 0.20262
#
# Static dielectric constant tensor:
#      x y z
#    x 1.896850 0.000000 0.000000 
#    y 0.000000 2.003220 0.000000 
#    z 0.000000 0.000000 1.913460 
# 
# From -- ./inp_files/8929.got.cif
#   From: 2010.05.17/outbox.cif.g08.bks.cpg/sg24_5_cif.got.tgz:8929.got - 2010.06.04 00:33:39.
