data_PCOD9335945
_publ_section_title
;
Structure prediction by ZEFSAII (Michael W. Deem and Ramdas Pophale) SiO2 
 PCOD9335945
Probable space group: I 21 21 21
;
_chemical_formula_sum "Si O2"
_cell_formula_units_Z 32
_cell_length_a 8.701815
_cell_length_b 14.608342
_cell_length_c 10.418241
_cell_angle_alpha 90.000000
_cell_angle_beta 90.000000
_cell_angle_gamma 90.000000
_cell_volume 1324.357311
_symmetry_space_group_name_H-M "I 21 21 21"
_symmetry_group_IT_number 24
_symmetry_cell_setting 'orthorhombic'
loop_
_space_group_symop_operation_xyz
x,y,z
-x,1/2-y,z
x,-y,1/2-z
1/2-x,y,-z
1/2+x,1/2+y,1/2+z
1/2-x,-y,1/2+z
1/2+x,1/2-y,-z
-x,1/2+y,1/2-z
loop_
_atom_site_type_symbol
_atom_site_label
_atom_site_fract_x
_atom_site_fract_y
_atom_site_fract_z
Si Si1 0.649447 0.503663 0.378692
Si Si2 0.429815 0.650239 0.104169
Si Si3 0.090323 0.346516 0.313322
Si Si4 0.565209 0.854170 0.527451
O O1 0.754013 0.500000 0.250000
O O2 0.750000 0.473192 0.500000
O O3 0.536067 0.423548 0.332008
O O4 0.546144 0.586116 0.436555
O O5 0.500000 0.750000 0.096377
O O6 0.274311 0.664059 0.182317
O O7 0.425048 0.612868 0.956829
O O8 0.049362 0.387687 0.175594
O O9 0.000000 0.250000 0.316581
O O10 0.500000 0.750000 0.520296
O O11 0.750000 0.857253 0.500000
#
# Coordination Sequence:
#
# PCOD9335945 Si02
#       4
#     8   8   8   8
#     4  12  30  47  71 106 143 191 241 293 352 421
#     4  10  23  43  70 105 144 185 233 291 347 424
#     4   9  21  40  72 104 136 185 234 282 360 416
#     4  11  25  47  73 103 142 185 237 299 356 423
#
# _framework density 24.162666000000002
#
# number of rings (size 3 to 8) (size 9 to 14) (size 15 to 20)
#    0.000    1.500    0.000    2.250   14.000    6.000 
#    0.000    0.000    0.000    0.000    0.000    0.000 
#    0.000    0.000    0.000    0.000    0.000    0.000 
#
# Total GULP energy -89156.801784 kJ/mol
# GULP energy per Si atom -5572.300112 kJ/mol
# Density = 2.410767 g / cm^3
# Si number density = 24.162666 Si / 1000 Ang^3
#
#
#
# Elastic Constant Matrix: (Units=GPa)
#
#
# Indices 1 2 3 4 5 6 
#
# 1 122.4021 35.9753 31.5573 0.0000 0.0000 0.0000
# 2 35.9753 79.4741 27.3443 0.0005 -0.0002 -0.0001
# 3 31.5573 27.3443 230.8831 0.0011 -0.0006 -0.0002
# 4 0.0000 0.0005 0.0011 23.5817 -0.0003 -0.0001
# 5 0.0000 -0.0002 -0.0006 -0.0003 66.6707 0.0001
# 6 0.0000 -0.0001 -0.0002 -0.0001 0.0001 29.6274
#
#
#
# Elastic Compliance Matrix: (Units=1/GPa)
#
#
# Indices 1 2 3 4 5 6 
#
# 1 0.009573 -0.004048 -0.000829 0.000000 0.000000 0.000000
# 2 -0.004048 0.014829 -0.001203 0.000000 0.000000 0.000000
# 3 -0.000829 -0.001203 0.004587 0.000000 0.000000 0.000000
# 4 0.000000 0.000000 0.000000 0.042406 0.000000 0.000000
# 5 0.000000 0.000000 0.000000 0.000000 0.014999 0.000000
# 6 0.000000 0.000000 0.000000 0.000000 0.000000 0.033753
#
#
# Mechanical properties :
#
#
# Convention : Reuss Voigt Hill
#
# Bulk Modulus (GPa) = 59.42154 69.16814 64.29484
# Shear Modulus (GPa) = 36.25367 46.50145 41.37756
#
# Velocity S-wave (km/s) = 3.87770 4.39169 4.14268
# Velocity P-wave (km/s) = 6.68539 7.37591 7.03912
#
# Compressibility (1/GPa) = 0.01682891
#
# Stress axis : x y z
#
# Youngs Moduli (GPa) = 104.45643 67.43483 218.00839
#
# Poissons Ratio (x) = 0.27300 0.18074
# Poissons Ratio (y) = 0.42287 0.26225
# Poissons Ratio (z) = 0.08660 0.08112
#
# Static dielectric constant tensor:
#      x y z
#    x 1.964770 0.000000 0.000000 
#    y 0.000000 1.897090 0.000000 
#    z 0.000000 0.000000 2.129410 
# 
# From -- ./inp_files/11899.got.cif
#   From: 2010.05.17/outbox.cif.g08.bks.cpg/sg24_6_cif.got.tgz:11899.got - 2010.06.04 00:33:39.
