data_PCOD9335763
_publ_section_title
;
Structure prediction by ZEFSAII (Michael W. Deem and Ramdas Pophale) SiO2 
 PCOD9335763
Probable space group: I 21 21 21
;
_chemical_formula_sum "Si O2"
_cell_formula_units_Z 32
_cell_length_a 9.274675
_cell_length_b 7.376482
_cell_length_c 18.072541
_cell_angle_alpha 90.000000
_cell_angle_beta 90.000000
_cell_angle_gamma 90.000000
_cell_volume 1236.423372
_symmetry_space_group_name_H-M "I 21 21 21"
_symmetry_group_IT_number 24
_symmetry_cell_setting 'orthorhombic'
loop_
_space_group_symop_operation_xyz
x,y,z
-x,1/2-y,z
x,-y,1/2-z
1/2-x,y,-z
1/2+x,1/2+y,1/2+z
1/2-x,-y,1/2+z
1/2+x,1/2-y,-z
-x,1/2+y,1/2-z
loop_
_atom_site_type_symbol
_atom_site_label
_atom_site_fract_x
_atom_site_fract_y
_atom_site_fract_z
Si Si1 0.650780 0.649484 0.664386
Si Si2 0.764031 0.269172 0.324770
Si Si3 0.192941 0.570452 0.578304
Si Si4 0.097696 0.085748 0.544408
O O1 0.500000 0.750000 0.669816
O O2 0.619683 0.433121 0.660202
O O3 0.742267 0.710107 0.736764
O O4 0.738047 0.735535 0.596686
O O5 0.756454 0.067652 0.358701
O O6 0.636864 0.356627 0.371976
O O7 0.250000 0.503919 0.500000
O O8 0.023171 0.563642 0.561695
O O9 0.250000 0.072100 0.500000
O O10 0.000000 0.250000 0.510625
#
# Coordination Sequence:
#
# PCOD9335763 Si02
#       4
#     8   8   8   8
#     4  11  27  46  74 115 154 206 262 326 385 471
#     4  10  24  46  73 110 150 202 258 316 391 463
#     4  11  26  48  78 112 153 205 257 326 390 472
#     4  10  22  44  74 114 148 203 254 320 389 473
#
# _framework density 25.881101000000001
#
# number of rings (size 3 to 8) (size 9 to 14) (size 15 to 20)
#    0.000    1.500    0.000    3.750   10.500    4.000 
#   31.500    0.000    0.000    1.500    0.000    0.000 
#    0.000    0.000    0.000    0.000    0.000    0.000 
#
# Total GULP energy -89109.275892 kJ/mol
# GULP energy per Si atom -5569.329743 kJ/mol
# Density = 2.582219 g / cm^3
# Si number density = 25.881101 Si / 1000 Ang^3
#
#
#
# Elastic Constant Matrix: (Units=GPa)
#
#
# Indices 1 2 3 4 5 6 
#
# 1 141.6674 30.3595 65.3240 0.0000 0.0000 0.0000
# 2 30.3595 178.0800 31.1144 0.0000 0.0000 0.0000
# 3 65.3240 31.1144 121.7576 0.0000 0.0000 0.0000
# 4 0.0000 0.0000 0.0000 27.8522 0.0000 0.0000
# 5 0.0000 0.0000 0.0000 0.0000 29.3995 0.0000
# 6 0.0000 0.0000 0.0000 0.0000 0.0000 29.2400
#
#
#
# Elastic Compliance Matrix: (Units=1/GPa)
#
#
# Indices 1 2 3 4 5 6 
#
# 1 0.009477 -0.000761 -0.004890 0.000000 0.000000 0.000000
# 2 -0.000761 0.005939 -0.001109 0.000000 0.000000 0.000000
# 3 -0.004890 -0.001109 0.011120 0.000000 0.000000 0.000000
# 4 0.000000 0.000000 0.000000 0.035904 0.000000 0.000000
# 5 0.000000 0.000000 0.000000 0.000000 0.034014 0.000000
# 6 0.000000 0.000000 0.000000 0.000000 0.000000 0.034200
#
#
# Mechanical properties :
#
#
# Convention : Reuss Voigt Hill
#
# Bulk Modulus (GPa) = 76.83430 77.23342 77.03386
# Shear Modulus (GPa) = 33.66725 38.27881 35.97303
#
# Velocity S-wave (km/s) = 3.61063 3.84998 3.73223
# Velocity P-wave (km/s) = 6.86543 7.04766 6.95714
#
# Compressibility (1/GPa) = 0.01301502
#
# Stress axis : x y z
#
# Youngs Moduli (GPa) = 105.52263 168.37721 89.92874
#
# Poissons Ratio (x) = 0.12818 0.43973
# Poissons Ratio (y) = 0.08033 0.09975
# Poissons Ratio (z) = 0.51598 0.18678
#
# Static dielectric constant tensor:
#      x y z
#    x 2.064110 0.000000 0.000000 
#    y 0.000000 2.241240 0.000000 
#    z 0.000000 0.000000 2.071740 
# 
# From -- ./inp_files/32409.got.cif
#   From: 2010.05.17/outbox.cif.g08.bks.cpg/sg24_17_cif.got.tgz:32409.got - 2010.06.04 00:33:39.
