data_PCOD9335363
_publ_section_title
;
Structure prediction by ZEFSAII (Michael W. Deem and Ramdas Pophale) SiO2 
 PCOD9335363
Probable space group: I 21 21 21
;
_chemical_formula_sum "Si O2"
_cell_formula_units_Z 36
_cell_length_a 5.162105
_cell_length_b 14.396218
_cell_length_c 25.115760
_cell_angle_alpha 90.000000
_cell_angle_beta 90.000000
_cell_angle_gamma 90.000000
_cell_volume 1866.472403
_symmetry_space_group_name_H-M "I 21 21 21"
_symmetry_group_IT_number 24
_symmetry_cell_setting 'orthorhombic'
loop_
_space_group_symop_operation_xyz
x,y,z
-x,1/2-y,z
x,-y,1/2-z
1/2-x,y,-z
1/2+x,1/2+y,1/2+z
1/2-x,-y,1/2+z
1/2+x,1/2-y,-z
-x,1/2+y,1/2-z
loop_
_atom_site_type_symbol
_atom_site_label
_atom_site_fract_x
_atom_site_fract_y
_atom_site_fract_z
Si Si1 0.500000 0.750000 0.735315
Si Si2 0.112415 0.350666 0.690099
Si Si3 0.311833 0.528832 0.646498
Si Si4 0.816120 0.595042 0.707983
Si Si5 0.253706 0.687368 0.563605
O O1 0.354657 0.675996 0.772347
O O2 0.714401 0.699738 0.701109
O O3 0.219857 0.421303 0.646070
O O4 0.000000 0.250000 0.672985
O O5 0.902985 0.402397 0.729020
O O6 0.577544 0.539799 0.680320
O O7 0.301364 0.588911 0.592913
O O8 0.081934 0.576135 0.679428
O O9 0.500000 0.750000 0.576816
O O10 0.250000 0.671682 0.500000
O O11 0.000000 0.750000 0.576920
#
# Coordination Sequence:
#
# PCOD9335363 Si02
#       5
#     4   8   8   8   8
#     4  10  22  38  50  78 122 162 186 244 286 334
#     4  10  24  39  55  81 127 163 199 246 296 349
#     4  12  25  36  63  87 113 166 206 241 295 369
#     4  11  24  35  55  86 121 155 203 239 284 355
#     4  10  23  43  64  91 122 150 193 259 320 364
#
# _framework density 19.287721000000001
#
# number of rings (size 3 to 8) (size 9 to 14) (size 15 to 20)
#    0.000    1.333    2.222    2.000   14.000    0.000 
#    0.000    0.000    0.000    0.000    2.889    0.000 
#    0.000    0.000    0.000    0.000    0.000    0.000 
#
# Total GULP energy -100317.568689 kJ/mol
# GULP energy per Si atom -5573.198261 kJ/mol
# Density = 1.924382 g / cm^3
# Si number density = 19.287721 Si / 1000 Ang^3
#
#
#
# Elastic Constant Matrix: (Units=GPa)
#
#
# Indices 1 2 3 4 5 6 
#
# 1 141.0563 23.8746 33.9521 0.0000 0.0000 0.0000
# 2 23.8746 96.4714 59.6683 0.0000 0.0000 0.0000
# 3 33.9521 59.6683 70.8800 0.0000 0.0000 0.0000
# 4 0.0000 0.0000 0.0000 29.1049 0.0000 0.0000
# 5 0.0000 0.0000 0.0000 0.0000 12.1730 0.0000
# 6 0.0000 0.0000 0.0000 0.0000 0.0000 45.2792
#
#
#
# Elastic Compliance Matrix: (Units=1/GPa)
#
#
# Indices 1 2 3 4 5 6 
#
# 1 0.008044 0.000819 -0.004543 0.000000 0.000000 0.000000
# 2 0.000819 0.021709 -0.018667 0.000000 0.000000 0.000000
# 3 -0.004543 -0.018667 0.031999 0.000000 0.000000 0.000000
# 4 0.000000 0.000000 0.000000 0.034358 0.000000 0.000000
# 5 0.000000 0.000000 0.000000 0.000000 0.082149 0.000000
# 6 0.000000 0.000000 0.000000 0.000000 0.000000 0.022085
#
#
# Mechanical properties :
#
#
# Convention : Reuss Voigt Hill
#
# Bulk Modulus (GPa) = 58.92778 60.37752 59.65265
# Shear Modulus (GPa) = 19.93754 30.03895 24.98824
#
# Velocity S-wave (km/s) = 3.21859 3.95069 3.60328
# Velocity P-wave (km/s) = 6.66564 7.22372 6.95028
#
# Compressibility (1/GPa) = 0.01696993
#
# Stress axis : x y z
#
# Youngs Moduli (GPa) = 124.31382 46.06382 31.25119
#
# Poissons Ratio (x) = -0.03772 0.14196
# Poissons Ratio (y) = -0.10179 0.58338
# Poissons Ratio (z) = 0.56470 0.85989
#
# Static dielectric constant tensor:
#      x y z
#    x 1.705540 0.000000 0.000000 
#    y 0.000000 1.813160 0.000000 
#    z 0.000000 0.000000 1.710560 
# 
# From -- ./inp_files/34598.got.cif
#   From: 2010.05.17/outbox.cif.g08.bks.cpg/sg24_18_cif.got.tgz:34598.got - 2010.06.04 00:33:39.
