data_PCOD9335866
_publ_section_title
;
Structure prediction by ZEFSAII (Michael W. Deem and Ramdas Pophale) SiO2 
 PCOD9335866
Probable space group: I 21 21 21
;
_chemical_formula_sum "Si O2"
_cell_formula_units_Z 40
_cell_length_a 7.562370
_cell_length_b 27.454973
_cell_length_c 8.925806
_cell_angle_alpha 90.000000
_cell_angle_beta 90.000000
_cell_angle_gamma 90.000000
_cell_volume 1853.217473
_symmetry_space_group_name_H-M "I 21 21 21"
_symmetry_group_IT_number 24
_symmetry_cell_setting 'orthorhombic'
loop_
_space_group_symop_operation_xyz
x,y,z
-x,1/2-y,z
x,-y,1/2-z
1/2-x,y,-z
1/2+x,1/2+y,1/2+z
1/2-x,-y,1/2+z
1/2+x,1/2-y,-z
-x,1/2+y,1/2-z
loop_
_atom_site_type_symbol
_atom_site_label
_atom_site_fract_x
_atom_site_fract_y
_atom_site_fract_z
Si Si1 0.702338 0.050101 0.823183
Si Si2 0.272722 0.842867 0.676383
Si Si3 0.984293 0.196167 0.604431
Si Si4 0.350789 0.348213 0.692164
Si Si5 0.719818 0.452578 0.826667
O O1 0.740718 0.100246 0.734676
O O2 0.490431 0.047977 0.804535
O O3 0.773614 0.000000 0.750000
O O4 0.750000 0.053369 0.000000
O O5 0.250000 0.833637 0.500000
O O6 0.482359 0.839146 0.702282
O O7 0.215348 0.898861 0.713321
O O8 0.153329 0.812724 0.791541
O O9 0.804935 0.191205 0.700931
O O10 0.943230 0.157473 0.471882
O O11 0.000000 0.250000 0.536604
O O12 0.798743 0.500000 0.750000
O O13 0.750000 0.458791 0.000000
#
# Coordination Sequence:
#
# PCOD9335866 Si02
#       5
#     8   8   8   8   8
#     4  10  23  40  65  99 140 181 224 281 348 422
#     4  10  23  43  67  98 137 174 218 292 352 410
#     4  11  26  45  70  97 130 185 237 290 351 410
#     4  10  25  43  71  98 139 174 237 284 347 420
#     4   9  20  37  58  92 125 169 215 263 335 404
#
# _framework density 21.584081999999999
#
# number of rings (size 3 to 8) (size 9 to 14) (size 15 to 20)
#    0.000    2.000    0.000    0.600   16.800    5.600 
#    3.600    0.000    0.000    0.000    0.000    0.000 
#    0.000    0.000    0.000    0.000    0.000    0.000 
#
# Total GULP energy -111514.696597 kJ/mol
# GULP energy per Si atom -5575.734830 kJ/mol
# Density = 2.153496 g / cm^3
# Si number density = 21.584082 Si / 1000 Ang^3
#
#
#
# Elastic Constant Matrix: (Units=GPa)
#
#
# Indices 1 2 3 4 5 6 
#
# 1 52.0478 10.1542 6.9604 0.0000 0.0000 0.0000
# 2 10.1542 101.2161 61.0295 0.0000 0.0000 0.0000
# 3 6.9604 61.0295 65.9494 -0.0001 -0.0004 -0.0001
# 4 0.0000 0.0000 -0.0001 24.8354 0.0000 0.0000
# 5 0.0000 0.0000 -0.0004 0.0000 45.5460 -0.0001
# 6 0.0000 0.0000 -0.0001 0.0000 -0.0001 25.7351
#
#
#
# Elastic Compliance Matrix: (Units=1/GPa)
#
#
# Indices 1 2 3 4 5 6 
#
# 1 0.019606 -0.001627 -0.000563 0.000000 0.000000 0.000000
# 2 -0.001627 0.022487 -0.020637 0.000000 0.000000 0.000000
# 3 -0.000563 -0.020637 0.034320 0.000000 0.000000 0.000000
# 4 0.000000 0.000000 0.000000 0.040265 0.000000 0.000000
# 5 0.000000 0.000000 0.000000 0.000000 0.021956 0.000000
# 6 0.000000 0.000000 0.000000 0.000000 0.000000 0.038857
#
#
# Mechanical properties :
#
#
# Convention : Reuss Voigt Hill
#
# Bulk Modulus (GPa) = 32.51297 41.72239 37.11768
# Shear Modulus (GPa) = 21.42249 28.62792 25.02520
#
# Velocity S-wave (km/s) = 3.15384 3.64585 3.40873
# Velocity P-wave (km/s) = 5.32526 6.09058 5.72073
#
# Compressibility (1/GPa) = 0.03075695
#
# Stress axis : x y z
#
# Youngs Moduli (GPa) = 51.00499 44.47086 29.13719
#
# Poissons Ratio (x) = 0.07236 0.01642
# Poissons Ratio (y) = 0.08299 0.60131
# Poissons Ratio (z) = 0.02874 0.91776
#
# Static dielectric constant tensor:
#      x y z
#    x 1.781110 0.000000 0.000000 
#    y 0.000000 1.757560 0.000000 
#    z 0.000000 0.000000 1.800120 
# 
# From -- ./inp_files/9487.got.cif
#   From: 2010.05.17/outbox.cif.g08.bks.cpg/sg24_5_cif.got.tgz:9487.got - 2010.06.04 00:33:39.
