data_PCOD9335062
_publ_section_title
;
Structure prediction by ZEFSAII (Michael W. Deem and Ramdas Pophale) SiO2 
 PCOD9335062
Probable space group: I 21 21 21
;
_chemical_formula_sum "Si O2"
_cell_formula_units_Z 52
_cell_length_a 21.140778
_cell_length_b 14.938145
_cell_length_c 9.017422
_cell_angle_alpha 90.000000
_cell_angle_beta 90.000000
_cell_angle_gamma 90.000000
_cell_volume 2847.738002
_symmetry_space_group_name_H-M "I 21 21 21"
_symmetry_group_IT_number 24
_symmetry_cell_setting 'orthorhombic'
loop_
_space_group_symop_operation_xyz
x,y,z
-x,1/2-y,z
x,-y,1/2-z
1/2-x,y,-z
1/2+x,1/2+y,1/2+z
1/2-x,-y,1/2+z
1/2+x,1/2-y,-z
-x,1/2+y,1/2-z
loop_
_atom_site_type_symbol
_atom_site_label
_atom_site_fract_x
_atom_site_fract_y
_atom_site_fract_z
Si Si1 0.824203 0.752825 0.970450
Si Si2 0.420021 0.054627 0.899096
Si Si3 0.852123 0.895207 0.720649
Si Si4 0.462651 0.341243 0.008153
Si Si5 0.315698 0.951695 0.092161
Si Si6 0.635829 0.745749 0.692113
Si Si7 0.750000 0.815659 0.500000
O O1 0.856400 0.752884 0.131876
O O2 0.750000 0.765605 0.000000
O O3 0.846433 0.832197 0.864248
O O4 0.831112 0.654357 0.896433
O O5 0.387018 0.147356 0.852152
O O6 0.431749 0.000000 0.750000
O O7 0.486041 0.083183 0.972727
O O8 0.372409 0.000079 0.004188
O O9 0.916723 0.869900 0.638728
O O10 0.794594 0.871396 0.609771
O O11 0.850310 0.000000 0.750000
O O12 0.500000 0.250000 0.045021
O O13 0.416442 0.315079 0.870842
O O14 0.307737 0.000000 0.250000
O O15 0.250000 0.958826 0.000000
O O16 0.701890 0.761523 0.605741
#
# Coordination Sequence:
#
# PCOD9335062 Si02
#       7
#     8   8   8   8   8   8   4
#     4  11  23  41  63 100 135 161 207 265 328 382
#     4  11  22  41  66  93 128 169 216 258 317 389
#     4  11  25  42  64  95 123 167 216 265 314 380
#     4   9  23  44  64  87 126 171 215 253 317 375
#     4  11  26  38  63 102 135 167 207 262 323 397
#     4  10  21  40  64  95 126 170 207 260 315 384
#     4  10  22  38  68  88 126 168 200 258 328 364
#
# _framework density 18.260107000000001
#
# number of rings (size 3 to 8) (size 9 to 14) (size 15 to 20)
#    0.000    1.538    3.077    0.462   10.769    1.846 
#    0.000    5.385    0.000    0.000    0.000    0.000 
#    0.000    0.000    0.000    0.000    0.000    0.000 
#
# Total GULP energy -145226.262493 kJ/mol
# GULP energy per Si atom -5585.625480 kJ/mol
# Density = 1.821855 g / cm^3
# Si number density = 18.260107 Si / 1000 Ang^3
#
#
#
# Elastic Constant Matrix: (Units=GPa)
#
#
# Indices 1 2 3 4 5 6 
#
# 1 125.2187 64.1321 47.7283 0.0000 0.0000 0.0000
# 2 64.1321 122.5236 80.8512 0.0000 0.0000 0.0000
# 3 47.7283 80.8512 122.3129 0.0000 0.0000 0.0000
# 4 0.0000 0.0000 0.0000 20.6400 0.0000 0.0000
# 5 0.0000 0.0000 0.0000 0.0000 18.7643 0.0000
# 6 0.0000 0.0000 0.0000 0.0000 0.0000 20.3746
#
#
#
# Elastic Compliance Matrix: (Units=1/GPa)
#
#
# Indices 1 2 3 4 5 6 
#
# 1 0.010962 -0.005170 -0.000860 0.000000 0.000000 0.000000
# 2 -0.005170 0.016915 -0.009163 0.000000 0.000000 0.000000
# 3 -0.000860 -0.009163 0.014568 0.000000 0.000000 0.000000
# 4 0.000000 0.000000 0.000000 0.048450 0.000000 0.000000
# 5 0.000000 0.000000 0.000000 0.000000 0.053293 0.000000
# 6 0.000000 0.000000 0.000000 0.000000 0.000000 0.049081
#
#
# Mechanical properties :
#
#
# Convention : Reuss Voigt Hill
#
# Bulk Modulus (GPa) = 82.93303 83.94205 83.43754
# Shear Modulus (GPa) = 21.96119 23.77870 22.86994
#
# Velocity S-wave (km/s) = 3.47174 3.61254 3.54284
# Velocity P-wave (km/s) = 7.84773 7.96685 7.90751
#
# Compressibility (1/GPa) = 0.01205792
#
# Stress axis : x y z
#
# Youngs Moduli (GPa) = 91.22601 59.11979 68.64136
#
# Poissons Ratio (x) = 0.30567 0.05901
# Poissons Ratio (y) = 0.47167 0.62899
# Poissons Ratio (z) = 0.07843 0.54174
#
# Static dielectric constant tensor:
#      x y z
#    x 1.618040 0.000000 0.000000 
#    y 0.000000 1.621840 0.000000 
#    z 0.000000 0.000000 1.613460 
# 
# From -- ./inp_files/15195.got.cif
#   From: 2010.05.17/outbox.cif.g08.bks.cpg/sg24_8_cif.got.tgz:15195.got - 2010.06.04 00:33:39.
