data_PCOD9335974
_publ_section_title
;
Structure prediction by ZEFSAII (Michael W. Deem and Ramdas Pophale) SiO2 
 PCOD9335974
Probable space group: I 21 21 21
;
_chemical_formula_sum "Si O2"
_cell_formula_units_Z 40
_cell_length_a 8.928292
_cell_length_b 24.267131
_cell_length_c 7.444490
_cell_angle_alpha 90.000000
_cell_angle_beta 90.000000
_cell_angle_gamma 90.000000
_cell_volume 1612.953216
_symmetry_space_group_name_H-M "I 21 21 21"
_symmetry_group_IT_number 24
_symmetry_cell_setting 'orthorhombic'
loop_
_space_group_symop_operation_xyz
x,y,z
-x,1/2-y,z
x,-y,1/2-z
1/2-x,y,-z
1/2+x,1/2+y,1/2+z
1/2-x,-y,1/2+z
1/2+x,1/2-y,-z
-x,1/2+y,1/2-z
loop_
_atom_site_type_symbol
_atom_site_label
_atom_site_fract_x
_atom_site_fract_y
_atom_site_fract_z
Si Si1 0.500000 0.250000 0.238589
Si Si2 0.353927 0.000000 0.250000
Si Si3 0.750000 0.307480 0.000000
Si Si4 0.800442 0.149946 0.690621
Si Si5 0.250000 0.908335 0.000000
Si Si6 0.092958 0.557473 0.518592
Si Si7 0.518095 0.636328 0.764311
O O1 0.631293 0.274113 0.115882
O O2 0.585928 0.200436 0.338541
O O3 0.268761 0.948088 0.170535
O O4 0.461381 0.978723 0.406103
O O5 0.851459 0.342252 0.135777
O O6 0.750000 0.123142 0.500000
O O7 0.869964 0.108004 0.839247
O O8 0.634713 0.172116 0.749714
O O9 0.101329 0.873934 0.046699
O O10 0.250000 0.526583 0.500000
O O11 0.044419 0.580929 0.327243
#
# Coordination Sequence:
#
# PCOD9335974 Si02
#       7
#     4   4   4   8   4   8   8
#     4  12  26  42  74 104 134 186 238 304 366 436
#     4  12  24  42  66 104 142 178 240 290 358 434
#     4  12  24  43  72  98 142 176 244 287 372 434
#     4  11  25  46  69 101 142 182 240 294 367 428
#     4  12  26  41  72 104 144 190 238 295 364 430
#     4  10  23  44  68  98 138 187 232 296 362 431
#     4  11  24  44  72  97 143 185 237 293 361 435
#
# _framework density 24.799230999999999
#
# number of rings (size 3 to 8) (size 9 to 14) (size 15 to 20)
#    0.000    0.800    2.000    4.800    4.200    5.600 
#    0.000    0.000    0.000    0.000    0.000    0.000 
#    0.000    0.000    0.000    0.000    0.000    0.000 
#
# Total GULP energy -111822.904961 kJ/mol
# GULP energy per Si atom -5591.145248 kJ/mol
# Density = 2.474279 g / cm^3
# Si number density = 24.799231 Si / 1000 Ang^3
#
#
#
# Elastic Constant Matrix: (Units=GPa)
#
#
# Indices 1 2 3 4 5 6 
#
# 1 176.0971 53.3270 24.1490 -0.0001 0.0003 -0.0034
# 2 53.3270 58.9882 13.6499 0.0002 -0.0001 -0.0023
# 3 24.1490 13.6499 71.5581 0.0008 0.0007 -0.0077
# 4 -0.0001 0.0002 0.0008 34.0491 -0.0003 -0.0016
# 5 0.0003 -0.0001 0.0007 -0.0003 60.6226 -0.0038
# 6 -0.0034 -0.0023 -0.0077 -0.0016 -0.0038 209.4105
#
#
#
# Elastic Compliance Matrix: (Units=1/GPa)
#
#
# Indices 1 2 3 4 5 6 
#
# 1 0.007946 -0.006866 -0.001372 0.000000 0.000000 0.000000
# 2 -0.006866 0.023668 -0.002198 0.000000 0.000000 0.000000
# 3 -0.001372 -0.002198 0.014857 0.000000 0.000000 0.000001
# 4 0.000000 0.000000 0.000000 0.029369 0.000000 0.000000
# 5 0.000000 0.000000 0.000000 0.000000 0.016495 0.000000
# 6 0.000000 0.000000 0.000001 0.000000 0.000000 0.004775
#
#
# Mechanical properties :
#
#
# Convention : Reuss Voigt Hill
#
# Bulk Modulus (GPa) = 39.06260 54.32170 46.69215
# Shear Modulus (GPa) = 39.52084 75.18428 57.35256
#
# Velocity S-wave (km/s) = 3.99636 5.51208 4.81425
# Velocity P-wave (km/s) = 6.08936 7.90334 7.05490
#
# Compressibility (1/GPa) = 0.02559993
#
# Stress axis : x y z
#
# Youngs Moduli (GPa) = 125.84911 42.25088 67.30910
#
# Poissons Ratio (x) = 0.29009 0.09234
# Poissons Ratio (y) = 0.86408 0.14792
# Poissons Ratio (z) = 0.17265 0.09285
#
# Static dielectric constant tensor:
#      x y z
#    x 1.881440 0.000000 0.000000 
#    y 0.000000 1.984060 0.000000 
#    z 0.000000 0.000000 2.001960 
# 
# From -- ./inp_files/9365.got.cif
#   From: 2010.05.17/outbox.cif.g08.bks.cpg/sg24_5_cif.got.tgz:9365.got - 2010.06.04 00:33:39.
