data_PCOD9335630
_publ_section_title
;
Structure prediction by ZEFSAII (Michael W. Deem and Ramdas Pophale) SiO2 
 PCOD9335630
Probable space group: I 21 21 21
;
_chemical_formula_sum "Si O2"
_cell_formula_units_Z 40
_cell_length_a 17.361425
_cell_length_b 9.301385
_cell_length_c 11.923264
_cell_angle_alpha 90.000000
_cell_angle_beta 90.000000
_cell_angle_gamma 90.000000
_cell_volume 1925.431841
_symmetry_space_group_name_H-M "I 21 21 21"
_symmetry_group_IT_number 24
_symmetry_cell_setting 'orthorhombic'
loop_
_space_group_symop_operation_xyz
x,y,z
-x,1/2-y,z
x,-y,1/2-z
1/2-x,y,-z
1/2+x,1/2+y,1/2+z
1/2-x,-y,1/2+z
1/2+x,1/2-y,-z
-x,1/2+y,1/2-z
loop_
_atom_site_type_symbol
_atom_site_label
_atom_site_fract_x
_atom_site_fract_y
_atom_site_fract_z
Si Si1 0.320752 0.222715 0.064013
Si Si2 0.045878 0.398952 0.641401
Si Si3 0.214584 0.277427 0.683943
Si Si4 0.250000 0.047159 0.500000
Si Si5 0.949921 0.886742 0.452679
Si Si6 0.845114 0.000000 0.250000
O O1 0.304099 0.213047 0.194125
O O2 0.250000 0.300487 0.000000
O O3 0.395868 0.311601 0.045057
O O4 0.320285 0.067243 0.004104
O O5 0.031927 0.500000 0.750000
O O6 0.137724 0.359250 0.639962
O O7 0.019195 0.479752 0.526722
O O8 0.000000 0.250000 0.653922
O O9 0.240242 0.149166 0.604551
O O10 0.286666 0.382832 0.699221
O O11 0.000000 0.750000 0.413666
O O12 0.899225 0.940372 0.348727
#
# Coordination Sequence:
#
# PCOD9335630 Si02
#       6
#     8   8   8   4   8   4
#     4  10  22  42  67  99 142 183 228 299 353 416
#     4  12  27  44  73 107 145 187 237 298 371 438
#     4  12  22  43  73 104 140 189 243 296 363 435
#     4  10  24  36  68 110 136 176 240 302 350 434
#     4  12  27  48  68 102 147 191 240 305 373 437
#     4  12  24  48  74  94 140 196 248 294 360 454
#
# _framework density 20.774560000000001
#
# number of rings (size 3 to 8) (size 9 to 14) (size 15 to 20)
#    0.600    0.000    5.000    2.400    2.800    0.800 
#    3.600    0.000    0.000    0.000    0.000    0.000 
#    0.000    0.000    0.000    0.000    0.000    0.000 
#
# Total GULP energy -111637.520385 kJ/mol
# GULP energy per Si atom -5581.876019 kJ/mol
# Density = 2.072728 g / cm^3
# Si number density = 20.774560 Si / 1000 Ang^3
#
#
#
# Elastic Constant Matrix: (Units=GPa)
#
#
# Indices 1 2 3 4 5 6 
#
# 1 68.4527 49.4688 38.5732 0.0000 0.0000 0.0000
# 2 49.4688 134.8057 41.3231 0.0000 0.0000 0.0000
# 3 38.5732 41.3231 103.5622 0.0000 0.0000 0.0000
# 4 0.0000 0.0000 0.0000 25.9408 0.0000 0.0000
# 5 0.0000 0.0000 0.0000 0.0000 15.2410 0.0000
# 6 0.0000 0.0000 0.0000 0.0000 0.0000 -14.0765
#
#
#
# Elastic Compliance Matrix: (Units=1/GPa)
#
#
# Indices 1 2 3 4 5 6 
#
# 1 0.022588 -0.006506 -0.005817 0.000000 0.000000 0.000000
# 2 -0.006506 0.010326 -0.001697 0.000000 0.000000 0.000000
# 3 -0.005817 -0.001697 0.012500 0.000000 0.000000 0.000000
# 4 0.000000 0.000000 0.000000 0.038549 0.000000 0.000000
# 5 0.000000 0.000000 0.000000 0.000000 0.065612 0.000000
# 6 0.000000 0.000000 0.000000 0.000000 0.000000 -0.071040
#
#
# Mechanical properties :
#
#
# Convention : Reuss Voigt Hill
#
# Bulk Modulus (GPa) = 57.55871 62.83898 60.19885
# Shear Modulus (GPa) = 44.49718 17.25143 30.87430
#
# Velocity S-wave (km/s) = 4.63310 2.88481 3.85926
# Velocity P-wave (km/s) = 7.50914 6.43505 6.99275
#
# Compressibility (1/GPa) = 0.01737356
#
# Stress axis : x y z
#
# Youngs Moduli (GPa) = 44.27068 96.84608 80.00062
#
# Poissons Ratio (x) = 0.63006 0.46540
# Poissons Ratio (y) = 0.28802 0.13575
# Poissons Ratio (z) = 0.25754 0.16434
#
# Static dielectric constant tensor:
#      x y z
#    x 1.792420 0.000000 0.000000 
#    y 0.000000 1.825700 0.000000 
#    z 0.000000 0.000000 1.730280 
# 
# From -- ./inp_files/21362.got.cif
#   From: 2010.05.17/outbox.cif.g08.bks.cpg/sg24_11_cif.got.tgz:21362.got - 2010.06.04 00:33:39.
