data_PCOD9335446
_publ_section_title
;
Structure prediction by ZEFSAII (Michael W. Deem and Ramdas Pophale) SiO2 
 PCOD9335446
Probable space group: I 21 21 21
;
_chemical_formula_sum "Si O2"
_cell_formula_units_Z 56
_cell_length_a 21.358151
_cell_length_b 9.147298
_cell_length_c 13.311461
_cell_angle_alpha 90.000000
_cell_angle_beta 90.000000
_cell_angle_gamma 90.000000
_cell_volume 2600.651775
_symmetry_space_group_name_H-M "I 21 21 21"
_symmetry_group_IT_number 24
_symmetry_cell_setting 'orthorhombic'
loop_
_space_group_symop_operation_xyz
x,y,z
-x,1/2-y,z
x,-y,1/2-z
1/2-x,y,-z
1/2+x,1/2+y,1/2+z
1/2-x,-y,1/2+z
1/2+x,1/2-y,-z
-x,1/2+y,1/2-z
loop_
_atom_site_type_symbol
_atom_site_label
_atom_site_fract_x
_atom_site_fract_y
_atom_site_fract_z
Si Si1 0.844451 0.806231 0.406697
Si Si2 0.995992 0.572499 0.946272
Si Si3 0.470819 0.411219 0.846344
Si Si4 0.703615 0.753548 0.077915
Si Si5 0.377559 0.522393 0.389221
Si Si6 0.357099 0.962090 0.456040
Si Si7 0.712384 0.752920 0.305340
O O1 0.897153 0.872037 0.334425
O O2 0.856142 0.898274 0.507687
O O3 0.858532 0.642323 0.446822
O O4 0.774983 0.806211 0.362179
O O5 0.000000 0.750000 0.940400
O O6 0.014794 0.513375 0.057633
O O7 0.926689 0.511264 0.925075
O O8 0.048113 0.490665 0.878489
O O9 0.500000 0.250000 0.860963
O O10 0.493875 0.500000 0.750000
O O11 0.680880 0.608361 0.023205
O O12 0.728699 0.720292 0.189662
O O13 0.645803 0.858824 0.096673
O O14 0.750000 0.830249 0.000000
O O15 0.340122 0.620693 0.310537
O O16 0.319801 0.878342 0.367350
#
# Coordination Sequence:
#
# PCOD9335446 Si02
#       7
#     8   8   8   8   8   8   8
#     4  10  22  43  68  94 133 181 218 266 341 403
#     4  11  22  43  67  95 134 182 226 281 345 399
#     4  11  23  41  66 101 139 183 229 279 333 406
#     4  12  24  41  64  94 131 171 217 282 339 392
#     4  10  22  39  68  95 132 173 220 274 334 409
#     4  11  22  43  67  93 132 173 223 273 330 401
#     4  11  24  42  64  98 132 168 224 276 337 412
#
# _framework density 21.533064
#
# number of rings (size 3 to 8) (size 9 to 14) (size 15 to 20)
#    0.000    1.143    2.857    4.714    0.000    3.429 
#    2.571    4.286    0.000    0.000    0.000    0.000 
#    0.000    0.000    0.000    0.000    0.000    0.000 
#
# Total GULP energy -156273.289439 kJ/mol
# GULP energy per Si atom -5581.188909 kJ/mol
# Density = 2.148405 g / cm^3
# Si number density = 21.533064 Si / 1000 Ang^3
#
#
#
# Elastic Constant Matrix: (Units=GPa)
#
#
# Indices 1 2 3 4 5 6 
#
# 1 145.6883 7.5768 11.6107 0.0000 0.0000 0.0000
# 2 7.5768 89.5120 -1.7928 0.0000 0.0000 0.0000
# 3 11.6107 -1.7928 47.6545 0.0000 0.0000 0.0000
# 4 0.0000 0.0000 0.0000 12.9665 0.0000 0.0000
# 5 0.0000 0.0000 0.0000 0.0000 3.5326 0.0000
# 6 0.0000 0.0000 0.0000 0.0000 0.0000 26.4841
#
#
#
# Elastic Compliance Matrix: (Units=1/GPa)
#
#
# Indices 1 2 3 4 5 6 
#
# 1 0.007035 -0.000630 -0.001738 0.000000 0.000000 0.000000
# 2 -0.000630 0.011237 0.000576 0.000000 0.000000 0.000000
# 3 -0.001738 0.000576 0.021429 0.000000 0.000000 0.000000
# 4 0.000000 0.000000 0.000000 0.077122 0.000000 0.000000
# 5 0.000000 0.000000 0.000000 0.000000 0.283075 0.000000
# 6 0.000000 0.000000 0.000000 0.000000 0.000000 0.037758
#
#
# Mechanical properties :
#
#
# Convention : Reuss Voigt Hill
#
# Bulk Modulus (GPa) = 27.68729 35.29381 31.49055
# Shear Modulus (GPa) = 11.03073 26.29398 18.66236
#
# Velocity S-wave (km/s) = 2.26579 3.49821 2.94714
# Velocity P-wave (km/s) = 4.44196 5.72213 5.12220
#
# Compressibility (1/GPa) = 0.03611766
#
# Stress axis : x y z
#
# Youngs Moduli (GPa) = 142.14144 88.99508 46.66470
#
# Poissons Ratio (x) = 0.05609 0.08109
# Poissons Ratio (y) = 0.08959 -0.02689
# Poissons Ratio (z) = 0.24701 -0.05129
#
# Static dielectric constant tensor:
#      x y z
#    x 1.804910 0.000000 0.000000 
#    y 0.000000 1.787790 0.000000 
#    z 0.000000 0.000000 1.818750 
# 
# From -- ./inp_files/27558.got.cif
#   From: 2010.05.17/outbox.cif.g08.bks.cpg/sg24_14_cif.got.tgz:27558.got - 2010.06.04 00:33:39.
