data_PCOD9335779
_publ_section_title
;
Structure prediction by ZEFSAII (Michael W. Deem and Ramdas Pophale) SiO2 
 PCOD9335779
Probable space group: I 21 21 21
;
_chemical_formula_sum "Si O2"
_cell_formula_units_Z 36
_cell_length_a 11.083324
_cell_length_b 17.145885
_cell_length_c 7.730811
_cell_angle_alpha 90.000000
_cell_angle_beta 90.000000
_cell_angle_gamma 90.000000
_cell_volume 1469.112289
_symmetry_space_group_name_H-M "I 21 21 21"
_symmetry_group_IT_number 24
_symmetry_cell_setting 'orthorhombic'
loop_
_space_group_symop_operation_xyz
x,y,z
-x,1/2-y,z
x,-y,1/2-z
1/2-x,y,-z
1/2+x,1/2+y,1/2+z
1/2-x,-y,1/2+z
1/2+x,1/2-y,-z
-x,1/2+y,1/2-z
loop_
_atom_site_type_symbol
_atom_site_label
_atom_site_fract_x
_atom_site_fract_y
_atom_site_fract_z
Si Si1 0.750000 0.938717 0.500000
Si Si2 0.760748 0.788911 0.305193
Si Si3 0.512802 0.458048 0.064181
Si Si4 0.098351 0.840152 0.805215
Si Si5 0.750000 0.458617 0.500000
Si Si6 0.000000 0.250000 0.402472
O O1 0.743245 0.880887 0.333383
O O2 0.618012 0.975497 0.514250
O O3 0.750000 0.756852 0.500000
O O4 0.655036 0.745168 0.208238
O O5 0.884824 0.767416 0.215561
O O6 0.511061 0.500000 0.250000
O O7 0.533679 0.368985 0.130112
O O8 0.631101 0.489274 0.966870
O O9 0.206315 0.900955 0.846771
O O10 0.023299 0.828039 0.981160
#
# Coordination Sequence:
#
# PCOD9335779 Si02
#       6
#     4   8   8   8   4   4
#     4  10  24  45  64 101 136 182 226 278 362 406
#     4  10  25  40  67 104 136 177 223 301 360 412
#     4  10  24  45  66  97 139 190 230 285 336 419
#     4  11  22  44  68 105 138 177 238 291 354 420
#     4  10  22  45  72  97 138 194 232 284 342 418
#     4  12  22  40  72 102 138 178 226 302 362 410
#
# _framework density 24.504591999999999
#
# number of rings (size 3 to 8) (size 9 to 14) (size 15 to 20)
#    0.667    0.889    2.222    1.333    4.667    0.000 
#   12.000    0.000    0.000    0.000    0.000    0.000 
#    0.000    0.000    0.000    0.000    0.000    0.000 
#
# Total GULP energy -100419.463684 kJ/mol
# GULP energy per Si atom -5578.859094 kJ/mol
# Density = 2.444882 g / cm^3
# Si number density = 24.504592 Si / 1000 Ang^3
#
#
#
# Elastic Constant Matrix: (Units=GPa)
#
#
# Indices 1 2 3 4 5 6 
#
# 1 181.6938 41.6235 40.7007 0.0000 0.0000 0.0000
# 2 41.6235 48.4911 8.9765 0.0000 0.0000 0.0000
# 3 40.7007 8.9765 66.7390 -0.0001 0.0000 0.0000
# 4 0.0000 0.0000 -0.0001 32.1372 0.0000 0.0000
# 5 0.0000 0.0000 0.0000 0.0000 42.7140 0.0000
# 6 0.0000 0.0000 0.0000 0.0000 0.0000 31.7546
#
#
#
# Elastic Compliance Matrix: (Units=1/GPa)
#
#
# Indices 1 2 3 4 5 6 
#
# 1 0.007738 -0.005916 -0.003923 0.000000 0.000000 0.000000
# 2 -0.005916 0.025672 0.000155 0.000000 0.000000 0.000000
# 3 -0.003923 0.000155 0.017356 0.000000 0.000000 0.000000
# 4 0.000000 0.000000 0.000000 0.031117 0.000000 0.000000
# 5 0.000000 0.000000 0.000000 0.000000 0.023412 0.000000
# 6 0.000000 0.000000 0.000000 0.000000 0.000000 0.031491
#
#
# Mechanical properties :
#
#
# Convention : Reuss Voigt Hill
#
# Bulk Modulus (GPa) = 31.85052 53.28058 42.56555
# Shear Modulus (GPa) = 30.00876 35.02940 32.51908
#
# Velocity S-wave (km/s) = 3.50325 3.78498 3.64684
# Velocity P-wave (km/s) = 5.42122 6.39466 5.92796
#
# Compressibility (1/GPa) = 0.03139666
#
# Stress axis : x y z
#
# Youngs Moduli (GPa) = 129.23591 38.95370 57.61861
#
# Poissons Ratio (x) = 0.23044 0.22605
# Poissons Ratio (y) = 0.76452 -0.00892
# Poissons Ratio (z) = 0.50702 -0.00603
#
# Static dielectric constant tensor:
#      x y z
#    x 2.017460 0.000000 0.000000 
#    y 0.000000 2.149600 0.000000 
#    z 0.000000 0.000000 2.011520 
# 
# From -- ./inp_files/9126.got.cif
#   From: 2010.05.17/outbox.cif.g08.bks.cpg/sg24_5_cif.got.tgz:9126.got - 2010.06.04 00:33:39.
