data_PCOD9335727
_publ_section_title
;
Structure prediction by ZEFSAII (Michael W. Deem and Ramdas Pophale) SiO2 
 PCOD9335727
Probable space group: I 21 21 21
;
_chemical_formula_sum "Si O2"
_cell_formula_units_Z 20
_cell_length_a 5.043315
_cell_length_b 5.347033
_cell_length_c 32.148664
_cell_angle_alpha 90.000000
_cell_angle_beta 90.000000
_cell_angle_gamma 90.000000
_cell_volume 866.945684
_symmetry_space_group_name_H-M "I 21 21 21"
_symmetry_group_IT_number 24
_symmetry_cell_setting 'orthorhombic'
loop_
_space_group_symop_operation_xyz
x,y,z
-x,1/2-y,z
x,-y,1/2-z
1/2-x,y,-z
1/2+x,1/2+y,1/2+z
1/2-x,-y,1/2+z
1/2+x,1/2-y,-z
-x,1/2+y,1/2-z
loop_
_atom_site_type_symbol
_atom_site_label
_atom_site_fract_x
_atom_site_fract_y
_atom_site_fract_z
Si Si1 0.500000 0.250000 0.223104
Si Si2 0.500000 0.750000 0.473965
Si Si3 0.500000 0.750000 0.663982
Si Si4 0.845575 0.001522 0.605991
O O1 0.452377 0.500000 0.250000
O O2 0.243230 0.200991 0.194745
O O3 0.750000 0.647457 0.500000
O O4 0.357847 0.544409 0.443741
O O5 0.423872 0.528703 0.631543
O O6 0.000000 0.250000 0.616591
O O7 0.000000 0.750000 0.619137
#
# Coordination Sequence:
#
# PCOD9335727 Si02
#       4
#     4   4   4   8
#     4  12  29  48  74 111 144 194 242 309 386 446
#     4  10  22  44  66 104 148 188 242 306 364 434
#     4  12  25  52  74 107 152 192 250 311 364 466
#     4  10  25  44  71 108 140 197 248 295 373 431
#
# _framework density 23.069493000000001
#
# number of rings (size 3 to 8) (size 9 to 14) (size 15 to 20)
#    1.200    0.000    2.000    2.400    2.800    6.400 
#    0.000    0.000    0.000    0.000    0.000    0.000 
#    0.000    0.000    0.000    0.000    0.000    0.000 
#
# Total GULP energy -55723.443918 kJ/mol
# GULP energy per Si atom -5572.344392 kJ/mol
# Density = 2.301699 g / cm^3
# Si number density = 23.069493 Si / 1000 Ang^3
#
#
#
# Elastic Constant Matrix: (Units=GPa)
#
#
# Indices 1 2 3 4 5 6 
#
# 1 157.1452 43.3604 81.5964 0.0000 0.0000 0.0000
# 2 43.3604 158.2215 43.4271 0.0000 0.0000 0.0000
# 3 81.5964 43.4271 144.5632 0.0000 0.0000 0.0000
# 4 0.0000 0.0000 0.0000 -120.3448 0.0000 0.0000
# 5 0.0000 0.0000 0.0000 0.0000 89.6775 0.0000
# 6 0.0000 0.0000 0.0000 0.0000 0.0000 38.6872
#
#
#
# Elastic Compliance Matrix: (Units=1/GPa)
#
#
# Indices 1 2 3 4 5 6 
#
# 1 0.009205 -0.001195 -0.004836 0.000000 0.000000 0.000000
# 2 -0.001195 0.007043 -0.001441 0.000000 0.000000 0.000000
# 3 -0.004836 -0.001441 0.010080 0.000000 0.000000 0.000000
# 4 0.000000 0.000000 0.000000 -0.008309 0.000000 0.000000
# 5 0.000000 0.000000 0.000000 0.000000 0.011151 0.000000
# 6 0.000000 0.000000 0.000000 0.000000 0.000000 0.025848
#
#
# Mechanical properties :
#
#
# Convention : Reuss Voigt Hill
#
# Bulk Modulus (GPa) = 87.85328 88.52197 88.18763
# Shear Modulus (GPa) = 67.78960 21.04038 44.41499
#
# Velocity S-wave (km/s) = 5.42667 3.02328 4.39255
# Velocity P-wave (km/s) = 8.79941 7.11633 8.00224
#
# Compressibility (1/GPa) = 0.01138261
#
# Stress axis : x y z
#
# Youngs Moduli (GPa) = 108.64223 141.97782 99.20473
#
# Poissons Ratio (x) = 0.16967 0.47979
# Poissons Ratio (y) = 0.12983 0.14298
# Poissons Ratio (z) = 0.52543 0.20463
#
# Static dielectric constant tensor:
#      x y z
#    x 2.184030 0.000000 0.000000 
#    y 0.000000 1.797350 0.000000 
#    z 0.000000 0.000000 1.965820 
# 
# From -- ./inp_files/393.got.cif
#   From: 2010.05.17/outbox.cif.g08.bks.cpg/sg24_1_cif.got.tgz:393.got - 2010.06.04 00:33:39.
