data_PCOD9335344
_publ_section_title
;
Structure prediction by ZEFSAII (Michael W. Deem and Ramdas Pophale) SiO2 
 PCOD9335344
Probable space group: I 21 21 21
;
_chemical_formula_sum "Si O2"
_cell_formula_units_Z 36
_cell_length_a 10.063506
_cell_length_b 8.765293
_cell_length_c 19.594073
_cell_angle_alpha 90.000000
_cell_angle_beta 90.000000
_cell_angle_gamma 90.000000
_cell_volume 1728.384924
_symmetry_space_group_name_H-M "I 21 21 21"
_symmetry_group_IT_number 24
_symmetry_cell_setting 'orthorhombic'
loop_
_space_group_symop_operation_xyz
x,y,z
-x,1/2-y,z
x,-y,1/2-z
1/2-x,y,-z
1/2+x,1/2+y,1/2+z
1/2-x,-y,1/2+z
1/2+x,1/2-y,-z
-x,1/2+y,1/2-z
loop_
_atom_site_type_symbol
_atom_site_label
_atom_site_fract_x
_atom_site_fract_y
_atom_site_fract_z
Si Si1 0.878270 0.579645 0.417951
Si Si2 0.563175 0.920415 0.320935
Si Si3 0.395443 0.066392 0.437193
Si Si4 0.250000 0.343065 0.500000
Si Si5 0.658563 0.073909 0.884398
O O1 0.745382 0.485451 0.403886
O O2 0.918439 0.535401 0.495192
O O3 0.842867 0.757031 0.416373
O O4 0.002617 0.547831 0.368175
O O5 0.500000 0.750000 0.325962
O O6 0.504693 0.024174 0.381950
O O7 0.723158 0.919993 0.329726
O O8 0.527133 0.000000 0.250000
O O9 0.639056 0.267475 0.467111
O O10 0.194683 0.447944 0.440253
#
# Coordination Sequence:
#
# PCOD9335344 Si02
#       5
#     8   8   8   4   8
#     4   9  20  38  66 100 125 168 217 281 353 402
#     4  12  28  46  67  91 135 192 237 274 324 412
#     4  10  22  39  65 101 140 166 214 283 349 402
#     4  10  22  36  66 104 140 162 210 286 350 404
#     4  11  21  37  67  94 132 170 222 273 340 405
#
# _framework density 20.828693999999999
#
# number of rings (size 3 to 8) (size 9 to 14) (size 15 to 20)
#    0.000    1.778    2.222    2.667    6.222    7.111 
#    0.000    1.111    0.000    0.000    0.000    0.000 
#    0.000    0.000    0.000    0.000    0.000    0.000 
#
# Total GULP energy -100479.591251 kJ/mol
# GULP energy per Si atom -5582.199514 kJ/mol
# Density = 2.078129 g / cm^3
# Si number density = 20.828694 Si / 1000 Ang^3
#
#
#
# Elastic Constant Matrix: (Units=GPa)
#
#
# Indices 1 2 3 4 5 6 
#
# 1 139.2174 20.0885 18.2374 0.0000 0.0000 0.0000
# 2 20.0885 106.1348 30.2845 0.0000 0.0000 0.0000
# 3 18.2374 30.2845 56.9605 0.0000 0.0000 0.0000
# 4 0.0000 0.0000 0.0000 24.5806 0.0000 0.0000
# 5 0.0000 0.0000 0.0000 0.0000 14.8223 0.0000
# 6 0.0000 0.0000 0.0000 0.0000 0.0000 14.4464
#
#
#
# Elastic Compliance Matrix: (Units=1/GPa)
#
#
# Indices 1 2 3 4 5 6 
#
# 1 0.007566 -0.000873 -0.001958 0.000000 0.000000 0.000000
# 2 -0.000873 0.011208 -0.005679 0.000000 0.000000 0.000000
# 3 -0.001958 -0.005679 0.021203 0.000000 0.000000 0.000000
# 4 0.000000 0.000000 0.000000 0.040683 0.000000 0.000000
# 5 0.000000 0.000000 0.000000 0.000000 0.067466 0.000000
# 6 0.000000 0.000000 0.000000 0.000000 0.000000 0.069222
#
#
# Mechanical properties :
#
#
# Convention : Reuss Voigt Hill
#
# Bulk Modulus (GPa) = 43.56417 48.83705 46.20061
# Shear Modulus (GPa) = 20.65959 26.35001 23.50480
#
# Velocity S-wave (km/s) = 3.15283 3.56066 3.36293
# Velocity P-wave (km/s) = 5.84933 6.35628 6.10807
#
# Compressibility (1/GPa) = 0.02295464
#
# Stress axis : x y z
#
# Youngs Moduli (GPa) = 132.17867 89.22349 47.16419
#
# Poissons Ratio (x) = 0.07791 0.09235
# Poissons Ratio (y) = 0.11542 0.26786
# Poissons Ratio (z) = 0.25881 0.50673
#
# Static dielectric constant tensor:
#      x y z
#    x 1.869850 0.000000 0.000000 
#    y 0.000000 1.757450 0.000000 
#    z 0.000000 0.000000 1.724040 
# 
# From -- ./inp_files/32597.got.cif
#   From: 2010.05.17/outbox.cif.g08.bks.cpg/sg24_17_cif.got.tgz:32597.got - 2010.06.04 00:33:39.
