data_PCOD9335231
_publ_section_title
;
Structure prediction by ZEFSAII (Michael W. Deem and Ramdas Pophale) SiO2 
 PCOD9335231
Probable space group: I 21 21 21
;
_chemical_formula_sum "Si O2"
_cell_formula_units_Z 64
_cell_length_a 19.167781
_cell_length_b 18.124227
_cell_length_c 9.121244
_cell_angle_alpha 90.000000
_cell_angle_beta 90.000000
_cell_angle_gamma 90.000000
_cell_volume 3168.731238
_symmetry_space_group_name_H-M "I 21 21 21"
_symmetry_group_IT_number 24
_symmetry_cell_setting 'orthorhombic'
loop_
_space_group_symop_operation_xyz
x,y,z
-x,1/2-y,z
x,-y,1/2-z
1/2-x,y,-z
1/2+x,1/2+y,1/2+z
1/2-x,-y,1/2+z
1/2+x,1/2-y,-z
-x,1/2+y,1/2-z
loop_
_atom_site_type_symbol
_atom_site_label
_atom_site_fract_x
_atom_site_fract_y
_atom_site_fract_z
Si Si1 0.138304 0.644248 0.097710
Si Si2 0.250273 0.080305 0.820457
Si Si3 0.030457 0.176795 0.036083
Si Si4 0.916588 0.064456 0.149155
Si Si5 0.634622 0.306100 0.705114
Si Si6 0.515636 0.664334 0.015714
Si Si7 0.909790 0.586585 0.723976
Si Si8 0.820506 0.987084 0.922296
O O1 0.144726 0.597355 0.247385
O O2 0.157702 0.728533 0.132155
O O3 0.173583 0.599538 0.966220
O O4 0.055876 0.639468 0.059217
O O5 0.304499 0.140651 0.760315
O O6 0.172906 0.101410 0.763227
O O7 0.266883 0.000000 0.750000
O O8 0.250000 0.076782 0.000000
O O9 0.083919 0.208134 0.156706
O O10 0.000000 0.250000 0.958804
O O11 0.969311 0.129295 0.110031
O O12 0.069146 0.119132 0.932498
O O13 0.949588 0.000000 0.250000
O O14 0.884239 0.028332 0.003822
O O15 0.582277 0.343951 0.589821
O O16 0.500000 0.750000 0.043905
O O17 0.538281 0.624766 0.162604
O O18 0.918255 0.500000 0.750000
O O19 0.820952 0.000000 0.750000
O O20 0.750000 0.014247 0.000000
#
# Coordination Sequence:
#
# PCOD9335231 Si02
#       8
#     8   8   8   8   8   8   8   8
#     4  10  21  43  67 104 135 174 227 281 345 427
#     4  11  26  47  66  98 137 186 243 293 345 415
#     4  12  22  41  69 101 140 180 228 293 359 414
#     4  10  22  38  69  99 135 175 230 278 342 416
#     4  11  22  43  72  93 136 182 226 283 352 420
#     4  10  22  42  64  97 135 171 218 286 351 409
#     4  11  27  41  64  98 140 181 239 291 345 414
#     4  11  25  47  70 100 144 181 228 289 343 414
#
# _framework density 20.19736
#
# number of rings (size 3 to 8) (size 9 to 14) (size 15 to 20)
#    0.000    1.250    3.750    1.875    8.750    0.500 
#    4.500    3.125    0.000    0.000    0.000    0.000 
#    0.000    0.000    0.000    0.000    0.000    0.000 
#
# Total GULP energy -178616.676857 kJ/mol
# GULP energy per Si atom -5581.771152 kJ/mol
# Density = 2.015139 g / cm^3
# Si number density = 20.197360 Si / 1000 Ang^3
#
#
#
# Elastic Constant Matrix: (Units=GPa)
#
#
# Indices 1 2 3 4 5 6 
#
# 1 78.0370 63.3634 39.6293 0.0000 0.0000 0.0000
# 2 63.3634 105.4863 49.0045 0.0000 0.0000 0.0000
# 3 39.6293 49.0045 115.3122 0.0000 0.0000 0.0000
# 4 0.0000 0.0000 0.0000 30.2850 0.0000 0.0000
# 5 0.0000 0.0000 0.0000 0.0000 21.3917 0.0000
# 6 0.0000 0.0000 0.0000 0.0000 0.0000 55.3455
#
#
#
# Elastic Compliance Matrix: (Units=1/GPa)
#
#
# Indices 1 2 3 4 5 6 
#
# 1 0.025738 -0.014143 -0.002835 0.000000 0.000000 0.000000
# 2 -0.014143 0.019584 -0.003462 0.000000 0.000000 0.000000
# 3 -0.002835 -0.003462 0.011118 0.000000 0.000000 0.000000
# 4 0.000000 0.000000 0.000000 0.033020 0.000000 0.000000
# 5 0.000000 0.000000 0.000000 0.000000 0.046747 0.000000
# 6 0.000000 0.000000 0.000000 0.000000 0.000000 0.018068
#
#
# Mechanical properties :
#
#
# Convention : Reuss Voigt Hill
#
# Bulk Modulus (GPa) = 64.27089 66.98109 65.62599
# Shear Modulus (GPa) = 24.95747 31.19365 28.07556
#
# Velocity S-wave (km/s) = 3.51904 3.93420 3.73240
# Velocity P-wave (km/s) = 6.95716 7.33979 7.15103
#
# Compressibility (1/GPa) = 0.01555914
#
# Stress axis : x y z
#
# Youngs Moduli (GPa) = 38.85320 51.06274 89.94764
#
# Poissons Ratio (x) = 0.72219 0.25499
# Poissons Ratio (y) = 0.54951 0.31139
# Poissons Ratio (z) = 0.11014 0.17678
#
# Static dielectric constant tensor:
#      x y z
#    x 1.736840 0.000000 0.000000 
#    y 0.000000 1.750130 0.000000 
#    z 0.000000 0.000000 1.739440 
# 
# From -- ./inp_files/15412.got.cif
#   From: 2010.05.17/outbox.cif.g08.bks.cpg/sg24_8_cif.got.tgz:15412.got - 2010.06.04 00:33:39.
