data_PCOD9335508
_publ_section_title
;
Structure prediction by ZEFSAII (Michael W. Deem and Ramdas Pophale) SiO2 
 PCOD9335508
Probable space group: I 21 21 21
;
_chemical_formula_sum "Si O2"
_cell_formula_units_Z 32
_cell_length_a 7.702502
_cell_length_b 33.057804
_cell_length_c 5.120079
_cell_angle_alpha 90.000000
_cell_angle_beta 90.000000
_cell_angle_gamma 90.000000
_cell_volume 1303.714459
_symmetry_space_group_name_H-M "I 21 21 21"
_symmetry_group_IT_number 24
_symmetry_cell_setting 'orthorhombic'
loop_
_space_group_symop_operation_xyz
x,y,z
-x,1/2-y,z
x,-y,1/2-z
1/2-x,y,-z
1/2+x,1/2+y,1/2+z
1/2-x,-y,1/2+z
1/2+x,1/2-y,-z
-x,1/2+y,1/2-z
loop_
_atom_site_type_symbol
_atom_site_label
_atom_site_fract_x
_atom_site_fract_y
_atom_site_fract_z
Si Si1 0.750000 0.701558 0.000000
Si Si2 0.059595 0.583915 0.406328
Si Si3 0.000000 0.750000 0.366261
Si Si4 0.563080 0.540274 0.117836
Si Si5 0.951448 0.667981 0.594101
O O1 0.841657 0.732532 0.197973
O O2 0.593931 0.672213 0.098903
O O3 0.250000 0.570994 0.500000
O O4 0.927521 0.569038 0.631561
O O5 0.046792 0.631965 0.447732
O O6 0.026108 0.564101 0.123392
O O7 0.041206 0.710509 0.534027
O O8 0.481836 0.500000 0.250000
O O9 0.750000 0.528648 0.000000
O O10 0.750000 0.665996 0.500000
#
# Coordination Sequence:
#
# PCOD9335508 Si02
#       5
#     4   8   4   8   8
#     4  10  22  40  68 100 140 204 240 326 356 442
#     4  12  28  46  75 116 155 195 246 316 379 437
#     4  10  22  40  66 100 144 192 252 306 372 428
#     4  12  26  51  81 111 145 196 249 301 373 464
#     4  10  23  42  66 102 143 200 257 302 365 446
#
# _framework density 24.545249999999999
#
# number of rings (size 3 to 8) (size 9 to 14) (size 15 to 20)
#    0.000    1.000    0.000    6.000    8.750    7.000 
#    0.000    1.250    0.000    0.000    0.000    0.000 
#    0.000    0.000    0.000    0.000    0.000    0.000 
#
# Total GULP energy -89207.162871 kJ/mol
# GULP energy per Si atom -5575.447679 kJ/mol
# Density = 2.448938 g / cm^3
# Si number density = 24.545250 Si / 1000 Ang^3
#
#
#
# Elastic Constant Matrix: (Units=GPa)
#
#
# Indices 1 2 3 4 5 6 
#
# 1 84.5064 22.8052 39.0770 -0.0050 -0.0039 0.0053
# 2 22.8052 173.7060 78.2587 0.0531 0.0053 -0.0057
# 3 39.0770 78.2587 160.7876 0.0740 0.0194 -0.0243
# 4 -0.0050 0.0531 0.0740 28.1233 0.0227 -0.0618
# 5 -0.0039 0.0053 0.0194 0.0227 33.0414 -0.0045
# 6 0.0053 -0.0057 -0.0243 -0.0618 -0.0045 20.2765
#
#
#
# Elastic Compliance Matrix: (Units=1/GPa)
#
#
# Indices 1 2 3 4 5 6 
#
# 1 0.013350 -0.000373 -0.003063 0.000011 0.000003 -0.000007
# 2 -0.000373 0.007384 -0.003503 -0.000005 0.000001 -0.000002
# 3 -0.003063 -0.003503 0.008669 -0.000017 -0.000005 0.000010
# 4 0.000011 -0.000005 -0.000017 0.035558 -0.000024 0.000108
# 5 0.000003 0.000001 -0.000005 -0.000024 0.030265 0.000007
# 6 -0.000007 -0.000002 0.000010 0.000108 0.000007 0.049318
#
#
# Mechanical properties :
#
#
# Convention : Reuss Voigt Hill
#
# Bulk Modulus (GPa) = 64.41236 77.69799 71.05518
# Shear Modulus (GPa) = 30.56254 34.87887 32.72070
#
# Velocity S-wave (km/s) = 3.53250 3.77371 3.65509
# Velocity P-wave (km/s) = 6.55266 7.12120 6.84284
#
# Compressibility (1/GPa) = 0.01552497
#
# Stress axis : x y z
#
# Youngs Moduli (GPa) = 74.90366 135.42477 115.35251
#
# Poissons Ratio (x) = 0.05047 0.35335
# Poissons Ratio (y) = 0.02791 0.40413
# Poissons Ratio (z) = 0.22945 0.47446
#
# Static dielectric constant tensor:
#      x y z
#    x 1.999670 0.000040 -0.000050 
#    y 0.000040 2.033460 0.000040 
#    z -0.000050 0.000040 2.292340 
# 
# From -- ./inp_files/1317.got.cif
#   From: 2010.05.17/outbox.cif.g08.bks.cpg/sg24_1_cif.got.tgz:1317.got - 2010.06.04 00:33:39.
