data_PCOD9335253
_publ_section_title
;
Structure prediction by ZEFSAII (Michael W. Deem and Ramdas Pophale) SiO2 
 PCOD9335253
Probable space group: I 21 21 21
;
_chemical_formula_sum "Si O2"
_cell_formula_units_Z 40
_cell_length_a 8.896414
_cell_length_b 9.334166
_cell_length_c 20.663397
_cell_angle_alpha 90.000000
_cell_angle_beta 90.000000
_cell_angle_gamma 90.000000
_cell_volume 1715.900990
_symmetry_space_group_name_H-M "I 21 21 21"
_symmetry_group_IT_number 24
_symmetry_cell_setting 'orthorhombic'
loop_
_space_group_symop_operation_xyz
x,y,z
-x,1/2-y,z
x,-y,1/2-z
1/2-x,y,-z
1/2+x,1/2+y,1/2+z
1/2-x,-y,1/2+z
1/2+x,1/2-y,-z
-x,1/2+y,1/2-z
loop_
_atom_site_type_symbol
_atom_site_label
_atom_site_fract_x
_atom_site_fract_y
_atom_site_fract_z
Si Si1 0.232899 0.203193 0.674725
Si Si2 0.577732 0.497618 0.999254
Si Si3 0.029581 0.484756 0.643497
Si Si4 0.000000 0.250000 0.421094
Si Si5 0.706618 0.865527 0.705223
Si Si6 0.000000 0.750000 0.405734
O O1 0.135819 0.342702 0.650948
O O2 0.368112 0.196929 0.625023
O O3 0.293190 0.233400 0.746111
O O4 0.127363 0.066143 0.672840
O O5 0.469244 0.615664 0.967070
O O6 0.582577 0.359975 0.953259
O O7 0.750000 0.554897 0.000000
O O8 0.510879 0.471725 0.070401
O O9 0.123535 0.602191 0.682168
O O10 0.608817 0.837783 0.642085
O O11 0.656376 0.000000 0.750000
#
# Coordination Sequence:
#
# PCOD9335253 Si02
#       6
#     8   8   8   4   8   4
#     4  10  21  43  74 105 135 188 246 305 362 429
#     4  12  27  46  71 109 148 195 247 302 371 440
#     4  10  22  44  67 101 143 187 239 294 369 431
#     4  12  23  44  78 106 145 186 254 306 358 452
#     4  10  23  47  73 103 145 194 248 303 370 442
#     4  12  29  48  72 110 153 202 238 308 382 432
#
# _framework density 23.311368999999999
#
# number of rings (size 3 to 8) (size 9 to 14) (size 15 to 20)
#    0.000    1.200    2.000    4.200    2.800    1.600 
#   18.000    0.000    0.000    0.000    0.000    0.000 
#    0.000    0.000    0.000    0.000    0.000    0.000 
#
# Total GULP energy -111925.418314 kJ/mol
# GULP energy per Si atom -5596.270916 kJ/mol
# Density = 2.325831 g / cm^3
# Si number density = 23.311369 Si / 1000 Ang^3
#
#
#
# Elastic Constant Matrix: (Units=GPa)
#
#
# Indices 1 2 3 4 5 6 
#
# 1 42.2301 -2.6407 2.5176 0.0000 0.0000 0.0000
# 2 -2.6407 40.0302 22.5711 0.0000 0.0000 0.0000
# 3 2.5176 22.5711 132.5781 0.0000 0.0000 0.0000
# 4 0.0000 0.0000 0.0000 33.5948 0.0000 0.0000
# 5 0.0000 0.0000 0.0000 0.0000 13.1471 0.0000
# 6 0.0000 0.0000 0.0000 0.0000 0.0000 26.2681
#
#
#
# Elastic Compliance Matrix: (Units=1/GPa)
#
#
# Indices 1 2 3 4 5 6 
#
# 1 0.023854 0.002023 -0.000797 0.000000 0.000000 0.000000
# 2 0.002023 0.027805 -0.004772 0.000000 0.000000 0.000000
# 3 -0.000797 -0.004772 0.008370 0.000000 0.000000 0.000000
# 4 0.000000 0.000000 0.000000 0.029766 0.000000 0.000000
# 5 0.000000 0.000000 0.000000 0.000000 0.076063 0.000000
# 6 0.000000 0.000000 0.000000 0.000000 0.000000 0.038069
#
#
# Mechanical properties :
#
#
# Convention : Reuss Voigt Hill
#
# Bulk Modulus (GPa) = 18.89047 28.85939 23.87493
# Shear Modulus (GPa) = 21.86593 27.42803 24.64698
#
# Velocity S-wave (km/s) = 3.06599 3.43387 3.25513
# Velocity P-wave (km/s) = 4.54476 5.30366 4.93881
#
# Compressibility (1/GPa) = 0.05293674
#
# Stress axis : x y z
#
# Youngs Moduli (GPa) = 41.92200 35.96415 119.46966
#
# Poissons Ratio (x) = -0.07276 0.09527
# Poissons Ratio (y) = -0.08482 0.57014
# Poissons Ratio (z) = 0.03343 0.17163
#
# Static dielectric constant tensor:
#      x y z
#    x 1.875690 0.000000 0.000000 
#    y 0.000000 1.993980 0.000000 
#    z 0.000000 0.000000 1.822040 
# 
# From -- ./inp_files/29269.got.cif
#   From: 2010.05.17/outbox.cif.g08.bks.cpg/sg24_15_cif.got.tgz:29269.got - 2010.06.04 00:33:39.
