data_PCOD9335086
_publ_section_title
;
Structure prediction by ZEFSAII (Michael W. Deem and Ramdas Pophale) SiO2 
 PCOD9335086
Probable space group: I 21 21 21
;
_chemical_formula_sum "Si O2"
_cell_formula_units_Z 64
_cell_length_a 12.067366
_cell_length_b 16.240796
_cell_length_c 14.434452
_cell_angle_alpha 90.000000
_cell_angle_beta 90.000000
_cell_angle_gamma 90.000000
_cell_volume 2828.916292
_symmetry_space_group_name_H-M "I 21 21 21"
_symmetry_group_IT_number 24
_symmetry_cell_setting 'orthorhombic'
loop_
_space_group_symop_operation_xyz
x,y,z
-x,1/2-y,z
x,-y,1/2-z
1/2-x,y,-z
1/2+x,1/2+y,1/2+z
1/2-x,-y,1/2+z
1/2+x,1/2-y,-z
-x,1/2+y,1/2-z
loop_
_atom_site_type_symbol
_atom_site_label
_atom_site_fract_x
_atom_site_fract_y
_atom_site_fract_z
Si Si1 0.360827 0.649970 0.941222
Si Si2 0.708056 0.783634 0.596950
Si Si3 0.942824 0.546768 0.013915
Si Si4 0.952290 0.156388 0.249411
Si Si5 0.204762 0.832335 0.101904
Si Si6 0.161900 0.961604 0.653381
Si Si7 0.385569 0.203228 0.234682
Si Si8 0.891879 0.389767 0.103363
O O1 0.458005 0.610195 0.000904
O O2 0.388872 0.618131 0.837173
O O3 0.359441 0.746933 0.918133
O O4 0.250000 0.633453 0.000000
O O5 0.750000 0.819010 0.500000
O O6 0.633850 0.838268 0.664494
O O7 0.811313 0.753257 0.660021
O O8 0.629304 0.704283 0.573110
O O9 0.877118 0.589396 0.100579
O O10 0.965226 0.452542 0.044345
O O11 0.887590 0.529534 0.914519
O O12 0.000000 0.250000 0.264752
O O13 0.058299 0.111933 0.205984
O O14 0.297077 0.814503 0.180608
O O15 0.250000 0.847989 0.000000
O O16 0.087504 0.883647 0.684223
O O17 0.268730 0.925390 0.603562
O O18 0.196745 0.000000 0.750000
O O19 0.500000 0.250000 0.260374
#
# Coordination Sequence:
#
# PCOD9335086 Si02
#       8
#     8   8   8   8   8   8   8   8
#     4  11  26  44  69  97 141 185 246 299 356 445
#     4  10  21  40  67 101 141 182 239 301 352 436
#     4  12  24  43  69 102 143 185 235 303 375 429
#     4  10  21  42  71 101 134 186 236 292 358 431
#     4  11  23  42  70 103 137 185 244 294 358 445
#     4  11  24  41  64 102 146 185 234 300 370 438
#     4  11  24  43  72 103 148 196 245 304 376 436
#     4  10  22  38  68  97 132 175 238 292 360 419
#
# _framework density 22.623505000000002
#
# number of rings (size 3 to 8) (size 9 to 14) (size 15 to 20)
#    0.000    1.250    1.250    5.250    5.250    6.500 
#    0.000    1.875    2.750    0.000    0.000    0.000 
#    0.000    0.000    0.000    0.000    0.000    0.000 
#
# Total GULP energy -178326.248613 kJ/mol
# GULP energy per Si atom -5572.695269 kJ/mol
# Density = 2.257201 g / cm^3
# Si number density = 22.623505 Si / 1000 Ang^3
#
#
#
# Elastic Constant Matrix: (Units=GPa)
#
#
# Indices 1 2 3 4 5 6 
#
# 1 106.4371 44.5387 63.8920 0.0000 0.0000 0.0000
# 2 44.5387 57.7551 12.7947 0.0000 0.0000 0.0000
# 3 63.8920 12.7947 159.6689 0.0000 0.0000 0.0000
# 4 0.0000 0.0000 0.0000 -0.6612 0.0000 0.0000
# 5 0.0000 0.0000 0.0000 0.0000 48.2266 0.0000
# 6 0.0000 0.0000 0.0000 0.0000 0.0000 25.6843
#
#
#
# Elastic Compliance Matrix: (Units=1/GPa)
#
#
# Indices 1 2 3 4 5 6 
#
# 1 0.018699 -0.012993 -0.006441 0.000000 0.000000 0.000000
# 2 -0.012993 0.026655 0.003063 0.000000 0.000000 0.000000
# 3 -0.006441 0.003063 0.008595 0.000000 0.000000 0.000000
# 4 0.000000 0.000000 0.000000 -1.512392 0.000000 0.000000
# 5 0.000000 0.000000 0.000000 0.000000 0.020735 0.000000
# 6 0.000000 0.000000 0.000000 0.000000 0.000000 0.038934
#
#
# Mechanical properties :
#
#
# Convention : Reuss Voigt Hill
#
# Bulk Modulus (GPa) = 47.15328 62.92355 55.03841
# Shear Modulus (GPa) = -3.67928 28.15897 12.23984
#
# Velocity S-wave (km/s) = -1.27665 3.53183 2.32851
# Velocity P-wave (km/s) = 4.32605 6.67124 5.62229
#
# Compressibility (1/GPa) = 0.02120743
#
# Stress axis : x y z
#
# Youngs Moduli (GPa) = 53.48013 37.51574 116.34744
#
# Poissons Ratio (x) = 0.48743 0.74941
# Poissons Ratio (y) = 0.69485 -0.35639
# Poissons Ratio (z) = 0.34447 -0.11492
#
# Static dielectric constant tensor:
#      x y z
#    x 2.177880 0.000000 0.000000 
#    y 0.000000 1.832990 0.000000 
#    z 0.000000 0.000000 1.929050 
# 
# From -- ./inp_files/26008.got.cif
#   From: 2010.05.17/outbox.cif.g08.bks.cpg/sg24_14_cif.got.tgz:26008.got - 2010.06.04 00:33:39.
