data_PCOD9335837
_publ_section_title
;
Structure prediction by ZEFSAII (Michael W. Deem and Ramdas Pophale) SiO2 
 PCOD9335837
Probable space group: I 21 21 21
;
_chemical_formula_sum "Si O2"
_cell_formula_units_Z 64
_cell_length_a 10.739269
_cell_length_b 8.914888
_cell_length_c 30.992566
_cell_angle_alpha 90.000000
_cell_angle_beta 90.000000
_cell_angle_gamma 90.000000
_cell_volume 2967.209064
_symmetry_space_group_name_H-M "I 21 21 21"
_symmetry_group_IT_number 24
_symmetry_cell_setting 'orthorhombic'
loop_
_space_group_symop_operation_xyz
x,y,z
-x,1/2-y,z
x,-y,1/2-z
1/2-x,y,-z
1/2+x,1/2+y,1/2+z
1/2-x,-y,1/2+z
1/2+x,1/2-y,-z
-x,1/2+y,1/2-z
loop_
_atom_site_type_symbol
_atom_site_label
_atom_site_fract_x
_atom_site_fract_y
_atom_site_fract_z
Si Si1 0.279799 0.026822 0.399207
Si Si2 0.139701 0.205448 0.965152
Si Si3 0.508636 0.567534 0.705149
Si Si4 0.006084 0.570443 0.113887
Si Si5 0.358139 0.694275 0.146238
Si Si6 0.755796 0.092527 0.108164
Si Si7 0.365228 0.676975 0.241388
Si Si8 0.256310 0.156401 0.176845
O O1 0.294852 0.200940 0.389479
O O2 0.129071 0.003687 0.399369
O O3 0.347477 0.954371 0.439995
O O4 0.334649 0.946446 0.355815
O O5 0.179900 0.324936 0.928863
O O6 0.000000 0.250000 0.979878
O O7 0.250000 0.207187 0.000000
O O8 0.500000 0.750000 0.705424
O O9 0.461370 0.500000 0.750000
O O10 0.461595 0.477907 0.663390
O O11 0.656071 0.547357 0.698463
O O12 0.121873 0.491798 0.090155
O O13 0.000000 0.750000 0.109997
O O14 0.500000 0.750000 0.146651
O O15 0.333973 0.525122 0.131832
O O16 0.303849 0.707813 0.194774
O O17 0.794372 0.219370 0.143084
O O18 0.500000 0.750000 0.237512
O O19 0.371391 0.500000 0.250000
O O20 0.310418 0.754224 0.283468
#
# Coordination Sequence:
#
# PCOD9335837 Si02
#       8
#     8   8   8   8   8   8   8   8
#     4  10  24  41  68  98 137 180 227 279 345 420
#     4  11  27  49  79 112 140 175 219 282 353 434
#     4  11  23  35  53  86 127 179 235 293 338 397
#     4  11  22  40  65 100 133 184 229 276 341 402
#     4  11  23  39  63  94 132 182 232 287 340 405
#     4  11  22  44  70  95 137 177 227 277 349 420
#     4  11  25  37  55  86 127 179 240 295 340 392
#     4  10  23  37  57  83 129 177 229 283 341 398
#
# _framework density 21.569091
#
# number of rings (size 3 to 8) (size 9 to 14) (size 15 to 20)
#    0.000    1.250    3.750    1.125    8.750    3.500 
#    0.000    0.625    0.000    0.000    0.000    0.000 
#    0.000    0.000    0.000    0.000    0.000    0.000 
#
# Total GULP energy -178506.014144 kJ/mol
# GULP energy per Si atom -5578.312942 kJ/mol
# Density = 2.152000 g / cm^3
# Si number density = 21.569091 Si / 1000 Ang^3
#
#
#
# Elastic Constant Matrix: (Units=GPa)
#
#
# Indices 1 2 3 4 5 6 
#
# 1 84.9512 10.3046 17.7725 0.0000 0.0000 0.0000
# 2 10.3046 89.1627 7.3087 0.0000 0.0000 0.0000
# 3 17.7725 7.3087 68.4627 0.0000 0.0000 0.0000
# 4 0.0000 0.0000 0.0000 22.1933 0.0000 0.0000
# 5 0.0000 0.0000 0.0000 0.0000 20.2620 0.0000
# 6 0.0000 0.0000 0.0000 0.0000 0.0000 30.7895
#
#
#
# Elastic Compliance Matrix: (Units=1/GPa)
#
#
# Indices 1 2 3 4 5 6 
#
# 1 0.012573 -0.001196 -0.003136 0.000000 0.000000 0.000000
# 2 -0.001196 0.011428 -0.000910 0.000000 0.000000 0.000000
# 3 -0.003136 -0.000910 0.015518 0.000000 0.000000 0.000000
# 4 0.000000 0.000000 0.000000 0.045059 0.000000 0.000000
# 5 0.000000 0.000000 0.000000 0.000000 0.049353 0.000000
# 6 0.000000 0.000000 0.000000 0.000000 0.000000 0.032479
#
#
# Mechanical properties :
#
#
# Convention : Reuss Voigt Hill
#
# Bulk Modulus (GPa) = 34.44081 34.81648 34.62865
# Shear Modulus (GPa) = 26.79945 28.46168 27.63057
#
# Velocity S-wave (km/s) = 3.52873 3.63651 3.58303
# Velocity P-wave (km/s) = 5.71007 5.81457 5.76255
#
# Compressibility (1/GPa) = 0.02903532
#
# Stress axis : x y z
#
# Youngs Moduli (GPa) = 79.53782 87.50263 64.44254
#
# Poissons Ratio (x) = 0.10465 0.20210
# Poissons Ratio (y) = 0.09512 0.05861
# Poissons Ratio (z) = 0.24944 0.07959
#
# Static dielectric constant tensor:
#      x y z
#    x 1.865080 0.000000 0.000000 
#    y 0.000000 1.789930 0.000000 
#    z 0.000000 0.000000 1.820600 
# 
# From -- ./inp_files/38634.got.cif
#   From: 2010.05.17/outbox.cif.g08.bks.cpg/sg24_20_cif.got.tgz:38634.got - 2010.06.04 00:33:39.
