data_PCOD9335684
_publ_section_title
;
Structure prediction by ZEFSAII (Michael W. Deem and Ramdas Pophale) SiO2 
 PCOD9335684
Probable space group: I 21 21 21
;
_chemical_formula_sum "Si O2"
_cell_formula_units_Z 48
_cell_length_a 12.664709
_cell_length_b 5.720180
_cell_length_c 30.189270
_cell_angle_alpha 90.000000
_cell_angle_beta 90.000000
_cell_angle_gamma 90.000000
_cell_volume 2187.044008
_symmetry_space_group_name_H-M "I 21 21 21"
_symmetry_group_IT_number 24
_symmetry_cell_setting 'orthorhombic'
loop_
_space_group_symop_operation_xyz
x,y,z
-x,1/2-y,z
x,-y,1/2-z
1/2-x,y,-z
1/2+x,1/2+y,1/2+z
1/2-x,-y,1/2+z
1/2+x,1/2-y,-z
-x,1/2+y,1/2-z
loop_
_atom_site_type_symbol
_atom_site_label
_atom_site_fract_x
_atom_site_fract_y
_atom_site_fract_z
Si Si1 0.000000 0.750000 0.827731
Si Si2 0.500000 0.250000 0.776033
Si Si3 0.230851 0.828837 0.291460
Si Si4 0.125557 0.403938 0.011959
Si Si5 0.909219 0.000000 0.750000
Si Si6 0.500000 0.250000 0.068824
Si Si7 0.326239 0.952258 0.120803
Si Si8 0.832301 0.603457 0.041007
O O1 0.012933 0.547962 0.791354
O O2 0.897953 0.753042 0.858638
O O3 0.500980 0.500000 0.750000
O O4 0.613050 0.231807 0.800560
O O5 0.324445 0.670594 0.272641
O O6 0.271123 0.939692 0.336562
O O7 0.215868 0.000000 0.250000
O O8 0.108836 0.646744 0.037864
O O9 0.108318 0.147807 0.035127
O O10 0.250000 0.398230 0.000000
O O11 0.062233 0.416179 0.965679
O O12 0.412872 0.120423 0.098002
O O13 0.238550 0.894163 0.084899
O O14 0.750000 0.604585 0.000000
#
# Coordination Sequence:
#
# PCOD9335684 Si02
#       8
#     4   4   8   8   4   4   8   8
#     4  12  26  37  68 108 149 201 240 293 376 450
#     4  10  22  44  79 100 129 193 250 287 376 424
#     4  11  23  46  69 105 145 190 239 311 359 432
#     4  10  22  43  67  96 137 176 236 294 353 420
#     4  12  22  46  62 102 160 196 230 310 360 442
#     4  12  24  43  73 108 136 200 240 290 376 460
#     4  12  25  41  70 110 143 191 250 300 364 451
#     4  10  22  45  65  93 140 181 231 305 347 414
#
# _framework density 21.947433
#
# number of rings (size 3 to 8) (size 9 to 14) (size 15 to 20)
#    0.000    1.000    5.833    2.000    4.667    2.000 
#    0.000    0.833    0.000    6.000    0.000    0.000 
#    0.000    0.000    0.000    0.000    0.000    0.000 
#
# Total GULP energy -133750.406510 kJ/mol
# GULP energy per Si atom -5572.933605 kJ/mol
# Density = 2.189748 g / cm^3
# Si number density = 21.947433 Si / 1000 Ang^3
#
#
#
# Elastic Constant Matrix: (Units=GPa)
#
#
# Indices 1 2 3 4 5 6 
#
# 1 92.9891 26.2448 42.5361 0.0000 0.0000 0.0000
# 2 26.2448 122.9378 40.1613 0.0000 0.0000 0.0000
# 3 42.5361 40.1613 160.7313 0.0000 0.0000 0.0000
# 4 0.0000 0.0000 0.0000 -4.6842 0.0000 0.0000
# 5 0.0000 0.0000 0.0000 0.0000 53.7477 0.0000
# 6 0.0000 0.0000 0.0000 0.0000 0.0000 -6.3336
#
#
#
# Elastic Compliance Matrix: (Units=1/GPa)
#
#
# Indices 1 2 3 4 5 6 
#
# 1 0.012567 -0.001738 -0.002891 0.000000 0.000000 0.000000
# 2 -0.001738 0.009098 -0.001813 0.000000 0.000000 0.000000
# 3 -0.002891 -0.001813 0.007440 0.000000 0.000000 0.000000
# 4 0.000000 0.000000 0.000000 -0.213486 0.000000 0.000000
# 5 0.000000 0.000000 0.000000 0.000000 0.018605 0.000000
# 6 0.000000 0.000000 0.000000 0.000000 0.000000 -0.157888
#
#
# Mechanical properties :
#
#
# Convention : Reuss Voigt Hill
#
# Bulk Modulus (GPa) = 61.65674 66.06027 63.85851
# Shear Modulus (GPa) = -16.37347 26.39373 5.01013
#
# Velocity S-wave (km/s) = -2.73432 3.47160 1.51253
# Velocity P-wave (km/s) = 4.26441 6.79956 5.67535
#
# Compressibility (1/GPa) = 0.01621883
#
# Stress axis : x y z
#
# Youngs Moduli (GPa) = 79.57224 109.91901 134.41197
#
# Poissons Ratio (x) = 0.19107 0.38865
# Poissons Ratio (y) = 0.13832 0.24371
# Poissons Ratio (z) = 0.23008 0.19930
#
# Static dielectric constant tensor:
#      x y z
#    x 2.178170 0.000000 0.000000 
#    y 0.000000 1.992840 0.000000 
#    z 0.000000 0.000000 1.836750 
# 
# From -- ./inp_files/37408.got.cif
#   From: 2010.05.17/outbox.cif.g08.bks.cpg/sg24_19_cif.got.tgz:37408.got - 2010.06.04 00:33:39.
