data_PCOD9335151
_publ_section_title
;
Structure prediction by ZEFSAII (Michael W. Deem and Ramdas Pophale) SiO2 
 PCOD9335151
Probable space group: I 21 21 21
;
_chemical_formula_sum "Si O2"
_cell_formula_units_Z 32
_cell_length_a 5.246101
_cell_length_b 19.604648
_cell_length_c 13.225601
_cell_angle_alpha 90.000000
_cell_angle_beta 90.000000
_cell_angle_gamma 90.000000
_cell_volume 1360.226129
_symmetry_space_group_name_H-M "I 21 21 21"
_symmetry_group_IT_number 24
_symmetry_cell_setting 'orthorhombic'
loop_
_space_group_symop_operation_xyz
x,y,z
-x,1/2-y,z
x,-y,1/2-z
1/2-x,y,-z
1/2+x,1/2+y,1/2+z
1/2-x,-y,1/2+z
1/2+x,1/2-y,-z
-x,1/2+y,1/2-z
loop_
_atom_site_type_symbol
_atom_site_label
_atom_site_fract_x
_atom_site_fract_y
_atom_site_fract_z
Si Si1 0.516797 0.020541 0.600764
Si Si2 0.478989 0.921429 0.123823
Si Si3 0.656617 0.865122 0.604894
Si Si4 0.636427 0.323248 0.216866
O O1 0.500619 0.064087 0.496455
O O2 0.745226 0.055206 0.661571
O O3 0.249338 0.029370 0.653647
O O4 0.563164 0.941509 0.580085
O O5 0.383055 0.849345 0.167186
O O6 0.750000 0.829847 0.500000
O O7 0.417719 0.830753 0.666075
O O8 0.926078 0.870393 0.662339
O O9 0.500000 0.250000 0.207870
#
# Coordination Sequence:
#
# PCOD9335151 Si02
#       4
#     8   8   8   8
#     4  10  21  41  68 106 134 169 221 285 367 404
#     4  10  21  41  68 100 140 167 222 287 345 414
#     4  12  25  45  71  96 137 179 229 292 341 405
#     4  12  28  45  66 100 138 186 232 274 334 420
#
# _framework density 23.525501999999999
#
# number of rings (size 3 to 8) (size 9 to 14) (size 15 to 20)
#    0.000    1.000    2.500    4.500    3.500    8.000 
#    0.000    5.000    0.000    0.000    0.000    0.000 
#    0.000    0.000    0.000    0.000    0.000    0.000 
#
# Total GULP energy -89155.974421 kJ/mol
# GULP energy per Si atom -5572.248401 kJ/mol
# Density = 2.347196 g / cm^3
# Si number density = 23.525502 Si / 1000 Ang^3
#
#
#
# Elastic Constant Matrix: (Units=GPa)
#
#
# Indices 1 2 3 4 5 6 
#
# 1 207.2049 23.7109 10.7090 0.0000 0.0000 0.0000
# 2 23.7109 70.9980 21.1029 0.0000 0.0000 0.0000
# 3 10.7090 21.1029 92.1324 0.0000 0.0000 0.0000
# 4 0.0000 0.0000 0.0000 15.6997 0.0000 0.0000
# 5 0.0000 0.0000 0.0000 0.0000 8.7100 0.0000
# 6 0.0000 0.0000 0.0000 0.0000 0.0000 19.4372
#
#
#
# Elastic Compliance Matrix: (Units=1/GPa)
#
#
# Indices 1 2 3 4 5 6 
#
# 1 0.005022 -0.001613 -0.000214 0.000000 0.000000 0.000000
# 2 -0.001613 0.015632 -0.003393 0.000000 0.000000 0.000000
# 3 -0.000214 -0.003393 0.011656 0.000000 0.000000 0.000000
# 4 0.000000 0.000000 0.000000 0.063696 0.000000 0.000000
# 5 0.000000 0.000000 0.000000 0.000000 0.114810 0.000000
# 6 0.000000 0.000000 0.000000 0.000000 0.000000 0.051448
#
#
# Mechanical properties :
#
#
# Convention : Reuss Voigt Hill
#
# Bulk Modulus (GPa) = 45.72719 53.48678 49.60698
# Shear Modulus (GPa) = 17.85750 29.75688 23.80719
#
# Velocity S-wave (km/s) = 2.75811 3.56037 3.18460
# Velocity P-wave (km/s) = 5.44265 6.29974 5.88681
#
# Compressibility (1/GPa) = 0.02186883
#
# Stress axis : x y z
#
# Youngs Moduli (GPa) = 199.13015 63.97027 85.79273
#
# Poissons Ratio (x) = 0.10321 0.01837
# Poissons Ratio (y) = 0.32129 0.29110
# Poissons Ratio (z) = 0.04264 0.21705
#
# Static dielectric constant tensor:
#      x y z
#    x 1.870590 0.000000 0.000000 
#    y 0.000000 1.906880 0.000000 
#    z 0.000000 0.000000 1.819620 
# 
# From -- ./inp_files/23472.got.cif
#   From: 2010.05.17/outbox.cif.g08.bks.cpg/sg24_12_cif.got.tgz:23472.got - 2010.06.04 00:33:39.
