data_PCOD9335552
_publ_section_title
;
Structure prediction by ZEFSAII (Michael W. Deem and Ramdas Pophale) SiO2 
 PCOD9335552
Probable space group: I 21 21 21
;
_chemical_formula_sum "Si O2"
_cell_formula_units_Z 40
_cell_length_a 5.144741
_cell_length_b 17.414155
_cell_length_c 17.997096
_cell_angle_alpha 90.000000
_cell_angle_beta 90.000000
_cell_angle_gamma 90.000000
_cell_volume 1612.383537
_symmetry_space_group_name_H-M "I 21 21 21"
_symmetry_group_IT_number 24
_symmetry_cell_setting 'orthorhombic'
loop_
_space_group_symop_operation_xyz
x,y,z
-x,1/2-y,z
x,-y,1/2-z
1/2-x,y,-z
1/2+x,1/2+y,1/2+z
1/2-x,-y,1/2+z
1/2+x,1/2-y,-z
-x,1/2+y,1/2-z
loop_
_atom_site_type_symbol
_atom_site_label
_atom_site_fract_x
_atom_site_fract_y
_atom_site_fract_z
Si Si1 0.997410 0.667717 0.449730
Si Si2 0.259183 0.301630 0.731594
Si Si3 0.694802 0.946024 0.660817
Si Si4 0.684204 0.528181 0.163409
Si Si5 0.103292 0.663907 0.925069
O O1 0.750000 0.663824 0.500000
O O2 0.000000 0.750000 0.410973
O O3 0.250000 0.664832 0.500000
O O4 0.010184 0.599781 0.394094
O O5 0.500000 0.250000 0.753688
O O6 0.247615 0.380650 0.777602
O O7 0.289887 0.320733 0.644726
O O8 0.000000 0.250000 0.741611
O O9 0.495110 0.017396 0.670367
O O10 0.966774 0.972632 0.626051
O O11 0.610500 0.500000 0.250000
O O12 0.607763 0.607055 0.118016
O O13 0.000000 0.750000 0.944352
O O14 0.250000 0.634105 0.000000
#
# Coordination Sequence:
#
# PCOD9335552 Si02
#       5
#     8   8   8   8   8
#     4  10  22  41  64 100 147 191 239 301 371 457
#     4  11  24  43  75 114 154 202 264 323 402 491
#     4  12  25  44  76 107 152 197 259 322 397 472
#     4  12  27  48  75 110 152 201 255 335 398 475
#     4  11  27  51  78 114 159 215 273 338 409 493
#
# _framework density 24.807991000000001
#
# number of rings (size 3 to 8) (size 9 to 14) (size 15 to 20)
#    0.000    0.800    2.000    4.200    2.800    6.400 
#    0.000    0.000    0.000    0.000    0.000    0.000 
#    0.000    0.000    0.000    0.000    0.000    0.000 
#
# Total GULP energy -111355.688720 kJ/mol
# GULP energy per Si atom -5567.784436 kJ/mol
# Density = 2.475153 g / cm^3
# Si number density = 24.807991 Si / 1000 Ang^3
#
#
#
# Elastic Constant Matrix: (Units=GPa)
#
#
# Indices 1 2 3 4 5 6 
#
# 1 172.1636 69.1970 43.3343 0.0000 0.0000 0.0000
# 2 69.1970 136.1593 34.2859 0.0000 0.0000 0.0000
# 3 43.3343 34.2859 102.8886 0.0000 0.0000 0.0000
# 4 0.0000 0.0000 0.0000 62.3144 0.0000 0.0000
# 5 0.0000 0.0000 0.0000 0.0000 654.8969 0.0000
# 6 0.0000 0.0000 0.0000 0.0000 0.0000 44.2362
#
#
#
# Elastic Compliance Matrix: (Units=1/GPa)
#
#
# Indices 1 2 3 4 5 6 
#
# 1 0.007700 -0.003380 -0.002117 0.000000 0.000000 0.000000
# 2 -0.003380 0.009501 -0.001742 0.000000 0.000000 0.000000
# 3 -0.002117 -0.001742 0.011191 0.000000 0.000000 0.000000
# 4 0.000000 0.000000 0.000000 0.016048 0.000000 0.000000
# 5 0.000000 0.000000 0.000000 0.000000 0.001527 0.000000
# 6 0.000000 0.000000 0.000000 0.000000 0.000000 0.022606
#
#
# Mechanical properties :
#
#
# Convention : Reuss Voigt Hill
#
# Bulk Modulus (GPa) = 71.87110 78.31622 75.09366
# Shear Modulus (GPa) = 57.02002 169.91579 113.46791
#
# Velocity S-wave (km/s) = 4.79942 8.28499 6.77036
# Velocity P-wave (km/s) = 7.72958 11.09770 9.56309
#
# Compressibility (1/GPa) = 0.01391380
#
# Stress axis : x y z
#
# Youngs Moduli (GPa) = 129.87472 105.25364 89.35483
#
# Poissons Ratio (x) = 0.35577 0.18913
# Poissons Ratio (y) = 0.43899 0.15569
# Poissons Ratio (z) = 0.27489 0.18339
#
# Static dielectric constant tensor:
#      x y z
#    x 1.951290 0.000000 0.000000 
#    y 0.000000 -4.748940 0.000000 
#    z 0.000000 0.000000 1.997390 
# 
# From -- ./inp_files/28613.got.cif
#   From: 2010.05.17/outbox.cif.g08.bks.cpg/sg24_15_cif.got.tgz:28613.got - 2010.06.04 00:33:39.
