data_PCOD9335677
_publ_section_title
;
Structure prediction by ZEFSAII (Michael W. Deem and Ramdas Pophale) SiO2 
 PCOD9335677
Probable space group: I 21 21 21
;
_chemical_formula_sum "Si O2"
_cell_formula_units_Z 60
_cell_length_a 27.442209
_cell_length_b 7.919321
_cell_length_c 12.471404
_cell_angle_alpha 90.000000
_cell_angle_beta 90.000000
_cell_angle_gamma 90.000000
_cell_volume 2710.331188
_symmetry_space_group_name_H-M "I 21 21 21"
_symmetry_group_IT_number 24
_symmetry_cell_setting 'orthorhombic'
loop_
_space_group_symop_operation_xyz
x,y,z
-x,1/2-y,z
x,-y,1/2-z
1/2-x,y,-z
1/2+x,1/2+y,1/2+z
1/2-x,-y,1/2+z
1/2+x,1/2-y,-z
-x,1/2+y,1/2-z
loop_
_atom_site_type_symbol
_atom_site_label
_atom_site_fract_x
_atom_site_fract_y
_atom_site_fract_z
Si Si1 0.943776 0.914787 0.028227
Si Si2 0.355968 0.470505 0.365492
Si Si3 0.593479 0.000000 0.750000
Si Si4 0.197723 0.775271 0.534888
Si Si5 0.976906 0.434859 0.871079
Si Si6 0.697203 0.346153 0.447376
Si Si7 0.139980 0.159769 0.185550
Si Si8 0.406621 0.055985 0.535360
O O1 0.938345 0.006354 0.141914
O O2 0.896002 0.953949 0.957311
O O3 0.940068 0.717012 0.053138
O O4 0.986983 0.963699 0.949253
O O5 0.379872 0.500000 0.250000
O O6 0.326512 0.638717 0.390573
O O7 0.321033 0.305498 0.371451
O O8 0.626563 0.170719 0.750583
O O9 0.250000 0.711576 0.500000
O O10 0.169457 0.791692 0.421510
O O11 0.203272 0.959286 0.590303
O O12 0.974589 0.500000 0.750000
O O13 0.924450 0.458571 0.928582
O O14 0.000000 0.250000 0.869494
O O15 0.750000 0.303401 0.500000
O O16 0.648761 0.373312 0.522023
O O17 0.162946 0.000000 0.250000
O O18 0.092194 0.072271 0.133660
#
# Coordination Sequence:
#
# PCOD9335677 Si02
#       8
#     8   8   4   8   8   8   8   8
#     4  11  23  44  69 101 139 187 234 289 356 427
#     4  11  23  41  66 100 141 185 231 294 358 429
#     4  12  22  42  74  98 134 188 234 292 362 416
#     4  10  22  43  64  94 139 176 237 298 352 431
#     4  12  26  45  71 106 146 191 237 291 362 434
#     4   9  21  43  70  93 138 184 233 296 353 416
#     4  11  22  42  69  96 133 184 237 296 361 417
#     4  10  22  44  68  99 138 180 237 291 351 427
#
# _framework density 22.137515
#
# number of rings (size 3 to 8) (size 9 to 14) (size 15 to 20)
#    0.000    1.333    2.667    2.800    1.867    1.600 
#    9.600    0.000    0.000    0.000    0.000    0.000 
#    0.000    0.000    0.000    0.000    0.000    0.000 
#
# Total GULP energy -167325.830731 kJ/mol
# GULP energy per Si atom -5577.527691 kJ/mol
# Density = 2.208713 g / cm^3
# Si number density = 22.137515 Si / 1000 Ang^3
#
#
#
# Elastic Constant Matrix: (Units=GPa)
#
#
# Indices 1 2 3 4 5 6 
#
# 1 73.2619 14.5085 30.4955 0.0000 0.0000 0.0000
# 2 14.5085 99.1512 32.6186 0.0000 0.0000 0.0000
# 3 30.4955 32.6186 130.4301 0.0000 0.0000 0.0000
# 4 0.0000 0.0000 0.0000 -46.3553 0.0000 0.0000
# 5 0.0000 0.0000 0.0000 0.0000 10.6457 0.0000
# 6 0.0000 0.0000 0.0000 0.0000 0.0000 15.2968
#
#
#
# Elastic Compliance Matrix: (Units=1/GPa)
#
#
# Indices 1 2 3 4 5 6 
#
# 1 0.015241 -0.001153 -0.003275 0.000000 0.000000 0.000000
# 2 -0.001153 0.011077 -0.002501 0.000000 0.000000 0.000000
# 3 -0.003275 -0.002501 0.009058 0.000000 0.000000 0.000000
# 4 0.000000 0.000000 0.000000 -0.021573 0.000000 0.000000
# 5 0.000000 0.000000 0.000000 0.000000 0.093934 0.000000
# 6 0.000000 0.000000 0.000000 0.000000 0.000000 0.065373
#
#
# Mechanical properties :
#
#
# Convention : Reuss Voigt Hill
#
# Bulk Modulus (GPa) = 46.47041 50.89868 48.68455
# Shear Modulus (GPa) = 25.75438 10.93216 18.34327
#
# Velocity S-wave (km/s) = 3.41454 2.22464 2.88167
# Velocity P-wave (km/s) = 6.04836 5.44432 5.75427
#
# Compressibility (1/GPa) = 0.02151907
#
# Stress axis : x y z
#
# Youngs Moduli (GPa) = 65.61130 90.27767 110.39855
#
# Poissons Ratio (x) = 0.10407 0.36158
# Poissons Ratio (y) = 0.07563 0.27607
# Poissons Ratio (z) = 0.21489 0.22575
#
# Static dielectric constant tensor:
#      x y z
#    x 1.869900 0.000000 0.000000 
#    y 0.000000 1.877630 0.000000 
#    z 0.000000 0.000000 1.892820 
# 
# From -- ./inp_files/22952.got.cif
#   From: 2010.05.17/outbox.cif.g08.bks.cpg/sg24_12_cif.got.tgz:22952.got - 2010.06.04 00:33:39.
