data_PCOD9335900
_publ_section_title
;
Structure prediction by ZEFSAII (Michael W. Deem and Ramdas Pophale) SiO2 
 PCOD9335900
Probable space group: I 21 21 21
;
_chemical_formula_sum "Si O2"
_cell_formula_units_Z 40
_cell_length_a 20.432568
_cell_length_b 7.179622
_cell_length_c 11.768024
_cell_angle_alpha 90.000000
_cell_angle_beta 90.000000
_cell_angle_gamma 90.000000
_cell_volume 1726.346935
_symmetry_space_group_name_H-M "I 21 21 21"
_symmetry_group_IT_number 24
_symmetry_cell_setting 'orthorhombic'
loop_
_space_group_symop_operation_xyz
x,y,z
-x,1/2-y,z
x,-y,1/2-z
1/2-x,y,-z
1/2+x,1/2+y,1/2+z
1/2-x,-y,1/2+z
1/2+x,1/2-y,-z
-x,1/2+y,1/2-z
loop_
_atom_site_type_symbol
_atom_site_label
_atom_site_fract_x
_atom_site_fract_y
_atom_site_fract_z
Si Si1 0.075668 0.716671 0.717320
Si Si2 0.176191 0.347879 0.976965
Si Si3 0.469255 0.552502 0.867820
Si Si4 0.111992 0.933083 0.377798
Si Si5 0.375168 0.733559 0.043615
O O1 0.078048 0.500000 0.750000
O O2 0.131911 0.741967 0.623355
O O3 0.096455 0.808884 0.837404
O O4 0.000000 0.750000 0.683957
O O5 0.178459 0.569577 0.947867
O O6 0.250000 0.284678 0.000000
O O7 0.139236 0.267698 0.088154
O O8 0.500000 0.750000 0.833320
O O9 0.434482 0.500000 0.750000
O O10 0.533585 0.433169 0.894618
O O11 0.429734 0.606449 0.979469
O O12 0.139641 0.093777 0.461683
O O13 0.125441 0.000000 0.250000
#
# Coordination Sequence:
#
# PCOD9335900 Si02
#       5
#     8   8   8   8   8
#     4  10  23  43  71 108 134 181 235 294 358 411
#     4  11  27  46  65 100 137 188 229 278 353 427
#     4   9  19  33  60  99 133 165 218 278 344 396
#     4  10  23  42  65 102 132 177 229 276 345 414
#     4  10  23  42  68 102 140 178 225 295 344 406
#
# _framework density 23.170313
#
# number of rings (size 3 to 8) (size 9 to 14) (size 15 to 20)
#    0.000    2.000    0.000    1.800   16.800    0.800 
#   14.400    0.000    0.000    0.000    0.000    0.000 
#    0.000    0.000    0.000    0.000    0.000    0.000 
#
# Total GULP energy -111523.283869 kJ/mol
# GULP energy per Si atom -5576.164193 kJ/mol
# Density = 2.311758 g / cm^3
# Si number density = 23.170313 Si / 1000 Ang^3
#
#
#
# Elastic Constant Matrix: (Units=GPa)
#
#
# Indices 1 2 3 4 5 6 
#
# 1 111.5082 14.6139 56.2112 0.0000 0.0000 0.0000
# 2 14.6139 74.7615 18.0051 0.0000 0.0000 0.0000
# 3 56.2112 18.0051 153.7455 0.0000 0.0000 0.0000
# 4 0.0000 0.0000 0.0000 49.5156 0.0000 0.0000
# 5 0.0000 0.0000 0.0000 0.0000 12.9471 0.0000
# 6 0.0000 0.0000 0.0000 0.0000 0.0000 12.7271
#
#
#
# Elastic Compliance Matrix: (Units=1/GPa)
#
#
# Indices 1 2 3 4 5 6 
#
# 1 0.011103 -0.001227 -0.003916 0.000000 0.000000 0.000000
# 2 -0.001227 0.013900 -0.001179 0.000000 0.000000 0.000000
# 3 -0.003916 -0.001179 0.008074 0.000000 0.000000 0.000000
# 4 0.000000 0.000000 0.000000 0.020196 0.000000 0.000000
# 5 0.000000 0.000000 0.000000 0.000000 0.077237 0.000000
# 6 0.000000 0.000000 0.000000 0.000000 0.000000 0.078573
#
#
# Mechanical properties :
#
#
# Convention : Reuss Voigt Hill
#
# Bulk Modulus (GPa) = 48.94173 57.51952 53.23062
# Shear Modulus (GPa) = 21.87836 31.78362 26.83099
#
# Velocity S-wave (km/s) = 3.07618 3.70772 3.40662
# Velocity P-wave (km/s) = 5.81254 6.57329 6.20459
#
# Compressibility (1/GPa) = 0.02043246
#
# Stress axis : x y z
#
# Youngs Moduli (GPa) = 90.06896 71.94383 123.85595
#
# Poissons Ratio (x) = 0.08830 0.48496
# Poissons Ratio (y) = 0.11054 0.14604
# Poissons Ratio (z) = 0.35267 0.08483
#
# Static dielectric constant tensor:
#      x y z
#    x -3.928910 0.000000 0.000000 
#    y 0.000000 1.955410 0.000000 
#    z 0.000000 0.000000 1.996130 
# 
# From -- ./inp_files/22042.got.cif
#   From: 2010.05.17/outbox.cif.g08.bks.cpg/sg24_12_cif.got.tgz:22042.got - 2010.06.04 00:33:39.
