data_PCOD9335764
_publ_section_title
;
Structure prediction by ZEFSAII (Michael W. Deem and Ramdas Pophale) SiO2 
 PCOD9335764
Probable space group: I 21 21 21
;
_chemical_formula_sum "Si O2"
_cell_formula_units_Z 56
_cell_length_a 15.107328
_cell_length_b 28.276969
_cell_length_c 5.959371
_cell_angle_alpha 90.000000
_cell_angle_beta 90.000000
_cell_angle_gamma 90.000000
_cell_volume 2545.780393
_symmetry_space_group_name_H-M "I 21 21 21"
_symmetry_group_IT_number 24
_symmetry_cell_setting 'orthorhombic'
loop_
_space_group_symop_operation_xyz
x,y,z
-x,1/2-y,z
x,-y,1/2-z
1/2-x,y,-z
1/2+x,1/2+y,1/2+z
1/2-x,-y,1/2+z
1/2+x,1/2-y,-z
-x,1/2+y,1/2-z
loop_
_atom_site_type_symbol
_atom_site_label
_atom_site_fract_x
_atom_site_fract_y
_atom_site_fract_z
Si Si1 0.667161 0.460406 0.601366
Si Si2 0.250000 0.310702 0.500000
Si Si3 0.334734 0.759722 0.356510
Si Si4 0.028507 0.000000 0.750000
Si Si5 0.657205 0.375984 0.874758
Si Si6 0.436826 0.825004 0.999369
Si Si7 0.594762 0.179196 0.821941
Si Si8 0.009058 0.392565 0.839008
O O1 0.714875 0.500000 0.750000
O O2 0.750000 0.432425 0.500000
O O3 0.594903 0.482712 0.444545
O O4 0.624288 0.425099 0.769527
O O5 0.297390 0.276862 0.323330
O O6 0.325254 0.335134 0.652754
O O7 0.250000 0.781156 0.500000
O O8 0.398155 0.792464 0.200141
O O9 0.382393 0.726210 0.536585
O O10 0.981739 0.949932 0.677710
O O11 0.643548 0.340386 0.666945
O O12 0.750000 0.380714 0.000000
O O13 0.584216 0.373536 0.063952
O O14 0.494254 0.869719 0.094213
O O15 0.510036 0.806087 0.826425
O O16 0.576046 0.136459 0.999643
#
# Coordination Sequence:
#
# PCOD9335764 Si02
#       8
#     8   4   8   4   8   8   8   8
#     4  12  21  35  55  82 122 181 240 285 325 373
#     4  10  22  44  74  98 132 168 218 284 358 424
#     4  10  24  46  70 100 137 180 232 277 342 418
#     4  12  22  38  60  88 134 176 230 292 338 396
#     4  11  24  39  57  88 133 191 241 280 326 393
#     4  11  25  43  66  98 143 185 227 289 342 393
#     4  10  24  45  70 100 133 171 233 281 351 426
#     4  11  24  40  62  96 135 177 233 283 347 401
#
# _framework density 21.997185000000002
#
# number of rings (size 3 to 8) (size 9 to 14) (size 15 to 20)
#    0.000    1.143    3.571    2.143    0.000    9.714 
#    0.000    4.286    0.000    0.000    0.000    0.000 
#   96.429    0.000    0.000    0.000    0.000    0.000 
#
# Total GULP energy -155942.564126 kJ/mol
# GULP energy per Si atom -5569.377290 kJ/mol
# Density = 2.194712 g / cm^3
# Si number density = 21.997185 Si / 1000 Ang^3
#
#
#
# Elastic Constant Matrix: (Units=GPa)
#
#
# Indices 1 2 3 4 5 6 
#
# 1 79.8938 50.7998 56.4598 0.0067 0.0057 -0.0010
# 2 50.7998 121.7056 70.3245 0.0339 -0.0070 -0.0043
# 3 56.4598 70.3245 125.0253 0.0594 -0.0101 -0.0166
# 4 0.0067 0.0339 0.0594 24.5520 -0.0015 0.0051
# 5 0.0057 -0.0070 -0.0101 -0.0015 49.9456 -0.0034
# 6 -0.0010 -0.0043 -0.0166 0.0051 -0.0034 18.1565
#
#
#
# Elastic Compliance Matrix: (Units=1/GPa)
#
#
# Indices 1 2 3 4 5 6 
#
# 1 0.020007 -0.004638 -0.006426 0.000016 -0.000004 -0.000006
# 2 -0.004638 0.013248 -0.005357 -0.000004 0.000001 -0.000002
# 3 -0.006426 -0.005357 0.013914 -0.000024 0.000003 0.000011
# 4 0.000016 -0.000004 -0.000024 0.040730 0.000001 -0.000011
# 5 -0.000004 0.000001 0.000003 0.000001 0.020022 0.000004
# 6 -0.000006 -0.000002 0.000011 -0.000011 0.000004 0.055077
#
#
# Mechanical properties :
#
#
# Convention : Reuss Voigt Hill
#
# Bulk Modulus (GPa) = 69.80315 75.75479 72.77897
# Shear Modulus (GPa) = 24.92339 28.46685 26.69512
#
# Velocity S-wave (km/s) = 3.36970 3.60128 3.48741
# Velocity P-wave (km/s) = 6.85138 7.19760 7.02663
#
# Compressibility (1/GPa) = 0.01432600
#
# Stress axis : x y z
#
# Youngs Moduli (GPa) = 49.98331 75.48350 71.87063
#
# Poissons Ratio (x) = 0.35006 0.46186
# Poissons Ratio (y) = 0.23180 0.38504
# Poissons Ratio (z) = 0.32120 0.40440
#
# Static dielectric constant tensor:
#      x y z
#    x 1.828850 0.000010 0.000010 
#    y 0.000010 1.866420 -0.000100 
#    z 0.000010 -0.000100 1.914300 
# 
# From -- ./inp_files/4019.got.cif
#   From: 2010.05.17/outbox.cif.g08.bks.cpg/sg24_3_cif.got.tgz:4019.got - 2010.06.04 00:33:39.
