data_PCOD9335125
_publ_section_title
;
Structure prediction by ZEFSAII (Michael W. Deem and Ramdas Pophale) SiO2 
 PCOD9335125
Probable space group: I 21 21 21
;
_chemical_formula_sum "Si O2"
_cell_formula_units_Z 64
_cell_length_a 20.436511
_cell_length_b 8.895768
_cell_length_c 17.347657
_cell_angle_alpha 90.000000
_cell_angle_beta 90.000000
_cell_angle_gamma 90.000000
_cell_volume 3153.777337
_symmetry_space_group_name_H-M "I 21 21 21"
_symmetry_group_IT_number 24
_symmetry_cell_setting 'orthorhombic'
loop_
_space_group_symop_operation_xyz
x,y,z
-x,1/2-y,z
x,-y,1/2-z
1/2-x,y,-z
1/2+x,1/2+y,1/2+z
1/2-x,-y,1/2+z
1/2+x,1/2-y,-z
-x,1/2+y,1/2-z
loop_
_atom_site_type_symbol
_atom_site_label
_atom_site_fract_x
_atom_site_fract_y
_atom_site_fract_z
Si Si1 0.679177 0.608700 0.175619
Si Si2 0.670885 0.614995 0.820729
Si Si3 0.363806 0.567522 0.165382
Si Si4 0.872200 0.380241 0.930114
Si Si5 0.430551 0.319718 0.750683
Si Si6 0.360563 0.181488 0.894967
Si Si7 0.001839 0.073345 0.832473
Si Si8 0.230773 0.361513 0.909877
O O1 0.666831 0.500000 0.250000
O O2 0.754048 0.660486 0.182518
O O3 0.633273 0.753385 0.173635
O O4 0.673093 0.520632 0.094442
O O5 0.659266 0.500000 0.750000
O O6 0.623545 0.754563 0.808142
O O7 0.654840 0.496782 0.887535
O O8 0.353457 0.500000 0.250000
O O9 0.433418 0.498196 0.138516
O O10 0.299670 0.518709 0.116992
O O11 0.830644 0.246802 0.890432
O O12 0.940302 0.433509 0.894282
O O13 0.880302 0.314480 0.015629
O O14 0.500000 0.250000 0.728093
O O15 0.431723 0.500000 0.750000
O O16 0.412396 0.248751 0.834606
O O17 0.295172 0.279819 0.876130
O O18 0.000000 0.250000 0.817047
O O19 0.016239 0.000000 0.750000
O O20 0.250000 0.366366 0.000000
#
# Coordination Sequence:
#
# PCOD9335125 Si02
#       8
#     8   8   8   8   8   8   8   8
#     4  11  23  38  66  99 132 178 225 281 339 389
#     4   9  20  38  65  96 130 166 221 268 328 404
#     4  11  25  39  65  97 131 171 231 292 333 397
#     4  11  22  41  67  88 136 180 219 271 342 416
#     4  11  24  44  72 100 136 172 219 285 340 408
#     4  10  22  41  67 102 129 176 219 268 344 414
#     4  11  25  42  64  92 128 177 235 281 340 395
#     4  10  21  41  62  95 134 170 215 273 339 406
#
# _framework density 20.293126999999998
#
# number of rings (size 3 to 8) (size 9 to 14) (size 15 to 20)
#    0.000    1.500    2.500    2.250   10.500    0.500 
#    2.250    0.000    5.500    0.000    0.000    0.000 
#    0.000    0.000    0.000    0.000    0.000    0.000 
#
# Total GULP energy -178292.174760 kJ/mol
# GULP energy per Si atom -5571.630461 kJ/mol
# Density = 2.024694 g / cm^3
# Si number density = 20.293127 Si / 1000 Ang^3
#
#
#
# Elastic Constant Matrix: (Units=GPa)
#
#
# Indices 1 2 3 4 5 6 
#
# 1 131.5267 48.9897 20.8963 0.0000 0.0000 0.0000
# 2 48.9897 123.1307 4.2267 0.0000 0.0000 0.0000
# 3 20.8963 4.2267 34.4172 0.0000 0.0000 0.0000
# 4 0.0000 0.0000 0.0000 26.5076 0.0000 0.0000
# 5 0.0000 0.0000 0.0000 0.0000 17.4255 0.0000
# 6 0.0000 0.0000 0.0000 0.0000 0.0000 39.9578
#
#
#
# Elastic Compliance Matrix: (Units=1/GPa)
#
#
# Indices 1 2 3 4 5 6 
#
# 1 0.009875 -0.003739 -0.005537 0.000000 0.000000 0.000000
# 2 -0.003739 0.009572 0.001095 0.000000 0.000000 0.000000
# 3 -0.005537 0.001095 0.032282 0.000000 0.000000 0.000000
# 4 0.000000 0.000000 0.000000 0.037725 0.000000 0.000000
# 5 0.000000 0.000000 0.000000 0.000000 0.057387 0.000000
# 6 0.000000 0.000000 0.000000 0.000000 0.000000 0.025026
#
#
# Mechanical properties :
#
#
# Convention : Reuss Voigt Hill
#
# Bulk Modulus (GPa) = 28.27471 48.58891 38.43181
# Shear Modulus (GPa) = 24.99765 31.10896 28.05331
#
# Velocity S-wave (km/s) = 3.51355 3.91958 3.72210
# Velocity P-wave (km/s) = 5.51574 6.66930 6.11976
#
# Compressibility (1/GPa) = 0.03536730
#
# Stress axis : x y z
#
# Youngs Moduli (GPa) = 101.26255 104.47677 30.97668
#
# Poissons Ratio (x) = 0.39064 0.17151
# Poissons Ratio (y) = 0.37862 -0.03391
# Poissons Ratio (z) = 0.56065 -0.11437
#
# Static dielectric constant tensor:
#      x y z
#    x 1.769700 0.000000 0.000000 
#    y 0.000000 1.794730 0.000000 
#    z 0.000000 0.000000 1.805950 
# 
# From -- ./inp_files/31403.got.cif
#   From: 2010.05.17/outbox.cif.g08.bks.cpg/sg24_16_cif.got.tgz:31403.got - 2010.06.04 00:33:39.
