data_PCOD9335811
_publ_section_title
;
Structure prediction by ZEFSAII (Michael W. Deem and Ramdas Pophale) SiO2 
 PCOD9335811
Probable space group: I 21 21 21
;
_chemical_formula_sum "Si O2"
_cell_formula_units_Z 40
_cell_length_a 17.367221
_cell_length_b 17.760357
_cell_length_c 5.160186
_cell_angle_alpha 90.000000
_cell_angle_beta 90.000000
_cell_angle_gamma 90.000000
_cell_volume 1591.649284
_symmetry_space_group_name_H-M "I 21 21 21"
_symmetry_group_IT_number 24
_symmetry_cell_setting 'orthorhombic'
loop_
_space_group_symop_operation_xyz
x,y,z
-x,1/2-y,z
x,-y,1/2-z
1/2-x,y,-z
1/2+x,1/2+y,1/2+z
1/2-x,-y,1/2+z
1/2+x,1/2-y,-z
-x,1/2+y,1/2-z
loop_
_atom_site_type_symbol
_atom_site_label
_atom_site_fract_x
_atom_site_fract_y
_atom_site_fract_z
Si Si1 0.298580 0.000000 0.750000
Si Si2 0.750000 0.697648 0.000000
Si Si3 0.801007 0.000000 0.750000
Si Si4 0.401942 0.872950 0.810263
Si Si5 0.899302 0.118632 0.890851
Si Si6 0.488137 0.500000 0.750000
Si Si7 0.000000 0.750000 0.507833
Si Si8 0.250000 0.700849 0.500000
O O1 0.250000 0.023835 0.500000
O O2 0.349786 0.930745 0.639548
O O3 0.665451 0.658615 0.990049
O O4 0.757414 0.747643 0.747420
O O5 0.750000 0.984995 0.500000
O O6 0.854488 0.928871 0.824181
O O7 0.445281 0.804293 0.667816
O O8 0.462367 0.936451 0.910071
O O9 0.828084 0.154869 0.044092
O O10 0.953247 0.188846 0.824940
O O11 0.942521 0.055450 0.059060
#
# Coordination Sequence:
#
# PCOD9335811 Si02
#       8
#     4   4   4   8   8   4   4   4
#     4  11  24  42  78 110 145 190 252 313 370 442
#     4  12  26  48  76 116 148 198 252 318 370 454
#     4  12  27  48  84 113 148 194 258 318 373 444
#     4  10  22  46  78 109 155 197 255 308 382 452
#     4  11  24  47  76 112 155 201 255 314 377 457
#     4   9  23  48  78 113 155 202 248 317 385 450
#     4  10  22  50  76 112 158 202 250 314 386 448
#     4  12  28  44  82 110 150 194 260 310 378 442
#
# _framework density 25.131162
#
# number of rings (size 3 to 8) (size 9 to 14) (size 15 to 20)
#    0.000    1.200    4.000    0.600    2.800    0.000 
#    3.600    7.000    0.000    0.000    0.000    0.000 
#    0.000    0.000    0.000    0.000    0.000    0.000 
#
# Total GULP energy -111590.860987 kJ/mol
# GULP energy per Si atom -5579.543049 kJ/mol
# Density = 2.507396 g / cm^3
# Si number density = 25.131162 Si / 1000 Ang^3
#
#
#
# Elastic Constant Matrix: (Units=GPa)
#
#
# Indices 1 2 3 4 5 6 
#
# 1 133.4274 89.5165 28.2144 0.0000 0.0000 0.0000
# 2 89.5165 198.5321 45.3359 0.0000 0.0000 0.0000
# 3 28.2144 45.3359 75.9360 0.0000 0.0000 0.0000
# 4 0.0000 0.0000 0.0000 34.0257 0.0000 0.0000
# 5 0.0000 0.0000 0.0000 0.0000 17.7180 0.0000
# 6 0.0000 0.0000 0.0000 0.0000 0.0000 530.2280
#
#
#
# Elastic Compliance Matrix: (Units=1/GPa)
#
#
# Indices 1 2 3 4 5 6 
#
# 1 0.010853 -0.004600 -0.001286 0.000000 0.000000 0.000000
# 2 -0.004600 0.007782 -0.002937 0.000000 0.000000 0.000000
# 3 -0.001286 -0.002937 0.015400 0.000000 0.000000 0.000000
# 4 0.000000 0.000000 0.000000 0.029390 0.000000 0.000000
# 5 0.000000 0.000000 0.000000 0.000000 0.056440 0.000000
# 6 0.000000 0.000000 0.000000 0.000000 0.000000 0.001886
#
#
# Mechanical properties :
#
#
# Convention : Reuss Voigt Hill
#
# Bulk Modulus (GPa) = 61.01624 81.55879 71.28751
# Shear Modulus (GPa) = 34.51655 132.71626 83.61640
#
# Velocity S-wave (km/s) = 3.71004 7.27489 5.77445
# Velocity P-wave (km/s) = 6.53332 10.15328 8.53737
#
# Compressibility (1/GPa) = 0.01638908
#
# Stress axis : x y z
#
# Youngs Moduli (GPa) = 92.14396 128.50953 64.93411
#
# Poissons Ratio (x) = 0.59109 0.08352
# Poissons Ratio (y) = 0.42383 0.19070
# Poissons Ratio (z) = 0.11852 0.37740
#
# Static dielectric constant tensor:
#      x y z
#    x 2.123830 0.000000 0.000000 
#    y 0.000000 2.099860 0.000000 
#    z 0.000000 0.000000 1.910950 
# 
# From -- ./inp_files/4591.got.cif
#   From: 2010.05.17/outbox.cif.g08.bks.cpg/sg24_3_cif.got.tgz:4591.got - 2010.06.04 00:33:39.
