data_PCOD9335783
_publ_section_title
;
Structure prediction by ZEFSAII (Michael W. Deem and Ramdas Pophale) SiO2 
 PCOD9335783
Probable space group: I 21 21 21
;
_chemical_formula_sum "Si O2"
_cell_formula_units_Z 52
_cell_length_a 18.944956
_cell_length_b 5.273476
_cell_length_c 22.262224
_cell_angle_alpha 90.000000
_cell_angle_beta 90.000000
_cell_angle_gamma 90.000000
_cell_volume 2224.124648
_symmetry_space_group_name_H-M "I 21 21 21"
_symmetry_group_IT_number 24
_symmetry_cell_setting 'orthorhombic'
loop_
_space_group_symop_operation_xyz
x,y,z
-x,1/2-y,z
x,-y,1/2-z
1/2-x,y,-z
1/2+x,1/2+y,1/2+z
1/2-x,-y,1/2+z
1/2+x,1/2-y,-z
-x,1/2+y,1/2-z
loop_
_atom_site_type_symbol
_atom_site_label
_atom_site_fract_x
_atom_site_fract_y
_atom_site_fract_z
Si Si1 0.188772 0.500000 0.250000
Si Si2 0.428832 0.578077 0.935764
Si Si3 0.047908 0.500122 0.814199
Si Si4 0.681651 0.678286 0.855807
Si Si5 0.370982 0.407464 0.435196
Si Si6 0.575823 0.702848 0.672160
Si Si7 0.714881 0.596980 0.436668
O O1 0.222122 0.320897 0.301578
O O2 0.137022 0.341381 0.207677
O O3 0.500000 0.750000 0.924885
O O4 0.352048 0.684269 0.913873
O O5 0.430676 0.326255 0.894431
O O6 0.420727 0.545980 0.007021
O O7 0.087469 0.500000 0.750000
O O8 0.093709 0.517860 0.873002
O O9 0.000000 0.250000 0.817227
O O10 0.000000 0.750000 0.813670
O O11 0.606583 0.578398 0.829526
O O12 0.731290 0.460757 0.882479
O O13 0.346782 0.114581 0.431641
O O14 0.308184 0.611772 0.439495
O O15 0.500000 0.750000 0.700606
O O16 0.750000 0.537667 0.500000
#
# Coordination Sequence:
#
# PCOD9335783 Si02
#       7
#     4   8   8   8   8   8   8
#     4  10  26  38  68  94 132 180 238 290 346 414
#     4  11  23  40  66 103 138 176 228 293 353 419
#     4  10  22  45  74 104 144 177 218 284 360 424
#     4  11  24  46  63  96 137 187 239 288 352 417
#     4  12  26  44  73 107 136 184 235 283 350 425
#     4  11  23  39  65  94 135 177 228 286 354 409
#     4  12  26  46  72  97 143 188 233 289 349 415
#
# _framework density 23.379982999999999
#
# number of rings (size 3 to 8) (size 9 to 14) (size 15 to 20)
#    0.000    0.923    3.077    3.231    6.462    0.615 
#    1.385    0.000    0.000    0.000    0.000    0.000 
#    0.000    0.000    0.000    0.000    0.000    0.000 
#
# Total GULP energy -145121.412700 kJ/mol
# GULP energy per Si atom -5581.592796 kJ/mol
# Density = 2.332677 g / cm^3
# Si number density = 23.379983 Si / 1000 Ang^3
#
#
#
# Elastic Constant Matrix: (Units=GPa)
#
#
# Indices 1 2 3 4 5 6 
#
# 1 32.8260 5.9296 24.7613 0.0000 0.0000 0.0000
# 2 5.9296 64.1397 10.3187 0.0000 0.0000 0.0000
# 3 24.7613 10.3187 158.6166 0.0000 0.0000 0.0000
# 4 0.0000 0.0000 0.0000 43.9058 0.0000 0.0000
# 5 0.0000 0.0000 0.0000 0.0000 16.1231 0.0000
# 6 0.0000 0.0000 0.0000 0.0000 0.0000 28.4313
#
#
#
# Elastic Compliance Matrix: (Units=1/GPa)
#
#
# Indices 1 2 3 4 5 6 
#
# 1 0.034884 -0.002374 -0.005291 0.000000 0.000000 0.000000
# 2 -0.002374 0.015917 -0.000665 0.000000 0.000000 0.000000
# 3 -0.005291 -0.000665 0.007174 0.000000 0.000000 0.000000
# 4 0.000000 0.000000 0.000000 0.022776 0.000000 0.000000
# 5 0.000000 0.000000 0.000000 0.000000 0.062023 0.000000
# 6 0.000000 0.000000 0.000000 0.000000 0.000000 0.035172
#
#
# Mechanical properties :
#
#
# Convention : Reuss Voigt Hill
#
# Bulk Modulus (GPa) = 24.20419 37.51128 30.85774
# Shear Modulus (GPa) = 23.99491 31.99690 27.99590
#
# Velocity S-wave (km/s) = 3.20707 3.70342 3.46414
# Velocity P-wave (km/s) = 4.90803 5.86226 5.40624
#
# Compressibility (1/GPa) = 0.04131516
#
# Stress axis : x y z
#
# Youngs Moduli (GPa) = 28.66669 62.82434 139.39677
#
# Poissons Ratio (x) = 0.14913 0.73758
# Poissons Ratio (y) = 0.06805 0.09269
# Poissons Ratio (z) = 0.15168 0.04177
#
# Static dielectric constant tensor:
#      x y z
#    x 1.908870 0.000000 0.000000 
#    y 0.000000 2.064750 0.000000 
#    z 0.000000 0.000000 1.928040 
# 
# From -- ./inp_files/34118.got.cif
#   From: 2010.05.17/outbox.cif.g08.bks.cpg/sg24_18_cif.got.tgz:34118.got - 2010.06.04 00:33:39.
