data_PCOD9335560
_publ_section_title
;
Structure prediction by ZEFSAII (Michael W. Deem and Ramdas Pophale) SiO2 
 PCOD9335560
Probable space group: I 21 21 21
;
_chemical_formula_sum "Si O2"
_cell_formula_units_Z 56
_cell_length_a 16.117511
_cell_length_b 11.640206
_cell_length_c 13.780439
_cell_angle_alpha 90.000000
_cell_angle_beta 90.000000
_cell_angle_gamma 90.000000
_cell_volume 2585.363984
_symmetry_space_group_name_H-M "I 21 21 21"
_symmetry_group_IT_number 24
_symmetry_cell_setting 'orthorhombic'
loop_
_space_group_symop_operation_xyz
x,y,z
-x,1/2-y,z
x,-y,1/2-z
1/2-x,y,-z
1/2+x,1/2+y,1/2+z
1/2-x,-y,1/2+z
1/2+x,1/2-y,-z
-x,1/2+y,1/2-z
loop_
_atom_site_type_symbol
_atom_site_label
_atom_site_fract_x
_atom_site_fract_y
_atom_site_fract_z
Si Si1 0.816284 0.000000 0.250000
Si Si2 0.383236 0.873085 0.222950
Si Si3 0.911241 0.217342 0.906956
Si Si4 0.406978 0.714411 0.820329
Si Si5 0.750000 0.663038 0.500000
Si Si6 0.189796 0.494777 0.909357
Si Si7 0.803639 0.389933 0.206408
Si Si8 0.657936 0.743573 0.033962
O O1 0.875641 0.084789 0.308194
O O2 0.749318 0.051884 0.175769
O O3 0.411699 0.778527 0.301199
O O4 0.284202 0.879829 0.239387
O O5 0.390061 0.835475 0.111323
O O6 0.416968 0.000000 0.250000
O O7 0.892741 0.081666 0.905831
O O8 0.000000 0.250000 0.952488
O O9 0.830138 0.267306 0.961691
O O10 0.500000 0.750000 0.800034
O O11 0.353458 0.779579 0.738807
O O12 0.388257 0.746095 0.931705
O O13 0.783590 0.596026 0.406439
O O14 0.170635 0.631477 0.913200
O O15 0.250000 0.476906 0.000000
O O16 0.849224 0.500000 0.250000
O O17 0.750000 0.703650 0.000000
#
# Coordination Sequence:
#
# PCOD9335560 Si02
#       8
#     4   8   8   8   4   8   8   8
#     4  12  22  46  72  98 144 188 250 296 376 458
#     4  10  22  44  70  97 137 183 234 298 365 441
#     4  11  24  43  67 107 138 181 244 301 374 442
#     4  12  27  42  67 107 145 189 239 314 374 440
#     4  10  22  44  68  96 142 188 228 294 362 436
#     4  11  21  42  75 101 131 189 244 306 364 430
#     4  10  22  41  66  95 129 185 231 279 361 436
#     4  11  21  45  73 103 134 188 255 298 369 454
#
# _framework density 21.660392000000002
#
# number of rings (size 3 to 8) (size 9 to 14) (size 15 to 20)
#    0.000    1.143    5.000    2.571    1.000    4.571 
#   10.286    0.000    0.000    0.000    0.000    0.000 
#    0.000    0.000    0.000    0.000    0.000    0.000 
#
# Total GULP energy -156235.948157 kJ/mol
# GULP energy per Si atom -5579.855291 kJ/mol
# Density = 2.161109 g / cm^3
# Si number density = 21.660392 Si / 1000 Ang^3
#
#
#
# Elastic Constant Matrix: (Units=GPa)
#
#
# Indices 1 2 3 4 5 6 
#
# 1 96.8524 21.0447 8.8972 0.0000 0.0000 0.0000
# 2 21.0447 71.8304 35.2161 0.0000 0.0000 0.0000
# 3 8.8972 35.2161 133.8384 0.0000 0.0000 0.0000
# 4 0.0000 0.0000 0.0000 39.8299 0.0000 0.0000
# 5 0.0000 0.0000 0.0000 0.0000 17.5089 0.0000
# 6 0.0000 0.0000 0.0000 0.0000 0.0000 6.4897
#
#
#
# Elastic Compliance Matrix: (Units=1/GPa)
#
#
# Indices 1 2 3 4 5 6 
#
# 1 0.011029 -0.003297 0.000134 0.000000 0.000000 0.000000
# 2 -0.003297 0.016969 -0.004246 0.000000 0.000000 0.000000
# 3 0.000134 -0.004246 0.008580 0.000000 0.000000 0.000000
# 4 0.000000 0.000000 0.000000 0.025107 0.000000 0.000000
# 5 0.000000 0.000000 0.000000 0.000000 0.057114 0.000000
# 6 0.000000 0.000000 0.000000 0.000000 0.000000 0.154089
#
#
# Mechanical properties :
#
#
# Convention : Reuss Voigt Hill
#
# Bulk Modulus (GPa) = 45.95363 48.09302 47.02333
# Shear Modulus (GPa) = 16.95149 28.58991 22.77070
#
# Velocity S-wave (km/s) = 2.80054 3.63701 3.24583
# Velocity P-wave (km/s) = 5.63196 6.31573 5.98362
#
# Compressibility (1/GPa) = 0.02176106
#
# Stress axis : x y z
#
# Youngs Moduli (GPa) = 90.66942 58.93008 116.55088
#
# Poissons Ratio (x) = 0.19430 -0.01566
# Poissons Ratio (y) = 0.29895 0.49486
# Poissons Ratio (z) = -0.01218 0.25021
#
# Static dielectric constant tensor:
#      x y z
#    x 1.765010 0.000000 0.000000 
#    y 0.000000 1.906810 0.000000 
#    z 0.000000 0.000000 1.705480 
# 
# From -- ./inp_files/26565.got.cif
#   From: 2010.05.17/outbox.cif.g08.bks.cpg/sg24_14_cif.got.tgz:26565.got - 2010.06.04 00:33:39.
