data_PCOD9335067
_publ_section_title
;
Structure prediction by ZEFSAII (Michael W. Deem and Ramdas Pophale) SiO2 
 PCOD9335067
Probable space group: I 21 21 21
;
_chemical_formula_sum "Si O2"
_cell_formula_units_Z 56
_cell_length_a 20.383681
_cell_length_b 8.518435
_cell_length_c 13.943608
_cell_angle_alpha 90.000000
_cell_angle_beta 90.000000
_cell_angle_gamma 90.000000
_cell_volume 2421.127122
_symmetry_space_group_name_H-M "I 21 21 21"
_symmetry_group_IT_number 24
_symmetry_cell_setting 'orthorhombic'
loop_
_space_group_symop_operation_xyz
x,y,z
-x,1/2-y,z
x,-y,1/2-z
1/2-x,y,-z
1/2+x,1/2+y,1/2+z
1/2-x,-y,1/2+z
1/2+x,1/2-y,-z
-x,1/2+y,1/2-z
loop_
_atom_site_type_symbol
_atom_site_label
_atom_site_fract_x
_atom_site_fract_y
_atom_site_fract_z
Si Si1 0.254591 0.933170 0.350985
Si Si2 0.332879 0.591704 0.155604
Si Si3 0.571463 0.295986 0.649760
Si Si4 0.569562 0.685450 0.237699
Si Si5 0.890839 0.663177 0.357519
Si Si6 0.869001 0.216815 0.934569
Si Si7 0.711645 0.225273 0.594007
O O1 0.187098 0.839743 0.333134
O O2 0.306507 0.829897 0.409290
O O3 0.281694 0.000000 0.250000
O O4 0.228687 0.090549 0.400628
O O5 0.354580 0.500000 0.250000
O O6 0.376099 0.749661 0.162127
O O7 0.347522 0.464472 0.073864
O O8 0.257046 0.637051 0.170467
O O9 0.500000 0.250000 0.613064
O O10 0.584170 0.482780 0.637567
O O11 0.575821 0.261779 0.764203
O O12 0.634216 0.210762 0.602506
O O13 0.500000 0.750000 0.203875
O O14 0.568500 0.500000 0.250000
O O15 0.583116 0.748514 0.345556
O O16 0.897000 0.741877 0.461273
O O17 0.750000 0.170514 0.500000
#
# Coordination Sequence:
#
# PCOD9335067 Si02
#       7
#     8   8   8   8   8   8   8
#     4  11  18  36  66  95 131 177 233 303 359 424
#     4  10  23  42  61  99 139 172 234 294 360 434
#     4  10  22  44  66  95 141 191 246 304 371 443
#     4  11  23  42  67  97 138 187 229 289 366 435
#     4  10  21  40  64  98 135 186 249 300 364 444
#     4  11  22  37  66  99 138 181 244 302 368 428
#     4  11  22  41  65  95 129 171 234 299 355 426
#
# _framework density 23.129724
#
# number of rings (size 3 to 8) (size 9 to 14) (size 15 to 20)
#    0.000    1.429    2.857    6.429    0.000    1.714 
#    2.571    5.714    0.000    0.000    0.000    0.000 
#    0.000    0.000    0.000    0.000    0.000    0.000 
#
# Total GULP energy -156368.513862 kJ/mol
# GULP energy per Si atom -5584.589781 kJ/mol
# Density = 2.307708 g / cm^3
# Si number density = 23.129724 Si / 1000 Ang^3
#
#
#
# Elastic Constant Matrix: (Units=GPa)
#
#
# Indices 1 2 3 4 5 6 
#
# 1 160.3470 42.0801 30.0609 0.0000 0.0000 0.0000
# 2 42.0801 98.8606 36.6376 0.0000 0.0000 0.0000
# 3 30.0609 36.6376 95.4321 0.0000 0.0000 0.0000
# 4 0.0000 0.0000 0.0000 28.4349 0.0000 0.0000
# 5 0.0000 0.0000 0.0000 0.0000 2.9918 0.0000
# 6 0.0000 0.0000 0.0000 0.0000 0.0000 20.9823
#
#
#
# Elastic Compliance Matrix: (Units=1/GPa)
#
#
# Indices 1 2 3 4 5 6 
#
# 1 0.007149 -0.002575 -0.001263 0.000000 0.000000 0.000000
# 2 -0.002575 0.012720 -0.004073 0.000000 0.000000 0.000000
# 3 -0.001263 -0.004073 0.012440 0.000000 0.000000 0.000000
# 4 0.000000 0.000000 0.000000 0.035168 0.000000 0.000000
# 5 0.000000 0.000000 0.000000 0.000000 0.334246 0.000000
# 6 0.000000 0.000000 0.000000 0.000000 0.000000 0.047659
#
#
# Mechanical properties :
#
#
# Convention : Reuss Voigt Hill
#
# Bulk Modulus (GPa) = 60.64944 63.57743 62.11344
# Shear Modulus (GPa) = 10.62247 26.87255 18.74751
#
# Velocity S-wave (km/s) = 2.14535 3.41224 2.85008
# Velocity P-wave (km/s) = 5.69342 6.56289 6.14356
#
# Compressibility (1/GPa) = 0.01648820
#
# Stress axis : x y z
#
# Youngs Moduli (GPa) = 139.87905 78.61345 80.38504
#
# Poissons Ratio (x) = 0.20241 0.10156
# Poissons Ratio (y) = 0.36015 0.32737
# Poissons Ratio (z) = 0.17673 0.32015
#
# Static dielectric constant tensor:
#      x y z
#    x 1.902030 0.000000 0.000000 
#    y 0.000000 1.923400 0.000000 
#    z 0.000000 0.000000 2.085830 
# 
# From -- ./inp_files/27533.got.cif
#   From: 2010.05.17/outbox.cif.g08.bks.cpg/sg24_14_cif.got.tgz:27533.got - 2010.06.04 00:33:39.
