data_PCOD9335581
_publ_section_title
;
Structure prediction by ZEFSAII (Michael W. Deem and Ramdas Pophale) SiO2 
 PCOD9335581
Probable space group: I 21 21 21
;
_chemical_formula_sum "Si O2"
_cell_formula_units_Z 56
_cell_length_a 13.875534
_cell_length_b 12.930604
_cell_length_c 14.433467
_cell_angle_alpha 90.000000
_cell_angle_beta 90.000000
_cell_angle_gamma 90.000000
_cell_volume 2589.638727
_symmetry_space_group_name_H-M "I 21 21 21"
_symmetry_group_IT_number 24
_symmetry_cell_setting 'orthorhombic'
loop_
_space_group_symop_operation_xyz
x,y,z
-x,1/2-y,z
x,-y,1/2-z
1/2-x,y,-z
1/2+x,1/2+y,1/2+z
1/2-x,-y,1/2+z
1/2+x,1/2-y,-z
-x,1/2+y,1/2-z
loop_
_atom_site_type_symbol
_atom_site_label
_atom_site_fract_x
_atom_site_fract_y
_atom_site_fract_z
Si Si1 0.344898 0.654043 0.044005
Si Si2 0.531564 0.632817 0.498535
Si Si3 0.700869 0.201890 0.266442
Si Si4 0.651189 0.581586 0.315090
Si Si5 0.824415 0.081704 0.925598
Si Si6 0.323001 0.028532 0.585840
Si Si7 0.897085 0.243482 0.362772
O O1 0.370791 0.693877 0.145140
O O2 0.308448 0.540672 0.074102
O O3 0.250000 0.708128 0.000000
O O4 0.414189 0.675082 0.957503
O O5 0.500000 0.750000 0.527130
O O6 0.593643 0.626219 0.403482
O O7 0.429407 0.587101 0.469841
O O8 0.593942 0.557454 0.564722
O O9 0.686108 0.318416 0.236999
O O10 0.682549 0.130461 0.176618
O O11 0.810514 0.191704 0.304309
O O12 0.594078 0.500000 0.250000
O O13 0.746798 0.521200 0.344860
O O14 0.750000 0.130897 0.000000
O O15 0.250000 0.045518 0.500000
O O16 0.366401 0.138695 0.614186
O O17 0.000000 0.250000 0.312775
#
# Coordination Sequence:
#
# PCOD9335581 Si02
#       7
#     8   8   8   8   8   8   8
#     4   9  21  40  66  91 126 171 218 275 347 412
#     4  11  24  41  63  97 130 175 236 281 346 424
#     4  11  22  41  68  93 134 181 222 284 353 417
#     4  11  23  41  65  98 134 173 228 286 349 423
#     4  11  24  44  63  94 139 182 227 285 357 423
#     4  10  22  41  70  94 134 181 222 287 349 413
#     4  11  22  42  68 104 133 173 236 289 351 432
#
# _framework density 21.624637
#
# number of rings (size 3 to 8) (size 9 to 14) (size 15 to 20)
#    0.000    1.429    2.857    2.571    4.000    1.143 
#    5.143    0.000    3.143    0.000    0.000    0.000 
#    0.000    0.000    0.000    0.000    0.000    0.000 
#
# Total GULP energy -155929.240832 kJ/mol
# GULP energy per Si atom -5568.901458 kJ/mol
# Density = 2.157542 g / cm^3
# Si number density = 21.624637 Si / 1000 Ang^3
#
#
#
# Elastic Constant Matrix: (Units=GPa)
#
#
# Indices 1 2 3 4 5 6 
#
# 1 78.4356 -6.2013 -12.8262 0.0000 0.0000 0.0000
# 2 -6.2013 110.1936 9.3923 0.0000 0.0000 0.0000
# 3 -12.8262 9.3923 42.7083 0.0000 0.0000 0.0000
# 4 0.0000 0.0000 0.0000 128.0610 0.0000 0.0000
# 5 0.0000 0.0000 0.0000 0.0000 -5.8435 0.0000
# 6 0.0000 0.0000 0.0000 0.0000 0.0000 28.9680
#
#
#
# Elastic Compliance Matrix: (Units=1/GPa)
#
#
# Indices 1 2 3 4 5 6 
#
# 1 0.013427 0.000420 0.003940 0.000000 0.000000 0.000000
# 2 0.000420 0.009261 -0.001911 0.000000 0.000000 0.000000
# 3 0.003940 -0.001911 0.025018 0.000000 0.000000 0.000000
# 4 0.000000 0.000000 0.000000 0.007809 0.000000 0.000000
# 5 0.000000 0.000000 0.000000 0.000000 -0.171129 0.000000
# 6 0.000000 0.000000 0.000000 0.000000 0.000000 0.034521
#
#
# Mechanical properties :
#
#
# Convention : Reuss Voigt Hill
#
# Bulk Modulus (GPa) = 19.00971 23.56299 21.28635
# Shear Modulus (GPa) = -73.03871 46.30192 -13.36839
#
# Velocity S-wave (km/s) = -5.81799 4.63229 -2.48906
# Velocity P-wave (km/s) = 6.02679 6.28736 1.26663
#
# Compressibility (1/GPa) = 0.05260468
#
# Stress axis : x y z
#
# Youngs Moduli (GPa) = 74.47789 107.97479 39.97098
#
# Poissons Ratio (x) = -0.04533 -0.15749
# Poissons Ratio (y) = -0.03127 0.07637
# Poissons Ratio (z) = -0.29345 0.20631
#
# Static dielectric constant tensor:
#      x y z
#    x -2.029280 0.000000 0.000000 
#    y 0.000000 3.224950 0.000000 
#    z 0.000000 0.000000 1.849520 
# 
# From -- ./inp_files/26512.got.cif
#   From: 2010.05.17/outbox.cif.g08.bks.cpg/sg24_14_cif.got.tgz:26512.got - 2010.06.04 00:33:39.
