data_PCOD9335899
_publ_section_title
;
Structure prediction by ZEFSAII (Michael W. Deem and Ramdas Pophale) SiO2 
 PCOD9335899
Probable space group: I 21 21 21
;
_chemical_formula_sum "Si O2"
_cell_formula_units_Z 48
_cell_length_a 17.108198
_cell_length_b 11.911306
_cell_length_c 10.248288
_cell_angle_alpha 90.000000
_cell_angle_beta 90.000000
_cell_angle_gamma 90.000000
_cell_volume 2088.406187
_symmetry_space_group_name_H-M "I 21 21 21"
_symmetry_group_IT_number 24
_symmetry_cell_setting 'orthorhombic'
loop_
_space_group_symop_operation_xyz
x,y,z
-x,1/2-y,z
x,-y,1/2-z
1/2-x,y,-z
1/2+x,1/2+y,1/2+z
1/2-x,-y,1/2+z
1/2+x,1/2-y,-z
-x,1/2+y,1/2-z
loop_
_atom_site_type_symbol
_atom_site_label
_atom_site_fract_x
_atom_site_fract_y
_atom_site_fract_z
Si Si1 0.853661 0.387684 0.336990
Si Si2 0.039791 0.867198 0.940601
Si Si3 0.805622 0.000000 0.250000
Si Si4 0.431169 0.567682 0.547007
Si Si5 0.775311 0.783259 0.851118
Si Si6 0.923639 0.129027 0.767053
Si Si7 0.500000 0.750000 0.735177
O O1 0.861127 0.500000 0.250000
O O2 0.877004 0.395608 0.491872
O O3 0.769543 0.330967 0.316131
O O4 0.919204 0.296818 0.295576
O O5 0.000000 0.750000 0.985354
O O6 0.012424 0.870256 0.788292
O O7 0.985615 0.966013 0.000994
O O8 0.857234 0.015172 0.119710
O O9 0.758326 0.114348 0.266271
O O10 0.415884 0.645789 0.420865
O O11 0.473550 0.643209 0.652190
O O12 0.867589 0.792386 0.820709
O O13 0.750000 0.805616 0.000000
O O14 0.896811 0.000000 0.750000
#
# Coordination Sequence:
#
# PCOD9335899 Si02
#       7
#     8   8   4   8   8   8   4
#     4  12  24  43  71 100 137 183 241 287 342 425
#     4  11  21  39  68  99 136 175 228 285 350 407
#     4  12  22  38  68  98 130 172 228 288 344 410
#     4  11  23  40  65 101 132 172 227 290 351 398
#     4  12  25  43  67 100 138 186 230 284 354 422
#     4  10  23  42  65 100 139 177 226 292 349 409
#     4  12  22  40  62 100 126 172 228 294 334 394
#
# _framework density 22.984034000000001
#
# number of rings (size 3 to 8) (size 9 to 14) (size 15 to 20)
#    0.000    0.667    5.000    5.000    1.167    0.000 
#    0.000    1.667    0.000    0.000    0.000    0.000 
#    0.000    0.000    0.000    0.000    0.000    0.000 
#
# Total GULP energy -133942.032662 kJ/mol
# GULP energy per Si atom -5580.918028 kJ/mol
# Density = 2.293172 g / cm^3
# Si number density = 22.984034 Si / 1000 Ang^3
#
#
#
# Elastic Constant Matrix: (Units=GPa)
#
#
# Indices 1 2 3 4 5 6 
#
# 1 110.3949 23.9561 27.2371 0.0000 0.0000 0.0000
# 2 23.9561 84.5327 9.1379 0.0000 0.0000 0.0000
# 3 27.2371 9.1379 68.1938 0.0000 0.0000 0.0000
# 4 0.0000 0.0000 0.0000 22.5159 0.0000 0.0000
# 5 0.0000 0.0000 0.0000 0.0000********** 0.0000
# 6 0.0000 0.0000 0.0000 0.0000 0.0000 36.6301
#
#
#
# Elastic Compliance Matrix: (Units=1/GPa)
#
#
# Indices 1 2 3 4 5 6 
#
# 1 0.010575 -0.002578 -0.003878 0.000000 0.000000 0.000000
# 2 -0.002578 0.012632 -0.000663 0.000000 0.000000 0.000000
# 3 -0.003878 -0.000663 0.016302 0.000000 0.000000 0.000000
# 4 0.000000 0.000000 0.000000 0.044413 0.000000 0.000000
# 5 0.000000 0.000000 0.000000 0.000000 0.000003 0.000000
# 6 0.000000 0.000000 0.000000 0.000000 0.000000 0.027300
#
#
# Mechanical properties :
#
#
# Convention : Reuss Voigt Hill
#
# Bulk Modulus (GPa) = 39.57169 42.64265 41.10717
# Shear Modulus (GPa) = 37.34522 62566.21718 31301.78120
#
# Velocity S-wave (km/s) = 4.03529 165.16869 116.82675
# Velocity P-wave (km/s) = 6.24227 190.76911 134.96633
#
# Compressibility (1/GPa) = 0.02527059
#
# Stress axis : x y z
#
# Youngs Moduli (GPa) = 94.56649 79.16465 61.34245
#
# Poissons Ratio (x) = 0.20405 0.23790
# Poissons Ratio (y) = 0.24375 0.04068
# Poissons Ratio (z) = 0.36675 0.05250
#
# Static dielectric constant tensor:
#      x y z
#    x 0.000000 0.000000 0.000000 
#    y 0.000000 0.000000 0.000000 
#    z 0.000000 0.000000 0.000000 
# 
# From -- ./inp_files/21554.got.cif
#   From: 2010.05.17/outbox.cif.g08.bks.cpg/sg24_11_cif.got.tgz:21554.got - 2010.06.04 00:33:39.
