data_PCOD9335534
_publ_section_title
;
Structure prediction by ZEFSAII (Michael W. Deem and Ramdas Pophale) SiO2 
 PCOD9335534
Probable space group: I 21 21 21
;
_chemical_formula_sum "Si O2"
_cell_formula_units_Z 44
_cell_length_a 10.472653
_cell_length_b 9.566256
_cell_length_c 18.591853
_cell_angle_alpha 90.000000
_cell_angle_beta 90.000000
_cell_angle_gamma 90.000000
_cell_volume 1862.607681
_symmetry_space_group_name_H-M "I 21 21 21"
_symmetry_group_IT_number 24
_symmetry_cell_setting 'orthorhombic'
loop_
_space_group_symop_operation_xyz
x,y,z
-x,1/2-y,z
x,-y,1/2-z
1/2-x,y,-z
1/2+x,1/2+y,1/2+z
1/2-x,-y,1/2+z
1/2+x,1/2-y,-z
-x,1/2+y,1/2-z
loop_
_atom_site_type_symbol
_atom_site_label
_atom_site_fract_x
_atom_site_fract_y
_atom_site_fract_z
Si Si1 0.785680 0.887712 0.083617
Si Si2 0.383047 0.855716 0.067685
Si Si3 0.184896 0.067613 0.823863
Si Si4 0.500000 0.750000 0.623221
Si Si5 0.575065 0.468519 0.589278
Si Si6 0.752340 0.117272 0.187132
O O1 0.936422 0.897570 0.102333
O O2 0.721897 0.022673 0.118375
O O3 0.750000 0.891791 0.000000
O O4 0.775635 0.741406 0.892738
O O5 0.500000 0.750000 0.071539
O O6 0.394423 0.998999 0.111361
O O7 0.373632 0.896118 0.983255
O O8 0.327621 0.005798 0.844906
O O9 0.142066 0.000000 0.750000
O O10 0.179693 0.234689 0.813333
O O11 0.547916 0.629600 0.570478
O O12 0.396543 0.674629 0.674149
O O13 0.744198 0.000000 0.250000
#
# Coordination Sequence:
#
# PCOD9335534 Si02
#       6
#     8   8   8   4   8   8
#     4  11  22  40  66 101 140 182 232 296 360 430
#     4  12  25  43  69 106 146 195 240 299 363 441
#     4  11  25  45  70 103 141 184 241 304 363 440
#     4   8  20  38  62 104 138 176 222 302 354 430
#     4  10  22  40  71 103 142 181 241 296 370 424
#     4  10  22  41  65  97 137 182 231 290 363 428
#
# _framework density 23.622793000000001
#
# number of rings (size 3 to 8) (size 9 to 14) (size 15 to 20)
#    0.000    1.455    1.818    2.727    0.000   10.909 
#    0.000    4.545    0.000    0.000    0.000    0.000 
#    0.000    0.000    0.000    0.000    0.000    0.000 
#
# Total GULP energy -122482.043987 kJ/mol
# GULP energy per Si atom -5567.365636 kJ/mol
# Density = 2.356903 g / cm^3
# Si number density = 23.622793 Si / 1000 Ang^3
#
#
#
# Elastic Constant Matrix: (Units=GPa)
#
#
# Indices 1 2 3 4 5 6 
#
# 1 29.8817 -1.9137 -24.3154 0.0000 0.0000 0.0000
# 2 -1.9137 205.8278 37.2347 0.0000 0.0000 0.0000
# 3 -24.3154 37.2347 42.4280 0.0000 0.0000 0.0000
# 4 0.0000 0.0000 0.0000 51.6818 0.0000 0.0000
# 5 0.0000 0.0000 0.0000 0.0000 -2.7244 0.0000
# 6 0.0000 0.0000 0.0000 0.0000 0.0000 31.4087
#
#
#
# Elastic Compliance Matrix: (Units=1/GPa)
#
#
# Indices 1 2 3 4 5 6 
#
# 1 0.072636 -0.008149 0.048779 0.000000 0.000000 0.000000
# 2 -0.008149 0.006690 -0.010541 0.000000 0.000000 0.000000
# 3 0.048779 -0.010541 0.060775 0.000000 0.000000 0.000000
# 4 0.000000 0.000000 0.000000 0.019349 0.000000 0.000000
# 5 0.000000 0.000000 0.000000 0.000000 -0.367049 0.000000
# 6 0.000000 0.000000 0.000000 0.000000 0.000000 0.031838
#
#
# Mechanical properties :
#
#
# Convention : Reuss Voigt Hill
#
# Bulk Modulus (GPa) = 4.99304 33.34986 19.17145
# Shear Modulus (GPa) = -29.55432 33.88201 2.16385
#
# Velocity S-wave (km/s) = -3.54092 3.79132 0.95812
# Velocity P-wave (km/s) = 3.82089 5.77181 3.05896
#
# Compressibility (1/GPa) = 0.20027878
#
# Stress axis : x y z
#
# Youngs Moduli (GPa) = 13.76731 149.48748 16.45412
#
# Poissons Ratio (x) = 1.21815 -0.80261
# Poissons Ratio (y) = 0.11219 0.17344
# Poissons Ratio (z) = -0.67155 1.57572
#
# Static dielectric constant tensor:
#      x y z
#    x 2.160200 0.000000 0.000000 
#    y 0.000000 1.937970 0.000000 
#    z 0.000000 0.000000 1.862780 
# 
# From -- ./inp_files/30656.got.cif
#   From: 2010.05.17/outbox.cif.g08.bks.cpg/sg24_16_cif.got.tgz:30656.got - 2010.06.04 00:33:39.
