data_PCOD9335815
_publ_section_title
;
Structure prediction by ZEFSAII (Michael W. Deem and Ramdas Pophale) SiO2 
 PCOD9335815
Probable space group: I 21 21 21
;
_chemical_formula_sum "Si O2"
_cell_formula_units_Z 56
_cell_length_a 15.959432
_cell_length_b 14.357659
_cell_length_c 9.425314
_cell_angle_alpha 90.000000
_cell_angle_beta 90.000000
_cell_angle_gamma 90.000000
_cell_volume 2159.717227
_symmetry_space_group_name_H-M "I 21 21 21"
_symmetry_group_IT_number 24
_symmetry_cell_setting 'orthorhombic'
loop_
_space_group_symop_operation_xyz
x,y,z
-x,1/2-y,z
x,-y,1/2-z
1/2-x,y,-z
1/2+x,1/2+y,1/2+z
1/2-x,-y,1/2+z
1/2+x,1/2-y,-z
-x,1/2+y,1/2-z
loop_
_atom_site_type_symbol
_atom_site_label
_atom_site_fract_x
_atom_site_fract_y
_atom_site_fract_z
Si Si1 0.750000 0.251762 0.000000
Si Si2 0.785136 0.598093 0.705133
Si Si3 0.837200 0.353240 0.508728
Si Si4 0.638400 0.175156 0.668842
Si Si5 0.033067 0.895725 0.621902
Si Si6 0.000000 0.250000 0.114077
Si Si7 0.018157 0.590217 0.939608
Si Si8 0.781602 0.923981 0.646690
O O1 0.728814 0.328538 0.880033
O O2 0.812159 0.176250 0.922722
O O3 0.743086 0.500000 0.750000
O O4 0.871600 0.564701 0.629990
O O5 0.831614 0.661703 0.823721
O O6 0.750000 0.411080 0.500000
O O7 0.824845 0.266934 0.405638
O O8 0.930009 0.388969 0.480658
O O9 0.568970 0.204133 0.784240
O O10 0.591807 0.128608 0.535121
O O11 0.706322 0.113731 0.751949
O O12 0.037156 0.822790 0.497330
O O13 0.995389 0.871502 0.778338
O O14 0.975129 0.980003 0.571418
O O15 0.750000 0.971312 0.500000
O O16 0.824453 0.000000 0.750000
#
# Coordination Sequence:
#
# PCOD9335815 Si02
#       8
#     4   8   8   8   8   4   8   8
#     4  10  24  46  74 108 152 200 266 322 386 482
#     4  11  22  42  69 105 152 194 248 312 389 485
#     4  11  23  42  72 105 148 200 246 305 391 475
#     4  12  25  48  73 112 145 197 258 330 391 468
#     4  10  23  43  67 106 141 196 247 316 380 473
#     4  12  26  38  78 106 146 192 252 326 384 450
#     4  10  22  47  71 102 148 195 257 304 388 478
#     4  10  26  51  76 106 153 199 260 332 395 465
#
# _framework density 25.929319
#
# number of rings (size 3 to 8) (size 9 to 14) (size 15 to 20)
#    0.429    0.857    4.286    1.714    7.000    1.714 
#    0.000    0.000    0.000    0.000    0.000    0.000 
#    0.000    0.000    0.000    0.000    0.000    0.000 
#
# Total GULP energy -156008.246467 kJ/mol
# GULP energy per Si atom -5571.723088 kJ/mol
# Density = 2.587030 g / cm^3
# Si number density = 25.929319 Si / 1000 Ang^3
#
#
#
# Elastic Constant Matrix: (Units=GPa)
#
#
# Indices 1 2 3 4 5 6 
#
# 1 79.7369 27.1373 26.6552 0.0000 0.0000 0.0000
# 2 27.1373 118.8136 63.2238 0.0000 0.0000 0.0000
# 3 26.6552 63.2238 139.2261 0.0000 0.0000 0.0000
# 4 0.0000 0.0000 0.0000 29.4908 0.0000 0.0000
# 5 0.0000 0.0000 0.0000 0.0000 40.2758 0.0000
# 6 0.0000 0.0000 0.0000 0.0000 0.0000 16.7936
#
#
#
# Elastic Compliance Matrix: (Units=1/GPa)
#
#
# Indices 1 2 3 4 5 6 
#
# 1 0.013865 -0.002313 -0.001604 0.000000 0.000000 0.000000
# 2 -0.002313 0.011484 -0.004772 0.000000 0.000000 0.000000
# 3 -0.001604 -0.004772 0.009657 0.000000 0.000000 0.000000
# 4 0.000000 0.000000 0.000000 0.033909 0.000000 0.000000
# 5 0.000000 0.000000 0.000000 0.000000 0.024829 0.000000
# 6 0.000000 0.000000 0.000000 0.000000 0.000000 0.059546
#
#
# Mechanical properties :
#
#
# Convention : Reuss Voigt Hill
#
# Bulk Modulus (GPa) = 56.73147 63.53435 60.13291
# Shear Modulus (GPa) = 28.32146 32.02939 30.17542
#
# Velocity S-wave (km/s) = 3.30852 3.51844 3.41509
# Velocity P-wave (km/s) = 6.04333 6.40796 6.22831
#
# Compressibility (1/GPa) = 0.01762690
#
# Stress axis : x y z
#
# Youngs Moduli (GPa) = 72.12552 87.07511 103.55419
#
# Poissons Ratio (x) = 0.20142 0.16610
# Poissons Ratio (y) = 0.16684 0.49419
# Poissons Ratio (z) = 0.11569 0.41555
#
# Static dielectric constant tensor:
#      x y z
#    x 2.114090 0.000000 0.000000 
#    y 0.000000 2.078060 0.000000 
#    z 0.000000 0.000000 2.307050 
# 
# From -- ./inp_files/15280.got.cif
#   From: 2010.05.17/outbox.cif.g08.bks.cpg/sg24_8_cif.got.tgz:15280.got - 2010.06.04 00:33:39.
