data_PCOD9335715
_publ_section_title
;
Structure prediction by ZEFSAII (Michael W. Deem and Ramdas Pophale) SiO2 
 PCOD9335715
Probable space group: I 21 21 21
;
_chemical_formula_sum "Si O2"
_cell_formula_units_Z 24
_cell_length_a 5.493705
_cell_length_b 16.745022
_cell_length_c 11.276687
_cell_angle_alpha 90.000000
_cell_angle_beta 90.000000
_cell_angle_gamma 90.000000
_cell_volume 1037.367371
_symmetry_space_group_name_H-M "I 21 21 21"
_symmetry_group_IT_number 24
_symmetry_cell_setting 'orthorhombic'
loop_
_space_group_symop_operation_xyz
x,y,z
-x,1/2-y,z
x,-y,1/2-z
1/2-x,y,-z
1/2+x,1/2+y,1/2+z
1/2-x,-y,1/2+z
1/2+x,1/2-y,-z
-x,1/2+y,1/2-z
loop_
_atom_site_type_symbol
_atom_site_label
_atom_site_fract_x
_atom_site_fract_y
_atom_site_fract_z
Si Si1 0.750000 0.018834 0.500000
Si Si2 0.566179 0.585532 0.197139
Si Si3 0.496535 0.364739 0.043947
Si Si4 0.250000 0.197634 0.500000
O O1 0.669288 0.067842 0.385840
O O2 0.968790 0.954906 0.487577
O O3 0.656022 0.500000 0.250000
O O4 0.493011 0.632009 0.314931
O O5 0.739412 0.638327 0.113885
O O6 0.250000 0.325925 0.000000
O O7 0.750000 0.334546 0.000000
O O8 0.500000 0.250000 0.499821
#
# Coordination Sequence:
#
# PCOD9335715 Si02
#       4
#     4   8   8   4
#     4   8  19  36  56 104 137 174 230 312 349 392
#     4  10  22  43  73 107 144 196 256 302 353 445
#     4   9  20  36  57 101 145 171 231 312 365 399
#     4  12  29  52  70 110 159 198 234 308 395 438
#
# _framework density 23.135487000000001
#
# number of rings (size 3 to 8) (size 9 to 14) (size 15 to 20)
#    1.000    1.333    0.000    1.000    9.333    5.333 
#    6.000    0.000    0.000    4.000    0.000    0.000 
#    0.000    0.000    0.000    0.000    0.000    0.000 
#
# Total GULP energy -66878.830480 kJ/mol
# GULP energy per Si atom -5573.235873 kJ/mol
# Density = 2.308283 g / cm^3
# Si number density = 23.135487 Si / 1000 Ang^3
#
#
#
# Elastic Constant Matrix: (Units=GPa)
#
#
# Indices 1 2 3 4 5 6 
#
# 1 180.8343 71.2875 80.5210 0.0000 0.0000 0.0000
# 2 71.2875 116.2267 82.4626 0.0000 0.0000 0.0000
# 3 80.5210 82.4626 177.1888 0.0000 0.0000 0.0000
# 4 0.0000 0.0000 0.0000 52.8149 0.0000 0.0000
# 5 0.0000 0.0000 0.0000 0.0000 45.1683 0.0000
# 6 0.0000 0.0000 0.0000 0.0000 0.0000 73.8586
#
#
#
# Elastic Compliance Matrix: (Units=1/GPa)
#
#
# Indices 1 2 3 4 5 6 
#
# 1 0.007719 -0.003353 -0.001947 0.000000 0.000000 0.000000
# 2 -0.003353 0.014302 -0.005132 0.000000 0.000000 0.000000
# 3 -0.001947 -0.005132 0.008917 0.000000 0.000000 0.000000
# 4 0.000000 0.000000 0.000000 0.018934 0.000000 0.000000
# 5 0.000000 0.000000 0.000000 0.000000 0.022139 0.000000
# 6 0.000000 0.000000 0.000000 0.000000 0.000000 0.013539
#
#
# Mechanical properties :
#
#
# Convention : Reuss Voigt Hill
#
# Bulk Modulus (GPa) = 99.27650 104.75466 102.01558
# Shear Modulus (GPa) = 45.54879 50.36696 47.95787
#
# Velocity S-wave (km/s) = 4.44191 4.67094 4.55787
# Velocity P-wave (km/s) = 8.32535 8.62945 8.47876
#
# Compressibility (1/GPa) = 0.01007288
#
# Stress axis : x y z
#
# Youngs Moduli (GPa) = 129.55582 69.92255 112.14279
#
# Poissons Ratio (x) = 0.23442 0.21838
# Poissons Ratio (y) = 0.43435 0.57555
# Poissons Ratio (z) = 0.25229 0.35886
#
# Static dielectric constant tensor:
#      x y z
#    x 1.840530 0.000000 0.000000 
#    y 0.000000 1.908060 0.000000 
#    z 0.000000 0.000000 1.799210 
# 
# From -- ./inp_files/17276.got.cif
#   From: 2010.05.17/outbox.cif.g08.bks.cpg/sg24_9_cif.got.tgz:17276.got - 2010.06.04 00:33:39.
