data_PCOD9335110
_publ_section_title
;
Structure prediction by ZEFSAII (Michael W. Deem and Ramdas Pophale) SiO2 
 PCOD9335110
Probable space group: I 21 21 21
;
_chemical_formula_sum "Si O2"
_cell_formula_units_Z 40
_cell_length_a 9.588975
_cell_length_b 7.693766
_cell_length_c 25.795241
_cell_angle_alpha 90.000000
_cell_angle_beta 90.000000
_cell_angle_gamma 90.000000
_cell_volume 1903.052413
_symmetry_space_group_name_H-M "I 21 21 21"
_symmetry_group_IT_number 24
_symmetry_cell_setting 'orthorhombic'
loop_
_space_group_symop_operation_xyz
x,y,z
-x,1/2-y,z
x,-y,1/2-z
1/2-x,y,-z
1/2+x,1/2+y,1/2+z
1/2-x,-y,1/2+z
1/2+x,1/2-y,-z
-x,1/2+y,1/2-z
loop_
_atom_site_type_symbol
_atom_site_label
_atom_site_fract_x
_atom_site_fract_y
_atom_site_fract_z
Si Si1 0.343207 0.673976 0.585162
Si Si2 0.250000 0.597694 0.000000
Si Si3 0.356076 0.534372 0.811511
Si Si4 0.000000 0.750000 0.938931
Si Si5 0.608936 0.597811 0.388887
Si Si6 0.187516 0.932103 0.192069
O O1 0.500000 0.750000 0.584575
O O2 0.323920 0.522579 0.543230
O O3 0.309367 0.595765 0.642933
O O4 0.225135 0.818086 0.573056
O O5 0.364954 0.714764 0.026942
O O6 0.331461 0.500000 0.750000
O O7 0.295355 0.727224 0.818503
O O8 0.523978 0.534641 0.818907
O O9 0.971844 0.572253 0.908123
O O10 0.500000 0.750000 0.377182
O O11 0.704418 0.535685 0.341983
O O12 0.208032 0.000000 0.250000
#
# Coordination Sequence:
#
# PCOD9335110 Si02
#       6
#     8   4   8   4   8   8
#     4  12  26  46  76 109 145 193 249 303 369 435
#     4  12  30  48  76 110 142 196 248 306 370 438
#     4  10  21  40  74 111 146 184 250 314 358 425
#     4  12  30  52  74 102 146 190 248 298 370 442
#     4  12  26  50  71 103 152 189 237 301 364 438
#     4  10  21  40  70 108 147 192 243 301 362 434
#
# _framework density 21.018863
#
# number of rings (size 3 to 8) (size 9 to 14) (size 15 to 20)
#    0.000    0.800    4.000    2.400    8.400    1.600 
#    1.800    1.000    0.000    0.000    0.000    0.000 
#    0.000    0.000    0.000    0.000    0.000    0.000 
#
# Total GULP energy -111750.904825 kJ/mol
# GULP energy per Si atom -5587.545241 kJ/mol
# Density = 2.097102 g / cm^3
# Si number density = 21.018863 Si / 1000 Ang^3
#
#
#
# Elastic Constant Matrix: (Units=GPa)
#
#
# Indices 1 2 3 4 5 6 
#
# 1 56.9610 59.7711 30.1522 0.0000 0.0000 0.0000
# 2 59.7711 156.8903 57.1021 0.0000 0.0000 0.0000
# 3 30.1522 57.1021 76.8338 0.0000 0.0000 0.0000
# 4 0.0000 0.0000 0.0000 -64.6092 0.0000 0.0000
# 5 0.0000 0.0000 0.0000 0.0000 129.3993 0.0000
# 6 0.0000 0.0000 0.0000 0.0000 0.0000 43.9127
#
#
#
# Elastic Compliance Matrix: (Units=1/GPa)
#
#
# Indices 1 2 3 4 5 6 
#
# 1 0.030366 -0.009913 -0.004550 0.000000 0.000000 0.000000
# 2 -0.009913 0.011973 -0.005008 0.000000 0.000000 0.000000
# 3 -0.004550 -0.005008 0.018523 0.000000 0.000000 0.000000
# 4 0.000000 0.000000 0.000000 -0.015478 0.000000 0.000000
# 5 0.000000 0.000000 0.000000 0.000000 0.007728 0.000000
# 6 0.000000 0.000000 0.000000 0.000000 0.000000 0.022772
#
#
# Mechanical properties :
#
#
# Convention : Reuss Voigt Hill
#
# Bulk Modulus (GPa) = 45.61925 64.97067 55.29496
# Shear Modulus (GPa) = 40.93911 31.31787 36.12849
#
# Velocity S-wave (km/s) = 4.41810 3.86423 4.15041
# Velocity P-wave (km/s) = 6.91211 7.13354 7.02370
#
# Compressibility (1/GPa) = 0.02192057
#
# Stress axis : x y z
#
# Youngs Moduli (GPa) = 32.93161 83.51991 53.98808
#
# Poissons Ratio (x) = 0.82791 0.24562
# Poissons Ratio (y) = 0.32644 0.27039
# Poissons Ratio (z) = 0.14983 0.41829
#
# Static dielectric constant tensor:
#      x y z
#    x 1.759970 0.000000 0.000000 
#    y 0.000000 1.788030 0.000000 
#    z 0.000000 0.000000 1.801530 
# 
# From -- ./inp_files/35051.got.cif
#   From: 2010.05.17/outbox.cif.g08.bks.cpg/sg24_18_cif.got.tgz:35051.got - 2010.06.04 00:33:39.
