data_PCOD9335228
_publ_section_title
;
Structure prediction by ZEFSAII (Michael W. Deem and Ramdas Pophale) SiO2 
 PCOD9335228
Probable space group: I 21 21 21
;
_chemical_formula_sum "Si O2"
_cell_formula_units_Z 60
_cell_length_a 5.314240
_cell_length_b 17.373163
_cell_length_c 29.164535
_cell_angle_alpha 90.000000
_cell_angle_beta 90.000000
_cell_angle_gamma 90.000000
_cell_volume 2692.620294
_symmetry_space_group_name_H-M "I 21 21 21"
_symmetry_group_IT_number 24
_symmetry_cell_setting 'orthorhombic'
loop_
_space_group_symop_operation_xyz
x,y,z
-x,1/2-y,z
x,-y,1/2-z
1/2-x,y,-z
1/2+x,1/2+y,1/2+z
1/2-x,-y,1/2+z
1/2+x,1/2-y,-z
-x,1/2+y,1/2-z
loop_
_atom_site_type_symbol
_atom_site_label
_atom_site_fract_x
_atom_site_fract_y
_atom_site_fract_z
Si Si1 0.757642 0.570077 0.829469
Si Si2 0.996882 0.157323 0.969563
Si Si3 0.840214 0.048756 0.210190
Si Si4 0.993406 0.429198 0.872982
Si Si5 0.250000 0.802220 0.000000
Si Si6 0.245752 0.802269 0.098581
Si Si7 0.650889 0.319490 0.741736
Si Si8 0.249470 0.210474 0.156914
O O1 0.549992 0.511508 0.808870
O O2 0.943592 0.517962 0.859921
O O3 0.670646 0.633641 0.865118
O O4 0.838210 0.628404 0.788380
O O5 0.968265 0.102080 0.924458
O O6 0.000000 0.250000 0.959055
O O7 0.250000 0.141663 0.000000
O O8 0.750000 0.144070 0.000000
O O9 0.696837 0.086098 0.167184
O O10 0.956627 0.118802 0.238085
O O11 0.691373 0.000000 0.250000
O O12 0.756178 0.377805 0.857613
O O13 0.500000 0.750000 0.998727
O O14 0.274760 0.842966 0.048780
O O15 0.500000 0.750000 0.107653
O O16 0.000000 0.750000 0.095722
O O17 0.500000 0.250000 0.717293
O O18 0.759596 0.284893 0.788231
O O19 0.500000 0.250000 0.138888
O O20 0.000000 0.250000 0.139146
#
# Coordination Sequence:
#
# PCOD9335228 Si02
#       8
#     8   8   8   8   4   8   8   8
#     4  11  25  41  63  98 142 182 231 287 358 416
#     4  10  25  48  76 107 143 187 243 308 367 434
#     4  10  24  43  67  99 147 191 234 293 357 429
#     4  12  25  42  72 100 144 189 237 292 375 437
#     4   8  16  36  64  90 118 156 210 274 330 394
#     4  10  22  42  68  95 127 171 228 281 342 415
#     4  10  21  43  64  93 133 187 238 290 337 409
#     4  11  24  40  66 101 132 180 240 286 336 419
#
# _framework density 22.283124000000001
#
# number of rings (size 3 to 8) (size 9 to 14) (size 15 to 20)
#    0.000    1.600    1.333    2.400    5.600    2.133 
#    1.200    0.000    1.467    0.000    0.000    0.000 
#    0.000    0.000    0.000    0.000    0.000    0.000 
#
# Total GULP energy -167045.386873 kJ/mol
# GULP energy per Si atom -5568.179562 kJ/mol
# Density = 2.223241 g / cm^3
# Si number density = 22.283124 Si / 1000 Ang^3
#
#
#
# Elastic Constant Matrix: (Units=GPa)
#
#
# Indices 1 2 3 4 5 6 
#
# 1 105.1013 31.3546 31.1416 0.0000 0.0000 0.0000
# 2 31.3546 92.8735 43.6084 0.0000 0.0000 0.0000
# 3 31.1416 43.6084 120.6347 0.0000 0.0000 0.0000
# 4 0.0000 0.0000 0.0000 35.3204 0.0000 0.0000
# 5 0.0000 0.0000 0.0000 0.0000 42.2038 0.0000
# 6 0.0000 0.0000 0.0000 0.0000 0.0000 19.8786
#
#
#
# Elastic Compliance Matrix: (Units=1/GPa)
#
#
# Indices 1 2 3 4 5 6 
#
# 1 0.010890 -0.002838 -0.001785 0.000000 0.000000 0.000000
# 2 -0.002838 0.013708 -0.004223 0.000000 0.000000 0.000000
# 3 -0.001785 -0.004223 0.010277 0.000000 0.000000 0.000000
# 4 0.000000 0.000000 0.000000 0.028312 0.000000 0.000000
# 5 0.000000 0.000000 0.000000 0.000000 0.023695 0.000000
# 6 0.000000 0.000000 0.000000 0.000000 0.000000 0.050305
#
#
# Mechanical properties :
#
#
# Convention : Reuss Voigt Hill
#
# Bulk Modulus (GPa) = 58.19776 58.97984 58.58880
# Shear Modulus (GPa) = 31.13169 33.64756 32.38962
#
# Velocity S-wave (km/s) = 3.74183 3.89009 3.81668
# Velocity P-wave (km/s) = 6.69646 6.83395 6.76555
#
# Compressibility (1/GPa) = 0.01718279
#
# Stress axis : x y z
#
# Youngs Moduli (GPa) = 91.82418 72.94819 97.30627
#
# Poissons Ratio (x) = 0.20706 0.17372
# Poissons Ratio (y) = 0.26063 0.41090
# Poissons Ratio (z) = 0.16393 0.30804
#
# Static dielectric constant tensor:
#      x y z
#    x 1.883510 0.000000 0.000000 
#    y 0.000000 1.693460 0.000000 
#    z 0.000000 0.000000 1.913670 
# 
# From -- ./inp_files/36572.got.cif
#   From: 2010.05.17/outbox.cif.g08.bks.cpg/sg24_19_cif.got.tgz:36572.got - 2010.06.04 00:33:39.
