data_PCOD9335915
_publ_section_title
;
Structure prediction by ZEFSAII (Michael W. Deem and Ramdas Pophale) SiO2 
 PCOD9335915
Probable space group: I 21 21 21
;
_chemical_formula_sum "Si O2"
_cell_formula_units_Z 16
_cell_length_a 4.515194
_cell_length_b 26.721593
_cell_length_c 5.299457
_cell_angle_alpha 90.000000
_cell_angle_beta 90.000000
_cell_angle_gamma 90.000000
_cell_volume 639.396320
_symmetry_space_group_name_H-M "I 21 21 21"
_symmetry_group_IT_number 24
_symmetry_cell_setting 'orthorhombic'
loop_
_space_group_symop_operation_xyz
x,y,z
-x,1/2-y,z
x,-y,1/2-z
1/2-x,y,-z
1/2+x,1/2+y,1/2+z
1/2-x,-y,1/2+z
1/2+x,1/2-y,-z
-x,1/2+y,1/2-z
loop_
_atom_site_type_symbol
_atom_site_label
_atom_site_fract_x
_atom_site_fract_y
_atom_site_fract_z
Si Si1 0.750000 0.140881 0.000000
Si Si2 0.552666 0.445723 0.252288
Si Si3 0.750000 0.286200 0.000000
O O1 0.641033 0.103367 0.216130
O O2 0.486441 0.174978 0.884133
O O3 0.394526 0.500000 0.250000
O O4 0.750000 0.442673 0.500000
O O5 0.750000 0.445938 0.000000
O O6 0.500000 0.250000 0.131831
#
# Coordination Sequence:
#
# PCOD9335915 Si02
#       3
#     4   8   4
#     4  11  20  42  70 108 144 200 236 307 374 436
#     4  10  23  42  68 108 156 196 240 291 359 451
#     4   9  20  40  72 106 138 190 254 317 366 434
#
# _framework density 25.023603000000001
#
# number of rings (size 3 to 8) (size 9 to 14) (size 15 to 20)
#    0.000    2.000    2.500    0.000    0.000    8.000 
#    0.000    0.000    0.000    9.000    0.000    0.000 
#    0.000    0.000    0.000    0.000    0.000    0.000 
#
# Total GULP energy -44549.845534 kJ/mol
# GULP energy per Si atom -5568.730692 kJ/mol
# Density = 2.496665 g / cm^3
# Si number density = 25.023603 Si / 1000 Ang^3
#
#
#
# Elastic Constant Matrix: (Units=GPa)
#
#
# Indices 1 2 3 4 5 6 
#
# 1 163.6397 103.0635 46.4898 0.0003 -0.0002 -0.0006
# 2 103.0635 210.8987 28.9370 0.0025 0.0000 -0.0003
# 3 46.4898 28.9370 147.5529 0.0036 -0.0003 -0.0231
# 4 0.0003 0.0025 0.0036 -3.8940 -0.0004 -0.0049
# 5 -0.0002 0.0000 -0.0003 -0.0004 46.1981 -0.0002
# 6 -0.0006 -0.0003 -0.0231 -0.0049 -0.0002 511.6516
#
#
#
# Elastic Compliance Matrix: (Units=1/GPa)
#
#
# Indices 1 2 3 4 5 6 
#
# 1 0.009435 -0.004319 -0.002126 -0.000004 0.000000 0.000000
# 2 -0.004319 0.006850 0.000017 0.000004 0.000000 0.000000
# 3 -0.002126 0.000017 0.007444 0.000007 0.000000 0.000000
# 4 -0.000004 0.000004 0.000007 -0.256804 -0.000002 -0.000002
# 5 0.000000 0.000000 0.000000 -0.000002 0.021646 0.000000
# 6 0.000000 0.000000 0.000000 -0.000002 0.000000 0.001954
#
#
# Mechanical properties :
#
#
# Convention : Reuss Voigt Hill
#
# Bulk Modulus (GPa) = 91.96361 97.67466 94.81913
# Shear Modulus (GPa) = -25.90740 133.69788 53.89524
#
# Velocity S-wave (km/s) = -3.22113 7.31742 4.64591
# Velocity P-wave (km/s) = 4.79545 10.51241 8.17028
#
# Compressibility (1/GPa) = 0.01087387
#
# Stress axis : x y z
#
# Youngs Moduli (GPa) = 105.98593 145.98650 134.34446
#
# Poissons Ratio (x) = 0.63054 0.28558
# Poissons Ratio (y) = 0.45777 -0.00235
# Poissons Ratio (z) = 0.22530 -0.00255
#
# Static dielectric constant tensor:
#      x y z
#    x 2.011190 0.000000 0.000010 
#    y 0.000000 2.076010 0.000000 
#    z 0.000010 0.000000 1.856490 
# 
# From -- ./inp_files/363.got.cif
#   From: 2010.05.17/outbox.cif.g08.bks.cpg/sg24_1_cif.got.tgz:363.got - 2010.06.04 00:33:39.
