data_PCOD9335573
_publ_section_title
;
Structure prediction by ZEFSAII (Michael W. Deem and Ramdas Pophale) SiO2 
 PCOD9335573
Probable space group: I 21 21 21
;
_chemical_formula_sum "Si O2"
_cell_formula_units_Z 48
_cell_length_a 12.082144
_cell_length_b 9.847489
_cell_length_c 14.782779
_cell_angle_alpha 90.000000
_cell_angle_beta 90.000000
_cell_angle_gamma 90.000000
_cell_volume 1758.837012
_symmetry_space_group_name_H-M "I 21 21 21"
_symmetry_group_IT_number 24
_symmetry_cell_setting 'orthorhombic'
loop_
_space_group_symop_operation_xyz
x,y,z
-x,1/2-y,z
x,-y,1/2-z
1/2-x,y,-z
1/2+x,1/2+y,1/2+z
1/2-x,-y,1/2+z
1/2+x,1/2-y,-z
-x,1/2+y,1/2-z
loop_
_atom_site_type_symbol
_atom_site_label
_atom_site_fract_x
_atom_site_fract_y
_atom_site_fract_z
Si Si1 0.955569 0.611237 0.809796
Si Si2 0.582712 0.518264 0.918760
Si Si3 0.251986 0.762636 0.870614
Si Si4 0.567432 0.889509 0.421704
Si Si5 0.788694 0.258625 0.151105
Si Si6 0.131529 0.509223 0.150957
O O1 0.889383 0.500000 0.750000
O O2 0.871307 0.679260 0.880263
O O3 0.047900 0.507578 0.846498
O O4 0.000000 0.750000 0.764184
O O5 0.663618 0.644348 0.924398
O O6 0.666239 0.397323 0.890907
O O7 0.491994 0.565551 0.844459
O O8 0.497239 0.474175 0.997990
O O9 0.270172 0.773532 0.759786
O O10 0.285808 0.610551 0.899053
O O11 0.500000 0.750000 0.421895
O O12 0.312574 0.679061 0.399705
O O13 0.882250 0.148335 0.128641
O O14 0.182701 0.500000 0.250000
#
# Coordination Sequence:
#
# PCOD9335573 Si02
#       6
#     8   8   8   8   8   8
#     4  12  25  45  72 104 143 197 263 330 397 485
#     4  12  25  42  69 106 146 191 248 320 394 469
#     4  11  23  42  72 104 144 194 252 321 391 470
#     4  12  27  45  69 103 148 198 252 319 400 489
#     4  11  23  45  71 100 140 197 255 309 385 476
#     4  10  22  41  68 102 142 191 251 316 385 467
#
# _framework density 27.290758
#
# number of rings (size 3 to 8) (size 9 to 14) (size 15 to 20)
#    0.000    0.667    0.000    9.000    0.000   10.000 
#    0.000    1.667    0.000    0.000    0.000    0.000 
#    0.000    0.000    0.000    0.000    0.000    0.000 
#
# Total GULP energy -133695.426876 kJ/mol
# GULP energy per Si atom -5570.642786 kJ/mol
# Density = 2.722864 g / cm^3
# Si number density = 27.290758 Si / 1000 Ang^3
#
#
#
# Elastic Constant Matrix: (Units=GPa)
#
#
# Indices 1 2 3 4 5 6 
#
# 1 84.2353 4.4619 33.6907 0.0000 0.0000 0.0000
# 2 4.4619 182.5535 29.3149 0.0000 0.0000 0.0000
# 3 33.6907 29.3149 125.0439 0.0000 0.0000 0.0000
# 4 0.0000 0.0000 0.0000 18.8414 0.0000 0.0000
# 5 0.0000 0.0000 0.0000 0.0000 13.0987 0.0000
# 6 0.0000 0.0000 0.0000 0.0000 0.0000 42.0900
#
#
#
# Elastic Compliance Matrix: (Units=1/GPa)
#
#
# Indices 1 2 3 4 5 6 
#
# 1 0.013317 0.000260 -0.003649 0.000000 0.000000 0.000000
# 2 0.000260 0.005697 -0.001406 0.000000 0.000000 0.000000
# 3 -0.003649 -0.001406 0.009310 0.000000 0.000000 0.000000
# 4 0.000000 0.000000 0.000000 0.053075 0.000000 0.000000
# 5 0.000000 0.000000 0.000000 0.000000 0.076343 0.000000
# 6 0.000000 0.000000 0.000000 0.000000 0.000000 0.023759
#
#
# Mechanical properties :
#
#
# Convention : Reuss Voigt Hill
#
# Bulk Modulus (GPa) = 53.37471 58.52973 55.95222
# Shear Modulus (GPa) = 25.33762 36.43037 30.88399
#
# Velocity S-wave (km/s) = 3.05032 3.65759 3.36767
# Velocity P-wave (km/s) = 5.65740 6.27141 5.97230
#
# Compressibility (1/GPa) = 0.01873546
#
# Stress axis : x y z
#
# Youngs Moduli (GPa) = 75.09080 175.52391 107.41183
#
# Poissons Ratio (x) = -0.04572 0.39196
# Poissons Ratio (y) = -0.01956 0.15100
# Poissons Ratio (z) = 0.27402 0.24676
#
# Static dielectric constant tensor:
#      x y z
#    x 2.237620 0.000000 0.000000 
#    y 0.000000 2.118450 0.000000 
#    z 0.000000 0.000000 2.752010 
# 
# From -- ./inp_files/30718.got.cif
#   From: 2010.05.17/outbox.cif.g08.bks.cpg/sg24_16_cif.got.tgz:30718.got - 2010.06.04 00:33:39.
