data_PCOD9335756
_publ_section_title
;
Structure prediction by ZEFSAII (Michael W. Deem and Ramdas Pophale) SiO2 
 PCOD9335756
Probable space group: I 21 21 21
;
_chemical_formula_sum "Si O2"
_cell_formula_units_Z 40
_cell_length_a 8.309771
_cell_length_b 8.792460
_cell_length_c 20.907897
_cell_angle_alpha 90.000000
_cell_angle_beta 90.000000
_cell_angle_gamma 90.000000
_cell_volume 1527.600560
_symmetry_space_group_name_H-M "I 21 21 21"
_symmetry_group_IT_number 24
_symmetry_cell_setting 'orthorhombic'
loop_
_space_group_symop_operation_xyz
x,y,z
-x,1/2-y,z
x,-y,1/2-z
1/2-x,y,-z
1/2+x,1/2+y,1/2+z
1/2-x,-y,1/2+z
1/2+x,1/2-y,-z
-x,1/2+y,1/2-z
loop_
_atom_site_type_symbol
_atom_site_label
_atom_site_fract_x
_atom_site_fract_y
_atom_site_fract_z
Si Si1 0.263732 0.768292 0.232256
Si Si2 0.359821 0.134767 0.860487
Si Si3 0.843985 0.706277 0.099597
Si Si4 0.093089 0.898547 0.543622
Si Si5 0.478300 0.500000 0.250000
Si Si6 0.500000 0.250000 0.466844
O O1 0.152352 0.845528 0.284405
O O2 0.178090 0.712274 0.167918
O O3 0.355149 0.632760 0.269302
O O4 0.396671 0.894909 0.209860
O O5 0.500000 0.250000 0.881548
O O6 0.179484 0.150737 0.889436
O O7 0.394459 0.962581 0.880921
O O8 0.682521 0.731301 0.063065
O O9 0.000000 0.750000 0.053101
O O10 0.250000 0.923912 0.500000
O O11 0.000000 0.750000 0.521752
O O12 0.988108 0.049611 0.538613
#
# Coordination Sequence:
#
# PCOD9335756 Si02
#       6
#     8   8   8   8   4   4
#     4  11  23  44  68 108 151 198 257 317 406 488
#     4  12  26  47  75 110 158 197 268 326 400 496
#     4  10  22  44  73 100 140 191 252 321 381 465
#     4  12  27  52  78 113 154 207 267 334 400 481
#     4  10  24  40  66 100 160 194 250 314 394 500
#     4  10  26  50  74 110 150 200 272 322 394 468
#
# _framework density 26.184856
#
# number of rings (size 3 to 8) (size 9 to 14) (size 15 to 20)
#    0.600    0.400    4.000    1.200    5.600    0.800 
#    7.200    0.000    0.000    0.000    0.000    0.000 
#    0.000    0.000    0.000    0.000    0.000    0.000 
#
# Total GULP energy -111397.164812 kJ/mol
# GULP energy per Si atom -5569.858241 kJ/mol
# Density = 2.612526 g / cm^3
# Si number density = 26.184856 Si / 1000 Ang^3
#
#
#
# Elastic Constant Matrix: (Units=GPa)
#
#
# Indices 1 2 3 4 5 6 
#
# 1 145.3053 104.2127 68.0859 0.0000 0.0000 0.0000
# 2 104.2127 203.7342 44.4503 0.0000 0.0000 0.0000
# 3 68.0859 44.4503 178.1374 0.0000 0.0000 0.0000
# 4 0.0000 0.0000 0.0000 27.9017 0.0000 0.0000
# 5 0.0000 0.0000 0.0000 0.0000 29.0302 0.0000
# 6 0.0000 0.0000 0.0000 0.0000 0.0000 64.1574
#
#
#
# Elastic Compliance Matrix: (Units=1/GPa)
#
#
# Indices 1 2 3 4 5 6 
#
# 1 0.012533 -0.005675 -0.003374 0.000000 0.000000 0.000000
# 2 -0.005675 0.007760 0.000232 0.000000 0.000000 0.000000
# 3 -0.003374 0.000232 0.006845 0.000000 0.000000 0.000000
# 4 0.000000 0.000000 0.000000 0.035840 0.000000 0.000000
# 5 0.000000 0.000000 0.000000 0.000000 0.034447 0.000000
# 6 0.000000 0.000000 0.000000 0.000000 0.000000 0.015587
#
#
# Mechanical properties :
#
#
# Convention : Reuss Voigt Hill
#
# Bulk Modulus (GPa) = 105.19886 106.74162 105.97024
# Shear Modulus (GPa) = 37.36545 44.91306 41.13925
#
# Velocity S-wave (km/s) = 3.78165 4.14603 3.96802
# Velocity P-wave (km/s) = 7.70263 7.98577 7.84548
#
# Compressibility (1/GPa) = 0.00950581
#
# Stress axis : x y z
#
# Youngs Moduli (GPa) = 79.78979 128.86186 146.08549
#
# Poissons Ratio (x) = 0.73124 0.49293
# Poissons Ratio (y) = 0.45277 -0.03396
# Poissons Ratio (z) = 0.26923 -0.02996
#
# Static dielectric constant tensor:
#      x y z
#    x 2.421170 0.000000 0.000000 
#    y 0.000000 2.096310 0.000000 
#    z 0.000000 0.000000 2.197360 
# 
# From -- ./inp_files/35040.got.cif
#   From: 2010.05.17/outbox.cif.g08.bks.cpg/sg24_18_cif.got.tgz:35040.got - 2010.06.04 00:33:39.
