data_PCOD9335094
_publ_section_title
;
Structure prediction by ZEFSAII (Michael W. Deem and Ramdas Pophale) SiO2 
 PCOD9335094
Probable space group: I 21 21 21
;
_chemical_formula_sum "Si O2"
_cell_formula_units_Z 60
_cell_length_a 10.389563
_cell_length_b 16.777217
_cell_length_c 16.146862
_cell_angle_alpha 90.000000
_cell_angle_beta 90.000000
_cell_angle_gamma 90.000000
_cell_volume 2814.526462
_symmetry_space_group_name_H-M "I 21 21 21"
_symmetry_group_IT_number 24
_symmetry_cell_setting 'orthorhombic'
loop_
_space_group_symop_operation_xyz
x,y,z
-x,1/2-y,z
x,-y,1/2-z
1/2-x,y,-z
1/2+x,1/2+y,1/2+z
1/2-x,-y,1/2+z
1/2+x,1/2-y,-z
-x,1/2+y,1/2-z
loop_
_atom_site_type_symbol
_atom_site_label
_atom_site_fract_x
_atom_site_fract_y
_atom_site_fract_z
Si Si1 0.211288 0.392759 0.183899
Si Si2 0.834635 0.842719 0.854936
Si Si3 0.642232 0.742736 0.569701
Si Si4 0.997562 0.000000 0.250000
Si Si5 0.138008 0.830083 0.850754
Si Si6 0.142161 0.510074 0.565130
Si Si7 0.291998 0.886514 0.702018
Si Si8 0.155346 0.998744 0.573718
O O1 0.244731 0.362207 0.276039
O O2 0.171871 0.319761 0.126115
O O3 0.100859 0.461214 0.184584
O O4 0.334791 0.437356 0.146935
O O5 0.815957 0.753551 0.889729
O O6 0.985977 0.837588 0.832172
O O7 0.826073 0.917968 0.915258
O O8 0.500000 0.750000 0.532173
O O9 0.750000 0.734787 0.500000
O O10 0.645605 0.667765 0.631450
O O11 0.098167 0.072386 0.258933
O O12 0.207079 0.834327 0.762642
O O13 0.169032 0.907924 0.904371
O O14 0.250000 0.538588 0.500000
O O15 0.991465 0.517004 0.545665
O O16 0.201788 0.950377 0.654801
O O17 0.250000 0.976616 0.500000
#
# Coordination Sequence:
#
# PCOD9335094 Si02
#       8
#     8   8   8   4   8   8   8   8
#     4  12  23  42  68  95 129 169 222 269 333 392
#     4  10  21  40  67  95 124 162 215 271 328 391
#     4  12  28  44  64  98 139 176 221 268 333 408
#     4  12  24  38  74  96 128 170 220 286 318 398
#     4  10  21  40  67  95 124 162 215 271 328 391
#     4  11  25  41  64  93 130 171 217 269 328 393
#     4  12  23  42  68  95 129 169 222 269 333 392
#     4  11  25  41  64  93 130 171 217 269 328 393
#
# _framework density 21.317972999999999
#
# number of rings (size 3 to 8) (size 9 to 14) (size 15 to 20)
#    0.000    0.800    5.333    1.600    1.867    6.933 
#    0.000    0.000    0.000    0.000    0.000    0.000 
#    0.000    0.000    0.000    0.000    0.000    0.000 
#
# Total GULP energy -167455.953771 kJ/mol
# GULP energy per Si atom -5581.865126 kJ/mol
# Density = 2.126945 g / cm^3
# Si number density = 21.317973 Si / 1000 Ang^3
#
#
#
# Elastic Constant Matrix: (Units=GPa)
#
#
# Indices 1 2 3 4 5 6 
#
# 1 103.4912 22.7170 32.3769 0.0000 0.0000 0.0000
# 2 22.7170 104.4454 -0.0194 0.0000 0.0000 0.0000
# 3 32.3769 -0.0194 33.3863 0.0000 0.0000 0.0000
# 4 0.0000 0.0000 0.0000 14.6116 0.0000 0.0000
# 5 0.0000 0.0000 0.0000 0.0000 31.3594 0.0000
# 6 0.0000 0.0000 0.0000 0.0000 0.0000 19.6742
#
#
#
# Elastic Compliance Matrix: (Units=1/GPa)
#
#
# Indices 1 2 3 4 5 6 
#
# 1 0.014893 -0.003242 -0.014445 0.000000 0.000000 0.000000
# 2 -0.003242 0.010280 0.003150 0.000000 0.000000 0.000000
# 3 -0.014445 0.003150 0.043963 0.000000 0.000000 0.000000
# 4 0.000000 0.000000 0.000000 0.068439 0.000000 0.000000
# 5 0.000000 0.000000 0.000000 0.000000 0.031888 0.000000
# 6 0.000000 0.000000 0.000000 0.000000 0.000000 0.050828
#
#
# Mechanical properties :
#
#
# Convention : Reuss Voigt Hill
#
# Bulk Modulus (GPa) = 24.96133 39.05244 32.00689
# Shear Modulus (GPa) = 19.03173 25.54559 22.28866
#
# Velocity S-wave (km/s) = 2.99114 3.46542 3.23698
# Velocity P-wave (km/s) = 4.86454 5.86268 5.38677
#
# Compressibility (1/GPa) = 0.04006196
#
# Stress axis : x y z
#
# Youngs Moduli (GPa) = 67.14396 97.27519 22.74665
#
# Poissons Ratio (x) = 0.31537 0.32858
# Poissons Ratio (y) = 0.21768 -0.07165
# Poissons Ratio (z) = 0.96989 -0.30642
#
# Static dielectric constant tensor:
#      x y z
#    x 1.766210 0.000000 0.000000 
#    y 0.000000 1.803260 0.000000 
#    z 0.000000 0.000000 1.755910 
# 
# From -- ./inp_files/29711.got.cif
#   From: 2010.05.17/outbox.cif.g08.bks.cpg/sg24_15_cif.got.tgz:29711.got - 2010.06.04 00:33:39.
