data_PCOD9335203
_publ_section_title
;
Structure prediction by ZEFSAII (Michael W. Deem and Ramdas Pophale) SiO2 
 PCOD9335203
Probable space group: I 21 21 21
;
_chemical_formula_sum "Si O2"
_cell_formula_units_Z 52
_cell_length_a 7.949159
_cell_length_b 12.017102
_cell_length_c 25.519244
_cell_angle_alpha 90.000000
_cell_angle_beta 90.000000
_cell_angle_gamma 90.000000
_cell_volume 2437.747590
_symmetry_space_group_name_H-M "I 21 21 21"
_symmetry_group_IT_number 24
_symmetry_cell_setting 'orthorhombic'
loop_
_space_group_symop_operation_xyz
x,y,z
-x,1/2-y,z
x,-y,1/2-z
1/2-x,y,-z
1/2+x,1/2+y,1/2+z
1/2-x,-y,1/2+z
1/2+x,1/2-y,-z
-x,1/2+y,1/2-z
loop_
_atom_site_type_symbol
_atom_site_label
_atom_site_fract_x
_atom_site_fract_y
_atom_site_fract_z
Si Si1 0.575950 0.530938 0.138980
Si Si2 0.106817 0.579402 0.201934
Si Si3 0.250000 0.524575 0.500000
Si Si4 0.818210 0.702192 0.658321
Si Si5 0.568539 0.373095 0.474371
Si Si6 0.744188 0.687727 0.219553
Si Si7 0.285293 0.577330 0.619157
O O1 0.697062 0.422686 0.137273
O O2 0.589841 0.603674 0.087050
O O3 0.619105 0.610155 0.187121
O O4 0.391056 0.476313 0.139794
O O5 0.163986 0.500000 0.250000
O O6 0.225291 0.688121 0.197147
O O7 0.091440 0.508774 0.148349
O O8 0.924777 0.627069 0.217377
O O9 0.420214 0.453350 0.493923
O O10 0.274376 0.583295 0.556303
O O11 0.812849 0.695973 0.720798
O O12 0.692186 0.798317 0.640379
O O13 0.000000 0.750000 0.640908
O O14 0.500000 0.250000 0.484243
O O15 0.750000 0.390596 0.500000
#
# Coordination Sequence:
#
# PCOD9335203 Si02
#       7
#     8   8   4   8   8   8   8
#     4  10  24  40  63  98 129 165 221 275 325 402
#     4  11  23  39  60  94 135 171 218 265 330 400
#     4  10  24  46  70 102 128 178 234 280 336 402
#     4  10  21  42  68  93 133 173 218 274 336 400
#     4  11  24  43  68  96 135 173 225 283 340 400
#     4  11  24  38  63  93 133 173 214 267 331 401
#     4  10  23  43  70  94 131 174 222 275 333 402
#
# _framework density 21.331167000000001
#
# number of rings (size 3 to 8) (size 9 to 14) (size 15 to 20)
#    0.000    1.538    2.308    1.385    8.615    0.000 
#    1.385    0.000    0.000    0.000    0.000    0.000 
#    0.000    0.000    0.000    0.000    0.000    0.000 
#
# Total GULP energy -145258.232198 kJ/mol
# GULP energy per Si atom -5586.855085 kJ/mol
# Density = 2.128262 g / cm^3
# Si number density = 21.331167 Si / 1000 Ang^3
#
#
#
# Elastic Constant Matrix: (Units=GPa)
#
#
# Indices 1 2 3 4 5 6 
#
# 1 53.8039 20.0755 5.6294 0.0000 0.0000 0.0000
# 2 20.0755 78.1987 31.2765 0.0000 0.0000 0.0000
# 3 5.6294 31.2765 87.6141 0.0000 0.0000 0.0000
# 4 0.0000 0.0000 0.0000 -245.8154 0.0000 0.0000
# 5 0.0000 0.0000 0.0000 0.0000 -27.6384 0.0000
# 6 0.0000 0.0000 0.0000 0.0000 0.0000 10.0626
#
#
#
# Elastic Compliance Matrix: (Units=1/GPa)
#
#
# Indices 1 2 3 4 5 6 
#
# 1 0.020587 -0.005548 0.000658 0.000000 0.000000 0.000000
# 2 -0.005548 0.016413 -0.005503 0.000000 0.000000 0.000000
# 3 0.000658 -0.005503 0.013336 0.000000 0.000000 0.000000
# 4 0.000000 0.000000 0.000000 -0.004068 0.000000 0.000000
# 5 0.000000 0.000000 0.000000 0.000000 -0.036182 0.000000
# 6 0.000000 0.000000 0.000000 0.000000 0.000000 0.099378
#
#
# Mechanical properties :
#
#
# Convention : Reuss Voigt Hill
#
# Bulk Modulus (GPa) = 33.84100 37.06439 35.45269
# Shear Modulus (GPa) = 35.68847 -41.83587 -3.07370
#
# Velocity S-wave (km/s) = 4.09475 -4.43341 -1.20170
# Velocity P-wave (km/s) = 6.18506 2.96537 3.83807
#
# Compressibility (1/GPa) = 0.02954996
#
# Stress axis : x y z
#
# Youngs Moduli (GPa) = 48.57339 60.92651 74.98632
#
# Poissons Ratio (x) = 0.33804 -0.04933
# Poissons Ratio (y) = 0.26950 0.41263
# Poissons Ratio (z) = -0.03196 0.33526
#
# Static dielectric constant tensor:
#      x y z
#    x 1.959740 0.000000 0.000000 
#    y 0.000000 1.790190 0.000000 
#    z 0.000000 0.000000 1.750230 
# 
# From -- ./inp_files/36889.got.cif
#   From: 2010.05.17/outbox.cif.g08.bks.cpg/sg24_19_cif.got.tgz:36889.got - 2010.06.04 00:33:39.
