data_PCOD9335318
_publ_section_title
;
Structure prediction by ZEFSAII (Michael W. Deem and Ramdas Pophale) SiO2 
 PCOD9335318
Probable space group: I 21 21 21
;
_chemical_formula_sum "Si O2"
_cell_formula_units_Z 48
_cell_length_a 17.577367
_cell_length_b 20.445141
_cell_length_c 5.698807
_cell_angle_alpha 90.000000
_cell_angle_beta 90.000000
_cell_angle_gamma 90.000000
_cell_volume 2047.990226
_symmetry_space_group_name_H-M "I 21 21 21"
_symmetry_group_IT_number 24
_symmetry_cell_setting 'orthorhombic'
loop_
_space_group_symop_operation_xyz
x,y,z
-x,1/2-y,z
x,-y,1/2-z
1/2-x,y,-z
1/2+x,1/2+y,1/2+z
1/2-x,-y,1/2+z
1/2+x,1/2-y,-z
-x,1/2+y,1/2-z
loop_
_atom_site_type_symbol
_atom_site_label
_atom_site_fract_x
_atom_site_fract_y
_atom_site_fract_z
Si Si1 0.792391 0.858016 0.760620
Si Si2 0.431226 0.830726 0.616173
Si Si3 0.694255 0.707084 0.287423
Si Si4 0.588168 0.448467 0.564082
Si Si5 0.500000 0.250000 0.528793
Si Si6 0.035304 0.619833 0.742463
Si Si7 0.750000 0.582099 0.000000
O O1 0.750000 0.863725 0.500000
O O2 0.807646 0.780063 0.816894
O O3 0.874984 0.893450 0.745572
O O4 0.750000 0.881768 0.000000
O O5 0.388245 0.809612 0.385102
O O6 0.394004 0.884975 0.777061
O O7 0.434738 0.769838 0.788206
O O8 0.508989 0.862286 0.521469
O O9 0.750000 0.717952 0.500000
O O10 0.723022 0.638291 0.184717
O O11 0.556160 0.500000 0.750000
O O12 0.526414 0.429702 0.364166
O O13 0.675202 0.464790 0.497031
O O14 0.523345 0.186540 0.388958
#
# Coordination Sequence:
#
# PCOD9335318 Si02
#       7
#     8   8   8   8   4   8   4
#     4  11  26  40  67 106 147 182 229 293 371 449
#     4  11  22  39  63  90 129 184 229 283 350 429
#     4  11  21  35  57  94 139 187 223 279 349 429
#     4  11  27  44  67  96 131 185 248 297 348 422
#     4  10  22  34  64  94 132 168 234 274 352 434
#     4  11  24  42  64  95 137 183 232 295 360 435
#     4  12  22  42  60  92 140 182 232 284 340 416
#
# _framework density 23.437612000000001
#
# number of rings (size 3 to 8) (size 9 to 14) (size 15 to 20)
#    0.000    1.000    4.167    2.500   11.667    2.000 
#    0.000    0.000    0.000    0.000    4.333    0.000 
#    0.000    0.000    0.000    0.000    0.000    0.000 
#
# Total GULP energy -133634.258735 kJ/mol
# GULP energy per Si atom -5568.094114 kJ/mol
# Density = 2.338427 g / cm^3
# Si number density = 23.437612 Si / 1000 Ang^3
#
#
#
# Elastic Constant Matrix: (Units=GPa)
#
#
# Indices 1 2 3 4 5 6 
#
# 1 149.9434 -0.1511 47.7508 0.0000 0.0000 0.0000
# 2 -0.1511 43.7204 8.4906 0.0000 0.0000 0.0000
# 3 47.7508 8.4906 91.9620 0.0000 0.0000 0.0000
# 4 0.0000 0.0000 0.0000 18.3305 0.0000 0.0000
# 5 0.0000 0.0000 0.0000 0.0000 37.9442 0.0000
# 6 0.0000 0.0000 0.0000 0.0000 0.0000 5.4641
#
#
#
# Elastic Compliance Matrix: (Units=1/GPa)
#
#
# Indices 1 2 3 4 5 6 
#
# 1 0.008022 0.000852 -0.004244 0.000000 0.000000 0.000000
# 2 0.000852 0.023381 -0.002601 0.000000 0.000000 0.000000
# 3 -0.004244 -0.002601 0.013318 0.000000 0.000000 0.000000
# 4 0.000000 0.000000 0.000000 0.054554 0.000000 0.000000
# 5 0.000000 0.000000 0.000000 0.000000 0.026354 0.000000
# 6 0.000000 0.000000 0.000000 0.000000 0.000000 0.183014
#
#
# Mechanical properties :
#
#
# Convention : Reuss Voigt Hill
#
# Bulk Modulus (GPa) = 30.54917 44.20070 37.37493
# Shear Modulus (GPa) = 15.08114 27.65011 21.36563
#
# Velocity S-wave (km/s) = 2.53940 3.43845 3.02254
# Velocity P-wave (km/s) = 4.65410 5.88759 5.30680
#
# Compressibility (1/GPa) = 0.03273412
#
# Stress axis : x y z
#
# Youngs Moduli (GPa) = 124.66479 42.77037 75.08768
#
# Poissons Ratio (x) = -0.03644 0.31866
# Poissons Ratio (y) = -0.10620 0.19530
# Poissons Ratio (z) = 0.52905 0.11125
#
# Static dielectric constant tensor:
#      x y z
#    x 1.852850 0.000000 0.000000 
#    y 0.000000 1.695160 0.000000 
#    z 0.000000 0.000000 1.965850 
# 
# From -- ./inp_files/4871.got.cif
#   From: 2010.05.17/outbox.cif.g08.bks.cpg/sg24_3_cif.got.tgz:4871.got - 2010.06.04 00:33:39.
