data_PCOD9335875
_publ_section_title
;
Structure prediction by ZEFSAII (Michael W. Deem and Ramdas Pophale) SiO2 
 PCOD9335875
Probable space group: I 21 21 21
;
_chemical_formula_sum "Si O2"
_cell_formula_units_Z 40
_cell_length_a 14.455855
_cell_length_b 9.262402
_cell_length_c 12.978890
_cell_angle_alpha 90.000000
_cell_angle_beta 90.000000
_cell_angle_gamma 90.000000
_cell_volume 1737.820680
_symmetry_space_group_name_H-M "I 21 21 21"
_symmetry_group_IT_number 24
_symmetry_cell_setting 'orthorhombic'
loop_
_space_group_symop_operation_xyz
x,y,z
-x,1/2-y,z
x,-y,1/2-z
1/2-x,y,-z
1/2+x,1/2+y,1/2+z
1/2-x,-y,1/2+z
1/2+x,1/2-y,-z
-x,1/2+y,1/2-z
loop_
_atom_site_type_symbol
_atom_site_label
_atom_site_fract_x
_atom_site_fract_y
_atom_site_fract_z
Si Si1 0.493153 0.587392 0.045415
Si Si2 0.896342 0.319200 0.976365
Si Si3 0.309813 0.444179 0.132114
Si Si4 0.901146 0.665552 0.283311
Si Si5 0.373427 0.590220 0.850794
O O1 0.500000 0.750000 0.083552
O O2 0.460813 0.594332 0.925951
O O3 0.582185 0.484703 0.056585
O O4 0.403492 0.520575 0.097299
O O5 0.000000 0.250000 0.972970
O O6 0.831204 0.220945 0.903669
O O7 0.869515 0.319558 0.097526
O O8 0.302804 0.500000 0.250000
O O9 0.210277 0.504968 0.094799
O O10 0.901608 0.500000 0.250000
O O11 0.845153 0.755125 0.195938
O O12 0.000000 0.750000 0.281177
O O13 0.396597 0.500000 0.750000
#
# Coordination Sequence:
#
# PCOD9335875 Si02
#       5
#     8   8   8   8   8
#     4  11  22  37  64  94 122 159 207 268 326 386
#     4   9  19  37  61  89 122 166 214 258 315 387
#     4  10  23  41  60  83 120 172 219 260 311 378
#     4  11  20  34  62 100 136 166 206 266 339 413
#     4  11  21  37  62  94 128 163 206 264 335 396
#
# _framework density 23.017332
#
# number of rings (size 3 to 8) (size 9 to 14) (size 15 to 20)
#    0.000    1.600    0.000    7.800    0.000    4.000 
#    0.000    4.000    0.000    9.600    0.000    0.000 
#    0.000    0.000    0.000    0.000    0.000    0.000 
#
# Total GULP energy -111582.526233 kJ/mol
# GULP energy per Si atom -5579.126312 kJ/mol
# Density = 2.296494 g / cm^3
# Si number density = 23.017332 Si / 1000 Ang^3
#
#
#
# Elastic Constant Matrix: (Units=GPa)
#
#
# Indices 1 2 3 4 5 6 
#
# 1 88.6424 59.8269 13.1204 0.0000 0.0000 0.0000
# 2 59.8269 221.6105 32.6214 0.0000 0.0000 0.0000
# 3 13.1204 32.6214 62.1045 0.0000 0.0000 0.0000
# 4 0.0000 0.0000 0.0000 30.1146 0.0000 0.0000
# 5 0.0000 0.0000 0.0000 0.0000 2.4733 0.0000
# 6 0.0000 0.0000 0.0000 0.0000 0.0000 35.6139
#
#
#
# Elastic Compliance Matrix: (Units=1/GPa)
#
#
# Indices 1 2 3 4 5 6 
#
# 1 0.013857 -0.003587 -0.001043 0.000000 0.000000 0.000000
# 2 -0.003587 0.005819 -0.002299 0.000000 0.000000 0.000000
# 3 -0.001043 -0.002299 0.017530 0.000000 0.000000 0.000000
# 4 0.000000 0.000000 0.000000 0.033207 0.000000 0.000000
# 5 0.000000 0.000000 0.000000 0.000000 0.404313 0.000000
# 6 0.000000 0.000000 0.000000 0.000000 0.000000 0.028079
#
#
# Mechanical properties :
#
#
# Convention : Reuss Voigt Hill
#
# Bulk Modulus (GPa) = 42.83139 64.83275 53.83207
# Shear Modulus (GPa) = 9.53389 31.42627 20.48008
#
# Velocity S-wave (km/s) = 2.03741 3.69905 2.98613
# Velocity P-wave (km/s) = 4.91767 6.81704 5.94371
#
# Compressibility (1/GPa) = 0.02334736
#
# Stress axis : x y z
#
# Youngs Moduli (GPa) = 72.16650 171.84345 57.04587
#
# Poissons Ratio (x) = 0.61645 0.05951
# Poissons Ratio (y) = 0.25888 0.13114
# Poissons Ratio (z) = 0.07528 0.39503
#
# Static dielectric constant tensor:
#      x y z
#    x 1.899800 0.000000 0.000000 
#    y 0.000000 2.053190 0.000000 
#    z 0.000000 0.000000 1.951210 
# 
# From -- ./inp_files/24507.got.cif
#   From: 2010.05.17/outbox.cif.g08.bks.cpg/sg24_13_cif.got.tgz:24507.got - 2010.06.04 00:33:39.
