data_PCOD9335493
_publ_section_title
;
Structure prediction by ZEFSAII (Michael W. Deem and Ramdas Pophale) SiO2 
 PCOD9335493
Probable space group: I 21 21 21
;
_chemical_formula_sum "Si O2"
_cell_formula_units_Z 48
_cell_length_a 10.198329
_cell_length_b 13.740451
_cell_length_c 17.887011
_cell_angle_alpha 90.000000
_cell_angle_beta 90.000000
_cell_angle_gamma 90.000000
_cell_volume 2506.500410
_symmetry_space_group_name_H-M "I 21 21 21"
_symmetry_group_IT_number 24
_symmetry_cell_setting 'orthorhombic'
loop_
_space_group_symop_operation_xyz
x,y,z
-x,1/2-y,z
x,-y,1/2-z
1/2-x,y,-z
1/2+x,1/2+y,1/2+z
1/2-x,-y,1/2+z
1/2+x,1/2-y,-z
-x,1/2+y,1/2-z
loop_
_atom_site_type_symbol
_atom_site_label
_atom_site_fract_x
_atom_site_fract_y
_atom_site_fract_z
Si Si1 0.182915 0.511415 0.577314
Si Si2 0.167646 0.000000 0.750000
Si Si3 0.208727 0.606447 0.284893
Si Si4 0.500000 0.250000 0.794398
Si Si5 0.947825 0.854842 0.812109
Si Si6 0.297915 0.118003 0.879767
Si Si7 0.948569 0.356303 0.978703
O O1 0.250000 0.480534 0.500000
O O2 0.278982 0.580014 0.627372
O O3 0.125893 0.421059 0.625599
O O4 0.061420 0.579963 0.557122
O O5 0.255464 0.960347 0.681845
O O6 0.070194 0.916246 0.780205
O O7 0.207657 0.500000 0.250000
O O8 0.340713 0.657179 0.254285
O O9 0.080714 0.663336 0.256787
O O10 0.382894 0.200471 0.840095
O O11 0.000000 0.750000 0.837791
O O12 0.166227 0.157735 0.918103
O O13 0.387509 0.087525 0.950098
O O14 0.000000 0.250000 0.001300
#
# Coordination Sequence:
#
# PCOD9335493 Si02
#       7
#     8   4   8   4   8   8   8
#     4  11  22  41  66  93 132 175 215 278 337 401
#     4  12  22  46  66  98 132 174 226 280 328 404
#     4  10  22  40  64  93 125 171 219 266 334 392
#     4  12  22  38  56  96 138 168 202 272 328 404
#     4  11  22  45  71  94 124 175 235 274 324 402
#     4  11  24  36  62  96 133 174 212 265 342 397
#     4  11  22  39  62  99 134 169 216 277 346 408
#
# _framework density 19.150207000000002
#
# number of rings (size 3 to 8) (size 9 to 14) (size 15 to 20)
#    0.000    1.000    5.000    3.000    3.500    1.333 
#    0.000    1.667    7.333    0.000    0.000    0.000 
#    0.000    0.000    0.000    0.000    0.000    0.000 
#
# Total GULP energy -133910.329210 kJ/mol
# GULP energy per Si atom -5579.597050 kJ/mol
# Density = 1.910662 g / cm^3
# Si number density = 19.150207 Si / 1000 Ang^3
#
#
#
# Elastic Constant Matrix: (Units=GPa)
#
#
# Indices 1 2 3 4 5 6 
#
# 1 85.6547 41.4243 35.5174 0.0000 0.0000 0.0000
# 2 41.4243 85.1839 25.1538 0.0000 0.0000 0.0000
# 3 35.5174 25.1538 91.8999 0.0000 0.0000 0.0000
# 4 0.0000 0.0000 0.0000 -0.6111 0.0000 0.0000
# 5 0.0000 0.0000 0.0000 0.0000 27.4008 0.0000
# 6 0.0000 0.0000 0.0000 0.0000 0.0000 43.3103
#
#
#
# Elastic Compliance Matrix: (Units=1/GPa)
#
#
# Indices 1 2 3 4 5 6 
#
# 1 0.016923 -0.006852 -0.004665 0.000000 0.000000 0.000000
# 2 -0.006852 0.015546 -0.001607 0.000000 0.000000 0.000000
# 3 -0.004665 -0.001607 0.013124 0.000000 0.000000 0.000000
# 4 0.000000 0.000000 0.000000 -1.636394 0.000000 0.000000
# 5 0.000000 0.000000 0.000000 0.000000 0.036495 0.000000
# 6 0.000000 0.000000 0.000000 0.000000 0.000000 0.023089
#
#
# Mechanical properties :
#
#
# Convention : Reuss Voigt Hill
#
# Bulk Modulus (GPa) = 51.69209 51.88107 51.78658
# Shear Modulus (GPa) = -3.33662 24.72953 10.69645
#
# Velocity S-wave (km/s) = -1.32141 3.59743 2.36594
# Velocity P-wave (km/s) = 4.97226 6.66377 5.87917
#
# Compressibility (1/GPa) = 0.01934532
#
# Stress axis : x y z
#
# Youngs Moduli (GPa) = 59.09162 64.32576 76.19567
#
# Poissons Ratio (x) = 0.44076 0.35544
# Poissons Ratio (y) = 0.40490 0.12244
# Poissons Ratio (z) = 0.27566 0.10336
#
# Static dielectric constant tensor:
#      x y z
#    x 1.709710 0.000000 0.000000 
#    y 0.000000 1.735800 0.000000 
#    z 0.000000 0.000000 1.712270 
# 
# From -- ./inp_files/27080.got.cif
#   From: 2010.05.17/outbox.cif.g08.bks.cpg/sg24_14_cif.got.tgz:27080.got - 2010.06.04 00:33:39.
