data_PCOD9335505
_publ_section_title
;
Structure prediction by ZEFSAII (Michael W. Deem and Ramdas Pophale) SiO2 
 PCOD9335505
Probable space group: I 21 21 21
;
_chemical_formula_sum "Si O2"
_cell_formula_units_Z 60
_cell_length_a 12.066482
_cell_length_b 21.872717
_cell_length_c 11.620760
_cell_angle_alpha 90.000000
_cell_angle_beta 90.000000
_cell_angle_gamma 90.000000
_cell_volume 3067.029373
_symmetry_space_group_name_H-M "I 21 21 21"
_symmetry_group_IT_number 24
_symmetry_cell_setting 'orthorhombic'
loop_
_space_group_symop_operation_xyz
x,y,z
-x,1/2-y,z
x,-y,1/2-z
1/2-x,y,-z
1/2+x,1/2+y,1/2+z
1/2-x,-y,1/2+z
1/2+x,1/2-y,-z
-x,1/2+y,1/2-z
loop_
_atom_site_type_symbol
_atom_site_label
_atom_site_fract_x
_atom_site_fract_y
_atom_site_fract_z
Si Si1 0.154720 0.212585 0.820869
Si Si2 0.418295 0.340653 0.150635
Si Si3 0.999744 0.845115 0.185980
Si Si4 0.830276 0.059390 0.676798
Si Si5 0.085552 0.459202 0.421311
Si Si6 0.010399 0.092687 0.071383
Si Si7 0.250000 0.881102 0.500000
Si Si8 0.686596 0.751316 0.879957
O O1 0.138852 0.277151 0.885882
O O2 0.221306 0.163625 0.894525
O O3 0.218395 0.232667 0.708320
O O4 0.035722 0.182031 0.797580
O O5 0.355317 0.381393 0.245094
O O6 0.445469 0.379261 0.037272
O O7 0.001241 0.910989 0.127227
O O8 0.008101 0.859657 0.322145
O O9 0.884182 0.810922 0.156321
O O10 0.095802 0.802748 0.133288
O O11 0.894080 0.055852 0.555557
O O12 0.701420 0.052516 0.643931
O O13 0.863559 0.000000 0.750000
O O14 0.046467 0.528291 0.400987
O O15 0.138215 0.083365 0.032750
O O16 0.750000 0.759639 0.000000
#
# Coordination Sequence:
#
# PCOD9335505 Si02
#       8
#     8   8   8   8   8   8   4   8
#     4  10  22  40  65  98 129 164 213 278 326 403
#     4  10  23  38  70  96 132 165 214 278 338 396
#     4  11  25  43  68  92 132 178 223 275 337 404
#     4  11  22  43  62  97 130 172 217 272 335 399
#     4  11  25  41  67  94 134 175 218 273 331 406
#     4  11  22  46  67 100 133 171 222 282 336 409
#     4  10  22  42  70  98 132 168 218 272 348 392
#     4  11  26  43  63  95 132 177 222 276 332 404
#
# _framework density 19.562904
#
# number of rings (size 3 to 8) (size 9 to 14) (size 15 to 20)
#    0.000    1.333    2.667    2.000    7.467    2.133 
#    1.200    0.000    2.933    0.000    0.000    0.000 
#    0.000    0.000    0.000    0.000    0.000    0.000 
#
# Total GULP energy -167548.620910 kJ/mol
# GULP energy per Si atom -5584.954030 kJ/mol
# Density = 1.951838 g / cm^3
# Si number density = 19.562904 Si / 1000 Ang^3
#
#
#
# Elastic Constant Matrix: (Units=GPa)
#
#
# Indices 1 2 3 4 5 6 
#
# 1 71.0966 49.3198 49.0105 0.0000 0.0000 0.0000
# 2 49.3198 102.9445 26.8181 0.0002 0.0000 -0.0001
# 3 49.0105 26.8181 97.0447 0.0002 -0.0001 0.0000
# 4 0.0000 0.0002 0.0002 23.2950 0.0000 -0.0001
# 5 0.0000 0.0000 -0.0001 0.0000 25.3886 0.0000
# 6 0.0000 -0.0001 0.0000 -0.0001 0.0000 28.1938
#
#
#
# Elastic Compliance Matrix: (Units=1/GPa)
#
#
# Indices 1 2 3 4 5 6 
#
# 1 0.030352 -0.011366 -0.012187 0.000000 0.000000 0.000000
# 2 -0.011366 0.014724 0.001671 0.000000 0.000000 0.000000
# 3 -0.012187 0.001671 0.015998 0.000000 0.000000 0.000000
# 4 0.000000 0.000000 0.000000 0.042928 0.000000 0.000000
# 5 0.000000 0.000000 0.000000 0.000000 0.039388 0.000000
# 6 0.000000 0.000000 0.000000 0.000000 0.000000 0.035469
#
#
# Mechanical properties :
#
#
# Convention : Reuss Voigt Hill
#
# Bulk Modulus (GPa) = 57.77461 57.93140 57.85300
# Shear Modulus (GPa) = 21.89223 25.10465 23.49844
#
# Velocity S-wave (km/s) = 3.34888 3.58617 3.46955
# Velocity P-wave (km/s) = 6.67459 6.84286 6.75925
#
# Compressibility (1/GPa) = 0.01730864
#
# Stress axis : x y z
#
# Youngs Moduli (GPa) = 32.94726 67.91622 62.50909
#
# Poissons Ratio (x) = 0.77195 0.76182
# Poissons Ratio (y) = 0.37449 -0.10447
# Poissons Ratio (z) = 0.40154 -0.11351
#
# Static dielectric constant tensor:
#      x y z
#    x 1.707290 0.000000 0.000000 
#    y 0.000000 1.698070 0.000000 
#    z 0.000000 0.000000 1.668740 
# 
# From -- ./inp_files/20006.got.cif
#   From: 2010.05.17/outbox.cif.g08.bks.cpg/sg24_11_cif.got.tgz:20006.got - 2010.06.04 00:33:39.
