data_PCOD9335435
_publ_section_title
;
Structure prediction by ZEFSAII (Michael W. Deem and Ramdas Pophale) SiO2 
 PCOD9335435
Probable space group: I 21 21 21
;
_chemical_formula_sum "Si O2"
_cell_formula_units_Z 36
_cell_length_a 9.253634
_cell_length_b 7.696397
_cell_length_c 23.956677
_cell_angle_alpha 90.000000
_cell_angle_beta 90.000000
_cell_angle_gamma 90.000000
_cell_volume 1706.185934
_symmetry_space_group_name_H-M "I 21 21 21"
_symmetry_group_IT_number 24
_symmetry_cell_setting 'orthorhombic'
loop_
_space_group_symop_operation_xyz
x,y,z
-x,1/2-y,z
x,-y,1/2-z
1/2-x,y,-z
1/2+x,1/2+y,1/2+z
1/2-x,-y,1/2+z
1/2+x,1/2-y,-z
-x,1/2+y,1/2-z
loop_
_atom_site_type_symbol
_atom_site_label
_atom_site_fract_x
_atom_site_fract_y
_atom_site_fract_z
Si Si1 0.000000 0.750000 0.538714
Si Si2 0.662067 0.302334 0.765779
Si Si3 0.902456 0.077029 0.468014
Si Si4 0.753917 0.157297 0.881026
Si Si5 0.407087 0.403334 0.300820
O O1 0.852224 0.740680 0.574733
O O2 0.016653 0.573404 0.503321
O O3 0.500000 0.250000 0.751406
O O4 0.684703 0.500000 0.750000
O O5 0.685570 0.271332 0.831883
O O6 0.769597 0.181223 0.730203
O O7 0.750000 0.117775 0.500000
O O8 0.000000 0.250000 0.460901
O O9 0.856218 0.973524 0.411757
O O10 0.866059 0.036502 0.847832
O O11 0.500000 0.250000 0.325358
O O12 0.488190 0.500000 0.250000
#
# Coordination Sequence:
#
# PCOD9335435 Si02
#       5
#     4   8   8   8   8
#     4  10  24  46  66 100 140 172 236 290 340 414
#     4  11  24  42  64  98 140 178 219 274 337 412
#     4  10  24  48  71  99 138 181 232 294 353 412
#     4  10  24  42  69  99 137 177 227 281 348 407
#     4  10  22  39  64  96 134 171 222 272 331 408
#
# _framework density 21.099694
#
# number of rings (size 3 to 8) (size 9 to 14) (size 15 to 20)
#    0.000    1.778    0.000    2.667   10.889    8.889 
#    0.000    0.000    0.000    0.000    0.000    0.000 
#    0.000    0.000    0.000    0.000    0.000    0.000 
#
# Total GULP energy -100578.511879 kJ/mol
# GULP energy per Si atom -5587.695104 kJ/mol
# Density = 2.105167 g / cm^3
# Si number density = 21.099694 Si / 1000 Ang^3
#
#
#
# Elastic Constant Matrix: (Units=GPa)
#
#
# Indices 1 2 3 4 5 6 
#
# 1 90.3671 52.1527 22.6017 0.0000 0.0000 0.0000
# 2 52.1527 136.6739 42.6809 0.0000 0.0000 0.0000
# 3 22.6017 42.6809 88.6186 0.0000 0.0000 0.0000
# 4 0.0000 0.0000 0.0000 20.9404 0.0000 0.0000
# 5 0.0000 0.0000 0.0000 0.0000 -0.6560 0.0000
# 6 0.0000 0.0000 0.0000 0.0000 0.0000 36.6780
#
#
#
# Elastic Compliance Matrix: (Units=1/GPa)
#
#
# Indices 1 2 3 4 5 6 
#
# 1 0.014299 -0.005082 -0.001199 0.000000 0.000000 0.000000
# 2 -0.005082 0.010418 -0.003721 0.000000 0.000000 0.000000
# 3 -0.001199 -0.003721 0.013383 0.000000 0.000000 0.000000
# 4 0.000000 0.000000 0.000000 0.047755 0.000000 0.000000
# 5 0.000000 0.000000 0.000000 0.000000 -1.524474 0.000000
# 6 0.000000 0.000000 0.000000 0.000000 0.000000 0.027264
#
#
# Mechanical properties :
#
#
# Convention : Reuss Voigt Hill
#
# Bulk Modulus (GPa) = 55.26634 61.17003 58.21819
# Shear Modulus (GPa) = -3.60927 24.60742 10.49907
#
# Velocity S-wave (km/s) = -1.30931 3.41874 2.23310
# Velocity P-wave (km/s) = 4.89531 6.68114 5.85669
#
# Compressibility (1/GPa) = 0.01809420
#
# Stress axis : x y z
#
# Youngs Moduli (GPa) = 69.93666 95.98851 74.72405
#
# Poissons Ratio (x) = 0.48778 0.08962
# Poissons Ratio (y) = 0.35539 0.27808
# Poissons Ratio (z) = 0.08388 0.35722
#
# Static dielectric constant tensor:
#      x y z
#    x 1.781050 0.000000 0.000000 
#    y 0.000000 1.781750 0.000000 
#    z 0.000000 0.000000 1.766370 
# 
# From -- ./inp_files/9058.got.cif
#   From: 2010.05.17/outbox.cif.g08.bks.cpg/sg24_5_cif.got.tgz:9058.got - 2010.06.04 00:33:39.
