data_PCOD9335632
_publ_section_title
;
Structure prediction by ZEFSAII (Michael W. Deem and Ramdas Pophale) SiO2 
 PCOD9335632
Probable space group: I 21 21 21
;
_chemical_formula_sum "Si O2"
_cell_formula_units_Z 28
_cell_length_a 8.049154
_cell_length_b 4.189595
_cell_length_c 27.538851
_cell_angle_alpha 90.000000
_cell_angle_beta 90.000000
_cell_angle_gamma 90.000000
_cell_volume 928.684283
_symmetry_space_group_name_H-M "I 21 21 21"
_symmetry_group_IT_number 24
_symmetry_cell_setting 'orthorhombic'
loop_
_space_group_symop_operation_xyz
x,y,z
-x,1/2-y,z
x,-y,1/2-z
1/2-x,y,-z
1/2+x,1/2+y,1/2+z
1/2-x,-y,1/2+z
1/2+x,1/2-y,-z
-x,1/2+y,1/2-z
loop_
_atom_site_type_symbol
_atom_site_label
_atom_site_fract_x
_atom_site_fract_y
_atom_site_fract_z
Si Si1 0.000000 0.250000 0.213112
Si Si2 0.500000 0.750000 0.562560
Si Si3 0.000000 0.250000 0.786970
Si Si4 0.500000 0.750000 0.076040
Si Si5 0.750000 0.810100 0.000000
Si Si6 0.744883 0.210083 0.137948
O O1 0.917892 0.500000 0.250000
O O2 0.126322 0.432100 0.176972
O O3 0.381915 0.521063 0.530831
O O4 0.365409 0.893963 0.600676
O O5 0.078215 0.500000 0.750000
O O6 0.869422 0.404356 0.824346
O O7 0.382034 0.514354 0.107373
O O8 0.635256 0.613000 0.037449
#
# Coordination Sequence:
#
# PCOD9335632 Si02
#       6
#     4   4   4   4   4   8
#     4  11  24  46  75 107 150 197 247 304 368 441
#     4   9  22  43  68 100 142 192 244 307 366 441
#     4  12  25  43  70 103 144 191 242 301 367 438
#     4  10  23  42  69 104 144 194 243 304 369 444
#     4  10  22  42  68 102 144 192 246 302 374 442
#     4  10  23  44  69 105 146 190 245 304 369 438
#
# _framework density 30.150181
#
# number of rings (size 3 to 8) (size 9 to 14) (size 15 to 20)
#    0.000    1.714    0.000    2.571    0.000   10.286 
#    0.000   12.857    0.000    0.000    0.000    0.000 
#    0.000    0.000    0.000    0.000    0.000    0.000 
#
# Total GULP energy -78095.691564 kJ/mol
# GULP energy per Si atom -5578.263683 kJ/mol
# Density = 3.008156 g / cm^3
# Si number density = 30.150181 Si / 1000 Ang^3
#
#
#
# Elastic Constant Matrix: (Units=GPa)
#
#
# Indices 1 2 3 4 5 6 
#
# 1 220.3116 65.5069 153.5998 0.0000 0.0000 0.0000
# 2 65.5069 68.7857 73.4758 0.0000 0.0000 0.0000
# 3 153.5998 73.4758 217.7174 0.0000 0.0000 0.0000
# 4 0.0000 0.0000 0.0000 11.8545 0.0000 0.0000
# 5 0.0000 0.0000 0.0000 0.0000 145.5907 0.0000
# 6 0.0000 0.0000 0.0000 0.0000 0.0000 70.2744
#
#
#
# Elastic Compliance Matrix: (Units=1/GPa)
#
#
# Indices 1 2 3 4 5 6 
#
# 1 0.009285 -0.002885 -0.005577 0.000000 0.000000 0.000000
# 2 -0.002885 0.023630 -0.005939 0.000000 0.000000 0.000000
# 3 -0.005577 -0.005939 0.010532 0.000000 0.000000 0.000000
# 4 0.000000 0.000000 0.000000 0.084356 0.000000 0.000000
# 5 0.000000 0.000000 0.000000 0.000000 0.006869 0.000000
# 6 0.000000 0.000000 0.000000 0.000000 0.000000 0.014230
#
#
# Mechanical properties :
#
#
# Convention : Reuss Voigt Hill
#
# Bulk Modulus (GPa) = 68.28636 121.33108 94.80872
# Shear Modulus (GPa) = 27.38447 59.82606 43.60527
#
# Velocity S-wave (km/s) = 3.01702 4.45935 3.80711
# Velocity P-wave (km/s) = 5.90207 8.17582 7.13016
#
# Compressibility (1/GPa) = 0.01464421
#
# Stress axis : x y z
#
# Youngs Moduli (GPa) = 107.69893 42.31976 94.94948
#
# Poissons Ratio (x) = 0.12211 0.52953
# Poissons Ratio (y) = 0.31075 0.56390
# Poissons Ratio (z) = 0.60063 0.25133
#
# Static dielectric constant tensor:
#      x y z
#    x 2.395900 0.000000 0.000000 
#    y 0.000000 2.375200 0.000000 
#    z 0.000000 0.000000 2.239470 
# 
# From -- ./inp_files/36687.got.cif
#   From: 2010.05.17/outbox.cif.g08.bks.cpg/sg24_19_cif.got.tgz:36687.got - 2010.06.04 00:33:39.
