data_PCOD9335955
_publ_section_title
;
Structure prediction by ZEFSAII (Michael W. Deem and Ramdas Pophale) SiO2 
 PCOD9335955
Probable space group: I 21 21 21
;
_chemical_formula_sum "Si O2"
_cell_formula_units_Z 56
_cell_length_a 22.293843
_cell_length_b 7.539157
_cell_length_c 15.593547
_cell_angle_alpha 90.000000
_cell_angle_beta 90.000000
_cell_angle_gamma 90.000000
_cell_volume 2620.913208
_symmetry_space_group_name_H-M "I 21 21 21"
_symmetry_group_IT_number 24
_symmetry_cell_setting 'orthorhombic'
loop_
_space_group_symop_operation_xyz
x,y,z
-x,1/2-y,z
x,-y,1/2-z
1/2-x,y,-z
1/2+x,1/2+y,1/2+z
1/2-x,-y,1/2+z
1/2+x,1/2-y,-z
-x,1/2+y,1/2-z
loop_
_atom_site_type_symbol
_atom_site_label
_atom_site_fract_x
_atom_site_fract_y
_atom_site_fract_z
Si Si1 0.520606 0.043508 0.019757
Si Si2 0.159293 0.110223 0.163676
Si Si3 0.732171 0.200795 0.234307
Si Si4 0.206150 0.723084 0.921337
Si Si5 0.445257 0.610512 0.663551
Si Si6 0.635601 0.128896 0.107620
Si Si7 0.614262 0.494769 0.483929
O O1 0.500000 0.250000 0.018097
O O2 0.570693 0.035899 0.094080
O O3 0.456240 0.951371 0.024775
O O4 0.549568 0.005544 0.926525
O O5 0.226510 0.188751 0.169776
O O6 0.115807 0.279855 0.162782
O O7 0.148457 0.000000 0.250000
O O8 0.138635 0.999212 0.081214
O O9 0.734519 0.275147 0.330161
O O10 0.664048 0.186682 0.198822
O O11 0.754830 0.000000 0.250000
O O12 0.183901 0.518790 0.921451
O O13 0.149768 0.848548 0.932720
O O14 0.250000 0.751804 0.000000
O O15 0.500000 0.750000 0.664334
O O16 0.449219 0.500000 0.750000
O O17 0.629715 0.308478 0.052324
#
# Coordination Sequence:
#
# PCOD9335955 Si02
#       7
#     8   8   8   8   8   8   8
#     4   9  19  42  63  94 123 176 229 268 336 410
#     4  12  24  39  62  97 135 175 220 270 343 403
#     4  10  25  44  66  97 135 171 223 277 330 403
#     4  11  26  43  65 105 134 167 230 274 326 414
#     4  11  21  38  58  88 133 175 225 274 332 402
#     4  10  23  43  73  88 134 178 216 271 341 389
#     4  11  24  42  69  94 135 175 219 280 334 398
#
# _framework density 21.366598
#
# number of rings (size 3 to 8) (size 9 to 14) (size 15 to 20)
#    0.000    1.429    4.286    1.714    8.000    2.857 
#    0.000    0.000   28.286    0.000    0.000    0.000 
#    0.000    0.000    0.000    0.000    0.000    0.000 
#
# Total GULP energy -156286.005203 kJ/mol
# GULP energy per Si atom -5581.643043 kJ/mol
# Density = 2.131797 g / cm^3
# Si number density = 21.366598 Si / 1000 Ang^3
#
#
#
# Elastic Constant Matrix: (Units=GPa)
#
#
# Indices 1 2 3 4 5 6 
#
# 1 111.0109 10.2025 44.7496 0.0000 0.0000 0.0000
# 2 10.2025 40.8266 -1.0226 0.0000 0.0000 0.0000
# 3 44.7496 -1.0226 69.3469 0.0000 0.0000 0.0000
# 4 0.0000 0.0000 0.0000 23.5045 0.0000 0.0000
# 5 0.0000 0.0000 0.0000 0.0000 74.4665 0.0000
# 6 0.0000 0.0000 0.0000 0.0000 0.0000 23.4633
#
#
#
# Elastic Compliance Matrix: (Units=1/GPa)
#
#
# Indices 1 2 3 4 5 6 
#
# 1 0.012619 -0.003359 -0.008193 0.000000 0.000000 0.000000
# 2 -0.003359 0.025397 0.002542 0.000000 0.000000 0.000000
# 3 -0.008193 0.002542 0.019745 0.000000 0.000000 0.000000
# 4 0.000000 0.000000 0.000000 0.042545 0.000000 0.000000
# 5 0.000000 0.000000 0.000000 0.000000 0.013429 0.000000
# 6 0.000000 0.000000 0.000000 0.000000 0.000000 0.042620
#
#
# Mechanical properties :
#
#
# Convention : Reuss Voigt Hill
#
# Bulk Modulus (GPa) = 25.16263 36.56036 30.86149
# Shear Modulus (GPa) = 26.64946 35.43720 31.04333
#
# Velocity S-wave (km/s) = 3.53547 4.07693 3.81582
# Velocity P-wave (km/s) = 5.33557 6.26976 5.82143
#
# Compressibility (1/GPa) = 0.03974148
#
# Stress axis : x y z
#
# Youngs Moduli (GPa) = 79.24286 39.37492 50.64677
#
# Poissons Ratio (x) = 0.13225 0.41494
# Poissons Ratio (y) = 0.26616 -0.12874
# Poissons Ratio (z) = 0.64923 -0.10009
#
# Static dielectric constant tensor:
#      x y z
#    x 1.802710 0.000000 0.000000 
#    y 0.000000 1.227180 0.000000 
#    z 0.000000 0.000000 1.783120 
# 
# From -- ./inp_files/27536.got.cif
#   From: 2010.05.17/outbox.cif.g08.bks.cpg/sg24_14_cif.got.tgz:27536.got - 2010.06.04 00:33:39.
