data_PCOD9335420
_publ_section_title
;
Structure prediction by ZEFSAII (Michael W. Deem and Ramdas Pophale) SiO2 
 PCOD9335420
Probable space group: I 21 21 21
;
_chemical_formula_sum "Si O2"
_cell_formula_units_Z 32
_cell_length_a 19.268613
_cell_length_b 15.234842
_cell_length_c 5.147074
_cell_angle_alpha 90.000000
_cell_angle_beta 90.000000
_cell_angle_gamma 90.000000
_cell_volume 1510.945574
_symmetry_space_group_name_H-M "I 21 21 21"
_symmetry_group_IT_number 24
_symmetry_cell_setting 'orthorhombic'
loop_
_space_group_symop_operation_xyz
x,y,z
-x,1/2-y,z
x,-y,1/2-z
1/2-x,y,-z
1/2+x,1/2+y,1/2+z
1/2-x,-y,1/2+z
1/2+x,1/2-y,-z
-x,1/2+y,1/2-z
loop_
_atom_site_type_symbol
_atom_site_label
_atom_site_fract_x
_atom_site_fract_y
_atom_site_fract_z
Si Si1 0.437936 0.678917 0.189975
Si Si2 0.985945 0.500000 0.750000
Si Si3 0.634444 0.759252 0.682072
Si Si4 0.632262 0.421938 0.601258
Si Si5 0.250000 0.192429 0.500000
O O1 0.500000 0.750000 0.203267
O O2 0.466484 0.585245 0.280756
O O3 0.380186 0.707862 0.396950
O O4 0.406736 0.684526 0.899786
O O5 0.932816 0.468079 0.528486
O O6 0.608183 0.658157 0.714875
O O7 0.713520 0.749593 0.779298
O O8 0.670739 0.500000 0.750000
O O9 0.686657 0.371532 0.414597
#
# Coordination Sequence:
#
# PCOD9335420 Si02
#       5
#     8   4   8   8   4
#     4  12  23  43  64  94 141 176 227 269 340 410
#     4  12  26  38  68 100 138 176 228 284 342 412
#     4  10  24  42  65  93 133 181 213 281 326 411
#     4  10  22  39  61 102 134 179 215 286 345 415
#     4   8  22  40  64 100 132 174 226 270 344 410
#
# _framework density 21.178789999999999
#
# number of rings (size 3 to 8) (size 9 to 14) (size 15 to 20)
#    1.500    0.000    2.500    2.250    5.250    1.000 
#    4.500    0.000    0.000    3.000    0.000    0.000 
#    0.000    0.000    0.000    0.000    0.000    0.000 
#
# Total GULP energy -89197.880239 kJ/mol
# GULP energy per Si atom -5574.867515 kJ/mol
# Density = 2.113059 g / cm^3
# Si number density = 21.178790 Si / 1000 Ang^3
#
#
#
# Elastic Constant Matrix: (Units=GPa)
#
#
# Indices 1 2 3 4 5 6 
#
# 1 84.0290 33.7255 17.5278 0.0000 0.0000 0.0000
# 2 33.7255 108.3280 -2.4395 0.0000 0.0000 0.0000
# 3 17.5278 -2.4395 54.6431 0.0000 0.0000 0.0000
# 4 0.0000 0.0000 0.0000 17.4745 0.0000 0.0000
# 5 0.0000 0.0000 0.0000 0.0000 6.9429 0.0000
# 6 0.0000 0.0000 0.0000 0.0000 0.0000 186.5908
#
#
#
# Elastic Compliance Matrix: (Units=1/GPa)
#
#
# Indices 1 2 3 4 5 6 
#
# 1 0.014836 -0.004731 -0.004970 0.000000 0.000000 0.000000
# 2 -0.004731 0.010749 0.001997 0.000000 0.000000 0.000000
# 3 -0.004970 0.001997 0.019984 0.000000 0.000000 0.000000
# 4 0.000000 0.000000 0.000000 0.057226 0.000000 0.000000
# 5 0.000000 0.000000 0.000000 0.000000 0.144032 0.000000
# 6 0.000000 0.000000 0.000000 0.000000 0.000000 0.005359
#
#
# Mechanical properties :
#
#
# Convention : Reuss Voigt Hill
#
# Bulk Modulus (GPa) = 33.15436 38.29198 35.72317
# Shear Modulus (GPa) = 18.00842 55.41406 36.71124
#
# Velocity S-wave (km/s) = 2.91916 5.12071 4.16792
# Velocity P-wave (km/s) = 5.20101 7.28573 6.32978
#
# Compressibility (1/GPa) = 0.03016195
#
# Stress axis : x y z
#
# Youngs Moduli (GPa) = 67.40301 93.03158 50.04003
#
# Poissons Ratio (x) = 0.44012 0.24871
# Poissons Ratio (y) = 0.31887 -0.09995
# Poissons Ratio (z) = 0.33500 -0.18582
#
# Static dielectric constant tensor:
#      x y z
#    x 1.808390 0.000000 0.000000 
#    y 0.000000 1.796100 0.000000 
#    z 0.000000 0.000000 1.766490 
# 
# From -- ./inp_files/6252.got.cif
#   From: 2010.05.17/outbox.cif.g08.bks.cpg/sg24_4_cif.got.tgz:6252.got - 2010.06.04 00:33:39.
