data_PCOD9335513
_publ_section_title
;
Structure prediction by ZEFSAII (Michael W. Deem and Ramdas Pophale) SiO2 
 PCOD9335513
Probable space group: I 21 21 21
;
_chemical_formula_sum "Si O2"
_cell_formula_units_Z 60
_cell_length_a 9.309694
_cell_length_b 29.062899
_cell_length_c 10.938875
_cell_angle_alpha 90.000000
_cell_angle_beta 90.000000
_cell_angle_gamma 90.000000
_cell_volume 2959.695272
_symmetry_space_group_name_H-M "I 21 21 21"
_symmetry_group_IT_number 24
_symmetry_cell_setting 'orthorhombic'
loop_
_space_group_symop_operation_xyz
x,y,z
-x,1/2-y,z
x,-y,1/2-z
1/2-x,y,-z
1/2+x,1/2+y,1/2+z
1/2-x,-y,1/2+z
1/2+x,1/2-y,-z
-x,1/2+y,1/2-z
loop_
_atom_site_type_symbol
_atom_site_label
_atom_site_fract_x
_atom_site_fract_y
_atom_site_fract_z
Si Si1 0.616172 0.018773 0.934542
Si Si2 0.471333 0.902294 0.728417
Si Si3 0.335665 0.500000 0.250000
Si Si4 0.551614 0.903710 0.249376
Si Si5 0.924517 0.565163 0.001373
Si Si6 0.203600 0.144141 0.860042
Si Si7 0.786352 0.156900 0.146040
Si Si8 0.827152 0.254456 0.868407
O O1 0.531158 0.054624 0.849939
O O2 0.502283 0.985212 0.999368
O O3 0.750000 0.045508 0.000000
O O4 0.776221 0.986042 0.144190
O O5 0.478125 0.911998 0.872323
O O6 0.305075 0.892488 0.704436
O O7 0.550481 0.857104 0.673965
O O8 0.429758 0.543291 0.284896
O O9 0.454422 0.875549 0.343033
O O10 0.703617 0.879512 0.268037
O O11 0.482309 0.906123 0.114956
O O12 0.750000 0.561380 0.000000
O O13 0.206380 0.196147 0.808511
O O14 0.250000 0.145536 0.000000
O O15 0.737786 0.207815 0.186938
O O16 0.750000 0.153301 0.000000
O O17 0.000000 0.250000 0.880825
O O18 0.750000 0.256425 0.000000
#
# Coordination Sequence:
#
# PCOD9335513 Si02
#       8
#     8   8   4   8   8   8   8   8
#     4  12  24  43  66  91 129 175 230 280 325 388
#     4  12  25  42  65  96 134 173 221 279 330 396
#     4  12  24  38  64  96 126 170 226 270 326 384
#     4  12  24  42  66  95 131 181 218 270 330 387
#     4  12  26  45  63  92 136 183 228 268 326 400
#     4  11  25  41  65  98 133 171 217 278 346 396
#     4  11  23  40  71 101 133 169 222 273 341 407
#     4  10  22  40  66  98 135 171 213 276 346 409
#
# _framework density 20.272355999999998
#
# number of rings (size 3 to 8) (size 9 to 14) (size 15 to 20)
#    0.000    0.533    6.667    1.200    7.467    1.600 
#    0.000    0.000    0.000    4.800    0.000    0.000 
#    0.000    0.000    0.000    0.000    0.000    0.000 
#
# Total GULP energy -167265.251131 kJ/mol
# GULP energy per Si atom -5575.508371 kJ/mol
# Density = 2.022622 g / cm^3
# Si number density = 20.272356 Si / 1000 Ang^3
#
#
#
# Elastic Constant Matrix: (Units=GPa)
#
#
# Indices 1 2 3 4 5 6 
#
# 1 48.3319 -3.7454 15.7549 0.0010 0.0004 0.0010
# 2 -3.7454 111.3735 21.7462 0.0019 0.0004 0.0015
# 3 15.7549 21.7462 80.0662 0.0125 0.0018 0.0074
# 4 0.0010 0.0019 0.0125 14.1232 0.0009 0.0039
# 5 0.0004 0.0004 0.0018 0.0009 36.9106 0.0004
# 6 0.0010 0.0015 0.0074 0.0039 0.0004 26.4823
#
#
#
# Elastic Compliance Matrix: (Units=1/GPa)
#
#
# Indices 1 2 3 4 5 6 
#
# 1 0.022411 0.001705 -0.004873 0.000002 0.000000 0.000000
# 2 0.001705 0.009611 -0.002946 0.000001 0.000000 0.000000
# 3 -0.004873 -0.002946 0.014249 -0.000012 -0.000001 -0.000004
# 4 0.000002 0.000001 -0.000012 0.070806 -0.000002 -0.000010
# 5 0.000000 0.000000 -0.000001 -0.000002 0.027093 0.000000
# 6 0.000000 0.000000 -0.000004 -0.000010 0.000000 0.037761
#
#
# Mechanical properties :
#
#
# Convention : Reuss Voigt Hill
#
# Bulk Modulus (GPa) = 29.37442 34.14254 31.75848
# Shear Modulus (GPa) = 24.33023 29.23759 26.78391
#
# Velocity S-wave (km/s) = 3.46810 3.80180 3.63878
# Velocity P-wave (km/s) = 5.52796 6.01249 5.77531
#
# Compressibility (1/GPa) = 0.03404322
#
# Stress axis : x y z
#
# Youngs Moduli (GPa) = 44.62122 104.04357 70.18192
#
# Poissons Ratio (x) = -0.17741 0.34200
# Poissons Ratio (y) = -0.07609 0.20676
# Poissons Ratio (z) = 0.21744 0.30651
#
# Static dielectric constant tensor:
#      x y z
#    x 1.697670 0.000000 0.000000 
#    y 0.000000 1.744590 0.000000 
#    z 0.000000 0.000000 1.866600 
# 
# From -- ./inp_files/18809.got.cif
#   From: 2010.05.17/outbox.cif.g08.bks.cpg/sg24_10_cif.got.tgz:18809.got - 2010.06.04 00:33:39.
