data_PCOD9335054
_publ_section_title
;
Structure prediction by ZEFSAII (Michael W. Deem and Ramdas Pophale) SiO2 
 PCOD9335054
Probable space group: I 21 21 21
;
_chemical_formula_sum "Si O2"
_cell_formula_units_Z 28
_cell_length_a 7.039980
_cell_length_b 35.243498
_cell_length_c 5.000963
_cell_angle_alpha 90.000000
_cell_angle_beta 90.000000
_cell_angle_gamma 90.000000
_cell_volume 1240.806539
_symmetry_space_group_name_H-M "I 21 21 21"
_symmetry_group_IT_number 24
_symmetry_cell_setting 'orthorhombic'
loop_
_space_group_symop_operation_xyz
x,y,z
-x,1/2-y,z
x,-y,1/2-z
1/2-x,y,-z
1/2+x,1/2+y,1/2+z
1/2-x,-y,1/2+z
1/2+x,1/2-y,-z
-x,1/2+y,1/2-z
loop_
_atom_site_type_symbol
_atom_site_label
_atom_site_fract_x
_atom_site_fract_y
_atom_site_fract_z
Si Si1 0.250000 0.973825 0.000000
Si Si2 0.383256 0.713410 0.247766
Si Si3 0.520064 0.139484 0.005494
Si Si4 0.021805 0.593570 0.003006
O O1 0.077800 0.945616 0.073723
O O2 0.300381 0.000000 0.250000
O O3 0.500000 0.750000 0.157949
O O4 0.250000 0.724051 0.500000
O O5 0.519800 0.680240 0.363207
O O6 0.250000 0.700103 0.000000
O O7 0.460679 0.106838 0.209494
O O8 0.750000 0.140007 0.000000
O O9 0.464953 0.126801 0.710567
O O10 0.250000 0.589993 0.000000
#
# Coordination Sequence:
#
# PCOD9335054 Si02
#       4
#     4   8   8   8
#     4  12  26  42  62  94 132 156 198 272 326 384
#     4  11  22  39  61  90 132 170 217 273 331 382
#     4   9  18  37  63  83 117 164 208 253 304 369
#     4  10  21  40  64  89 117 164 210 249 312 385
#
# _framework density 22.565968999999999
#
# number of rings (size 3 to 8) (size 9 to 14) (size 15 to 20)
#    0.000    1.714    0.000    6.857    0.000    1.143 
#    7.714    0.000    0.000    0.000    0.000    0.000 
#    0.000    0.000    0.000    0.000    0.000    0.000 
#
# Total GULP energy -78226.791096 kJ/mol
# GULP energy per Si atom -5587.627935 kJ/mol
# Density = 2.251461 g / cm^3
# Si number density = 22.565969 Si / 1000 Ang^3
#
#
#
# Elastic Constant Matrix: (Units=GPa)
#
#
# Indices 1 2 3 4 5 6 
#
# 1 82.0153 19.8695 3.6405 0.0114 0.0001 0.0043
# 2 19.8695 127.9647 24.6315 0.0282 0.0158 0.0232
# 3 3.6405 24.6315 119.7227 0.0182 0.0205 0.0289
# 4 0.0114 0.0282 0.0182 45.0298 0.0096 0.0261
# 5 0.0001 0.0158 0.0205 0.0096 12.8636 0.0186
# 6 0.0043 0.0232 0.0289 0.0261 0.0186 23.4294
#
#
#
# Elastic Compliance Matrix: (Units=1/GPa)
#
#
# Indices 1 2 3 4 5 6 
#
# 1 0.012669 -0.001971 0.000020 -0.000002 0.000002 0.000000
# 2 -0.001971 0.008444 -0.001677 -0.000004 -0.000008 -0.000006
# 3 0.000020 -0.001677 0.008697 -0.000002 -0.000012 -0.000009
# 4 -0.000002 -0.000004 -0.000002 0.022208 -0.000017 -0.000025
# 5 0.000002 -0.000008 -0.000012 -0.000017 0.077739 -0.000062
# 6 0.000000 -0.000006 -0.000009 -0.000025 -0.000062 0.042681
#
#
# Mechanical properties :
#
#
# Convention : Reuss Voigt Hill
#
# Bulk Modulus (GPa) = 44.33804 47.33176 45.83490
# Shear Modulus (GPa) = 26.70771 35.03532 30.87151
#
# Velocity S-wave (km/s) = 3.44399 3.94455 3.70274
# Velocity P-wave (km/s) = 5.95866 6.46268 6.21578
#
# Compressibility (1/GPa) = 0.02255399
#
# Stress axis : x y z
#
# Youngs Moduli (GPa) = 78.92980 118.43338 114.98099
#
# Poissons Ratio (x) = 0.23345 -0.00233
# Poissons Ratio (y) = 0.15558 0.19285
# Poissons Ratio (z) = -0.00160 0.19864
#
# Static dielectric constant tensor:
#      x y z
#    x 1.878100 0.000020 0.000010 
#    y 0.000020 1.831620 -0.000030 
#    z 0.000010 -0.000030 1.815970 
# 
# From -- ./inp_files/1008.got.cif
#   From: 2010.05.17/outbox.cif.g08.bks.cpg/sg24_1_cif.got.tgz:1008.got - 2010.06.04 00:33:39.
