data_PCOD9336300
_publ_section_title
;
Structure prediction by ZEFSAII (Michael W. Deem and Ramdas Pophale) SiO2 
 PCOD9336300
Probable space group: I 21 21 21
;
_chemical_formula_sum "Si O2"
_cell_formula_units_Z 40
_cell_length_a 11.359552
_cell_length_b 27.488862
_cell_length_c 5.539300
_cell_angle_alpha 90.000000
_cell_angle_beta 90.000000
_cell_angle_gamma 90.000000
_cell_volume 1729.708229
_symmetry_space_group_name_H-M "I 21 21 21"
_symmetry_group_IT_number 24
_symmetry_cell_setting 'orthorhombic'
loop_
_space_group_symop_operation_xyz
x,y,z
-x,1/2-y,z
x,-y,1/2-z
1/2-x,y,-z
1/2+x,1/2+y,1/2+z
1/2-x,-y,1/2+z
1/2+x,1/2-y,-z
-x,1/2+y,1/2-z
loop_
_atom_site_type_symbol
_atom_site_label
_atom_site_fract_x
_atom_site_fract_y
_atom_site_fract_z
Si Si1 0.524308 0.652425 0.768933
Si Si2 0.455614 0.000000 0.250000
Si Si3 0.877525 0.082829 0.544087
Si Si4 0.129201 0.319557 0.854002
Si Si5 0.750000 0.604422 0.000000
Si Si6 0.500000 0.250000 0.429150
Si Si7 0.250000 0.955860 0.500000
O O1 0.492165 0.667447 0.496822
O O2 0.441370 0.604917 0.808823
O O3 0.642120 0.636442 0.905832
O O4 0.501152 0.702799 0.905236
O O5 0.537022 0.045527 0.321573
O O6 0.369143 0.012721 0.024601
O O7 0.750000 0.059954 0.500000
O O8 0.856051 0.133410 0.685229
O O9 0.108657 0.266505 0.738272
O O10 0.250000 0.317248 0.000000
O O11 0.734393 0.574099 0.250331
#
# Coordination Sequence:
#
# PCOD9336300 Si02
#       7
#     8   4   8   8   4   4   4
#     4  11  24  46  70 104 146 197 247 312 379 455
#     4  12  26  48  76 112 154 198 266 316 392 462
#     4  11  24  47  69 104 143 194 252 311 385 456
#     4  11  23  45  74 102 151 198 252 321 387 463
#     4  12  27  50  80 104 158 200 258 314 381 470
#     4  10  26  40  68 110 138 194 250 310 380 458
#     4  12  27  52  74 112 150 208 246 324 381 464
#
# _framework density 23.125288000000001
#
# number of rings (size 3 to 8) (size 9 to 14) (size 15 to 20)
#    0.000    0.800    4.000    2.400    2.800    4.000 
#    7.200    0.000    0.000    0.000    0.000    0.000 
#    0.000    0.000    0.000    0.000    0.000    0.000 
#
# Total GULP energy -111383.644854 kJ/mol
# GULP energy per Si atom -5569.182243 kJ/mol
# Density = 2.307265 g / cm^3
# Si number density = 23.125288 Si / 1000 Ang^3
#
#
#
# Elastic Constant Matrix: (Units=GPa)
#
#
# Indices 1 2 3 4 5 6 
#
# 1 119.9933 27.5872 18.6389 0.0005 0.0059 -0.0078
# 2 27.5872 87.8572 9.4270 -0.0275 0.0105 0.0021
# 3 18.6389 9.4270 76.0674 -0.0610 0.0395 0.0521
# 4 0.0005 -0.0275 -0.0610 -15.1690 0.0242 0.0001
# 5 0.0059 0.0105 0.0395 0.0242 29.9612 -0.0139
# 6 -0.0078 0.0021 0.0521 0.0001 -0.0139 29.6153
#
#
#
# Elastic Compliance Matrix: (Units=1/GPa)
#
#
# Indices 1 2 3 4 5 6 
#
# 1 0.009254 -0.002698 -0.001933 0.000013 0.000002 0.000006
# 2 -0.002698 0.012322 -0.000866 -0.000019 -0.000003 0.000000
# 3 -0.001933 -0.000866 0.013727 -0.000054 -0.000017 -0.000025
# 4 0.000013 -0.000019 -0.000054 -0.065924 0.000053 0.000000
# 5 0.000002 -0.000003 -0.000017 0.000053 0.033376 0.000016
# 6 0.000006 0.000000 -0.000025 0.000000 0.000016 0.033766
#
#
# Mechanical properties :
#
#
# Convention : Reuss Voigt Hill
#
# Bulk Modulus (GPa) = 41.13728 43.91381 42.52554
# Shear Modulus (GPa) = 89.89342 24.09916 56.99629
#
# Velocity S-wave (km/s) = 6.24153 3.23168 4.96993
# Velocity P-wave (km/s) = 8.35283 5.74071 7.16678
#
# Compressibility (1/GPa) = 0.02430885
#
# Stress axis : x y z
#
# Youngs Moduli (GPa) = 108.05566 81.15345 72.84795
#
# Poissons Ratio (x) = 0.21899 0.14083
# Poissons Ratio (y) = 0.29159 0.06308
# Poissons Ratio (z) = 0.20889 0.07027
#
# Static dielectric constant tensor:
#      x y z
#    x 1.983450 0.000010 -0.000970 
#    y 0.000010 1.891190 0.000150 
#    z -0.000970 0.000150 0.170300 
# 
# From -- ./inp_files/2549.got.cif
#   From: 2010.05.17/outbox.cif.g08.bks.cpg/sg24_2_cif.got.tgz:2549.got - 2010.06.04 00:33:39.
