data_PCOD9336568
_publ_section_title
;
Structure prediction by ZEFSAII (Michael W. Deem and Ramdas Pophale) SiO2 
 PCOD9336568
Probable space group: I 21 21 21
;
_chemical_formula_sum "Si O2"
_cell_formula_units_Z 36
_cell_length_a 9.843733
_cell_length_b 19.783510
_cell_length_c 6.975896
_cell_angle_alpha 90.000000
_cell_angle_beta 90.000000
_cell_angle_gamma 90.000000
_cell_volume 1358.511032
_symmetry_space_group_name_H-M "I 21 21 21"
_symmetry_group_IT_number 24
_symmetry_cell_setting 'orthorhombic'
loop_
_space_group_symop_operation_xyz
x,y,z
-x,1/2-y,z
x,-y,1/2-z
1/2-x,y,-z
1/2+x,1/2+y,1/2+z
1/2-x,-y,1/2+z
1/2+x,1/2-y,-z
-x,1/2+y,1/2-z
loop_
_atom_site_type_symbol
_atom_site_label
_atom_site_fract_x
_atom_site_fract_y
_atom_site_fract_z
Si Si1 0.768575 0.882420 0.776355
Si Si2 0.941252 0.574075 0.682568
Si Si3 0.577398 0.000000 0.750000
Si Si4 0.645359 0.260553 0.842753
Si Si5 0.137301 0.900630 0.233843
O O1 0.702783 0.809853 0.732070
O O2 0.927312 0.880814 0.726393
O O3 0.680837 0.942095 0.676408
O O4 0.750000 0.897247 0.000000
O O5 0.987396 0.500000 0.750000
O O6 0.904478 0.585636 0.457994
O O7 0.796190 0.584371 0.787394
O O8 0.469693 0.048734 0.636515
O O9 0.500000 0.250000 0.937125
O O10 0.620712 0.321198 0.692818
O O11 0.750000 0.286801 0.000000
#
# Coordination Sequence:
#
# PCOD9336568 Si02
#       5
#     8   8   4   8   8
#     4  12  28  46  71 109 147 191 244 302 374 433
#     4  11  22  44  72 105 143 187 244 299 362 433
#     4  12  24  44  72 104 148 186 238 316 358 446
#     4  12  25  47  72 104 142 192 245 292 359 449
#     4  11  24  43  71 108 141 195 246 292 371 432
#
# _framework density 26.499600999999998
#
# number of rings (size 3 to 8) (size 9 to 14) (size 15 to 20)
#    0.000    0.444    6.667    2.667    0.000    0.000 
#    4.000    0.000    0.000    0.000    0.000    0.000 
#    0.000    0.000    0.000    0.000    0.000    0.000 
#
# Total GULP energy -100701.043102 kJ/mol
# GULP energy per Si atom -5594.502395 kJ/mol
# Density = 2.643929 g / cm^3
# Si number density = 26.499601 Si / 1000 Ang^3
#
#
#
# Elastic Constant Matrix: (Units=GPa)
#
#
# Indices 1 2 3 4 5 6 
#
# 1 254.0963 66.3926 50.0386 0.0002 0.0001 0.0000
# 2 66.3926 242.4943 14.2362 0.0014 -0.0003 0.0000
# 3 50.0386 14.2362 91.5740 0.0038 -0.0011 -0.0001
# 4 0.0002 0.0014 0.0038 25.6330 -0.0005 -0.0001
# 5 0.0001 -0.0003 -0.0011 -0.0005 37.5884 0.0001
# 6 0.0000 0.0000 -0.0001 -0.0001 0.0001 58.0208
#
#
#
# Elastic Compliance Matrix: (Units=1/GPa)
#
#
# Indices 1 2 3 4 5 6 
#
# 1 0.004707 -0.001148 -0.002393 0.000000 0.000000 0.000000
# 2 -0.001148 0.004442 -0.000063 0.000000 0.000000 0.000000
# 3 -0.002393 -0.000063 0.012238 -0.000002 0.000000 0.000000
# 4 0.000000 0.000000 -0.000002 0.039012 0.000000 0.000000
# 5 0.000000 0.000000 0.000000 0.000000 0.026604 0.000000
# 6 0.000000 0.000000 0.000000 0.000000 0.000000 0.017235
#
#
# Mechanical properties :
#
#
# Convention : Reuss Voigt Hill
#
# Bulk Modulus (GPa) = 70.53695 94.38883 82.46289
# Shear Modulus (GPa) = 43.03920 54.74825 48.89372
#
# Velocity S-wave (km/s) = 4.03444 4.55026 4.30009
# Velocity P-wave (km/s) = 6.95544 7.95631 7.47265
#
# Compressibility (1/GPa) = 0.01417697
#
# Stress axis : x y z
#
# Youngs Moduli (GPa) = 212.45576 225.13010 81.71401
#
# Poissons Ratio (x) = 0.25849 0.19558
# Poissons Ratio (y) = 0.24394 0.00516
# Poissons Ratio (z) = 0.50851 0.01422
#
# Static dielectric constant tensor:
#      x y z
#    x 2.100350 0.000000 0.000000 
#    y 0.000000 2.105300 0.000000 
#    z 0.000000 0.000000 2.221210 
# 
# From -- ./inp_files/9050.got.cif
#   From: 2010.05.17/outbox.cif.g08.bks.cpg/sg24_5_cif.got.tgz:9050.got - 2010.06.04 00:33:39.
