data_PCOD9336758
_publ_section_title
;
Structure prediction by ZEFSAII (Michael W. Deem and Ramdas Pophale) SiO2 
 PCOD9336758
Probable space group: I 21 21 21
;
_chemical_formula_sum "Si O2"
_cell_formula_units_Z 24
_cell_length_a 12.081769
_cell_length_b 9.806349
_cell_length_c 7.730138
_cell_angle_alpha 90.000000
_cell_angle_beta 90.000000
_cell_angle_gamma 90.000000
_cell_volume 915.851625
_symmetry_space_group_name_H-M "I 21 21 21"
_symmetry_group_IT_number 24
_symmetry_cell_setting 'orthorhombic'
loop_
_space_group_symop_operation_xyz
x,y,z
-x,1/2-y,z
x,-y,1/2-z
1/2-x,y,-z
1/2+x,1/2+y,1/2+z
1/2-x,-y,1/2+z
1/2+x,1/2-y,-z
-x,1/2+y,1/2-z
loop_
_atom_site_type_symbol
_atom_site_label
_atom_site_fract_x
_atom_site_fract_y
_atom_site_fract_z
Si Si1 0.373972 0.738045 0.566216
Si Si2 0.092189 0.455918 0.555842
Si Si3 0.865275 0.349008 0.447486
O O1 0.500000 0.750000 0.479797
O O2 0.250000 0.776813 0.500000
O O3 0.365953 0.573063 0.572542
O O4 0.384441 0.818725 0.746040
O O5 0.117017 0.500000 0.750000
O O6 0.133127 0.302422 0.529426
O O7 0.961805 0.439572 0.524049
O O8 0.750000 0.412196 0.500000
#
# Coordination Sequence:
#
# PCOD9336758 Si02
#       3
#     8   8   8
#     4  12  27  48  80 109 155 197 255 310 379 445
#     4  11  25  46  75 108 149 194 254 309 378 442
#     4  11  25  48  74 108 151 197 256 311 377 453
#
# _framework density 26.205117000000001
#
# number of rings (size 3 to 8) (size 9 to 14) (size 15 to 20)
#    0.000    0.667    3.333    4.000    9.333    1.333 
#    0.000    0.000    0.000    0.000    0.000    0.000 
#    0.000    0.000    0.000    0.000    0.000    0.000 
#
# Total GULP energy -67125.390079 kJ/mol
# GULP energy per Si atom -5593.782507 kJ/mol
# Density = 2.614547 g / cm^3
# Si number density = 26.205117 Si / 1000 Ang^3
#
#
#
# Elastic Constant Matrix: (Units=GPa)
#
#
# Indices 1 2 3 4 5 6 
#
# 1 253.1392 15.7935 18.5556 0.0000 0.0000 0.0000
# 2 15.7935 131.0971 9.7784 0.0000 0.0000 0.0000
# 3 18.5556 9.7784 66.5809 0.0000 0.0000 0.0000
# 4 0.0000 0.0000 0.0000 18.4775 0.0000 0.0000
# 5 0.0000 0.0000 0.0000 0.0000 36.9946 0.0000
# 6 0.0000 0.0000 0.0000 0.0000 0.0000 -45.5013
#
#
#
# Elastic Compliance Matrix: (Units=1/GPa)
#
#
# Indices 1 2 3 4 5 6 
#
# 1 0.004054 -0.000409 -0.001070 0.000000 0.000000 0.000000
# 2 -0.000409 0.007754 -0.001025 0.000000 0.000000 0.000000
# 3 -0.001070 -0.001025 0.015468 0.000000 0.000000 0.000000
# 4 0.000000 0.000000 0.000000 0.054120 0.000000 0.000000
# 5 0.000000 0.000000 0.000000 0.000000 0.027031 0.000000
# 6 0.000000 0.000000 0.000000 0.000000 0.000000 -0.021977
#
#
# Mechanical properties :
#
#
# Convention : Reuss Voigt Hill
#
# Bulk Modulus (GPa) = 44.90511 59.89690 52.40100
# Shear Modulus (GPa) = 50.56684 29.10682 39.83683
#
# Velocity S-wave (km/s) = 4.39755 3.33638 3.90319
# Velocity P-wave (km/s) = 6.55422 6.14398 6.35241
#
# Compressibility (1/GPa) = 0.02226918
#
# Stress axis : x y z
#
# Youngs Moduli (GPa) = 246.65077 128.97225 64.64961
#
# Poissons Ratio (x) = 0.05270 0.06917
# Poissons Ratio (y) = 0.10079 0.06626
# Poissons Ratio (z) = 0.26389 0.13218
#
# Static dielectric constant tensor:
#      x y z
#    x 3.535190 0.000000 0.000000 
#    y 0.000000 2.036480 0.000000 
#    z 0.000000 0.000000 2.013570 
# 
# From -- ./inp_files/10003.got.cif
#   From: 2010.05.17/outbox.cif.g08.bks.cpg/sg24_6_cif.got.tgz:10003.got - 2010.06.04 00:33:39.
