data_PCOD9336381
_publ_section_title
;
Structure prediction by ZEFSAII (Michael W. Deem and Ramdas Pophale) SiO2 
 PCOD9336381
Probable space group: I 21 21 21
;
_chemical_formula_sum "Si O2"
_cell_formula_units_Z 60
_cell_length_a 11.049736
_cell_length_b 20.858911
_cell_length_c 13.650211
_cell_angle_alpha 90.000000
_cell_angle_beta 90.000000
_cell_angle_gamma 90.000000
_cell_volume 3146.175159
_symmetry_space_group_name_H-M "I 21 21 21"
_symmetry_group_IT_number 24
_symmetry_cell_setting 'orthorhombic'
loop_
_space_group_symop_operation_xyz
x,y,z
-x,1/2-y,z
x,-y,1/2-z
1/2-x,y,-z
1/2+x,1/2+y,1/2+z
1/2-x,-y,1/2+z
1/2+x,1/2-y,-z
-x,1/2+y,1/2-z
loop_
_atom_site_type_symbol
_atom_site_label
_atom_site_fract_x
_atom_site_fract_y
_atom_site_fract_z
Si Si1 0.250000 0.947802 0.500000
Si Si2 0.553108 0.548685 0.008854
Si Si3 0.706196 0.424570 0.784065
Si Si4 0.324247 0.490758 0.901709
Si Si5 0.737152 0.899616 0.246639
Si Si6 0.678451 0.202297 0.600315
Si Si7 0.477598 0.074595 0.276266
Si Si8 0.403286 0.842752 0.874710
O O1 0.200253 0.916156 0.401187
O O2 0.142079 0.992178 0.540375
O O3 0.452662 0.518724 0.936758
O O4 0.627976 0.601094 0.949733
O O5 0.502669 0.580606 0.107067
O O6 0.688144 0.500000 0.750000
O O7 0.842144 0.404384 0.750494
O O8 0.613279 0.377859 0.729076
O O9 0.318804 0.427039 0.835091
O O10 0.259604 0.545987 0.837120
O O11 0.250000 0.479294 0.000000
O O12 0.768047 0.833459 0.194485
O O13 0.595916 0.897240 0.275842
O O14 0.750000 0.186676 0.500000
O O15 0.540435 0.176891 0.598180
O O16 0.674271 0.278658 0.615042
O O17 0.482131 0.000000 0.250000
#
# Coordination Sequence:
#
# PCOD9336381 Si02
#       8
#     4   8   8   8   8   8   8   8
#     4  12  24  34  62  94 120 158 200 258 316 374
#     4  12  20  34  59  91 123 159 199 250 314 373
#     4  11  23  39  61  94 125 162 204 259 318 378
#     4  11  21  33  59  89 123 158 200 254 315 376
#     4  11  21  37  58  89 125 164 202 257 309 368
#     4  11  25  43  60  89 124 168 211 255 307 369
#     4  11  19  35  58  90 130 152 198 253 315 374
#     4  11  25  41  62  87 130 165 211 254 308 376
#
# _framework density 19.070775999999999
#
# number of rings (size 3 to 8) (size 9 to 14) (size 15 to 20)
#    0.000    0.800    8.000    1.200    4.667    0.000 
#    0.000    0.000    1.467    0.000    0.000    0.000 
#    0.000    0.000    0.000    0.000    0.000    0.000 
#
# Total GULP energy -167389.982052 kJ/mol
# GULP energy per Si atom -5579.666068 kJ/mol
# Density = 1.902737 g / cm^3
# Si number density = 19.070776 Si / 1000 Ang^3
#
#
#
# Elastic Constant Matrix: (Units=GPa)
#
#
# Indices 1 2 3 4 5 6 
#
# 1 64.3625 26.2831 12.0417 0.0000 0.0000 0.0000
# 2 26.2831 74.3433 46.3761 0.0000 0.0000 0.0000
# 3 12.0417 46.3761 122.2840 0.0000 0.0000 0.0000
# 4 0.0000 0.0000 0.0000 19.0012 0.0000 0.0000
# 5 0.0000 0.0000 0.0000 0.0000 32.0713 0.0000
# 6 0.0000 0.0000 0.0000 0.0000 0.0000 18.0644
#
#
#
# Elastic Compliance Matrix: (Units=1/GPa)
#
#
# Indices 1 2 3 4 5 6 
#
# 1 0.018226 -0.006974 0.000850 0.000000 0.000000 0.000000
# 2 -0.006974 0.020288 -0.007007 0.000000 0.000000 0.000000
# 3 0.000850 -0.007007 0.010752 0.000000 0.000000 0.000000
# 4 0.000000 0.000000 0.000000 0.052628 0.000000 0.000000
# 5 0.000000 0.000000 0.000000 0.000000 0.031181 0.000000
# 6 0.000000 0.000000 0.000000 0.000000 0.000000 0.055357
#
#
# Mechanical properties :
#
#
# Convention : Reuss Voigt Hill
#
# Bulk Modulus (GPa) = 43.47276 47.82129 45.64703
# Shear Modulus (GPa) = 22.48592 25.57997 24.03295
#
# Velocity S-wave (km/s) = 3.43749 3.66637 3.55378
# Velocity P-wave (km/s) = 6.21290 6.56149 6.38957
#
# Compressibility (1/GPa) = 0.02300291
#
# Stress axis : x y z
#
# Youngs Moduli (GPa) = 54.86735 49.29045 93.00989
#
# Poissons Ratio (x) = 0.34374 -0.07906
# Poissons Ratio (y) = 0.38263 0.65176
# Poissons Ratio (z) = -0.04664 0.34540
#
# Static dielectric constant tensor:
#      x y z
#    x 1.734680 0.000000 0.000000 
#    y 0.000000 1.659490 0.000000 
#    z 0.000000 0.000000 1.692130 
# 
# From -- ./inp_files/20004.got.cif
#   From: 2010.05.17/outbox.cif.g08.bks.cpg/sg24_11_cif.got.tgz:20004.got - 2010.06.04 00:33:39.
