data_PCOD9336006
_publ_section_title
;
Structure prediction by ZEFSAII (Michael W. Deem and Ramdas Pophale) SiO2 
 PCOD9336006
Probable space group: I 21 21 21
;
_chemical_formula_sum "Si O2"
_cell_formula_units_Z 36
_cell_length_a 7.266629
_cell_length_b 10.623516
_cell_length_c 18.674712
_cell_angle_alpha 90.000000
_cell_angle_beta 90.000000
_cell_angle_gamma 90.000000
_cell_volume 1441.634533
_symmetry_space_group_name_H-M "I 21 21 21"
_symmetry_group_IT_number 24
_symmetry_cell_setting 'orthorhombic'
loop_
_space_group_symop_operation_xyz
x,y,z
-x,1/2-y,z
x,-y,1/2-z
1/2-x,y,-z
1/2+x,1/2+y,1/2+z
1/2-x,-y,1/2+z
1/2+x,1/2-y,-z
-x,1/2+y,1/2-z
loop_
_atom_site_type_symbol
_atom_site_label
_atom_site_fract_x
_atom_site_fract_y
_atom_site_fract_z
Si Si1 0.250000 0.718182 0.000000
Si Si2 0.918150 0.960262 0.888669
Si Si3 0.629148 0.863201 0.771482
Si Si4 0.190251 0.038037 0.422890
Si Si5 0.369217 0.643166 0.609950
O O1 0.391167 0.631271 0.043389
O O2 0.824291 0.685079 0.059247
O O3 0.800781 0.900683 0.822817
O O4 0.824762 0.089855 0.915505
O O5 0.132126 0.977407 0.872618
O O6 0.500000 0.750000 0.798973
O O7 0.679928 0.815854 0.691348
O O8 0.541471 0.000000 0.750000
O O9 0.250000 0.980100 0.500000
O O10 0.003497 0.978258 0.396267
O O11 0.500000 0.750000 0.577962
#
# Coordination Sequence:
#
# PCOD9336006 Si02
#       5
#     4   8   8   8   8
#     4  10  24  40  66 110 134 166 238 302 366 414
#     4  11  22  40  71  98 141 177 233 306 355 429
#     4   9  21  39  66  97 135 192 236 290 359 421
#     4  10  24  42  66 107 134 179 232 299 367 419
#     4  10  23  45  66  98 145 191 238 284 354 445
#
# _framework density 24.971655999999999
#
# number of rings (size 3 to 8) (size 9 to 14) (size 15 to 20)
#    0.667    1.333    0.000    2.000    9.333    0.889 
#    6.000   10.000   14.667    0.000    0.000    0.000 
#    0.000    0.000    0.000    0.000    0.000    0.000 
#
# Total GULP energy -100330.540669 kJ/mol
# GULP energy per Si atom -5573.918926 kJ/mol
# Density = 2.491482 g / cm^3
# Si number density = 24.971656 Si / 1000 Ang^3
#
#
#
# Elastic Constant Matrix: (Units=GPa)
#
#
# Indices 1 2 3 4 5 6 
#
# 1 112.2123 14.7409 16.6076 0.0000 0.0000 0.0000
# 2 14.7409 93.3769 -8.9275 0.0000 0.0000 0.0000
# 3 16.6076 -8.9275 78.8504 0.0000 0.0000 0.0000
# 4 0.0000 0.0000 0.0000 20.4944 0.0000 0.0000
# 5 0.0000 0.0000 0.0000 0.0000 37.7969 0.0000
# 6 0.0000 0.0000 0.0000 0.0000 0.0000 26.5123
#
#
#
# Elastic Compliance Matrix: (Units=1/GPa)
#
#
# Indices 1 2 3 4 5 6 
#
# 1 0.009459 -0.001702 -0.002185 0.000000 0.000000 0.000000
# 2 -0.001702 0.011133 0.001619 0.000000 0.000000 0.000000
# 3 -0.002185 0.001619 0.013326 0.000000 0.000000 0.000000
# 4 0.000000 0.000000 0.000000 0.048794 0.000000 0.000000
# 5 0.000000 0.000000 0.000000 0.000000 0.026457 0.000000
# 6 0.000000 0.000000 0.000000 0.000000 0.000000 0.037718
#
#
# Mechanical properties :
#
#
# Convention : Reuss Voigt Hill
#
# Bulk Modulus (GPa) = 34.03550 36.58684 35.31117
# Shear Modulus (GPa) = 31.01422 34.42861 32.72141
#
# Velocity S-wave (km/s) = 3.52799 3.71712 3.62379
# Velocity P-wave (km/s) = 5.50044 5.75377 5.62853
#
# Compressibility (1/GPa) = 0.02938109
#
# Stress axis : x y z
#
# Youngs Moduli (GPa) = 105.72343 89.82493 75.04280
#
# Poissons Ratio (x) = 0.15289 0.16396
# Poissons Ratio (y) = 0.17995 -0.12149
# Poissons Ratio (z) = 0.23100 -0.14542
#
# Static dielectric constant tensor:
#      x y z
#    x 2.004180 0.000000 0.000000 
#    y 0.000000 2.065900 0.000000 
#    z 0.000000 0.000000 2.066220 
# 
# From -- ./inp_files/34538.got.cif
#   From: 2010.05.17/outbox.cif.g08.bks.cpg/sg24_18_cif.got.tgz:34538.got - 2010.06.04 00:33:39.
