data_PCOD9336056
_publ_section_title
;
Structure prediction by ZEFSAII (Michael W. Deem and Ramdas Pophale) SiO2 
 PCOD9336056
Probable space group: I 21 21 21
;
_chemical_formula_sum "Si O2"
_cell_formula_units_Z 32
_cell_length_a 5.298692
_cell_length_b 8.690355
_cell_length_c 28.294924
_cell_angle_alpha 90.000000
_cell_angle_beta 90.000000
_cell_angle_gamma 90.000000
_cell_volume 1302.910924
_symmetry_space_group_name_H-M "I 21 21 21"
_symmetry_group_IT_number 24
_symmetry_cell_setting 'orthorhombic'
loop_
_space_group_symop_operation_xyz
x,y,z
-x,1/2-y,z
x,-y,1/2-z
1/2-x,y,-z
1/2+x,1/2+y,1/2+z
1/2-x,-y,1/2+z
1/2+x,1/2-y,-z
-x,1/2+y,1/2-z
loop_
_atom_site_type_symbol
_atom_site_label
_atom_site_fract_x
_atom_site_fract_y
_atom_site_fract_z
Si Si1 0.500000 0.750000 0.246775
Si Si2 0.250000 0.342715 0.000000
Si Si3 0.351416 0.513537 0.090927
Si Si4 0.500000 0.250000 0.471295
Si Si5 0.500000 0.250000 0.645766
Si Si6 0.117710 0.995827 0.684066
O O1 0.421435 0.610442 0.211860
O O2 0.675752 0.650263 0.282511
O O3 0.500000 0.250000 0.010808
O O4 0.300322 0.422720 0.948890
O O5 0.560617 0.600598 0.059607
O O6 0.185724 0.650107 0.113114
O O7 0.489607 0.439622 0.135691
O O8 0.250000 0.286001 0.500000
O O9 0.342002 0.116966 0.673508
#
# Coordination Sequence:
#
# PCOD9336056 Si02
#       6
#     4   4   8   4   4   8
#     4  10  23  50  69 106 164 199 262 335 414 500
#     4  12  34  50  72 110 164 210 266 326 412 500
#     4  12  26  44  75 105 152 193 265 323 400 487
#     4  12  24  40  72 110 140 194 250 329 381 464
#     4  12  23  46  77 118 142 203 276 334 419 484
#     4  11  24  47  74 111 156 205 261 339 406 498
#
# _framework density 24.560390999999999
#
# number of rings (size 3 to 8) (size 9 to 14) (size 15 to 20)
#    0.000    0.500    6.250    0.750    7.000    0.000 
#    9.000    0.000    0.000    0.000    0.000    0.000 
#    0.000    0.000    0.000    0.000    0.000    0.000 
#
# Total GULP energy -89141.585543 kJ/mol
# GULP energy per Si atom -5571.349096 kJ/mol
# Density = 2.450449 g / cm^3
# Si number density = 24.560391 Si / 1000 Ang^3
#
#
#
# Elastic Constant Matrix: (Units=GPa)
#
#
# Indices 1 2 3 4 5 6 
#
# 1 75.4158 29.6556 28.7537 0.0000 0.0000 0.0000
# 2 29.6556 91.3073 47.7880 0.0000 0.0000 0.0000
# 3 28.7537 47.7880 169.9140 0.0000 0.0000 0.0000
# 4 0.0000 0.0000 0.0000 65.0001 0.0000 0.0000
# 5 0.0000 0.0000 0.0000 0.0000 9.1684 0.0000
# 6 0.0000 0.0000 0.0000 0.0000 0.0000 18.8096
#
#
#
# Elastic Compliance Matrix: (Units=1/GPa)
#
#
# Indices 1 2 3 4 5 6 
#
# 1 0.015486 -0.004289 -0.001414 0.000000 0.000000 0.000000
# 2 -0.004289 0.014031 -0.003220 0.000000 0.000000 0.000000
# 3 -0.001414 -0.003220 0.007030 0.000000 0.000000 0.000000
# 4 0.000000 0.000000 0.000000 0.015385 0.000000 0.000000
# 5 0.000000 0.000000 0.000000 0.000000 0.109070 0.000000
# 6 0.000000 0.000000 0.000000 0.000000 0.000000 0.053164
#
#
# Mechanical properties :
#
#
# Convention : Reuss Voigt Hill
#
# Bulk Modulus (GPa) = 53.47885 61.00353 57.24119
# Shear Modulus (GPa) = 20.98668 33.95829 27.47249
#
# Velocity S-wave (km/s) = 2.92634 3.72243 3.34813
# Velocity P-wave (km/s) = 5.76539 6.58539 6.18898
#
# Compressibility (1/GPa) = 0.01869898
#
# Stress axis : x y z
#
# Youngs Moduli (GPa) = 64.57560 71.27300 142.24117
#
# Poissons Ratio (x) = 0.30572 0.20115
# Poissons Ratio (y) = 0.27699 0.45804
# Poissons Ratio (z) = 0.09132 0.22951
#
# Static dielectric constant tensor:
#      x y z
#    x 1.945990 0.000000 0.000000 
#    y 0.000000 2.076470 0.000000 
#    z 0.000000 0.000000 2.061130 
# 
# From -- ./inp_files/7553.got.cif
#   From: 2010.05.17/outbox.cif.g08.bks.cpg/sg24_4_cif.got.tgz:7553.got - 2010.06.04 00:33:39.
