data_PCOD9336231
_publ_section_title
;
Structure prediction by ZEFSAII (Michael W. Deem and Ramdas Pophale) SiO2 
 PCOD9336231
Probable space group: I 21 21 21
;
_chemical_formula_sum "Si O2"
_cell_formula_units_Z 64
_cell_length_a 11.748651
_cell_length_b 13.528958
_cell_length_c 14.988113
_cell_angle_alpha 90.000000
_cell_angle_beta 90.000000
_cell_angle_gamma 90.000000
_cell_volume 2382.315686
_symmetry_space_group_name_H-M "I 21 21 21"
_symmetry_group_IT_number 24
_symmetry_cell_setting 'orthorhombic'
loop_
_space_group_symop_operation_xyz
x,y,z
-x,1/2-y,z
x,-y,1/2-z
1/2-x,y,-z
1/2+x,1/2+y,1/2+z
1/2-x,-y,1/2+z
1/2+x,1/2-y,-z
-x,1/2+y,1/2-z
loop_
_atom_site_type_symbol
_atom_site_label
_atom_site_fract_x
_atom_site_fract_y
_atom_site_fract_z
Si Si1 0.079165 0.642293 0.091157
Si Si2 0.144497 0.189395 0.550744
Si Si3 0.761894 0.985636 0.615984
Si Si4 0.885404 0.818963 0.809474
Si Si5 0.385725 0.988899 0.603784
Si Si6 0.056687 0.656665 0.614920
Si Si7 0.126838 0.016726 0.901211
Si Si8 0.559645 0.148576 0.800136
O O1 0.101627 0.724047 0.015562
O O2 0.170370 0.557379 0.071183
O O3 0.084415 0.667086 0.195802
O O4 0.953634 0.591640 0.088401
O O5 0.250000 0.138381 0.500000
O O6 0.198086 0.251252 0.632456
O O7 0.000000 0.250000 0.665315
O O8 0.852416 0.913421 0.567530
O O9 0.674367 0.908327 0.665587
O O10 0.844047 0.067997 0.667241
O O11 0.881746 0.806354 0.704213
O O12 0.080283 0.905613 0.908596
O O13 0.254891 0.988284 0.633253
O O14 0.382558 0.943131 0.503390
O O15 0.461947 0.929311 0.673134
O O16 0.000000 0.750000 0.567649
O O17 0.955507 0.587537 0.652214
O O18 0.500000 0.250000 0.835004
#
# Coordination Sequence:
#
# PCOD9336231 Si02
#       8
#     8   8   8   8   8   8   8   8
#     4  11  25  46  77 114 158 201 263 332 418 488
#     4  12  25  42  78 124 157 205 254 341 424 484
#     4  11  23  48  71 110 164 200 266 336 398 495
#     4  11  24  43  74 112 158 209 263 325 412 492
#     4  10  24  48  73 108 154 204 259 329 400 482
#     4  11  26  47  75 108 155 220 267 324 400 494
#     4  11  26  49  76 114 165 202 260 335 411 491
#     4  11  26  45  78 110 149 217 265 335 397 482
#
# _framework density 26.864619000000001
#
# number of rings (size 3 to 8) (size 9 to 14) (size 15 to 20)
#    0.000    1.000    2.500    4.125    7.000    1.500 
#    2.250    5.000    0.000    0.000    0.000    0.000 
#    0.000    0.000    0.000    0.000    0.000    0.000 
#
# Total GULP energy -178395.197635 kJ/mol
# GULP energy per Si atom -5574.849926 kJ/mol
# Density = 2.680347 g / cm^3
# Si number density = 26.864619 Si / 1000 Ang^3
#
#
#
# Elastic Constant Matrix: (Units=GPa)
#
#
# Indices 1 2 3 4 5 6 
#
# 1 198.8873 80.8940 20.1395 0.0000 0.0000 0.0000
# 2 80.8940 197.4243 37.9121 0.0000 0.0000 0.0000
# 3 20.1395 37.9121 80.9795 0.0000 0.0000 0.0000
# 4 0.0000 0.0000 0.0000 -29.3694 0.0000 0.0000
# 5 0.0000 0.0000 0.0000 0.0000 27.5968 0.0000
# 6 0.0000 0.0000 0.0000 0.0000 0.0000 -10.9106
#
#
#
# Elastic Compliance Matrix: (Units=1/GPa)
#
#
# Indices 1 2 3 4 5 6 
#
# 1 0.006044 -0.002404 -0.000378 0.000000 0.000000 0.000000
# 2 -0.002404 0.006522 -0.002455 0.000000 0.000000 0.000000
# 3 -0.000378 -0.002455 0.013592 0.000000 0.000000 0.000000
# 4 0.000000 0.000000 0.000000 -0.034049 0.000000 0.000000
# 5 0.000000 0.000000 0.000000 0.000000 0.036236 0.000000
# 6 0.000000 0.000000 0.000000 0.000000 0.000000 -0.091654
#
#
# Mechanical properties :
#
#
# Convention : Reuss Voigt Hill
#
# Bulk Modulus (GPa) = 63.75962 83.90914 73.83438
# Shear Modulus (GPa) = -105.02736 20.01973 -42.50381
#
# Velocity S-wave (km/s) = -6.25939 2.73281 -3.98194
# Velocity P-wave (km/s) = 5.33429 6.42336 2.53030
#
# Compressibility (1/GPa) = 0.01568391
#
# Stress axis : x y z
#
# Youngs Moduli (GPa) = 165.45346 153.33234 73.57119
#
# Poissons Ratio (x) = 0.36861 0.02778
# Poissons Ratio (y) = 0.39775 0.18065
# Poissons Ratio (z) = 0.06249 0.37650
#
# Static dielectric constant tensor:
#      x y z
#    x 2.280400 0.000000 0.000000 
#    y 0.000000 2.102090 0.000000 
#    z 0.000000 0.000000 2.196080 
# 
# From -- ./inp_files/30386.got.cif
#   From: 2010.05.17/outbox.cif.g08.bks.cpg/sg24_16_cif.got.tgz:30386.got - 2010.06.04 00:33:39.
