data_PCOD9336406
_publ_section_title
;
Structure prediction by ZEFSAII (Michael W. Deem and Ramdas Pophale) SiO2 
 PCOD9336406
Probable space group: I 21 21 21
;
_chemical_formula_sum "Si O2"
_cell_formula_units_Z 40
_cell_length_a 14.841336
_cell_length_b 8.899600
_cell_length_c 13.328174
_cell_angle_alpha 90.000000
_cell_angle_beta 90.000000
_cell_angle_gamma 90.000000
_cell_volume 1760.411263
_symmetry_space_group_name_H-M "I 21 21 21"
_symmetry_group_IT_number 24
_symmetry_cell_setting 'orthorhombic'
loop_
_space_group_symop_operation_xyz
x,y,z
-x,1/2-y,z
x,-y,1/2-z
1/2-x,y,-z
1/2+x,1/2+y,1/2+z
1/2-x,-y,1/2+z
1/2+x,1/2-y,-z
-x,1/2+y,1/2-z
loop_
_atom_site_type_symbol
_atom_site_label
_atom_site_fract_x
_atom_site_fract_y
_atom_site_fract_z
Si Si1 0.090769 0.827308 0.952209
Si Si2 0.091822 0.667810 0.163299
Si Si3 0.765872 0.671706 0.774054
Si Si4 0.913055 0.140443 0.828237
Si Si5 0.527859 0.081869 0.960361
O O1 0.171803 0.833073 0.874528
O O2 0.000000 0.750000 0.906291
O O3 0.111077 0.729230 0.049674
O O4 0.057636 0.985760 0.998247
O O5 0.178751 0.723746 0.219971
O O6 0.000000 0.750000 0.195420
O O7 0.069254 0.495885 0.137791
O O8 0.741383 0.500000 0.750000
O O9 0.830512 0.750905 0.694558
O O10 0.908084 0.081164 0.941930
O O11 0.000000 0.250000 0.822884
O O12 0.917422 0.000000 0.750000
O O13 0.500000 0.250000 0.938985
#
# Coordination Sequence:
#
# PCOD9336406 Si02
#       5
#     8   8   8   8   8
#     4   9  18  34  59  88 122 161 197 242 302 363
#     4   9  21  41  61  81 114 165 210 243 291 359
#     4  12  22  35  60  93 125 158 199 251 311 366
#     4  11  20  33  56  93 132 158 191 251 320 371
#     4   9  17  33  59  87 119 156 201 253 302 355
#
# _framework density 22.721962000000001
#
# number of rings (size 3 to 8) (size 9 to 14) (size 15 to 20)
#    0.000    2.400    0.000    7.800    0.000    0.800 
#    0.000    5.000    0.000   15.600    0.000    0.000 
#    0.000    0.000    0.000    0.000    0.000    0.000 
#
# Total GULP energy -111807.979001 kJ/mol
# GULP energy per Si atom -5590.398950 kJ/mol
# Density = 2.267025 g / cm^3
# Si number density = 22.721962 Si / 1000 Ang^3
#
#
#
# Elastic Constant Matrix: (Units=GPa)
#
#
# Indices 1 2 3 4 5 6 
#
# 1 143.6260 53.7955 29.2663 0.0000 0.0000 0.0000
# 2 53.7955 179.7114 19.0083 0.0000 0.0000 0.0000
# 3 29.2663 19.0083 59.2654 0.0000 0.0000 0.0000
# 4 0.0000 0.0000 0.0000 8.2719 0.0000 0.0000
# 5 0.0000 0.0000 0.0000 0.0000 -12.8354 0.0000
# 6 0.0000 0.0000 0.0000 0.0000 0.0000 22.2876
#
#
#
# Elastic Compliance Matrix: (Units=1/GPa)
#
#
# Indices 1 2 3 4 5 6 
#
# 1 0.008488 -0.002171 -0.003495 0.000000 0.000000 0.000000
# 2 -0.002171 0.006315 -0.000953 0.000000 0.000000 0.000000
# 3 -0.003495 -0.000953 0.018905 0.000000 0.000000 0.000000
# 4 0.000000 0.000000 0.000000 0.120891 0.000000 0.000000
# 5 0.000000 0.000000 0.000000 0.000000 -0.077910 0.000000
# 6 0.000000 0.000000 0.000000 0.000000 0.000000 0.044868
#
#
# Mechanical properties :
#
#
# Convention : Reuss Voigt Hill
#
# Bulk Modulus (GPa) = 48.85457 65.19364 57.02410
# Shear Modulus (GPa) = 35.30599 22.24703 28.77651
#
# Velocity S-wave (km/s) = 3.94614 3.13245 3.56260
# Velocity P-wave (km/s) = 6.50464 6.46817 6.48643
#
# Compressibility (1/GPa) = 0.02046891
#
# Stress axis : x y z
#
# Youngs Moduli (GPa) = 117.81452 158.34745 52.89610
#
# Poissons Ratio (x) = 0.34379 0.18488
# Poissons Ratio (y) = 0.25579 0.05043
# Poissons Ratio (z) = 0.41178 0.15096
#
# Static dielectric constant tensor:
#      x y z
#    x 1.830380 0.000000 0.000000 
#    y 0.000000 1.915250 0.000000 
#    z 0.000000 0.000000 1.913850 
# 
# From -- ./inp_files/30594.got.cif
#   From: 2010.05.17/outbox.cif.g08.bks.cpg/sg24_16_cif.got.tgz:30594.got - 2010.06.04 00:33:39.
