data_PCOD9336445
_publ_section_title
;
Structure prediction by ZEFSAII (Michael W. Deem and Ramdas Pophale) SiO2 
 PCOD9336445
Probable space group: I 21 21 21
;
_chemical_formula_sum "Si O2"
_cell_formula_units_Z 32
_cell_length_a 16.290681
_cell_length_b 9.102343
_cell_length_c 8.175146
_cell_angle_alpha 90.000000
_cell_angle_beta 90.000000
_cell_angle_gamma 90.000000
_cell_volume 1212.238168
_symmetry_space_group_name_H-M "I 21 21 21"
_symmetry_group_IT_number 24
_symmetry_cell_setting 'orthorhombic'
loop_
_space_group_symop_operation_xyz
x,y,z
-x,1/2-y,z
x,-y,1/2-z
1/2-x,y,-z
1/2+x,1/2+y,1/2+z
1/2-x,-y,1/2+z
1/2+x,1/2-y,-z
-x,1/2+y,1/2-z
loop_
_atom_site_type_symbol
_atom_site_label
_atom_site_fract_x
_atom_site_fract_y
_atom_site_fract_z
Si Si1 0.923456 0.163172 0.161134
Si Si2 0.243831 0.651567 0.697406
Si Si3 0.161503 0.101265 0.925212
Si Si4 0.998648 0.426054 0.578072
O O1 0.893703 0.277121 0.020577
O O2 0.000000 0.250000 0.239070
O O3 0.837601 0.156388 0.260262
O O4 0.954622 0.013647 0.070738
O O5 0.205070 0.500000 0.750000
O O6 0.250000 0.638967 0.500000
O O7 0.194586 0.800170 0.726794
O O8 0.096940 0.972144 0.928987
O O9 0.250000 0.057637 0.000000
O O10 0.026269 0.500000 0.750000
O O11 0.000000 0.250000 0.587152
#
# Coordination Sequence:
#
# PCOD9336445 Si02
#       4
#     8   8   8   8
#     4   8  16  33  55  77 107 148 188 231 288 343
#     4   9  18  33  59  87 114 154 195 237 288 347
#     4   8  17  35  56  77 108 147 189 235 290 342
#     4  11  21  33  54  83 114 149 193 243 290 344
#
# _framework density 26.397454
#
# number of rings (size 3 to 8) (size 9 to 14) (size 15 to 20)
#    0.000    3.500    0.000    2.250    0.000    8.000 
#    0.000    8.750    0.000   10.500    0.000    0.000 
#    0.000    0.000    0.000    0.000    0.000    0.000 
#
# Total GULP energy -89139.627650 kJ/mol
# GULP energy per Si atom -5571.226728 kJ/mol
# Density = 2.633737 g / cm^3
# Si number density = 26.397454 Si / 1000 Ang^3
#
#
#
# Elastic Constant Matrix: (Units=GPa)
#
#
# Indices 1 2 3 4 5 6 
#
# 1 232.1369 104.2237 0.0616 0.0000 0.0000 0.0000
# 2 104.2237 229.6616 18.7425 0.0000 0.0000 0.0000
# 3 0.0616 18.7425 34.2513 0.0000 0.0000 0.0000
# 4 0.0000 0.0000 0.0000 42.6652 0.0000 0.0000
# 5 0.0000 0.0000 0.0000 0.0000 22.0164 0.0000
# 6 0.0000 0.0000 0.0000 0.0000 0.0000 55.2551
#
#
#
# Elastic Compliance Matrix: (Units=1/GPa)
#
#
# Indices 1 2 3 4 5 6 
#
# 1 0.005475 -0.002600 0.001413 0.000000 0.000000 0.000000
# 2 -0.002600 0.005792 -0.003165 0.000000 0.000000 0.000000
# 3 0.001413 -0.003165 0.030925 0.000000 0.000000 0.000000
# 4 0.000000 0.000000 0.000000 0.023438 0.000000 0.000000
# 5 0.000000 0.000000 0.000000 0.000000 0.045421 0.000000
# 6 0.000000 0.000000 0.000000 0.000000 0.000000 0.018098
#
#
# Mechanical properties :
#
#
# Convention : Reuss Voigt Hill
#
# Bulk Modulus (GPa) = 29.86106 82.45615 56.15861
# Shear Modulus (GPa) = 33.55349 48.85549 41.20449
#
# Velocity S-wave (km/s) = 3.56910 4.30672 3.95514
# Velocity P-wave (km/s) = 5.32178 7.48563 6.49446
#
# Compressibility (1/GPa) = 0.03348843
#
# Stress axis : x y z
#
# Youngs Moduli (GPa) = 182.65972 172.64197 32.33599
#
# Poissons Ratio (x) = 0.44883 -0.04568
# Poissons Ratio (y) = 0.47487 0.10234
# Poissons Ratio (z) = -0.25805 0.54640
#
# Static dielectric constant tensor:
#      x y z
#    x 2.152650 0.000000 0.000000 
#    y 0.000000 2.266690 0.000000 
#    z 0.000000 0.000000 2.566830 
# 
# From -- ./inp_files/21297.got.cif
#   From: 2010.05.17/outbox.cif.g08.bks.cpg/sg24_11_cif.got.tgz:21297.got - 2010.06.04 00:33:39.
