data_PCOD9336669
_publ_section_title
;
Structure prediction by ZEFSAII (Michael W. Deem and Ramdas Pophale) SiO2 
 PCOD9336669
Probable space group: I 21 21 21
;
_chemical_formula_sum "Si O2"
_cell_formula_units_Z 48
_cell_length_a 21.582562
_cell_length_b 10.116577
_cell_length_c 10.323670
_cell_angle_alpha 90.000000
_cell_angle_beta 90.000000
_cell_angle_gamma 90.000000
_cell_volume 2254.087145
_symmetry_space_group_name_H-M "I 21 21 21"
_symmetry_group_IT_number 24
_symmetry_cell_setting 'orthorhombic'
loop_
_space_group_symop_operation_xyz
x,y,z
-x,1/2-y,z
x,-y,1/2-z
1/2-x,y,-z
1/2+x,1/2+y,1/2+z
1/2-x,-y,1/2+z
1/2+x,1/2-y,-z
-x,1/2+y,1/2-z
loop_
_atom_site_type_symbol
_atom_site_label
_atom_site_fract_x
_atom_site_fract_y
_atom_site_fract_z
Si Si1 0.738607 0.900758 0.857244
Si Si2 0.428700 0.266873 0.050045
Si Si3 0.532292 0.040695 0.395840
Si Si4 0.565990 0.479269 0.888872
Si Si5 0.865733 0.760140 0.804949
Si Si6 0.684952 0.377870 0.539523
O O1 0.805824 0.855426 0.803428
O O2 0.701606 0.763897 0.891910
O O3 0.711176 0.000000 0.750000
O O4 0.750000 0.963150 0.000000
O O5 0.500000 0.250000 0.094630
O O6 0.422958 0.424674 0.046695
O O7 0.383852 0.216952 0.161873
O O8 0.425219 0.174851 0.925394
O O9 0.476404 0.043300 0.497702
O O10 0.575407 0.166084 0.369149
O O11 0.511525 0.000000 0.250000
O O12 0.534934 0.500000 0.750000
O O13 0.633394 0.544579 0.883725
O O14 0.846364 0.646804 0.901095
O O15 0.750000 0.443287 0.500000
#
# Coordination Sequence:
#
# PCOD9336669 Si02
#       6
#     8   8   8   8   8   8
#     4   9  18  38  61  89 122 151 204 269 311 360
#     4   9  19  35  61  90 117 148 201 252 294 366
#     4   9  19  38  66  95 116 148 212 261 305 362
#     4  11  24  42  54  86 135 165 196 246 310 386
#     4   9  18  36  65  95 112 148 206 266 306 354
#     4   9  22  41  58  84 125 161 207 251 305 367
#
# _framework density 21.294651000000002
#
# number of rings (size 3 to 8) (size 9 to 14) (size 15 to 20)
#    0.000    3.000    0.000    1.500    7.000    0.000 
#   24.000    0.833    0.000    0.000    0.000    0.000 
#    0.000    0.000    0.000    0.000    0.000    0.000 
#
# Total GULP energy -133713.252240 kJ/mol
# GULP energy per Si atom -5571.385510 kJ/mol
# Density = 2.124618 g / cm^3
# Si number density = 21.294651 Si / 1000 Ang^3
#
#
#
# Elastic Constant Matrix: (Units=GPa)
#
#
# Indices 1 2 3 4 5 6 
#
# 1 80.8960 5.6044 36.9603 0.0000 0.0000 0.0000
# 2 5.6044 43.0316 32.0684 0.0000 0.0000 0.0000
# 3 36.9603 32.0684 126.2580 0.0000 0.0000 0.0000
# 4 0.0000 0.0000 0.0000 35.2625 0.0000 0.0000
# 5 0.0000 0.0000 0.0000 0.0000 21.2953 0.0000
# 6 0.0000 0.0000 0.0000 0.0000 0.0000 9.6700
#
#
#
# Elastic Compliance Matrix: (Units=1/GPa)
#
#
# Indices 1 2 3 4 5 6 
#
# 1 0.014354 0.001557 -0.004597 0.000000 0.000000 0.000000
# 2 0.001557 0.028833 -0.007779 0.000000 0.000000 0.000000
# 3 -0.004597 -0.007779 0.011242 0.000000 0.000000 0.000000
# 4 0.000000 0.000000 0.000000 0.028359 0.000000 0.000000
# 5 0.000000 0.000000 0.000000 0.000000 0.046959 0.000000
# 6 0.000000 0.000000 0.000000 0.000000 0.000000 0.103412
#
#
# Mechanical properties :
#
#
# Convention : Reuss Voigt Hill
#
# Bulk Modulus (GPa) = 30.49740 44.38354 37.44047
# Shear Modulus (GPa) = 18.81621 24.94908 21.88264
#
# Velocity S-wave (km/s) = 2.97579 3.42660 3.20912
# Velocity P-wave (km/s) = 5.11466 6.04510 5.59924
#
# Compressibility (1/GPa) = 0.03278968
#
# Stress axis : x y z
#
# Youngs Moduli (GPa) = 69.66610 34.68229 88.95287
#
# Poissons Ratio (x) = -0.05399 0.40895
# Poissons Ratio (y) = -0.10844 0.69197
# Poissons Ratio (z) = 0.32028 0.26979
#
# Static dielectric constant tensor:
#      x y z
#    x 1.801890 0.000000 0.000000 
#    y 0.000000 1.870560 0.000000 
#    z 0.000000 0.000000 1.786840 
# 
# From -- ./inp_files/15820.got.cif
#   From: 2010.05.17/outbox.cif.g08.bks.cpg/sg24_8_cif.got.tgz:15820.got - 2010.06.04 00:33:39.
