data_PCOD9336342
_publ_section_title
;
Structure prediction by ZEFSAII (Michael W. Deem and Ramdas Pophale) SiO2 
 PCOD9336342
Probable space group: I 21 21 21
;
_chemical_formula_sum "Si O2"
_cell_formula_units_Z 20
_cell_length_a 6.025385
_cell_length_b 13.144085
_cell_length_c 9.436888
_cell_angle_alpha 90.000000
_cell_angle_beta 90.000000
_cell_angle_gamma 90.000000
_cell_volume 747.384285
_symmetry_space_group_name_H-M "I 21 21 21"
_symmetry_group_IT_number 24
_symmetry_cell_setting 'orthorhombic'
loop_
_space_group_symop_operation_xyz
x,y,z
-x,1/2-y,z
x,-y,1/2-z
1/2-x,y,-z
1/2+x,1/2+y,1/2+z
1/2-x,-y,1/2+z
1/2+x,1/2-y,-z
-x,1/2+y,1/2-z
loop_
_atom_site_type_symbol
_atom_site_label
_atom_site_fract_x
_atom_site_fract_y
_atom_site_fract_z
Si Si1 0.055716 0.862939 0.831224
Si Si2 0.500000 0.750000 0.438786
Si Si3 0.052286 0.000000 0.250000
Si Si4 0.750000 0.983280 0.500000
O O1 0.299348 0.912543 0.826135
O O2 0.000000 0.750000 0.890463
O O3 0.999644 0.847238 0.665459
O O4 0.898057 0.941443 0.904654
O O5 0.750000 0.748799 0.500000
O O6 0.920731 0.943659 0.377719
#
# Coordination Sequence:
#
# PCOD9336342 Si02
#       4
#     8   4   4   4
#     4  10  28  50  81 120 169 227 283 352 434 530
#     4  10  26  50  82 120 170 226 288 358 438 516
#     4  12  28  54  80 130 166 224 294 358 446 522
#     4  12  28  50  86 120 172 226 284 368 442 522
#
# _framework density 26.759993999999999
#
# number of rings (size 3 to 8) (size 9 to 14) (size 15 to 20)
#    1.200    0.000    0.000    2.400   11.200    6.400 
#    3.600    0.000    0.000    0.000    0.000    0.000 
#    0.000    0.000    0.000    0.000    0.000    0.000 
#
# Total GULP energy -55818.336243 kJ/mol
# GULP energy per Si atom -5581.833624 kJ/mol
# Density = 2.669909 g / cm^3
# Si number density = 26.759994 Si / 1000 Ang^3
#
#
#
# Elastic Constant Matrix: (Units=GPa)
#
#
# Indices 1 2 3 4 5 6 
#
# 1 196.5873 47.7604 79.2739 0.0000 0.0000 0.0000
# 2 47.7604 138.0521 -6.1206 0.0000 0.0000 0.0000
# 3 79.2739 -6.1206 130.0580 0.0000 0.0000 0.0000
# 4 0.0000 0.0000 0.0000 33.7439 0.0000 0.0000
# 5 0.0000 0.0000 0.0000 0.0000 74.1582 0.0000
# 6 0.0000 0.0000 0.0000 0.0000 0.0000 57.2150
#
#
#
# Elastic Compliance Matrix: (Units=1/GPa)
#
#
# Indices 1 2 3 4 5 6 
#
# 1 0.007751 -0.002897 -0.004861 0.000000 0.000000 0.000000
# 2 -0.002897 0.008342 0.002158 0.000000 0.000000 0.000000
# 3 -0.004861 0.002158 0.010753 0.000000 0.000000 0.000000
# 4 0.000000 0.000000 0.000000 0.029635 0.000000 0.000000
# 5 0.000000 0.000000 0.000000 0.000000 0.013485 0.000000
# 6 0.000000 0.000000 0.000000 0.000000 0.000000 0.017478
#
#
# Mechanical properties :
#
#
# Convention : Reuss Voigt Hill
#
# Bulk Modulus (GPa) = 63.91021 78.50276 71.20649
# Shear Modulus (GPa) = 48.14325 55.94233 52.04279
#
# Velocity S-wave (km/s) = 4.24615 4.57718 4.41477
# Velocity P-wave (km/s) = 6.92635 7.57190 7.25631
#
# Compressibility (1/GPa) = 0.01564695
#
# Stress axis : x y z
#
# Youngs Moduli (GPa) = 129.02224 119.88202 92.99661
#
# Poissons Ratio (x) = 0.34728 0.45201
# Poissons Ratio (y) = 0.37376 -0.20071
# Poissons Ratio (z) = 0.62712 -0.25874
#
# Static dielectric constant tensor:
#      x y z
#    x 2.133600 0.000000 0.000000 
#    y 0.000000 2.144850 0.000000 
#    z 0.000000 0.000000 2.199590 
# 
# From -- ./inp_files/1574.got.cif
#   From: 2010.05.17/outbox.cif.g08.bks.cpg/sg24_1_cif.got.tgz:1574.got - 2010.06.04 00:33:39.
