data_PCOD9336328
_publ_section_title
;
Structure prediction by ZEFSAII (Michael W. Deem and Ramdas Pophale) SiO2 
 PCOD9336328
Probable space group: I 21 21 21
;
_chemical_formula_sum "Si O2"
_cell_formula_units_Z 40
_cell_length_a 15.971368
_cell_length_b 15.473725
_cell_length_c 6.982720
_cell_angle_alpha 90.000000
_cell_angle_beta 90.000000
_cell_angle_gamma 90.000000
_cell_volume 1725.685374
_symmetry_space_group_name_H-M "I 21 21 21"
_symmetry_group_IT_number 24
_symmetry_cell_setting 'orthorhombic'
loop_
_space_group_symop_operation_xyz
x,y,z
-x,1/2-y,z
x,-y,1/2-z
1/2-x,y,-z
1/2+x,1/2+y,1/2+z
1/2-x,-y,1/2+z
1/2+x,1/2-y,-z
-x,1/2+y,1/2-z
loop_
_atom_site_type_symbol
_atom_site_label
_atom_site_fract_x
_atom_site_fract_y
_atom_site_fract_z
Si Si1 0.857169 0.403495 0.258270
Si Si2 0.255181 0.259823 0.228027
Si Si3 0.427225 0.200031 0.102155
Si Si4 0.169341 0.568801 0.097673
Si Si5 0.505897 0.577170 0.098761
O O1 0.818400 0.500000 0.250000
O O2 0.790953 0.327044 0.301703
O O3 0.889757 0.369275 0.050215
O O4 0.931724 0.584815 0.084790
O O5 0.354694 0.247154 0.225873
O O6 0.207161 0.341531 0.319118
O O7 0.250000 0.269496 0.000000
O O8 0.500000 0.250000 0.984609
O O9 0.479925 0.157209 0.266867
O O10 0.138330 0.500000 0.250000
O O11 0.250000 0.525907 0.000000
O O12 0.090268 0.578436 0.963165
O O13 0.523616 0.500000 0.250000
#
# Coordination Sequence:
#
# PCOD9336328 Si02
#       5
#     8   8   8   8   8
#     4  11  25  48  74 108 154 203 253 321 382 451
#     4  10  26  48  76 112 149 202 258 316 387 455
#     4  11  26  47  74 110 154 194 256 318 384 464
#     4  12  27  47  76 108 154 196 254 319 386 458
#     4  12  27  45  76 111 149 201 258 312 389 457
#
# _framework density 23.179198
#
# number of rings (size 3 to 8) (size 9 to 14) (size 15 to 20)
#    0.000    0.800    2.000    3.000   11.200    0.800 
#    3.600    0.000    0.000    0.000    0.000    0.000 
#    0.000    0.000    0.000    0.000    0.000    0.000 
#
# Total GULP energy -111505.863019 kJ/mol
# GULP energy per Si atom -5575.293151 kJ/mol
# Density = 2.312644 g / cm^3
# Si number density = 23.179198 Si / 1000 Ang^3
#
#
#
# Elastic Constant Matrix: (Units=GPa)
#
#
# Indices 1 2 3 4 5 6 
#
# 1 128.6217 23.3818 35.9761 0.0000 0.0000 0.0000
# 2 23.3818 119.5157 18.2339 0.0000 0.0000 0.0000
# 3 35.9761 18.2339 99.8618 0.0000 0.0000 0.0000
# 4 0.0000 0.0000 0.0000 47.8104 0.0000 0.0000
# 5 0.0000 0.0000 0.0000 0.0000 52.6941 0.0000
# 6 0.0000 0.0000 0.0000 0.0000 0.0000 25.7056
#
#
#
# Elastic Compliance Matrix: (Units=1/GPa)
#
#
# Indices 1 2 3 4 5 6 
#
# 1 0.008832 -0.001278 -0.002948 0.000000 0.000000 0.000000
# 2 -0.001278 0.008792 -0.001145 0.000000 0.000000 0.000000
# 3 -0.002948 -0.001145 0.011285 0.000000 0.000000 0.000000
# 4 0.000000 0.000000 0.000000 0.020916 0.000000 0.000000
# 5 0.000000 0.000000 0.000000 0.000000 0.018977 0.000000
# 6 0.000000 0.000000 0.000000 0.000000 0.000000 0.038902
#
#
# Mechanical properties :
#
#
# Convention : Reuss Voigt Hill
#
# Bulk Modulus (GPa) = 55.04766 55.90921 55.47844
# Shear Modulus (GPa) = 40.16005 43.26918 41.71461
#
# Velocity S-wave (km/s) = 4.16695 4.32525 4.24684
# Velocity P-wave (km/s) = 6.85213 7.00832 6.93066
#
# Compressibility (1/GPa) = 0.01816608
#
# Stress axis : x y z
#
# Youngs Moduli (GPa) = 113.22810 113.74233 88.61272
#
# Poissons Ratio (x) = 0.14536 0.26126
# Poissons Ratio (y) = 0.14471 0.10145
# Poissons Ratio (z) = 0.33384 0.13022
#
# Static dielectric constant tensor:
#      x y z
#    x 1.364380 0.000000 0.000000 
#    y 0.000000 2.002300 0.000000 
#    z 0.000000 0.000000 1.892390 
# 
# From -- ./inp_files/12303.got.cif
#   From: 2010.05.17/outbox.cif.g08.bks.cpg/sg24_7_cif.got.tgz:12303.got - 2010.06.04 00:33:39.
