data_PCOD9336262
_publ_section_title
;
Structure prediction by ZEFSAII (Michael W. Deem and Ramdas Pophale) SiO2 
 PCOD9336262
Probable space group: I 21 21 21
;
_chemical_formula_sum "Si O2"
_cell_formula_units_Z 56
_cell_length_a 9.137516
_cell_length_b 20.986868
_cell_length_c 12.760335
_cell_angle_alpha 90.000000
_cell_angle_beta 90.000000
_cell_angle_gamma 90.000000
_cell_volume 2447.021908
_symmetry_space_group_name_H-M "I 21 21 21"
_symmetry_group_IT_number 24
_symmetry_cell_setting 'orthorhombic'
loop_
_space_group_symop_operation_xyz
x,y,z
-x,1/2-y,z
x,-y,1/2-z
1/2-x,y,-z
1/2+x,1/2+y,1/2+z
1/2-x,-y,1/2+z
1/2+x,1/2-y,-z
-x,1/2+y,1/2-z
loop_
_atom_site_type_symbol
_atom_site_label
_atom_site_fract_x
_atom_site_fract_y
_atom_site_fract_z
Si Si1 0.281427 0.357356 0.324619
Si Si2 0.012614 0.538032 0.850633
Si Si3 0.116561 0.803303 0.425675
Si Si4 0.231495 0.097293 0.377077
Si Si5 0.826129 0.272243 0.734313
Si Si6 0.651719 0.103944 0.894018
Si Si7 0.074843 0.536917 0.089580
O O1 0.438758 0.388857 0.338480
O O2 0.277931 0.283118 0.346607
O O3 0.236510 0.365893 0.203738
O O4 0.183946 0.404743 0.392287
O O5 0.068301 0.500000 0.750000
O O6 0.839571 0.539391 0.851598
O O7 0.059705 0.518423 0.966547
O O8 0.250000 0.824028 0.500000
O O9 0.211980 0.771513 0.332139
O O10 0.000000 0.750000 0.466229
O O11 0.006835 0.861850 0.402476
O O12 0.250000 0.113139 0.500000
O O13 0.280521 0.159048 0.312230
O O14 0.071975 0.067602 0.364822
O O15 0.000000 0.250000 0.757192
O O16 0.626726 0.029982 0.864828
O O17 0.750000 0.110641 0.000000
#
# Coordination Sequence:
#
# PCOD9336262 Si02
#       7
#     8   8   8   8   8   8   8
#     4  12  24  43  68 101 142 183 240 303 360 439
#     4  11  23  43  70 101 138 185 233 298 367 443
#     4  12  27  46  71 105 147 192 243 312 365 443
#     4  10  25  45  68 103 141 181 237 300 363 436
#     4  12  26  47  72 103 141 196 248 302 376 448
#     4  12  26  45  72 106 141 195 248 301 379 454
#     4  11  25  45  69 105 143 180 239 303 368 447
#
# _framework density 22.884958999999998
#
# number of rings (size 3 to 8) (size 9 to 14) (size 15 to 20)
#    0.000    0.571    2.857    5.143    2.000    6.286 
#    0.000    0.000    0.000    0.000    0.000    0.000 
#    0.000    0.000    0.000    0.000    0.000    0.000 
#
# Total GULP energy -156146.791141 kJ/mol
# GULP energy per Si atom -5576.671112 kJ/mol
# Density = 2.283287 g / cm^3
# Si number density = 22.884959 Si / 1000 Ang^3
#
#
#
# Elastic Constant Matrix: (Units=GPa)
#
#
# Indices 1 2 3 4 5 6 
#
# 1 156.8229 20.3561 16.1880 0.0000 0.0000 0.0000
# 2 20.3561 64.6816 -1.6108 0.0000 0.0000 0.0000
# 3 16.1880 -1.6108 59.8534 0.0000 0.0000 0.0000
# 4 0.0000 0.0000 0.0000 11.0365 0.0000 0.0000
# 5 0.0000 0.0000 0.0000 0.0000 20.4093 0.0000
# 6 0.0000 0.0000 0.0000 0.0000 0.0000 46.8862
#
#
#
# Elastic Compliance Matrix: (Units=1/GPa)
#
#
# Indices 1 2 3 4 5 6 
#
# 1 0.006861 -0.002207 -0.001915 0.000000 0.000000 0.000000
# 2 -0.002207 0.016181 0.001032 0.000000 0.000000 0.000000
# 3 -0.001915 0.001032 0.017253 0.000000 0.000000 0.000000
# 4 0.000000 0.000000 0.000000 0.090608 0.000000 0.000000
# 5 0.000000 0.000000 0.000000 0.000000 0.048997 0.000000
# 6 0.000000 0.000000 0.000000 0.000000 0.000000 0.021328
#
#
# Mechanical properties :
#
#
# Convention : Reuss Voigt Hill
#
# Bulk Modulus (GPa) = 29.31214 39.02495 34.16854
# Shear Modulus (GPa) = 22.85412 32.09471 27.47441
#
# Velocity S-wave (km/s) = 3.16357 3.74897 3.46865
# Velocity P-wave (km/s) = 5.11669 5.98577 5.56821
#
# Compressibility (1/GPa) = 0.03411556
#
# Stress axis : x y z
#
# Youngs Moduli (GPa) = 145.75665 61.80248 57.96028
#
# Poissons Ratio (x) = 0.13639 0.11099
# Poissons Ratio (y) = 0.32166 -0.05983
# Poissons Ratio (z) = 0.27912 -0.06380
#
# Static dielectric constant tensor:
#      x y z
#    x 1.911620 0.000000 0.000000 
#    y 0.000000 1.856460 0.000000 
#    z 0.000000 0.000000 1.905290 
# 
# From -- ./inp_files/25066.got.cif
#   From: 2010.05.17/outbox.cif.g08.bks.cpg/sg24_13_cif.got.tgz:25066.got - 2010.06.04 00:33:39.
