data_PCOD9336849
_publ_section_title
;
Structure prediction by ZEFSAII (Michael W. Deem and Ramdas Pophale) SiO2 
 PCOD9336849
Probable space group: I 21 21 21
;
_chemical_formula_sum "Si O2"
_cell_formula_units_Z 36
_cell_length_a 4.973878
_cell_length_b 16.489468
_cell_length_c 21.279845
_cell_angle_alpha 90.000000
_cell_angle_beta 90.000000
_cell_angle_gamma 90.000000
_cell_volume 1745.300580
_symmetry_space_group_name_H-M "I 21 21 21"
_symmetry_group_IT_number 24
_symmetry_cell_setting 'orthorhombic'
loop_
_space_group_symop_operation_xyz
x,y,z
-x,1/2-y,z
x,-y,1/2-z
1/2-x,y,-z
1/2+x,1/2+y,1/2+z
1/2-x,-y,1/2+z
1/2+x,1/2-y,-z
-x,1/2+y,1/2-z
loop_
_atom_site_type_symbol
_atom_site_label
_atom_site_fract_x
_atom_site_fract_y
_atom_site_fract_z
Si Si1 0.253508 0.069656 0.390776
Si Si2 0.750000 0.694514 0.000000
Si Si3 0.910482 0.842560 0.321326
Si Si4 0.916091 0.593776 0.751777
Si Si5 0.246133 0.465101 0.924781
O O1 0.320731 0.136900 0.442207
O O2 0.310324 0.105797 0.322336
O O3 0.454097 0.995098 0.403634
O O4 0.955581 0.035055 0.402868
O O5 0.500000 0.750000 0.982533
O O6 0.661816 0.852197 0.272858
O O7 0.000000 0.750000 0.328532
O O8 0.161510 0.892149 0.293096
O O9 0.822293 0.884704 0.386285
O O10 0.008381 0.500000 0.750000
O O11 0.250000 0.456136 0.000000
#
# Coordination Sequence:
#
# PCOD9336849 Si02
#       5
#     8   4   8   8   8
#     4  12  24  42  72  97 130 185 234 273 339 417
#     4  12  26  44  62 100 140 168 220 288 338 388
#     4  12  26  44  68 107 143 172 225 300 348 393
#     4  12  23  44  72 101 134 184 234 276 338 422
#     4  12  22  43  71 100 130 182 235 276 336 420
#
# _framework density 20.626818
#
# number of rings (size 3 to 8) (size 9 to 14) (size 15 to 20)
#    0.000    0.000    6.667    4.000    0.000    2.667 
#    0.000    4.444    0.000    0.000    0.000    0.000 
#    0.000    0.000    0.000    0.000    0.000    0.000 
#
# Total GULP energy -100769.797776 kJ/mol
# GULP energy per Si atom -5598.322099 kJ/mol
# Density = 2.057987 g / cm^3
# Si number density = 20.626818 Si / 1000 Ang^3
#
#
#
# Elastic Constant Matrix: (Units=GPa)
#
#
# Indices 1 2 3 4 5 6 
#
# 1 89.8410 16.6628 31.3865 0.0000 0.0000 0.0000
# 2 16.6628 92.3608 50.5009 0.0000 0.0000 0.0000
# 3 31.3865 50.5009 162.3417 0.0000 0.0000 0.0000
# 4 0.0000 0.0000 0.0000 30.2396 0.0000 0.0000
# 5 0.0000 0.0000 0.0000 0.0000 30.1747 0.0000
# 6 0.0000 0.0000 0.0000 0.0000 0.0000 32.6532
#
#
#
# Elastic Compliance Matrix: (Units=1/GPa)
#
#
# Indices 1 2 3 4 5 6 
#
# 1 0.012026 -0.001082 -0.001988 0.000000 0.000000 0.000000
# 2 -0.001082 0.013144 -0.003879 0.000000 0.000000 0.000000
# 3 -0.001988 -0.003879 0.007751 0.000000 0.000000 0.000000
# 4 0.000000 0.000000 0.000000 0.033069 0.000000 0.000000
# 5 0.000000 0.000000 0.000000 0.000000 0.033140 0.000000
# 6 0.000000 0.000000 0.000000 0.000000 0.000000 0.030625
#
#
# Mechanical properties :
#
#
# Convention : Reuss Voigt Hill
#
# Bulk Modulus (GPa) = 52.57517 60.18266 56.37892
# Shear Modulus (GPa) = 33.33427 35.01305 34.17366
#
# Velocity S-wave (km/s) = 4.02439 4.12449 4.07475
# Velocity P-wave (km/s) = 6.86574 7.20570 7.03777
#
# Compressibility (1/GPa) = 0.01902039
#
# Stress axis : x y z
#
# Youngs Moduli (GPa) = 83.15187 76.08291 129.01452
#
# Poissons Ratio (x) = 0.08236 0.25653
# Poissons Ratio (y) = 0.09001 0.50050
# Poissons Ratio (z) = 0.16534 0.29516
#
# Static dielectric constant tensor:
#      x y z
#    x 1.727010 0.000000 0.000000 
#    y 0.000000 1.719710 0.000000 
#    z 0.000000 0.000000 1.735560 
# 
# From -- ./inp_files/3342.got.cif
#   From: 2010.05.17/outbox.cif.g08.bks.cpg/sg24_2_cif.got.tgz:3342.got - 2010.06.04 00:33:39.
