data_PCOD9336472
_publ_section_title
;
Structure prediction by ZEFSAII (Michael W. Deem and Ramdas Pophale) SiO2 
 PCOD9336472
Probable space group: I 21 21 21
;
_chemical_formula_sum "Si O2"
_cell_formula_units_Z 48
_cell_length_a 30.617549
_cell_length_b 8.256392
_cell_length_c 9.369634
_cell_angle_alpha 90.000000
_cell_angle_beta 90.000000
_cell_angle_gamma 90.000000
_cell_volume 2368.554338
_symmetry_space_group_name_H-M "I 21 21 21"
_symmetry_group_IT_number 24
_symmetry_cell_setting 'orthorhombic'
loop_
_space_group_symop_operation_xyz
x,y,z
-x,1/2-y,z
x,-y,1/2-z
1/2-x,y,-z
1/2+x,1/2+y,1/2+z
1/2-x,-y,1/2+z
1/2+x,1/2-y,-z
-x,1/2+y,1/2-z
loop_
_atom_site_type_symbol
_atom_site_label
_atom_site_fract_x
_atom_site_fract_y
_atom_site_fract_z
Si Si1 0.892534 0.671266 0.584950
Si Si2 0.731607 0.660927 0.659062
Si Si3 0.953301 0.181616 0.689553
Si Si4 0.817389 0.811063 0.784083
Si Si5 0.620483 0.697398 0.990716
Si Si6 0.638716 0.818957 0.690465
O O1 0.934190 0.707256 0.682448
O O2 0.850872 0.714613 0.682655
O O3 0.887742 0.486763 0.537107
O O4 0.890507 0.786992 0.447915
O O5 0.722278 0.500000 0.750000
O O6 0.750000 0.625722 0.500000
O O7 0.768977 0.756587 0.745353
O O8 0.687565 0.764552 0.648160
O O9 0.917830 0.197044 0.563273
O O10 0.000000 0.250000 0.644769
O O11 0.955583 0.000000 0.750000
O O12 0.834153 0.764402 0.941684
O O13 0.822912 0.000000 0.750000
O O14 0.622667 0.710847 0.822155
O O15 0.638325 0.000000 0.750000
#
# Coordination Sequence:
#
# PCOD9336472 Si02
#       6
#     8   8   8   8   8   8
#     4  11  21  41  62  92 124 162 208 252 309 372
#     4  12  26  42  61  88 123 165 215 268 313 371
#     4  11  22  41  68  99 128 162 204 252 307 372
#     4  11  22  39  61  86 119 162 209 258 308 364
#     4  11  23  39  66  91 124 165 204 255 310 375
#     4  12  25  42  62  90 125 166 211 262 317 369
#
# _framework density 20.265525
#
# number of rings (size 3 to 8) (size 9 to 14) (size 15 to 20)
#    0.000    0.667    1.667   10.000    2.333    0.000 
#    0.000    0.833    0.000    0.000    0.000    0.000 
#    0.000    0.000    0.000    0.000    0.000    0.000 
#
# Total GULP energy -134339.126444 kJ/mol
# GULP energy per Si atom -5597.463602 kJ/mol
# Density = 2.021940 g / cm^3
# Si number density = 20.265525 Si / 1000 Ang^3
#
#
#
# Elastic Constant Matrix: (Units=GPa)
#
#
# Indices 1 2 3 4 5 6 
#
# 1 68.8113 -5.2580 7.7211 0.0000 0.0000 0.0000
# 2 -5.2580 91.8827 -19.9724 0.0000 0.0000 0.0000
# 3 7.7211 -19.9724 84.6531 0.0000 0.0000 0.0000
# 4 0.0000 0.0000 0.0000 29.4029 0.0000 0.0000
# 5 0.0000 0.0000 0.0000 0.0000 13.6971 0.0000
# 6 0.0000 0.0000 0.0000 0.0000 0.0000 25.8558
#
#
#
# Elastic Compliance Matrix: (Units=1/GPa)
#
#
# Indices 1 2 3 4 5 6 
#
# 1 0.014712 0.000580 -0.001205 0.000000 0.000000 0.000000
# 2 0.000580 0.011495 0.002659 0.000000 0.000000 0.000000
# 3 -0.001205 0.002659 0.012550 0.000000 0.000000 0.000000
# 4 0.000000 0.000000 0.000000 0.034010 0.000000 0.000000
# 5 0.000000 0.000000 0.000000 0.000000 0.073008 0.000000
# 6 0.000000 0.000000 0.000000 0.000000 0.000000 0.038676
#
#
# Mechanical properties :
#
#
# Convention : Reuss Voigt Hill
#
# Bulk Modulus (GPa) = 23.35095 23.36983 23.36039
# Shear Modulus (GPa) = 25.68606 31.31492 28.50049
#
# Velocity S-wave (km/s) = 3.56402 3.93521 3.75421
# Velocity P-wave (km/s) = 5.33703 5.67491 5.50856
#
# Compressibility (1/GPa) = 0.04282480
#
# Stress axis : x y z
#
# Youngs Moduli (GPa) = 67.97156 86.99723 79.68011
#
# Poissons Ratio (x) = -0.05046 0.09602
# Poissons Ratio (y) = -0.03942 -0.21187
# Poissons Ratio (z) = 0.08191 -0.23133
#
# Static dielectric constant tensor:
#      x y z
#    x 1.690180 0.000000 0.000000 
#    y 0.000000 1.727580 0.000000 
#    z 0.000000 0.000000 1.734960 
# 
# From -- ./inp_files/16838.got.cif
#   From: 2010.05.17/outbox.cif.g08.bks.cpg/sg24_9_cif.got.tgz:16838.got - 2010.06.04 00:33:39.
