data_PCOD9336912
_publ_section_title
;
Structure prediction by ZEFSAII (Michael W. Deem and Ramdas Pophale) SiO2 
 PCOD9336912
Probable space group: I 21 21 21
;
_chemical_formula_sum "Si O2"
_cell_formula_units_Z 40
_cell_length_a 12.400944
_cell_length_b 8.495894
_cell_length_c 17.298539
_cell_angle_alpha 90.000000
_cell_angle_beta 90.000000
_cell_angle_gamma 90.000000
_cell_volume 1822.524002
_symmetry_space_group_name_H-M "I 21 21 21"
_symmetry_group_IT_number 24
_symmetry_cell_setting 'orthorhombic'
loop_
_space_group_symop_operation_xyz
x,y,z
-x,1/2-y,z
x,-y,1/2-z
1/2-x,y,-z
1/2+x,1/2+y,1/2+z
1/2-x,-y,1/2+z
1/2+x,1/2-y,-z
-x,1/2+y,1/2-z
loop_
_atom_site_type_symbol
_atom_site_label
_atom_site_fract_x
_atom_site_fract_y
_atom_site_fract_z
Si Si1 0.708876 0.450660 0.662765
Si Si2 0.885588 0.789998 0.850002
Si Si3 0.123039 0.281074 0.118925
Si Si4 0.230052 0.500000 0.250000
Si Si5 0.500000 0.750000 0.875112
Si Si6 0.874119 0.961023 0.003472
O O1 0.737374 0.500000 0.750000
O O2 0.810251 0.357895 0.626103
O O3 0.682622 0.614157 0.620503
O O4 0.598869 0.342838 0.666198
O O5 0.806275 0.877901 0.792745
O O6 0.000000 0.750000 0.812824
O O7 0.915888 0.906573 0.920604
O O8 0.166852 0.403792 0.183600
O O9 0.126912 0.361324 0.034434
O O10 0.000000 0.250000 0.139824
O O11 0.559280 0.872080 0.931138
O O12 0.750000 0.909015 0.000000
#
# Coordination Sequence:
#
# PCOD9336912 Si02
#       6
#     8   8   8   4   4   8
#     4  12  27  45  76 115 146 190 250 309 378 443
#     4  12  28  50  73 101 153 204 248 296 370 441
#     4  12  27  44  75 117 148 186 247 311 377 440
#     4  12  26  46  74 108 152 190 242 314 370 448
#     4  12  24  44  76 106 148 194 240 306 378 432
#     4  12  24  48  68 104 149 196 236 295 365 439
#
# _framework density 21.947585
#
# number of rings (size 3 to 8) (size 9 to 14) (size 15 to 20)
#    0.000    0.000    9.000    0.000    4.200    0.000 
#    7.200    1.000    0.000    0.000    0.000    0.000 
#    0.000    0.000    0.000    0.000    0.000    0.000 
#
# Total GULP energy -111769.962620 kJ/mol
# GULP energy per Si atom -5588.498131 kJ/mol
# Density = 2.189763 g / cm^3
# Si number density = 21.947585 Si / 1000 Ang^3
#
#
#
# Elastic Constant Matrix: (Units=GPa)
#
#
# Indices 1 2 3 4 5 6 
#
# 1 153.2693 54.2494 19.3814 0.0000 0.0000 0.0000
# 2 54.2494 100.5378 26.8460 0.0000 0.0000 0.0000
# 3 19.3814 26.8460 66.7967 0.0000 0.0000 0.0000
# 4 0.0000 0.0000 0.0000 15.6721 0.0000 0.0000
# 5 0.0000 0.0000 0.0000 0.0000 -5.5495 0.0000
# 6 0.0000 0.0000 0.0000 0.0000 0.0000 22.2865
#
#
#
# Elastic Compliance Matrix: (Units=1/GPa)
#
#
# Indices 1 2 3 4 5 6 
#
# 1 0.008091 -0.004188 -0.000664 0.000000 0.000000 0.000000
# 2 -0.004188 0.013311 -0.004134 0.000000 0.000000 0.000000
# 3 -0.000664 -0.004134 0.016825 0.000000 0.000000 0.000000
# 4 0.000000 0.000000 0.000000 0.063808 0.000000 0.000000
# 5 0.000000 0.000000 0.000000 0.000000 -0.180197 0.000000
# 6 0.000000 0.000000 0.000000 0.000000 0.000000 0.044870
#
#
# Mechanical properties :
#
#
# Convention : Reuss Voigt Hill
#
# Bulk Modulus (GPa) = 49.37633 57.95082 53.66358
# Shear Modulus (GPa) = -583.56918 21.15695 -281.20611
#
# Velocity S-wave (km/s) = -16.32389 3.10817 -11.33157
# Velocity P-wave (km/s) = 18.24134 6.27235 12.11206
#
# Compressibility (1/GPa) = 0.02025262
#
# Stress axis : x y z
#
# Youngs Moduli (GPa) = 123.59477 75.12858 59.43488
#
# Poissons Ratio (x) = 0.31467 0.03948
# Poissons Ratio (y) = 0.51767 0.24572
# Poissons Ratio (z) = 0.08210 0.31060
#
# Static dielectric constant tensor:
#      x y z
#    x 1.787210 0.000000 0.000000 
#    y 0.000000 1.956700 0.000000 
#    z 0.000000 0.000000 1.824220 
# 
# From -- ./inp_files/10733.got.cif
#   From: 2010.05.17/outbox.cif.g08.bks.cpg/sg24_6_cif.got.tgz:10733.got - 2010.06.04 00:33:39.
