data_PCOD9336185
_publ_section_title
;
Structure prediction by ZEFSAII (Michael W. Deem and Ramdas Pophale) SiO2 
 PCOD9336185
Probable space group: I 21 21 21
;
_chemical_formula_sum "Si O2"
_cell_formula_units_Z 40
_cell_length_a 10.539920
_cell_length_b 20.155370
_cell_length_c 8.331512
_cell_angle_alpha 90.000000
_cell_angle_beta 90.000000
_cell_angle_gamma 90.000000
_cell_volume 1769.912978
_symmetry_space_group_name_H-M "I 21 21 21"
_symmetry_group_IT_number 24
_symmetry_cell_setting 'orthorhombic'
loop_
_space_group_symop_operation_xyz
x,y,z
-x,1/2-y,z
x,-y,1/2-z
1/2-x,y,-z
1/2+x,1/2+y,1/2+z
1/2-x,-y,1/2+z
1/2+x,1/2-y,-z
-x,1/2+y,1/2-z
loop_
_atom_site_type_symbol
_atom_site_label
_atom_site_fract_x
_atom_site_fract_y
_atom_site_fract_z
Si Si1 0.062868 0.879382 0.681779
Si Si2 0.250000 0.720797 0.000000
Si Si3 0.500000 0.250000 0.024279
Si Si4 0.178482 0.819546 0.273535
Si Si5 0.378160 0.481481 0.062256
Si Si6 0.474347 0.384252 0.539775
O O1 0.210960 0.866442 0.662565
O O2 0.982615 0.813783 0.635767
O O3 0.002205 0.935800 0.570963
O O4 0.044601 0.893070 0.869677
O O5 0.251491 0.769586 0.848542
O O6 0.128274 0.673948 0.018148
O O7 0.611756 0.274108 0.906965
O O8 0.071283 0.861065 0.177291
O O9 0.357167 0.500000 0.250000
O O10 0.402110 0.545396 0.949178
O O11 0.250000 0.447034 0.000000
#
# Coordination Sequence:
#
# PCOD9336185 Si02
#       6
#     8   4   4   8   8   8
#     4  11  25  44  66 101 149 183 225 305 371 425
#     4  12  20  38  74 102 134 172 252 292 332 418
#     4  12  26  42  66 104 142 182 230 300 378 422
#     4  12  24  43  71 106 140 189 243 291 362 440
#     4  10  24  45  70 102 141 188 244 297 363 433
#     4  11  22  43  72 102 135 191 245 291 345 441
#
# _framework density 22.599983000000002
#
# number of rings (size 3 to 8) (size 9 to 14) (size 15 to 20)
#    0.000    0.800    5.000    1.800    0.000    6.400 
#    0.000   12.000    0.000    0.000    0.000    0.000 
#    0.000    0.000    0.000    0.000    0.000    0.000 
#
# Total GULP energy -111814.764792 kJ/mol
# GULP energy per Si atom -5590.738240 kJ/mol
# Density = 2.254854 g / cm^3
# Si number density = 22.599983 Si / 1000 Ang^3
#
#
#
# Elastic Constant Matrix: (Units=GPa)
#
#
# Indices 1 2 3 4 5 6 
#
# 1 164.1270 34.0676 35.2113 0.0001 0.0000 0.0001
# 2 34.0676 75.3768 10.6009 0.0004 -0.0001 -0.0002
# 3 35.2113 10.6009 54.6889 0.0019 -0.0002 -0.0009
# 4 0.0001 0.0004 0.0019 31.8924 -0.0001 -0.0004
# 5 0.0000 -0.0001 -0.0002 -0.0001 42.3814 0.0002
# 6 0.0001 -0.0002 -0.0009 -0.0004 0.0002 43.7978
#
#
#
# Elastic Compliance Matrix: (Units=1/GPa)
#
#
# Indices 1 2 3 4 5 6 
#
# 1 0.007614 -0.002829 -0.004354 0.000000 0.000000 0.000000
# 2 -0.002829 0.014690 -0.001026 0.000000 0.000000 0.000000
# 3 -0.004354 -0.001026 0.021287 -0.000001 0.000000 0.000000
# 4 0.000000 0.000000 -0.000001 0.031355 0.000000 0.000000
# 5 0.000000 0.000000 0.000000 0.000000 0.023595 0.000000
# 6 0.000000 0.000000 0.000000 0.000000 0.000000 0.022832
#
#
# Mechanical properties :
#
#
# Convention : Reuss Voigt Hill
#
# Bulk Modulus (GPa) = 36.80092 50.43915 43.62003
# Shear Modulus (GPa) = 34.04845 37.90187 35.97516
#
# Velocity S-wave (km/s) = 3.88567 4.09965 3.99409
# Velocity P-wave (km/s) = 6.03740 6.69150 6.37285
#
# Compressibility (1/GPa) = 0.02717323
#
# Stress axis : x y z
#
# Youngs Moduli (GPa) = 131.33466 68.07550 46.97612
#
# Poissons Ratio (x) = 0.19258 0.20453
# Poissons Ratio (y) = 0.37154 0.04820
# Poissons Ratio (z) = 0.57183 0.06984
#
# Static dielectric constant tensor:
#      x y z
#    x 1.843540 0.000000 0.000000 
#    y 0.000000 1.874740 0.000000 
#    z 0.000000 0.000000 1.877160 
# 
# From -- ./inp_files/9355.got.cif
#   From: 2010.05.17/outbox.cif.g08.bks.cpg/sg24_5_cif.got.tgz:9355.got - 2010.06.04 00:33:39.
