data_PCOD9336549
_publ_section_title
;
Structure prediction by ZEFSAII (Michael W. Deem and Ramdas Pophale) SiO2 
 PCOD9336549
Probable space group: I 21 21 21
;
_chemical_formula_sum "Si O2"
_cell_formula_units_Z 40
_cell_length_a 15.036342
_cell_length_b 13.073621
_cell_length_c 8.978506
_cell_angle_alpha 90.000000
_cell_angle_beta 90.000000
_cell_angle_gamma 90.000000
_cell_volume 1764.989650
_symmetry_space_group_name_H-M "I 21 21 21"
_symmetry_group_IT_number 24
_symmetry_cell_setting 'orthorhombic'
loop_
_space_group_symop_operation_xyz
x,y,z
-x,1/2-y,z
x,-y,1/2-z
1/2-x,y,-z
1/2+x,1/2+y,1/2+z
1/2-x,-y,1/2+z
1/2+x,1/2-y,-z
-x,1/2+y,1/2-z
loop_
_atom_site_type_symbol
_atom_site_label
_atom_site_fract_x
_atom_site_fract_y
_atom_site_fract_z
Si Si1 0.845241 0.466958 0.419844
Si Si2 0.595201 0.764526 0.881977
Si Si3 0.436747 0.617043 0.190352
Si Si4 0.738555 0.791001 0.331141
Si Si5 0.383723 0.897988 0.338725
O O1 0.842859 0.500000 0.250000
O O2 0.750000 0.472377 0.500000
O O3 0.876638 0.349341 0.437829
O O4 0.905138 0.553992 0.500466
O O5 0.500000 0.750000 0.802877
O O6 0.673990 0.798176 0.770941
O O7 0.575497 0.843642 0.018833
O O8 0.441820 0.500000 0.250000
O O9 0.344790 0.652929 0.260683
O O10 0.532233 0.652955 0.257372
O O11 0.750000 0.827237 0.500000
O O12 0.700924 0.675280 0.340511
O O13 0.362031 0.000000 0.250000
#
# Coordination Sequence:
#
# PCOD9336549 Si02
#       5
#     8   8   8   8   8
#     4  12  24  41  71 108 144 182 230 294 365 430
#     4  12  25  44  71 100 137 189 238 287 352 420
#     4  11  25  46  69  94 129 180 236 285 339 410
#     4  12  26  41  65  99 137 178 222 284 350 417
#     4  11  22  42  70 101 134 173 228 292 357 417
#
# _framework density 22.663022999999999
#
# number of rings (size 3 to 8) (size 9 to 14) (size 15 to 20)
#    0.000    0.400    0.000   12.000    0.000    4.800 
#    0.000    1.000    0.000    0.000    0.000    0.000 
#    0.000    0.000    0.000    0.000    0.000    0.000 
#
# Total GULP energy -111691.261949 kJ/mol
# GULP energy per Si atom -5584.563097 kJ/mol
# Density = 2.261144 g / cm^3
# Si number density = 22.663023 Si / 1000 Ang^3
#
#
#
# Elastic Constant Matrix: (Units=GPa)
#
#
# Indices 1 2 3 4 5 6 
#
# 1 162.5001 2.3395 80.9704 0.0000 0.0000 0.0000
# 2 2.3395 70.6614 21.3754 0.0000 0.0000 0.0000
# 3 80.9704 21.3754 176.0360 0.0000 0.0000 0.0000
# 4 0.0000 0.0000 0.0000 27.7652 0.0000 0.0000
# 5 0.0000 0.0000 0.0000 0.0000 36.5929 0.0000
# 6 0.0000 0.0000 0.0000 0.0000 0.0000 -11.9690
#
#
#
# Elastic Compliance Matrix: (Units=1/GPa)
#
#
# Indices 1 2 3 4 5 6 
#
# 1 0.008037 0.000885 -0.003804 0.000000 0.000000 0.000000
# 2 0.000885 0.014789 -0.002203 0.000000 0.000000 0.000000
# 3 -0.003804 -0.002203 0.007698 0.000000 0.000000 0.000000
# 4 0.000000 0.000000 0.000000 0.036016 0.000000 0.000000
# 5 0.000000 0.000000 0.000000 0.000000 0.027328 0.000000
# 6 0.000000 0.000000 0.000000 0.000000 0.000000 -0.083549
#
#
# Mechanical properties :
#
#
# Convention : Reuss Voigt Hill
#
# Bulk Modulus (GPa) = 49.31114 68.72979 59.02046
# Shear Modulus (GPa) = 183.00332 30.77863 106.89098
#
# Velocity S-wave (km/s) = 8.99583 3.68924 6.87516
# Velocity P-wave (km/s) = 11.38884 6.96706 9.44049
#
# Compressibility (1/GPa) = 0.02027939
#
# Stress axis : x y z
#
# Youngs Moduli (GPa) = 124.43177 67.61765 129.90723
#
# Poissons Ratio (x) = -0.05982 0.49416
# Poissons Ratio (y) = -0.11008 0.28614
# Poissons Ratio (z) = 0.47333 0.14894
#
# Static dielectric constant tensor:
#      x y z
#    x 1.850310 0.000000 0.000000 
#    y 0.000000 1.934380 0.000000 
#    z 0.000000 0.000000 2.231620 
# 
# From -- ./inp_files/12329.got.cif
#   From: 2010.05.17/outbox.cif.g08.bks.cpg/sg24_7_cif.got.tgz:12329.got - 2010.06.04 00:33:39.
