data_PCOD9336586
_publ_section_title
;
Structure prediction by ZEFSAII (Michael W. Deem and Ramdas Pophale) SiO2 
 PCOD9336586
Probable space group: I 21 21 21
;
_chemical_formula_sum "Si O2"
_cell_formula_units_Z 32
_cell_length_a 9.145033
_cell_length_b 10.285301
_cell_length_c 15.007923
_cell_angle_alpha 90.000000
_cell_angle_beta 90.000000
_cell_angle_gamma 90.000000
_cell_volume 1411.636489
_symmetry_space_group_name_H-M "I 21 21 21"
_symmetry_group_IT_number 24
_symmetry_cell_setting 'orthorhombic'
loop_
_space_group_symop_operation_xyz
x,y,z
-x,1/2-y,z
x,-y,1/2-z
1/2-x,y,-z
1/2+x,1/2+y,1/2+z
1/2-x,-y,1/2+z
1/2+x,1/2-y,-z
-x,1/2+y,1/2-z
loop_
_atom_site_type_symbol
_atom_site_label
_atom_site_fract_x
_atom_site_fract_y
_atom_site_fract_z
Si Si1 0.312245 0.041879 0.409233
Si Si2 0.171648 0.760873 0.410767
Si Si3 0.332836 0.262702 0.261610
Si Si4 0.608201 0.119534 0.438479
O O1 0.250000 0.106276 0.500000
O O2 0.300302 0.131998 0.321371
O O3 0.481349 0.012049 0.433554
O O4 0.223238 0.910427 0.398829
O O5 0.250000 0.710989 0.500000
O O6 0.228144 0.702042 0.318475
O O7 0.000000 0.750000 0.419374
O O8 0.500000 0.250000 0.228419
O O9 0.332171 0.368678 0.338901
O O10 0.500000 0.250000 0.451998
O O11 0.750000 0.106462 0.500000
#
# Coordination Sequence:
#
# PCOD9336586 Si02
#       4
#     8   8   8   8
#     4   9  19  36  58  86 118 152 191 238 289 345
#     4  11  23  39  59  79 111 158 201 242 283 339
#     4   9  18  35  60  86 116 150 184 235 296 346
#     4   9  17  32  59  93 125 150 178 233 299 352
#
# _framework density 22.668724999999998
#
# number of rings (size 3 to 8) (size 9 to 14) (size 15 to 20)
#    0.000    3.000    0.000    4.500    0.000    3.000 
#    0.000   10.000    0.000    9.000    0.000    0.000 
#    0.000    0.000    0.000    0.000    0.000    0.000 
#
# Total GULP energy -89208.203232 kJ/mol
# GULP energy per Si atom -5575.512702 kJ/mol
# Density = 2.261713 g / cm^3
# Si number density = 22.668725 Si / 1000 Ang^3
#
#
#
# Elastic Constant Matrix: (Units=GPa)
#
#
# Indices 1 2 3 4 5 6 
#
# 1 214.1375 33.2254 119.9931 0.0000 0.0000 0.0000
# 2 33.2254 59.0951 1.8837 0.0000 0.0000 0.0000
# 3 119.9931 1.8837 166.5675 0.0000 0.0000 0.0000
# 4 0.0000 0.0000 0.0000 -6.9911 0.0000 0.0000
# 5 0.0000 0.0000 0.0000 0.0000 47.7958 0.0000
# 6 0.0000 0.0000 0.0000 0.0000 0.0000 35.5370
#
#
#
# Elastic Compliance Matrix: (Units=1/GPa)
#
#
# Indices 1 2 3 4 5 6 
#
# 1 0.009049 -0.004882 -0.006464 0.000000 0.000000 0.000000
# 2 -0.004882 0.019562 0.003296 0.000000 0.000000 0.000000
# 3 -0.006464 0.003296 0.010623 0.000000 0.000000 0.000000
# 4 0.000000 0.000000 0.000000 -0.143039 0.000000 0.000000
# 5 0.000000 0.000000 0.000000 0.000000 0.020922 0.000000
# 6 0.000000 0.000000 0.000000 0.000000 0.000000 0.028140
#
#
# Mechanical properties :
#
#
# Convention : Reuss Voigt Hill
#
# Bulk Modulus (GPa) = 43.22727 83.33383 63.28055
# Shear Modulus (GPa) = -161.64578 34.24819 -63.69879
#
# Velocity S-wave (km/s) = -8.45356 3.89113 -5.30668
# Velocity P-wave (km/s) = 8.72771 7.55177 3.09384
#
# Compressibility (1/GPa) = 0.02313355
#
# Stress axis : x y z
#
# Youngs Moduli (GPa) = 110.50393 51.12058 94.13698
#
# Poissons Ratio (x) = 0.24957 0.60849
# Poissons Ratio (y) = 0.53947 -0.31024
# Poissons Ratio (z) = 0.71429 -0.16847
#
# Static dielectric constant tensor:
#      x y z
#    x 1.869890 0.000000 0.000000 
#    y 0.000000 2.084840 0.000000 
#    z 0.000000 0.000000 1.873680 
# 
# From -- ./inp_files/20406.got.cif
#   From: 2010.05.17/outbox.cif.g08.bks.cpg/sg24_11_cif.got.tgz:20406.got - 2010.06.04 00:33:39.
