data_PCOD9336386
_publ_section_title
;
Structure prediction by ZEFSAII (Michael W. Deem and Ramdas Pophale) SiO2 
 PCOD9336386
Probable space group: I 21 21 21
;
_chemical_formula_sum "Si O2"
_cell_formula_units_Z 36
_cell_length_a 13.031457
_cell_length_b 9.160443
_cell_length_c 14.936287
_cell_angle_alpha 90.000000
_cell_angle_beta 90.000000
_cell_angle_gamma 90.000000
_cell_volume 1783.003115
_symmetry_space_group_name_H-M "I 21 21 21"
_symmetry_group_IT_number 24
_symmetry_cell_setting 'orthorhombic'
loop_
_space_group_symop_operation_xyz
x,y,z
-x,1/2-y,z
x,-y,1/2-z
1/2-x,y,-z
1/2+x,1/2+y,1/2+z
1/2-x,-y,1/2+z
1/2+x,1/2-y,-z
-x,1/2+y,1/2-z
loop_
_atom_site_type_symbol
_atom_site_label
_atom_site_fract_x
_atom_site_fract_y
_atom_site_fract_z
Si Si1 0.886575 0.273767 0.419874
Si Si2 0.250000 0.464798 0.500000
Si Si3 0.544016 0.416905 0.411931
Si Si4 0.222539 0.855641 0.777797
Si Si5 0.642322 0.901199 0.338959
O O1 0.847072 0.140264 0.481860
O O2 0.903195 0.409068 0.489279
O O3 0.800414 0.274867 0.344165
O O4 0.000000 0.250000 0.381954
O O5 0.273055 0.558387 0.412618
O O6 0.500000 0.250000 0.400855
O O7 0.632283 0.419329 0.338784
O O8 0.463958 0.546040 0.387227
O O9 0.170837 0.756666 0.701319
O O10 0.283537 0.000000 0.750000
O O11 0.646944 0.000000 0.250000
#
# Coordination Sequence:
#
# PCOD9336386 Si02
#       5
#     8   4   8   8   8
#     4  11  20  42  70  97 133 190 237 290 373 448
#     4  12  20  40  70 102 130 184 238 306 356 442
#     4  11  19  37  72 101 124 167 233 289 355 424
#     4  12  26  42  65  98 147 184 231 299 373 444
#     4  12  22  40  71 105 129 182 246 299 358 440
#
# _framework density 20.190656000000001
#
# number of rings (size 3 to 8) (size 9 to 14) (size 15 to 20)
#    0.000    0.444   11.111    0.667    0.000    0.000 
#    8.000    0.000    0.000    0.000    0.000    0.000 
#    0.000    0.000    0.000    0.000    0.000    0.000 
#
# Total GULP energy -100216.680314 kJ/mol
# GULP energy per Si atom -5567.593351 kJ/mol
# Density = 2.014470 g / cm^3
# Si number density = 20.190656 Si / 1000 Ang^3
#
#
#
# Elastic Constant Matrix: (Units=GPa)
#
#
# Indices 1 2 3 4 5 6 
#
# 1 98.2839 33.9507 39.8925 0.0000 0.0000 0.0000
# 2 33.9507 91.9840 33.1577 0.0000 0.0000 0.0000
# 3 39.8925 33.1577 76.7551 0.0000 0.0000 0.0000
# 4 0.0000 0.0000 0.0000 13.4792 0.0000 0.0000
# 5 0.0000 0.0000 0.0000 0.0000 1.7455 0.0000
# 6 0.0000 0.0000 0.0000 0.0000 0.0000 16.0869
#
#
#
# Elastic Compliance Matrix: (Units=1/GPa)
#
#
# Indices 1 2 3 4 5 6 
#
# 1 0.013522 -0.002911 -0.005771 0.000000 0.000000 0.000000
# 2 -0.002911 0.013503 -0.004320 0.000000 0.000000 0.000000
# 3 -0.005771 -0.004320 0.017894 0.000000 0.000000 0.000000
# 4 0.000000 0.000000 0.000000 0.074189 0.000000 0.000000
# 5 0.000000 0.000000 0.000000 0.000000 0.572911 0.000000
# 6 0.000000 0.000000 0.000000 0.000000 0.000000 0.062162
#
#
# Mechanical properties :
#
#
# Convention : Reuss Voigt Hill
#
# Bulk Modulus (GPa) = 52.86573 53.44722 53.15648
# Shear Modulus (GPa) = 6.35736 16.93045 11.64390
#
# Velocity S-wave (km/s) = 1.77637 2.89888 2.40406
# Velocity P-wave (km/s) = 5.51792 6.14275 5.83870
#
# Compressibility (1/GPa) = 0.01891584
#
# Stress axis : x y z
#
# Youngs Moduli (GPa) = 73.95165 74.05634 55.88451
#
# Poissons Ratio (x) = 0.21557 0.32249
# Poissons Ratio (y) = 0.21526 0.24145
# Poissons Ratio (z) = 0.42674 0.31996
#
# Static dielectric constant tensor:
#      x y z
#    x 1.739060 0.000000 0.000000 
#    y 0.000000 1.796930 0.000000 
#    z 0.000000 0.000000 1.781510 
# 
# From -- ./inp_files/24463.got.cif
#   From: 2010.05.17/outbox.cif.g08.bks.cpg/sg24_13_cif.got.tgz:24463.got - 2010.06.04 00:33:39.
