data_PCOD9336289
_publ_section_title
;
Structure prediction by ZEFSAII (Michael W. Deem and Ramdas Pophale) SiO2 
 PCOD9336289
Probable space group: I 21 21 21
;
_chemical_formula_sum "Si O2"
_cell_formula_units_Z 60
_cell_length_a 15.814904
_cell_length_b 8.772200
_cell_length_c 22.499901
_cell_angle_alpha 90.000000
_cell_angle_beta 90.000000
_cell_angle_gamma 90.000000
_cell_volume 3121.445035
_symmetry_space_group_name_H-M "I 21 21 21"
_symmetry_group_IT_number 24
_symmetry_cell_setting 'orthorhombic'
loop_
_space_group_symop_operation_xyz
x,y,z
-x,1/2-y,z
x,-y,1/2-z
1/2-x,y,-z
1/2+x,1/2+y,1/2+z
1/2-x,-y,1/2+z
1/2+x,1/2-y,-z
-x,1/2+y,1/2-z
loop_
_atom_site_type_symbol
_atom_site_label
_atom_site_fract_x
_atom_site_fract_y
_atom_site_fract_z
Si Si1 0.154059 0.500000 0.750000
Si Si2 0.003061 0.070447 0.093182
Si Si3 0.812679 0.523262 0.349434
Si Si4 0.077320 0.364163 0.871211
Si Si5 0.685339 0.619246 0.445924
Si Si6 0.513269 0.568984 0.031872
Si Si7 0.705884 0.250437 0.742817
Si Si8 0.041928 0.592983 0.200311
O O1 0.106454 0.444786 0.810013
O O2 0.213354 0.355886 0.734947
O O3 0.095182 0.030432 0.120380
O O4 0.000000 0.250000 0.082403
O O5 0.941018 0.015398 0.145144
O O6 0.983200 0.982421 0.033266
O O7 0.743242 0.527225 0.400280
O O8 0.800244 0.377358 0.308089
O O9 0.797641 0.667208 0.306273
O O10 0.145302 0.262440 0.909087
O O11 0.000000 0.250000 0.856553
O O12 0.040652 0.488063 0.916857
O O13 0.750000 0.662232 0.500000
O O14 0.607340 0.508789 0.464849
O O15 0.500000 0.750000 0.037343
O O16 0.623152 0.149510 0.735031
O O17 0.988094 0.500000 0.250000
O O18 0.000000 0.750000 0.179133
#
# Coordination Sequence:
#
# PCOD9336289 Si02
#       8
#     4   8   8   8   8   8   8   8
#     4  12  24  46  72 100 130 170 232 282 342 390
#     4  12  24  39  66  93 137 184 223 264 331 403
#     4  11  23  42  64  96 134 181 218 271 344 388
#     4  10  25  49  70  99 131 171 223 277 339 403
#     4  11  22  45  73  95 134 177 223 272 337 401
#     4  11  26  46  68 100 132 171 223 280 330 405
#     4  11  24  40  63  96 138 171 219 282 327 393
#     4  12  22  37  57  91 135 179 224 266 317 392
#
# _framework density 19.221865999999999
#
# number of rings (size 3 to 8) (size 9 to 14) (size 15 to 20)
#    0.000    0.800    4.667    3.600    1.867    0.533 
#    2.400    0.667    0.000    0.000    0.000    0.000 
#    0.000    0.000    0.000    0.000    0.000    0.000 
#
# Total GULP energy -167465.614820 kJ/mol
# GULP energy per Si atom -5582.187161 kJ/mol
# Density = 1.917812 g / cm^3
# Si number density = 19.221866 Si / 1000 Ang^3
#
#
#
# Elastic Constant Matrix: (Units=GPa)
#
#
# Indices 1 2 3 4 5 6 
#
# 1 68.0557 33.9668 45.4258 0.0000 0.0000 0.0000
# 2 33.9668 135.2895 56.8167 0.0000 0.0000 0.0000
# 3 45.4258 56.8167 135.2691 0.0000 0.0000 0.0000
# 4 0.0000 0.0000 0.0000 36.2867 0.0000 0.0000
# 5 0.0000 0.0000 0.0000 0.0000 16.9398 0.0000
# 6 0.0000 0.0000 0.0000 0.0000 0.0000 21.0612
#
#
#
# Elastic Compliance Matrix: (Units=1/GPa)
#
#
# Indices 1 2 3 4 5 6 
#
# 1 0.019680 -0.002629 -0.005505 0.000000 0.000000 0.000000
# 2 -0.002629 0.009326 -0.003034 0.000000 0.000000 0.000000
# 3 -0.005505 -0.003034 0.010516 0.000000 0.000000 0.000000
# 4 0.000000 0.000000 0.000000 0.027558 0.000000 0.000000
# 5 0.000000 0.000000 0.000000 0.000000 0.059033 0.000000
# 6 0.000000 0.000000 0.000000 0.000000 0.000000 0.047481
#
#
# Mechanical properties :
#
#
# Convention : Reuss Voigt Hill
#
# Bulk Modulus (GPa) = 58.18798 67.89256 63.04027
# Shear Modulus (GPa) = 24.79439 28.35119 26.57279
#
# Velocity S-wave (km/s) = 3.59542 3.84467 3.72213
# Velocity P-wave (km/s) = 6.89736 7.42333 7.16517
#
# Compressibility (1/GPa) = 0.01718568
#
# Stress axis : x y z
#
# Youngs Moduli (GPa) = 50.81201 107.22778 95.09633
#
# Poissons Ratio (x) = 0.28194 0.52347
# Poissons Ratio (y) = 0.13360 0.28854
# Poissons Ratio (z) = 0.27970 0.32535
#
# Static dielectric constant tensor:
#      x y z
#    x 1.701340 0.000000 0.000000 
#    y 0.000000 1.660220 0.000000 
#    z 0.000000 0.000000 1.658310 
# 
# From -- ./inp_files/35836.got.cif
#   From: 2010.05.17/outbox.cif.g08.bks.cpg/sg24_18_cif.got.tgz:35836.got - 2010.06.04 00:33:39.
