data_PCOD9336664
_publ_section_title
;
Structure prediction by ZEFSAII (Michael W. Deem and Ramdas Pophale) SiO2 
 PCOD9336664
Probable space group: I 21 21 21
;
_chemical_formula_sum "Si O2"
_cell_formula_units_Z 36
_cell_length_a 5.177336
_cell_length_b 21.756978
_cell_length_c 14.563724
_cell_angle_alpha 90.000000
_cell_angle_beta 90.000000
_cell_angle_gamma 90.000000
_cell_volume 1640.504263
_symmetry_space_group_name_H-M "I 21 21 21"
_symmetry_group_IT_number 24
_symmetry_cell_setting 'orthorhombic'
loop_
_space_group_symop_operation_xyz
x,y,z
-x,1/2-y,z
x,-y,1/2-z
1/2-x,y,-z
1/2+x,1/2+y,1/2+z
1/2-x,-y,1/2+z
1/2+x,1/2-y,-z
-x,1/2+y,1/2-z
loop_
_atom_site_type_symbol
_atom_site_label
_atom_site_fract_x
_atom_site_fract_y
_atom_site_fract_z
Si Si1 0.370976 0.018387 0.647826
Si Si2 0.092299 0.679184 0.592132
Si Si3 0.354252 0.588719 0.102713
Si Si4 0.249962 0.292788 0.285220
Si Si5 0.750000 0.418891 0.000000
O O1 0.653235 0.047330 0.659100
O O2 0.147961 0.065783 0.613450
O O3 0.283872 0.000000 0.750000
O O4 0.396071 0.965436 0.569716
O O5 0.250000 0.671558 0.500000
O O6 0.251591 0.673160 0.685998
O O7 0.000000 0.750000 0.590874
O O8 0.879940 0.627060 0.574733
O O9 0.302401 0.657285 0.137504
O O10 0.250000 0.583075 0.000000
O O11 0.500000 0.250000 0.283524
O O12 0.000000 0.250000 0.296109
#
# Coordination Sequence:
#
# PCOD9336664 Si02
#       5
#     8   8   8   8   4
#     4  12  27  46  71 103 144 194 243 295 355 427
#     4  11  24  41  67 101 143 178 233 291 352 429
#     4  12  25  49  71 104 147 182 242 310 346 421
#     4  11  26  45  73 104 140 189 236 292 370 429
#     4  12  26  42  70 104 136 198 236 286 372 420
#
# _framework density 21.944469999999999
#
# number of rings (size 3 to 8) (size 9 to 14) (size 15 to 20)
#    0.000    0.444    3.333    4.000    9.333    0.889 
#    0.000    0.000    0.000    0.000    0.000    0.000 
#    0.000    0.000    0.000    0.000    0.000    0.000 
#
# Total GULP energy -100504.460696 kJ/mol
# GULP energy per Si atom -5583.581150 kJ/mol
# Density = 2.189452 g / cm^3
# Si number density = 21.944470 Si / 1000 Ang^3
#
#
#
# Elastic Constant Matrix: (Units=GPa)
#
#
# Indices 1 2 3 4 5 6 
#
# 1 87.7097 31.2434 -9.6380 0.0000 0.0000 0.0000
# 2 31.2434 103.5909 12.3935 0.0000 0.0000 0.0000
# 3 -9.6380 12.3935 77.5666 0.0000 0.0000 0.0000
# 4 0.0000 0.0000 0.0000 32.2309 0.0000 0.0000
# 5 0.0000 0.0000 0.0000 0.0000 33.2035 0.0000
# 6 0.0000 0.0000 0.0000 0.0000 0.0000 18.4316
#
#
#
# Elastic Compliance Matrix: (Units=1/GPa)
#
#
# Indices 1 2 3 4 5 6 
#
# 1 0.013169 -0.004249 0.002315 0.000000 0.000000 0.000000
# 2 -0.004249 0.011212 -0.002319 0.000000 0.000000 0.000000
# 3 0.002315 -0.002319 0.013550 0.000000 0.000000 0.000000
# 4 0.000000 0.000000 0.000000 0.031026 0.000000 0.000000
# 5 0.000000 0.000000 0.000000 0.000000 0.030117 0.000000
# 6 0.000000 0.000000 0.000000 0.000000 0.000000 0.054255
#
#
# Mechanical properties :
#
#
# Convention : Reuss Voigt Hill
#
# Bulk Modulus (GPa) = 33.98383 37.42942 35.70663
# Shear Modulus (GPa) = 29.12992 32.43108 30.78050
#
# Velocity S-wave (km/s) = 3.64735 3.84848 3.74927
# Velocity P-wave (km/s) = 5.76693 6.06969 5.92025
#
# Compressibility (1/GPa) = 0.02942576
#
# Stress axis : x y z
#
# Youngs Moduli (GPa) = 75.93499 89.18757 73.79843
#
# Poissons Ratio (x) = 0.37895 -0.17086
# Poissons Ratio (y) = 0.32264 0.17117
# Poissons Ratio (z) = -0.17581 0.20686
#
# Static dielectric constant tensor:
#      x y z
#    x 1.773160 0.000000 0.000000 
#    y 0.000000 1.681080 0.000000 
#    z 0.000000 0.000000 1.832160 
# 
# From -- ./inp_files/23630.got.cif
#   From: 2010.05.17/outbox.cif.g08.bks.cpg/sg24_12_cif.got.tgz:23630.got - 2010.06.04 00:33:39.
