data_PCOD9336983
_publ_section_title
;
Structure prediction by ZEFSAII (Michael W. Deem and Ramdas Pophale) SiO2 
 PCOD9336983
Probable space group: I 21 21 21
;
_chemical_formula_sum "Si O2"
_cell_formula_units_Z 28
_cell_length_a 25.506550
_cell_length_b 5.072683
_cell_length_c 8.634209
_cell_angle_alpha 90.000000
_cell_angle_beta 90.000000
_cell_angle_gamma 90.000000
_cell_volume 1117.151314
_symmetry_space_group_name_H-M "I 21 21 21"
_symmetry_group_IT_number 24
_symmetry_cell_setting 'orthorhombic'
loop_
_space_group_symop_operation_xyz
x,y,z
-x,1/2-y,z
x,-y,1/2-z
1/2-x,y,-z
1/2+x,1/2+y,1/2+z
1/2-x,-y,1/2+z
1/2+x,1/2-y,-z
-x,1/2+y,1/2-z
loop_
_atom_site_type_symbol
_atom_site_label
_atom_site_fract_x
_atom_site_fract_y
_atom_site_fract_z
Si Si1 0.645934 0.253624 0.856095
Si Si2 0.590402 0.910079 0.080046
Si Si3 0.500000 0.250000 0.636325
Si Si4 0.201962 0.108749 0.581594
O O1 0.630986 0.500000 0.750000
O O2 0.658499 0.000000 0.750000
O O3 0.691049 0.366587 0.965386
O O4 0.601082 0.162889 0.972896
O O5 0.647321 0.768289 0.094324
O O6 0.572919 0.000000 0.250000
O O7 0.549191 0.744715 0.981326
O O8 0.497033 0.500000 0.750000
O O9 0.250000 0.259644 0.500000
O O10 0.215168 0.000000 0.750000
#
# Coordination Sequence:
#
# PCOD9336983 Si02
#       4
#     8   8   4   8
#     4  12  26  49  83 117 165 215 269 340 404 484
#     4  12  29  56  85 122 171 216 280 340 418 496
#     4  12  34  54  90 126 160 216 278 348 422 490
#     4  12  28  51  83 127 168 223 279 339 410 492
#
# _framework density 25.063752000000001
#
# number of rings (size 3 to 8) (size 9 to 14) (size 15 to 20)
#    0.000    0.000    5.714    1.714    8.000    3.429 
#    5.143    0.000    0.000    0.000    0.000    0.000 
#    0.000    0.000    0.000    0.000    0.000    0.000 
#
# Total GULP energy -78480.617742 kJ/mol
# GULP energy per Si atom -5605.758410 kJ/mol
# Density = 2.500671 g / cm^3
# Si number density = 25.063752 Si / 1000 Ang^3
#
#
#
# Elastic Constant Matrix: (Units=GPa)
#
#
# Indices 1 2 3 4 5 6 
#
# 1 126.6836 19.6075 61.0951 0.0000 0.0000 0.0000
# 2 19.6075 140.1473 70.4865 0.0000 0.0000 0.0000
# 3 61.0951 70.4865 241.6535 0.0000 0.0000 0.0000
# 4 0.0000 0.0000 0.0000 30.6695 0.0000 0.0000
# 5 0.0000 0.0000 0.0000 0.0000 38.3042 0.0000
# 6 0.0000 0.0000 0.0000 0.0000 0.0000 24.6677
#
#
#
# Elastic Compliance Matrix: (Units=1/GPa)
#
#
# Indices 1 2 3 4 5 6 
#
# 1 0.008992 -0.000134 -0.002234 0.000000 0.000000 0.000000
# 2 -0.000134 0.008364 -0.002406 0.000000 0.000000 0.000000
# 3 -0.002234 -0.002406 0.005405 0.000000 0.000000 0.000000
# 4 0.000000 0.000000 0.000000 0.032606 0.000000 0.000000
# 5 0.000000 0.000000 0.000000 0.000000 0.026107 0.000000
# 6 0.000000 0.000000 0.000000 0.000000 0.000000 0.040539
#
#
# Mechanical properties :
#
#
# Convention : Reuss Voigt Hill
#
# Bulk Modulus (GPa) = 75.68721 90.09584 82.89153
# Shear Modulus (GPa) = 36.77427 42.54796 39.66112
#
# Velocity S-wave (km/s) = 3.83460 4.12465 3.98227
# Velocity P-wave (km/s) = 7.06180 7.66214 7.36808
#
# Compressibility (1/GPa) = 0.01321227
#
# Stress axis : x y z
#
# Youngs Moduli (GPa) = 111.21074 119.55880 185.02399
#
# Poissons Ratio (x) = 0.01606 0.41337
# Poissons Ratio (y) = 0.01494 0.44511
# Poissons Ratio (z) = 0.24846 0.28762
#
# Static dielectric constant tensor:
#      x y z
#    x 2.074330 0.000000 0.000000 
#    y 0.000000 2.048150 0.000000 
#    z 0.000000 0.000000 1.940140 
# 
# From -- ./inp_files/16566.got.cif
#   From: 2010.05.17/outbox.cif.g08.bks.cpg/sg24_9_cif.got.tgz:16566.got - 2010.06.04 00:33:39.
