data_PCOD9336188
_publ_section_title
;
Structure prediction by ZEFSAII (Michael W. Deem and Ramdas Pophale) SiO2 
 PCOD9336188
Probable space group: I 21 21 21
;
_chemical_formula_sum "Si O2"
_cell_formula_units_Z 56
_cell_length_a 14.774548
_cell_length_b 9.168398
_cell_length_c 18.388748
_cell_angle_alpha 90.000000
_cell_angle_beta 90.000000
_cell_angle_gamma 90.000000
_cell_volume 2490.920245
_symmetry_space_group_name_H-M "I 21 21 21"
_symmetry_group_IT_number 24
_symmetry_cell_setting 'orthorhombic'
loop_
_space_group_symop_operation_xyz
x,y,z
-x,1/2-y,z
x,-y,1/2-z
1/2-x,y,-z
1/2+x,1/2+y,1/2+z
1/2-x,-y,1/2+z
1/2+x,1/2-y,-z
-x,1/2+y,1/2-z
loop_
_atom_site_type_symbol
_atom_site_label
_atom_site_fract_x
_atom_site_fract_y
_atom_site_fract_z
Si Si1 0.534771 0.400755 0.316543
Si Si2 0.765569 0.581730 0.827413
Si Si3 0.622719 0.043329 0.089102
Si Si4 0.514761 0.580618 0.533441
Si Si5 0.780911 0.084708 0.323816
Si Si6 0.509423 0.077019 0.676523
Si Si7 0.814892 0.350147 0.937476
O O1 0.500000 0.250000 0.287255
O O2 0.557205 0.500000 0.250000
O O3 0.631841 0.372705 0.350868
O O4 0.456837 0.475886 0.362284
O O5 0.756429 0.500000 0.750000
O O6 0.717768 0.738542 0.820203
O O7 0.753527 0.457057 0.888745
O O8 0.642454 0.213848 0.105584
O O9 0.714770 0.961814 0.110688
O O10 0.577396 0.034979 0.009141
O O11 0.500000 0.750000 0.554651
O O12 0.534951 0.483415 0.603322
O O13 0.599075 0.576956 0.477574
O O14 0.884515 0.036488 0.332399
O O15 0.747517 0.000000 0.250000
O O16 0.500000 0.250000 0.682835
O O17 0.475274 0.000000 0.750000
O O18 0.750000 0.287318 0.000000
#
# Coordination Sequence:
#
# PCOD9336188 Si02
#       7
#     8   8   8   8   8   8   8
#     4  11  23  36  64  98 143 186 219 265 334 420
#     4  11  24  42  67 102 137 178 224 280 339 411
#     4  11  23  43  67  97 143 182 221 274 348 420
#     4  10  24  45  70  99 135 178 226 275 346 419
#     4  11  25  44  68 104 138 180 232 287 342 419
#     4  11  27  49  73  96 129 178 236 293 348 401
#     4  11  26  44  69 103 137 184 229 286 341 409
#
# _framework density 22.481649999999998
#
# number of rings (size 3 to 8) (size 9 to 14) (size 15 to 20)
#    0.000    1.143    2.857    1.714   10.000    2.286 
#    0.000    0.000    0.000    0.000    0.000    0.000 
#    0.000    0.000    0.000    0.000    0.000    0.000 
#
# Total GULP energy -156292.609228 kJ/mol
# GULP energy per Si atom -5581.878901 kJ/mol
# Density = 2.243048 g / cm^3
# Si number density = 22.481650 Si / 1000 Ang^3
#
#
#
# Elastic Constant Matrix: (Units=GPa)
#
#
# Indices 1 2 3 4 5 6 
#
# 1 79.4935 -3.6358 2.3537 0.0000 0.0000 0.0000
# 2 -3.6358 115.1183 61.0862 0.0000 0.0000 0.0000
# 3 2.3537 61.0862 71.0928 0.0000 0.0000 0.0000
# 4 0.0000 0.0000 0.0000 34.6015 0.0000 0.0000
# 5 0.0000 0.0000 0.0000 0.0000 8.4263 0.0000
# 6 0.0000 0.0000 0.0000 0.0000 0.0000 25.4929
#
#
#
# Elastic Compliance Matrix: (Units=1/GPa)
#
#
# Indices 1 2 3 4 5 6 
#
# 1 0.012674 0.001145 -0.001403 0.000000 0.000000 0.000000
# 2 0.001145 0.016070 -0.013846 0.000000 0.000000 0.000000
# 3 -0.001403 -0.013846 0.026010 0.000000 0.000000 0.000000
# 4 0.000000 0.000000 0.000000 0.028901 0.000000 0.000000
# 5 0.000000 0.000000 0.000000 0.000000 0.118676 0.000000
# 6 0.000000 0.000000 0.000000 0.000000 0.000000 0.039227
#
#
# Mechanical properties :
#
#
# Convention : Reuss Voigt Hill
#
# Bulk Modulus (GPa) = 37.67271 42.81254 40.24263
# Shear Modulus (GPa) = 17.94596 27.43084 22.68840
#
# Velocity S-wave (km/s) = 2.82840 3.49684 3.18023
# Velocity P-wave (km/s) = 5.24022 5.94883 5.60573
#
# Compressibility (1/GPa) = 0.02654441
#
# Stress axis : x y z
#
# Youngs Moduli (GPa) = 78.90442 62.22697 38.44692
#
# Poissons Ratio (x) = -0.07125 0.05396
# Poissons Ratio (y) = -0.09034 0.53234
# Poissons Ratio (z) = 0.11074 0.86161
#
# Static dielectric constant tensor:
#      x y z
#    x 1.876560 0.000000 0.000000 
#    y 0.000000 1.852670 0.000000 
#    z 0.000000 0.000000 1.826590 
# 
# From -- ./inp_files/33768.got.cif
#   From: 2010.05.17/outbox.cif.g08.bks.cpg/sg24_17_cif.got.tgz:33768.got - 2010.06.04 00:33:39.
