data_PCOD9336671
_publ_section_title
;
Structure prediction by ZEFSAII (Michael W. Deem and Ramdas Pophale) SiO2 
 PCOD9336671
Probable space group: I 21 21 21
;
_chemical_formula_sum "Si O2"
_cell_formula_units_Z 32
_cell_length_a 17.001911
_cell_length_b 16.502218
_cell_length_c 5.063979
_cell_angle_alpha 90.000000
_cell_angle_beta 90.000000
_cell_angle_gamma 90.000000
_cell_volume 1420.796748
_symmetry_space_group_name_H-M "I 21 21 21"
_symmetry_group_IT_number 24
_symmetry_cell_setting 'orthorhombic'
loop_
_space_group_symop_operation_xyz
x,y,z
-x,1/2-y,z
x,-y,1/2-z
1/2-x,y,-z
1/2+x,1/2+y,1/2+z
1/2-x,-y,1/2+z
1/2+x,1/2-y,-z
-x,1/2+y,1/2-z
loop_
_atom_site_type_symbol
_atom_site_label
_atom_site_fract_x
_atom_site_fract_y
_atom_site_fract_z
Si Si1 0.926196 0.073899 0.445013
Si Si2 0.157533 0.841509 0.564578
Si Si3 0.589728 0.747622 0.934225
Si Si4 0.803285 0.000000 0.750000
Si Si5 0.071078 0.000000 0.750000
O O1 0.907084 0.160458 0.324888
O O2 0.908805 0.000000 0.250000
O O3 0.863677 0.071286 0.683255
O O4 0.011984 0.051668 0.560451
O O5 0.250000 0.841816 0.500000
O O6 0.108969 0.808200 0.314710
O O7 0.124977 0.931947 0.617184
O O8 0.141209 0.785028 0.821389
O O9 0.500000 0.750000 0.035869
O O10 0.750000 0.983464 0.500000
#
# Coordination Sequence:
#
# PCOD9336671 Si02
#       5
#     8   8   8   4   4
#     4  11  25  46  78 109 147 206 260 307 383 462
#     4  12  29  50  78 117 154 200 252 324 393 449
#     4  12  26  49  77 108 155 197 256 312 377 459
#     4  11  24  42  66 107 150 192 248 309 374 438
#     4  11  26  50  78 111 150 202 262 311 386 468
#
# _framework density 22.522575
#
# number of rings (size 3 to 8) (size 9 to 14) (size 15 to 20)
#    0.000    0.500    3.750    3.000    7.000    5.000 
#    0.000    0.000    0.000    0.000    0.000    0.000 
#    0.000    0.000    0.000    0.000    0.000    0.000 
#
# Total GULP energy -89354.832737 kJ/mol
# GULP energy per Si atom -5584.677046 kJ/mol
# Density = 2.247131 g / cm^3
# Si number density = 22.522575 Si / 1000 Ang^3
#
#
#
# Elastic Constant Matrix: (Units=GPa)
#
#
# Indices 1 2 3 4 5 6 
#
# 1 144.1450 74.1621 54.6078 0.0000 0.0000 0.0000
# 2 74.1621 183.9048 66.8018 0.0000 0.0000 0.0000
# 3 54.6078 66.8018 130.7793 0.0000 0.0000 0.0000
# 4 0.0000 0.0000 0.0000 41.1834 0.0000 0.0000
# 5 0.0000 0.0000 0.0000 0.0000 30.7474 0.0000
# 6 0.0000 0.0000 0.0000 0.0000 0.0000 4.4902
#
#
#
# Elastic Compliance Matrix: (Units=1/GPa)
#
#
# Indices 1 2 3 4 5 6 
#
# 1 0.009341 -0.002886 -0.002427 0.000000 0.000000 0.000000
# 2 -0.002886 0.007568 -0.002661 0.000000 0.000000 0.000000
# 3 -0.002427 -0.002661 0.010019 0.000000 0.000000 0.000000
# 4 0.000000 0.000000 0.000000 0.024282 0.000000 0.000000
# 5 0.000000 0.000000 0.000000 0.000000 0.032523 0.000000
# 6 0.000000 0.000000 0.000000 0.000000 0.000000 0.222710
#
#
# Mechanical properties :
#
#
# Convention : Reuss Voigt Hill
#
# Bulk Modulus (GPa) = 91.05695 94.44137 92.74916
# Shear Modulus (GPa) = 15.33513 32.83468 24.08490
#
# Velocity S-wave (km/s) = 2.61220 3.82233 3.27367
# Velocity P-wave (km/s) = 7.04379 7.84240 7.45380
#
# Compressibility (1/GPa) = 0.01098214
#
# Stress axis : x y z
#
# Youngs Moduli (GPa) = 107.05053 132.14016 99.81252
#
# Poissons Ratio (x) = 0.38130 0.24221
# Poissons Ratio (y) = 0.30891 0.26557
# Poissons Ratio (z) = 0.25977 0.35158
#
# Static dielectric constant tensor:
#      x y z
#    x 1.878220 0.000000 0.000000 
#    y 0.000000 2.006460 0.000000 
#    z 0.000000 0.000000 1.892730 
# 
# From -- ./inp_files/3135.got.cif
#   From: 2010.05.17/outbox.cif.g08.bks.cpg/sg24_2_cif.got.tgz:3135.got - 2010.06.04 00:33:39.
