data_PCOD9336783
_publ_section_title
;
Structure prediction by ZEFSAII (Michael W. Deem and Ramdas Pophale) SiO2 
 PCOD9336783
Probable space group: I 21 21 21
;
_chemical_formula_sum "Si O2"
_cell_formula_units_Z 44
_cell_length_a 11.917801
_cell_length_b 14.271480
_cell_length_c 13.427344
_cell_angle_alpha 90.000000
_cell_angle_beta 90.000000
_cell_angle_gamma 90.000000
_cell_volume 2283.785220
_symmetry_space_group_name_H-M "I 21 21 21"
_symmetry_group_IT_number 24
_symmetry_cell_setting 'orthorhombic'
loop_
_space_group_symop_operation_xyz
x,y,z
-x,1/2-y,z
x,-y,1/2-z
1/2-x,y,-z
1/2+x,1/2+y,1/2+z
1/2-x,-y,1/2+z
1/2+x,1/2-y,-z
-x,1/2+y,1/2-z
loop_
_atom_site_type_symbol
_atom_site_label
_atom_site_fract_x
_atom_site_fract_y
_atom_site_fract_z
Si Si1 0.823436 0.806790 0.714681
Si Si2 0.879241 0.393034 0.477757
Si Si3 0.000000 0.250000 0.623446
Si Si4 0.000554 0.564397 0.404371
Si Si5 0.189212 0.500000 0.250000
Si Si6 0.000000 0.750000 0.542828
Si Si7 0.107237 0.181963 0.254496
O O1 0.768445 0.909701 0.730617
O O2 0.894500 0.772706 0.617383
O O3 0.718692 0.736741 0.724862
O O4 0.909350 0.797483 0.805470
O O5 0.750000 0.410341 0.500000
O O6 0.948357 0.488239 0.476735
O O7 0.887097 0.349452 0.367996
O O8 0.934042 0.322607 0.555235
O O9 0.009558 0.659737 0.469332
O O10 0.915553 0.594599 0.316978
O O11 0.105083 0.514586 0.345860
O O12 0.000000 0.250000 0.243906
#
# Coordination Sequence:
#
# PCOD9336783 Si02
#       7
#     8   8   4   8   4   4   8
#     4  11  26  47  69 103 144 191 228 307 356 431
#     4  12  25  41  70 102 132 185 232 287 351 428
#     4  11  26  47  68 100 140 179 234 289 364 418
#     4  12  25  45  69 108 137 186 240 294 351 443
#     4  12  24  46  74 102 140 182 250 296 352 416
#     4  11  28  49  70 102 154 191 236 289 386 436
#     4  12  21  45  68  96 144 177 231 289 357 415
#
# _framework density 19.266259999999999
#
# number of rings (size 3 to 8) (size 9 to 14) (size 15 to 20)
#    0.000    0.364    7.273    0.000    5.091    2.182 
#    0.000    0.000    0.000    0.000    0.000    0.000 
#    0.000    0.000    0.000    0.000    0.000    0.000 
#
# Total GULP energy -122667.703854 kJ/mol
# GULP energy per Si atom -5575.804721 kJ/mol
# Density = 1.922241 g / cm^3
# Si number density = 19.266260 Si / 1000 Ang^3
#
#
#
# Elastic Constant Matrix: (Units=GPa)
#
#
# Indices 1 2 3 4 5 6 
#
# 1 117.0632 41.3239 38.9151 0.0000 0.0000 0.0000
# 2 41.3239 96.4940 32.5292 0.0000 0.0000 0.0000
# 3 38.9151 32.5292 114.5943 0.0000 0.0000 0.0000
# 4 0.0000 0.0000 0.0000 20.3225 0.0000 0.0000
# 5 0.0000 0.0000 0.0000 0.0000 22.5747 0.0000
# 6 0.0000 0.0000 0.0000 0.0000 0.0000 38.8912
#
#
#
# Elastic Compliance Matrix: (Units=1/GPa)
#
#
# Indices 1 2 3 4 5 6 
#
# 1 0.010713 -0.003717 -0.002583 0.000000 0.000000 0.000000
# 2 -0.003717 0.012750 -0.002357 0.000000 0.000000 0.000000
# 3 -0.002583 -0.002357 0.010273 0.000000 0.000000 0.000000
# 4 0.000000 0.000000 0.000000 0.049207 0.000000 0.000000
# 5 0.000000 0.000000 0.000000 0.000000 0.044297 0.000000
# 6 0.000000 0.000000 0.000000 0.000000 0.000000 0.025713
#
#
# Mechanical properties :
#
#
# Convention : Reuss Voigt Hill
#
# Bulk Modulus (GPa) = 60.89557 61.52089 61.20823
# Shear Modulus (GPa) = 28.45108 30.71656 29.58382
#
# Velocity S-wave (km/s) = 3.84699 3.99722 3.92283
# Velocity P-wave (km/s) = 7.16997 7.30103 7.23579
#
# Compressibility (1/GPa) = 0.01642156
#
# Stress axis : x y z
#
# Youngs Moduli (GPa) = 93.34245 78.43264 97.34633
#
# Poissons Ratio (x) = 0.29155 0.25144
# Poissons Ratio (y) = 0.34698 0.22943
# Poissons Ratio (z) = 0.24110 0.18486
#
# Static dielectric constant tensor:
#      x y z
#    x 1.661150 0.000000 0.000000 
#    y 0.000000 1.666880 0.000000 
#    z 0.000000 0.000000 1.662760 
# 
# From -- ./inp_files/25715.got.cif
#   From: 2010.05.17/outbox.cif.g08.bks.cpg/sg24_13_cif.got.tgz:25715.got - 2010.06.04 00:33:39.
