data_PCOD9336108
_publ_section_title
;
Structure prediction by ZEFSAII (Michael W. Deem and Ramdas Pophale) SiO2 
 PCOD9336108
Probable space group: I 21 21 21
;
_chemical_formula_sum "Si O2"
_cell_formula_units_Z 32
_cell_length_a 23.619013
_cell_length_b 8.077869
_cell_length_c 7.375349
_cell_angle_alpha 90.000000
_cell_angle_beta 90.000000
_cell_angle_gamma 90.000000
_cell_volume 1407.152371
_symmetry_space_group_name_H-M "I 21 21 21"
_symmetry_group_IT_number 24
_symmetry_cell_setting 'orthorhombic'
loop_
_space_group_symop_operation_xyz
x,y,z
-x,1/2-y,z
x,-y,1/2-z
1/2-x,y,-z
1/2+x,1/2+y,1/2+z
1/2-x,-y,1/2+z
1/2+x,1/2-y,-z
-x,1/2+y,1/2-z
loop_
_atom_site_type_symbol
_atom_site_label
_atom_site_fract_x
_atom_site_fract_y
_atom_site_fract_z
Si Si1 0.000000 0.750000 0.825011
Si Si2 0.815250 0.967449 0.539134
Si Si3 0.411693 0.000000 0.250000
Si Si4 0.357537 0.113896 0.896846
Si Si5 0.582042 0.849491 0.861405
O O1 0.956107 0.645836 0.710445
O O2 0.956952 0.835543 0.963964
O O3 0.750000 0.003693 0.500000
O O4 0.828246 0.777302 0.481049
O O5 0.827167 0.000000 0.750000
O O6 0.856381 0.087863 0.427316
O O7 0.375496 0.001496 0.433220
O O8 0.407907 0.193506 0.771401
O O9 0.324841 0.000000 0.750000
O O10 0.556313 0.000000 0.750000
#
# Coordination Sequence:
#
# PCOD9336108 Si02
#       5
#     4   8   4   8   8
#     4  12  26  40  66 104 136 192 234 288 348 430
#     4  11  24  48  78 103 137 191 246 294 353 436
#     4  12  28  42  68  98 146 190 234 292 362 428
#     4  11  24  48  68 104 146 181 233 305 360 422
#     4  10  24  42  70  98 140 184 237 284 350 427
#
# _framework density 22.740963000000001
#
# number of rings (size 3 to 8) (size 9 to 14) (size 15 to 20)
#    0.000    1.000    2.500    3.750   12.250    0.000 
#    2.250    1.250    0.000    0.000    0.000    0.000 
#    0.000    0.000    0.000    0.000    0.000    0.000 
#
# Total GULP energy -89290.270653 kJ/mol
# GULP energy per Si atom -5580.641916 kJ/mol
# Density = 2.268920 g / cm^3
# Si number density = 22.740963 Si / 1000 Ang^3
#
#
#
# Elastic Constant Matrix: (Units=GPa)
#
#
# Indices 1 2 3 4 5 6 
#
# 1 88.8380 10.4977 22.9761 0.0000 0.0000 0.0000
# 2 10.4977 72.1341 28.4593 0.0000 0.0000 0.0000
# 3 22.9761 28.4593 141.5299 0.0000 0.0000 0.0000
# 4 0.0000 0.0000 0.0000 46.9853 0.0000 0.0000
# 5 0.0000 0.0000 0.0000 0.0000 76.0314 0.0000
# 6 0.0000 0.0000 0.0000 0.0000 0.0000 383.9503
#
#
#
# Elastic Compliance Matrix: (Units=1/GPa)
#
#
# Indices 1 2 3 4 5 6 
#
# 1 0.011822 -0.001046 -0.001709 0.000000 0.000000 0.000000
# 2 -0.001046 0.015150 -0.002877 0.000000 0.000000 0.000000
# 3 -0.001709 -0.002877 0.007921 0.000000 0.000000 0.000000
# 4 0.000000 0.000000 0.000000 0.021283 0.000000 0.000000
# 5 0.000000 0.000000 0.000000 0.000000 0.013152 0.000000
# 6 0.000000 0.000000 0.000000 0.000000 0.000000 0.002605
#
#
# Mechanical properties :
#
#
# Convention : Reuss Voigt Hill
#
# Bulk Modulus (GPa) = 42.31843 47.37425 44.84634
# Shear Modulus (GPa) = 54.90031 117.43134 86.16583
#
# Velocity S-wave (km/s) = 4.91874 7.19380 6.16217
# Velocity P-wave (km/s) = 7.13498 9.48042 8.39006
#
# Compressibility (1/GPa) = 0.02363037
#
# Stress axis : x y z
#
# Youngs Moduli (GPa) = 84.58786 66.00554 126.23892
#
# Poissons Ratio (x) = 0.06906 0.21572
# Poissons Ratio (y) = 0.08850 0.36314
# Poissons Ratio (z) = 0.14454 0.18987
#
# Static dielectric constant tensor:
#      x y z
#    x 1.805900 0.000000 0.000000 
#    y 0.000000 1.958880 0.000000 
#    z 0.000000 0.000000 1.854870 
# 
# From -- ./inp_files/7542.got.cif
#   From: 2010.05.17/outbox.cif.g08.bks.cpg/sg24_4_cif.got.tgz:7542.got - 2010.06.04 00:33:39.
