data_PCOD9336197
_publ_section_title
;
Structure prediction by ZEFSAII (Michael W. Deem and Ramdas Pophale) SiO2 
 PCOD9336197
Probable space group: I 21 21 21
;
_chemical_formula_sum "Si O2"
_cell_formula_units_Z 40
_cell_length_a 17.075893
_cell_length_b 4.868732
_cell_length_c 20.916362
_cell_angle_alpha 90.000000
_cell_angle_beta 90.000000
_cell_angle_gamma 90.000000
_cell_volume 1738.943389
_symmetry_space_group_name_H-M "I 21 21 21"
_symmetry_group_IT_number 24
_symmetry_cell_setting 'orthorhombic'
loop_
_space_group_symop_operation_xyz
x,y,z
-x,1/2-y,z
x,-y,1/2-z
1/2-x,y,-z
1/2+x,1/2+y,1/2+z
1/2-x,-y,1/2+z
1/2+x,1/2-y,-z
-x,1/2+y,1/2-z
loop_
_atom_site_type_symbol
_atom_site_label
_atom_site_fract_x
_atom_site_fract_y
_atom_site_fract_z
Si Si1 0.227673 0.500000 0.250000
Si Si2 0.000000 0.250000 0.076778
Si Si3 0.834520 0.692150 0.371392
Si Si4 0.583873 0.641658 0.125926
Si Si5 0.245248 0.317477 0.574336
Si Si6 0.841077 0.500000 0.750000
Si Si7 0.000000 0.750000 0.993452
O O1 0.177417 0.648196 0.304677
O O2 0.287785 0.742416 0.233617
O O3 0.074507 0.147823 0.115714
O O4 0.033596 0.510370 0.037251
O O5 0.791526 0.404672 0.382933
O O6 0.789218 0.894665 0.419737
O O7 0.500000 0.750000 0.152053
O O8 0.657372 0.831585 0.103899
O O9 0.612559 0.448026 0.183497
O O10 0.555069 0.569298 0.054081
O O11 0.250000 0.231808 0.500000
#
# Coordination Sequence:
#
# PCOD9336197 Si02
#       7
#     4   4   8   8   8   4   4
#     4  12  24  47  71 104 142 190 244 310 347 453
#     4  12  24  48  70 108 140 190 232 322 362 448
#     4  12  25  44  75  99 145 186 245 299 377 425
#     4  10  24  46  69 106 141 192 239 299 355 441
#     4  12  24  45  71 108 137 196 237 300 369 446
#     4  12  24  47  69 100 146 190 252 286 367 431
#     4  10  26  44  68 104 150 178 242 298 370 424
#
# _framework density 23.002472999999998
#
# number of rings (size 3 to 8) (size 9 to 14) (size 15 to 20)
#    0.600    0.000    4.000    4.200    0.000    4.000 
#    1.800    4.000    0.000    0.000    0.000    0.000 
#    0.000    0.000    0.000    0.000    0.000    0.000 
#
# Total GULP energy -111361.963187 kJ/mol
# GULP energy per Si atom -5568.098159 kJ/mol
# Density = 2.295012 g / cm^3
# Si number density = 23.002473 Si / 1000 Ang^3
#
#
#
# Elastic Constant Matrix: (Units=GPa)
#
#
# Indices 1 2 3 4 5 6 
#
# 1 136.8284 6.6885 26.8309 0.0000 0.0000 0.0000
# 2 6.6885 78.6977 -1.1312 0.0000 0.0000 0.0000
# 3 26.8309 -1.1312 108.9196 0.0000 0.0000 0.0000
# 4 0.0000 0.0000 0.0000 423.3449 0.0000 0.0000
# 5 0.0000 0.0000 0.0000 0.0000 8.6881 0.0000
# 6 0.0000 0.0000 0.0000 0.0000 0.0000 24.5886
#
#
#
# Elastic Compliance Matrix: (Units=1/GPa)
#
#
# Indices 1 2 3 4 5 6 
#
# 1 0.007716 -0.000683 -0.001908 0.000000 0.000000 0.000000
# 2 -0.000683 0.012769 0.000301 0.000000 0.000000 0.000000
# 3 -0.001908 0.000301 0.009654 0.000000 0.000000 0.000000
# 4 0.000000 0.000000 0.000000 0.002362 0.000000 0.000000
# 5 0.000000 0.000000 0.000000 0.000000 0.115099 0.000000
# 6 0.000000 0.000000 0.000000 0.000000 0.000000 0.040669
#
#
# Mechanical properties :
#
#
# Convention : Reuss Voigt Hill
#
# Bulk Modulus (GPa) = 39.12494 43.24690 41.18592
# Shear Modulus (GPa) = 24.82990 110.79482 67.81236
#
# Velocity S-wave (km/s) = 3.28906 6.94774 5.43548
# Velocity P-wave (km/s) = 5.60979 9.12158 7.57209
#
# Compressibility (1/GPa) = 0.02555915
#
# Stress axis : x y z
#
# Youngs Moduli (GPa) = 129.60208 78.31318 103.58211
#
# Poissons Ratio (x) = 0.05350 0.19762
# Poissons Ratio (y) = 0.08854 -0.03117
# Poissons Ratio (z) = 0.24726 -0.02357
#
# Static dielectric constant tensor:
#      x y z
#    x 1.074920 0.000000 0.000000 
#    y 0.000000 1.829020 0.000000 
#    z 0.000000 0.000000 1.957700 
# 
# From -- ./inp_files/35760.got.cif
#   From: 2010.05.17/outbox.cif.g08.bks.cpg/sg24_18_cif.got.tgz:35760.got - 2010.06.04 00:33:39.
