data_PCOD9336915
_publ_section_title
;
Structure prediction by ZEFSAII (Michael W. Deem and Ramdas Pophale) SiO2 
 PCOD9336915
Probable space group: I 21 21 21
;
_chemical_formula_sum "Si O2"
_cell_formula_units_Z 40
_cell_length_a 9.734771
_cell_length_b 29.354213
_cell_length_c 7.058495
_cell_angle_alpha 90.000000
_cell_angle_beta 90.000000
_cell_angle_gamma 90.000000
_cell_volume 2017.011119
_symmetry_space_group_name_H-M "I 21 21 21"
_symmetry_group_IT_number 24
_symmetry_cell_setting 'orthorhombic'
loop_
_space_group_symop_operation_xyz
x,y,z
-x,1/2-y,z
x,-y,1/2-z
1/2-x,y,-z
1/2+x,1/2+y,1/2+z
1/2-x,-y,1/2+z
1/2+x,1/2-y,-z
-x,1/2+y,1/2-z
loop_
_atom_site_type_symbol
_atom_site_label
_atom_site_fract_x
_atom_site_fract_y
_atom_site_fract_z
Si Si1 0.250000 0.446307 0.500000
Si Si2 0.897745 0.873047 0.254583
Si Si3 0.096613 0.089374 0.917215
Si Si4 0.000000 0.250000 0.800772
Si Si5 0.250000 0.700587 0.500000
Si Si6 0.595786 0.661439 0.076988
Si Si7 0.965442 0.000000 0.750000
O O1 0.309659 0.413548 0.663035
O O2 0.131632 0.476895 0.592159
O O3 0.801574 0.833084 0.334560
O O4 0.990471 0.892601 0.424763
O O5 0.995481 0.852804 0.092521
O O6 0.088557 0.123124 0.738952
O O7 0.250000 0.090016 0.000000
O O8 0.054885 0.039356 0.846815
O O9 0.875728 0.231226 0.928731
O O10 0.948394 0.291269 0.671072
O O11 0.750000 0.664469 0.000000
#
# Coordination Sequence:
#
# PCOD9336915 Si02
#       7
#     4   8   8   4   4   8   4
#     4  12  24  45  74 104 144 192 246 295 366 432
#     4  12  25  49  76 102 152 191 241 303 366 430
#     4  12  26  49  73 108 149 188 242 304 363 432
#     4  12  30  46  76 114 144 192 250 300 362 434
#     4  12  28  47  76 112 150 192 242 307 362 430
#     4  12  27  49  76 106 147 197 244 299 369 438
#     4  12  26  44  72 110 140 190 246 302 358 434
#
# _framework density 19.831325
#
# number of rings (size 3 to 8) (size 9 to 14) (size 15 to 20)
#    0.000    0.000    6.000    3.600    7.000    2.400 
#    0.000    0.000    0.000    0.000    0.000    0.000 
#    0.000    0.000    0.000    0.000    0.000    0.000 
#
# Total GULP energy -112077.831420 kJ/mol
# GULP energy per Si atom -5603.891571 kJ/mol
# Density = 1.978619 g / cm^3
# Si number density = 19.831325 Si / 1000 Ang^3
#
#
#
# Elastic Constant Matrix: (Units=GPa)
#
#
# Indices 1 2 3 4 5 6 
#
# 1 125.6432 79.1358 72.9788 -0.0142 -0.0023 0.0148
# 2 79.1358 169.5120 81.3144 0.0608 -0.0001 0.0144
# 3 72.9788 81.3144 135.1344 0.3843 -0.0024 0.0906
# 4 -0.0142 0.0608 0.3843 9.2110 0.0368 -0.4083
# 5 -0.0023 -0.0001 -0.0024 0.0368 59.3858 0.0193
# 6 0.0148 0.0144 0.0906 -0.4083 0.0193 40.5610
#
#
#
# Elastic Compliance Matrix: (Units=1/GPa)
#
#
# Indices 1 2 3 4 5 6 
#
# 1 0.013168 -0.003846 -0.004798 0.000246 0.000000 0.000010
# 2 -0.003846 0.009417 -0.003589 0.000082 0.000000 0.000007
# 3 -0.004798 -0.003589 0.012152 -0.000492 0.000001 -0.000029
# 4 0.000246 0.000082 -0.000492 0.108634 -0.000068 0.001094
# 5 0.000000 0.000000 0.000001 -0.000068 0.016839 -0.000009
# 6 0.000010 0.000007 -0.000029 0.001094 -0.000009 0.024665
#
#
# Mechanical properties :
#
#
# Convention : Reuss Voigt Hill
#
# Bulk Modulus (GPa) = 97.36617 99.68304 98.52461
# Shear Modulus (GPa) = 23.49992 34.95561 29.22776
#
# Velocity S-wave (km/s) = 3.44610 4.20294 3.84320
# Velocity P-wave (km/s) = 8.06461 8.59811 8.33563
#
# Compressibility (1/GPa) = 0.01027051
#
# Stress axis : x y z
#
# Youngs Moduli (GPa) = 75.93960 106.19499 82.28821
#
# Poissons Ratio (x) = 0.40844 0.39481
# Poissons Ratio (y) = 0.29207 0.29537
# Poissons Ratio (z) = 0.36435 0.38118
#
# Static dielectric constant tensor:
#      x y z
#    x 1.678680 0.000010 0.000000 
#    y 0.000010 1.655370 0.000000 
#    z 0.000000 0.000000 1.667180 
# 
# From -- ./inp_files/2572.got.cif
#   From: 2010.05.17/outbox.cif.g08.bks.cpg/sg24_2_cif.got.tgz:2572.got - 2010.06.04 00:33:39.
