data_PCOD9336893
_publ_section_title
;
Structure prediction by ZEFSAII (Michael W. Deem and Ramdas Pophale) SiO2 
 PCOD9336893
Probable space group: I 21 21 21
;
_chemical_formula_sum "Si O2"
_cell_formula_units_Z 36
_cell_length_a 10.702425
_cell_length_b 11.025176
_cell_length_c 11.975106
_cell_angle_alpha 90.000000
_cell_angle_beta 90.000000
_cell_angle_gamma 90.000000
_cell_volume 1413.016036
_symmetry_space_group_name_H-M "I 21 21 21"
_symmetry_group_IT_number 24
_symmetry_cell_setting 'orthorhombic'
loop_
_space_group_symop_operation_xyz
x,y,z
-x,1/2-y,z
x,-y,1/2-z
1/2-x,y,-z
1/2+x,1/2+y,1/2+z
1/2-x,-y,1/2+z
1/2+x,1/2-y,-z
-x,1/2+y,1/2-z
loop_
_atom_site_type_symbol
_atom_site_label
_atom_site_fract_x
_atom_site_fract_y
_atom_site_fract_z
Si Si1 0.469576 0.049029 0.044172
Si Si2 0.250000 0.601134 0.500000
Si Si3 0.173573 0.775322 0.701183
Si Si4 0.071559 0.874855 0.297452
Si Si5 0.625142 0.715836 0.062889
O O1 0.431651 0.143847 0.140473
O O2 0.396658 0.927657 0.073828
O O3 0.617410 0.032306 0.015156
O O4 0.419183 0.106729 0.930153
O O5 0.238128 0.685741 0.610925
O O6 0.287778 0.858559 0.744576
O O7 0.126907 0.718298 0.816888
O O8 0.000000 0.750000 0.273703
O O9 0.015361 0.000000 0.250000
O O10 0.500000 0.750000 0.996955
O O11 0.750000 0.744757 0.000000
#
# Coordination Sequence:
#
# PCOD9336893 Si02
#       5
#     8   4   8   8   8
#     4  12  24  47  74 115 151 205 269 331 397 488
#     4  12  24  44  82 112 154 198 276 334 398 480
#     4  12  23  48  78 114 151 209 266 333 409 485
#     4  12  24  44  73 112 157 208 269 332 403 489
#     4  12  29  50  77 111 164 212 263 332 418 495
#
# _framework density 25.477418
#
# number of rings (size 3 to 8) (size 9 to 14) (size 15 to 20)
#    0.000    0.000    4.444    6.667    1.556    3.556 
#    0.000    0.000    0.000    0.000    0.000    0.000 
#    0.000    0.000    0.000    0.000    0.000    0.000 
#
# Total GULP energy -100699.171333 kJ/mol
# GULP energy per Si atom -5594.398407 kJ/mol
# Density = 2.541943 g / cm^3
# Si number density = 25.477418 Si / 1000 Ang^3
#
#
#
# Elastic Constant Matrix: (Units=GPa)
#
#
# Indices 1 2 3 4 5 6 
#
# 1 175.3724 15.8621 45.3113 0.0000 0.0000 0.0000
# 2 15.8621 100.1276 25.6893 0.0000 0.0000 0.0000
# 3 45.3113 25.6893 145.6967 0.0000 0.0000 0.0000
# 4 0.0000 0.0000 0.0000 24.2925 0.0000 0.0000
# 5 0.0000 0.0000 0.0000 0.0000 34.0048 0.0000
# 6 0.0000 0.0000 0.0000 0.0000 0.0000 45.1231
#
#
#
# Elastic Compliance Matrix: (Units=1/GPa)
#
#
# Indices 1 2 3 4 5 6 
#
# 1 0.006225 -0.000513 -0.001846 0.000000 0.000000 0.000000
# 2 -0.000513 0.010503 -0.001692 0.000000 0.000000 0.000000
# 3 -0.001846 -0.001692 0.007736 0.000000 0.000000 0.000000
# 4 0.000000 0.000000 0.000000 0.041165 0.000000 0.000000
# 5 0.000000 0.000000 0.000000 0.000000 0.029408 0.000000
# 6 0.000000 0.000000 0.000000 0.000000 0.000000 0.022162
#
#
# Mechanical properties :
#
#
# Convention : Reuss Voigt Hill
#
# Bulk Modulus (GPa) = 61.11521 66.10245 63.60883
# Shear Modulus (GPa) = 38.23977 42.97301 40.60639
#
# Velocity S-wave (km/s) = 3.87838 4.11141 3.99660
# Velocity P-wave (km/s) = 6.64047 6.96707 6.80573
#
# Compressibility (1/GPa) = 0.01636254
#
# Stress axis : x y z
#
# Youngs Moduli (GPa) = 160.63236 95.21377 129.26613
#
# Poissons Ratio (x) = 0.04881 0.23858
# Poissons Ratio (y) = 0.08235 0.21877
# Poissons Ratio (z) = 0.29648 0.16114
#
# Static dielectric constant tensor:
#      x y z
#    x 2.131770 0.000000 0.000000 
#    y 0.000000 2.087370 0.000000 
#    z 0.000000 0.000000 1.977770 
# 
# From -- ./inp_files/19209.got.cif
#   From: 2010.05.17/outbox.cif.g08.bks.cpg/sg24_10_cif.got.tgz:19209.got - 2010.06.04 00:33:39.
