data_PCOD9336722
_publ_section_title
;
Structure prediction by ZEFSAII (Michael W. Deem and Ramdas Pophale) SiO2 
 PCOD9336722
Probable space group: I 21 21 21
;
_chemical_formula_sum "Si O2"
_cell_formula_units_Z 28
_cell_length_a 9.199927
_cell_length_b 10.752257
_cell_length_c 12.288012
_cell_angle_alpha 90.000000
_cell_angle_beta 90.000000
_cell_angle_gamma 90.000000
_cell_volume 1215.529895
_symmetry_space_group_name_H-M "I 21 21 21"
_symmetry_group_IT_number 24
_symmetry_cell_setting 'orthorhombic'
loop_
_space_group_symop_operation_xyz
x,y,z
-x,1/2-y,z
x,-y,1/2-z
1/2-x,y,-z
1/2+x,1/2+y,1/2+z
1/2-x,-y,1/2+z
1/2+x,1/2-y,-z
-x,1/2+y,1/2-z
loop_
_atom_site_type_symbol
_atom_site_label
_atom_site_fract_x
_atom_site_fract_y
_atom_site_fract_z
Si Si1 0.088186 0.922538 0.646963
Si Si2 0.534466 0.000000 0.750000
Si Si3 0.768639 0.831840 0.626234
Si Si4 0.910423 0.375600 0.462631
O O1 0.209560 0.817274 0.626907
O O2 0.926318 0.871753 0.671103
O O3 0.135755 0.000000 0.750000
O O4 0.060613 0.010695 0.544377
O O5 0.640565 0.103684 0.805967
O O6 0.442787 0.070000 0.656905
O O7 0.750000 0.868870 0.500000
O O8 0.750000 0.338873 0.500000
O O9 0.000000 0.250000 0.477613
#
# Coordination Sequence:
#
# PCOD9336722 Si02
#       4
#     8   4   8   8
#     4  11  26  45  79 118 166 206 264 324 402 475
#     4  12  28  54  84 116 164 212 274 328 404 476
#     4  11  24  48  81 118 160 214 263 325 397 480
#     4  12  32  51  82 118 163 209 271 333 406 477
#
# _framework density 23.035221
#
# number of rings (size 3 to 8) (size 9 to 14) (size 15 to 20)
#    0.000    0.571    4.286    0.857   14.000    2.286 
#    0.000    0.000    0.000    0.000    0.000    0.000 
#    0.000    0.000    0.000    0.000    0.000    0.000 
#
# Total GULP energy -78299.671694 kJ/mol
# GULP energy per Si atom -5592.833692 kJ/mol
# Density = 2.298279 g / cm^3
# Si number density = 23.035221 Si / 1000 Ang^3
#
#
#
# Elastic Constant Matrix: (Units=GPa)
#
#
# Indices 1 2 3 4 5 6 
#
# 1 157.7935 74.7845 74.9747 0.0000 0.0000 0.0000
# 2 74.7845 154.4863 82.1777 0.0000 0.0000 -0.0001
# 3 74.9747 82.1777 177.7075 0.0000 0.0000 -0.0001
# 4 0.0000 0.0000 0.0000 24.2649 0.0000 -0.0003
# 5 0.0000 0.0000 0.0000 0.0000 17.2015 -0.0001
# 6 0.0000 -0.0001 -0.0001 -0.0003 -0.0001-1004.4213
#
#
#
# Elastic Compliance Matrix: (Units=1/GPa)
#
#
# Indices 1 2 3 4 5 6 
#
# 1 0.008901 -0.003065 -0.002338 0.000000 0.000000 0.000000
# 2 -0.003065 0.009640 -0.003165 0.000000 0.000000 0.000000
# 3 -0.002338 -0.003165 0.008077 0.000000 0.000000 0.000000
# 4 0.000000 0.000000 0.000000 0.041212 0.000000 0.000000
# 5 0.000000 0.000000 0.000000 0.000000 0.058135 0.000000
# 6 0.000000 0.000000 0.000000 0.000000 0.000000 -0.000996
#
#
# Mechanical properties :
#
#
# Convention : Reuss Voigt Hill
#
# Bulk Modulus (GPa) = 105.45577 105.98456 105.72017
# Shear Modulus (GPa) = 34.41967 -175.38763 -70.48398
#
# Velocity S-wave (km/s) = 3.86971 -8.73523 -5.53758
# Velocity P-wave (km/s) = 8.11454 7.45850 2.26015
#
# Compressibility (1/GPa) = 0.00948265
#
# Stress axis : x y z
#
# Youngs Moduli (GPa) = 112.34776 103.73028 123.80723
#
# Poissons Ratio (x) = 0.31796 0.28944
# Poissons Ratio (y) = 0.34437 0.39183
# Poissons Ratio (z) = 0.26265 0.32829
#
# Static dielectric constant tensor:
#      x y z
#    x 4.839370 0.000000 0.000000 
#    y 0.000000 2.025700 0.000000 
#    z 0.000000 0.000000 2.163110 
# 
# From -- ./inp_files/24268.got.cif
#   From: 2010.05.17/outbox.cif.g08.bks.cpg/sg24_13_cif.got.tgz:24268.got - 2010.06.04 00:33:39.
