data_PCOD9336467
_publ_section_title
;
Structure prediction by ZEFSAII (Michael W. Deem and Ramdas Pophale) SiO2 
 PCOD9336467
Probable space group: I 21 21 21
;
_chemical_formula_sum "Si O2"
_cell_formula_units_Z 48
_cell_length_a 12.738716
_cell_length_b 27.773883
_cell_length_c 6.500364
_cell_angle_alpha 90.000000
_cell_angle_beta 90.000000
_cell_angle_gamma 90.000000
_cell_volume 2299.852235
_symmetry_space_group_name_H-M "I 21 21 21"
_symmetry_group_IT_number 24
_symmetry_cell_setting 'orthorhombic'
loop_
_space_group_symop_operation_xyz
x,y,z
-x,1/2-y,z
x,-y,1/2-z
1/2-x,y,-z
1/2+x,1/2+y,1/2+z
1/2-x,-y,1/2+z
1/2+x,1/2-y,-z
-x,1/2+y,1/2-z
loop_
_atom_site_type_symbol
_atom_site_label
_atom_site_fract_x
_atom_site_fract_y
_atom_site_fract_z
Si Si1 0.750000 0.732193 0.500000
Si Si2 0.865357 0.886232 0.397592
Si Si3 0.919035 0.793659 0.657004
Si Si4 0.820178 0.344555 0.303055
Si Si5 0.035448 0.629890 0.993465
Si Si6 0.750000 0.425758 0.000000
Si Si7 0.520718 0.550879 0.351362
O O1 0.809165 0.766429 0.656439
O O2 0.822291 0.697144 0.366697
O O3 0.750000 0.891002 0.500000
O O4 0.911828 0.835438 0.484271
O O5 0.872464 0.884963 0.150450
O O6 0.940629 0.929276 0.476345
O O7 0.000000 0.750000 0.623993
O O8 0.938574 0.822599 0.864480
O O9 0.750000 0.330874 0.500000
O O10 0.935145 0.358403 0.369842
O O11 0.769494 0.390862 0.193886
O O12 0.996839 0.589977 0.830345
O O13 0.639593 0.451458 0.055420
O O14 0.494619 0.500000 0.250000
#
# Coordination Sequence:
#
# PCOD9336467 Si02
#       7
#     4   8   8   8   8   4   8
#     4  11  24  40  64  98 140 174 238 280 333 412
#     4  11  25  50  71  98 145 190 240 306 348 417
#     4  11  24  42  64 104 138 183 236 287 347 411
#     4  11  21  39  70 100 135 186 221 284 354 423
#     4  11  24  44  71  97 140 186 230 285 362 419
#     4  11  22  42  72 102 144 170 226 292 361 430
#     4  11  26  46  72 109 140 180 235 293 366 438
#
# _framework density 20.870905
#
# number of rings (size 3 to 8) (size 9 to 14) (size 15 to 20)
#    0.000    1.000    4.167    2.000    4.667    8.000 
#    6.000    0.000    0.000    0.000    0.000    0.000 
#    0.000    0.000    0.000    0.000    0.000    0.000 
#
# Total GULP energy -134019.474330 kJ/mol
# GULP energy per Si atom -5584.144764 kJ/mol
# Density = 2.082340 g / cm^3
# Si number density = 20.870905 Si / 1000 Ang^3
#
#
#
# Elastic Constant Matrix: (Units=GPa)
#
#
# Indices 1 2 3 4 5 6 
#
# 1 93.0400 21.0754 17.7202 0.0081 -0.0065 -0.0004
# 2 21.0754 96.3645 5.1433 0.0107 -0.0041 -0.0014
# 3 17.7202 5.1433 68.4543 0.0001 -0.0148 -0.0080
# 4 0.0081 0.0107 0.0001 1.1976 0.0039 -0.0006
# 5 -0.0065 -0.0041 -0.0148 0.0039 37.2834 0.0001
# 6 -0.0004 -0.0014 -0.0080 -0.0006 0.0001 19.0868
#
#
#
# Elastic Compliance Matrix: (Units=1/GPa)
#
#
# Indices 1 2 3 4 5 6 
#
# 1 0.011850 -0.002438 -0.002884 -0.000058 0.000001 -0.000001
# 2 -0.002438 0.010921 -0.000190 -0.000081 0.000001 0.000001
# 3 -0.002884 -0.000190 0.015369 0.000020 0.000006 0.000006
# 4 -0.000058 -0.000081 0.000020 0.835023 -0.000088 0.000026
# 5 0.000001 0.000001 0.000006 -0.000088 0.026822 0.000000
# 6 -0.000001 0.000001 0.000006 0.000026 0.000000 0.052392
#
#
# Mechanical properties :
#
#
# Convention : Reuss Voigt Hill
#
# Bulk Modulus (GPa) = 36.87794 38.41519 37.64656
# Shear Modulus (GPa) = 5.14172 25.77490 15.45831
#
# Velocity S-wave (km/s) = 1.57128 3.51802 2.72446
# Velocity P-wave (km/s) = 4.58256 5.91169 5.28904
#
# Compressibility (1/GPa) = 0.02711648
#
# Stress axis : x y z
#
# Youngs Moduli (GPa) = 84.39132 91.57087 65.06545
#
# Poissons Ratio (x) = 0.22321 0.18766
# Poissons Ratio (y) = 0.20571 0.01233
# Poissons Ratio (z) = 0.24341 0.01735
#
# Static dielectric constant tensor:
#      x y z
#    x 1.807510 0.000000 0.000000 
#    y 0.000000 1.712030 0.000000 
#    z 0.000000 0.000000 1.790350 
# 
# From -- ./inp_files/3789.got.cif
#   From: 2010.05.17/outbox.cif.g08.bks.cpg/sg24_2_cif.got.tgz:3789.got - 2010.06.04 00:33:39.
