data_PCOD9336455
_publ_section_title
;
Structure prediction by ZEFSAII (Michael W. Deem and Ramdas Pophale) SiO2 
 PCOD9336455
Probable space group: I 21 21 21
;
_chemical_formula_sum "Si O2"
_cell_formula_units_Z 32
_cell_length_a 15.686655
_cell_length_b 17.995273
_cell_length_c 4.892731
_cell_angle_alpha 90.000000
_cell_angle_beta 90.000000
_cell_angle_gamma 90.000000
_cell_volume 1381.147698
_symmetry_space_group_name_H-M "I 21 21 21"
_symmetry_group_IT_number 24
_symmetry_cell_setting 'orthorhombic'
loop_
_space_group_symop_operation_xyz
x,y,z
-x,1/2-y,z
x,-y,1/2-z
1/2-x,y,-z
1/2+x,1/2+y,1/2+z
1/2-x,-y,1/2+z
1/2+x,1/2-y,-z
-x,1/2+y,1/2-z
loop_
_atom_site_type_symbol
_atom_site_label
_atom_site_fract_x
_atom_site_fract_y
_atom_site_fract_z
Si Si1 0.624185 0.546869 0.990654
Si Si2 0.424558 0.314495 0.279070
Si Si3 0.250000 0.743033 0.500000
Si Si4 0.552429 0.084855 0.774606
Si Si5 0.750000 0.667313 0.000000
O O1 0.671952 0.500000 0.750000
O O2 0.543198 0.577532 0.833808
O O3 0.597421 0.500000 0.250000
O O4 0.677688 0.613823 0.111499
O O5 0.500000 0.250000 0.285196
O O6 0.408528 0.352949 0.573036
O O7 0.332328 0.291439 0.154247
O O8 0.450813 0.381456 0.075991
O O9 0.210591 0.789134 0.250546
O O10 0.588741 0.000000 0.750000
#
# Coordination Sequence:
#
# PCOD9336455 Si02
#       5
#     8   8   4   8   4
#     4  11  21  36  60  93 127 166 209 256 323 401
#     4  12  24  44  68  98 132 171 215 270 325 384
#     4  12  26  41  64  93 126 170 222 264 320 388
#     4  11  23  42  67  94 128 172 218 268 323 381
#     4  12  22  39  58  91 132 168 204 266 324 390
#
# _framework density 23.169136999999999
#
# number of rings (size 3 to 8) (size 9 to 14) (size 15 to 20)
#    0.000    0.500    0.000   11.250    0.000    0.000 
#    0.000    2.500    0.000    1.500    0.000    0.000 
#    0.000    0.000    0.000    0.000    0.000    0.000 
#
# Total GULP energy -89310.295919 kJ/mol
# GULP energy per Si atom -5581.893495 kJ/mol
# Density = 2.311640 g / cm^3
# Si number density = 23.169137 Si / 1000 Ang^3
#
#
#
# Elastic Constant Matrix: (Units=GPa)
#
#
# Indices 1 2 3 4 5 6 
#
# 1 75.7768 29.8188 -13.1055 0.0000 0.0000 0.0000
# 2 29.8188 104.3400 24.1666 0.0000 0.0000 0.0000
# 3 -13.1055 24.1666 99.8696 0.0000 0.0000 0.0000
# 4 0.0000 0.0000 0.0000 55.3840 0.0000 0.0000
# 5 0.0000 0.0000 0.0000 0.0000 31.2565 0.0000
# 6 0.0000 0.0000 0.0000 0.0000 0.0000 31.1386
#
#
#
# Elastic Compliance Matrix: (Units=1/GPa)
#
#
# Indices 1 2 3 4 5 6 
#
# 1 0.015871 -0.005316 0.003369 0.000000 0.000000 0.000000
# 2 -0.005316 0.011934 -0.003585 0.000000 0.000000 0.000000
# 3 0.003369 -0.003585 0.011323 0.000000 0.000000 0.000000
# 4 0.000000 0.000000 0.000000 0.018056 0.000000 0.000000
# 5 0.000000 0.000000 0.000000 0.000000 0.031993 0.000000
# 6 0.000000 0.000000 0.000000 0.000000 0.000000 0.032115
#
#
# Mechanical properties :
#
#
# Convention : Reuss Voigt Hill
#
# Bulk Modulus (GPa) = 35.63398 40.19402 37.91400
# Shear Modulus (GPa) = 35.28322 39.49625 37.38973
#
# Velocity S-wave (km/s) = 3.90661 4.13327 4.02154
# Velocity P-wave (km/s) = 5.98014 6.33753 6.16143
#
# Compressibility (1/GPa) = 0.02806310
#
# Stress axis : x y z
#
# Youngs Moduli (GPa) = 63.00688 83.79602 88.31764
#
# Poissons Ratio (x) = 0.44547 -0.29755
# Poissons Ratio (y) = 0.33495 0.31665
# Poissons Ratio (z) = -0.21228 0.30044
#
# Static dielectric constant tensor:
#      x y z
#    x 1.927420 0.000000 0.000000 
#    y 0.000000 2.050010 0.000000 
#    z 0.000000 0.000000 1.870020 
# 
# From -- ./inp_files/4295.got.cif
#   From: 2010.05.17/outbox.cif.g08.bks.cpg/sg24_3_cif.got.tgz:4295.got - 2010.06.04 00:33:39.
