data_PCOD9336246
_publ_section_title
;
Structure prediction by ZEFSAII (Michael W. Deem and Ramdas Pophale) SiO2 
 PCOD9336246
Probable space group: I 21 21 21
;
_chemical_formula_sum "Si O2"
_cell_formula_units_Z 20
_cell_length_a 5.410087
_cell_length_b 30.775197
_cell_length_c 4.946974
_cell_angle_alpha 90.000000
_cell_angle_beta 90.000000
_cell_angle_gamma 90.000000
_cell_volume 823.653823
_symmetry_space_group_name_H-M "I 21 21 21"
_symmetry_group_IT_number 24
_symmetry_cell_setting 'orthorhombic'
loop_
_space_group_symop_operation_xyz
x,y,z
-x,1/2-y,z
x,-y,1/2-z
1/2-x,y,-z
1/2+x,1/2+y,1/2+z
1/2-x,-y,1/2+z
1/2+x,1/2-y,-z
-x,1/2+y,1/2-z
loop_
_atom_site_type_symbol
_atom_site_label
_atom_site_fract_x
_atom_site_fract_y
_atom_site_fract_z
Si Si1 0.401695 0.500000 0.750000
Si Si2 0.002358 0.298640 0.177654
Si Si3 0.250000 0.868075 0.000000
Si Si4 0.250000 0.072429 0.000000
O O1 0.250000 0.481626 0.500000
O O2 0.552217 0.539572 0.624277
O O3 0.965759 0.336448 0.394187
O O4 0.000000 0.250000 0.299563
O O5 0.750000 0.300973 0.000000
O O6 0.250000 0.303531 0.000000
O O7 0.166469 0.897501 0.747997
#
# Coordination Sequence:
#
# PCOD9336246 Si02
#       4
#     4   8   4   4
#     4  12  26  52  84 112 154 212 254 326 410 496
#     4  10  24  49  79 112 162 224 275 330 401 471
#     4  12  25  50  76 120 160 214 266 348 383 484
#     4  12  27  52  80 118 162 198 270 328 407 478
#
# _framework density 24.282046999999999
#
# number of rings (size 3 to 8) (size 9 to 14) (size 15 to 20)
#    0.000    0.800    2.000    4.800    0.000    8.000 
#   14.400    0.000    0.000    0.000    0.000    0.000 
#    0.000    0.000    0.000    0.000    0.000    0.000 
#
# Total GULP energy -56048.104423 kJ/mol
# GULP energy per Si atom -5604.810442 kJ/mol
# Density = 2.422678 g / cm^3
# Si number density = 24.282047 Si / 1000 Ang^3
#
#
#
# Elastic Constant Matrix: (Units=GPa)
#
#
# Indices 1 2 3 4 5 6 
#
# 1 154.0131 71.2521 85.1395 0.0010 -0.0001 0.0012
# 2 71.2521 209.3752 119.6697 0.0050 0.0010 0.0010
# 3 85.1395 119.6697 200.5505 0.0363 0.0010 0.0034
# 4 0.0010 0.0050 0.0363 498.6696 0.0017 -0.0056
# 5 -0.0001 0.0010 0.0010 0.0017 52.6634 0.0003
# 6 0.0012 0.0010 0.0034 -0.0056 0.0003 34.2518
#
#
#
# Elastic Compliance Matrix: (Units=1/GPa)
#
#
# Indices 1 2 3 4 5 6 
#
# 1 0.008708 -0.001291 -0.002927 0.000000 0.000000 0.000000
# 2 -0.001291 0.007439 -0.003891 0.000000 0.000000 0.000000
# 3 -0.002927 -0.003891 0.008551 -0.000001 0.000000 -0.000001
# 4 0.000000 0.000000 -0.000001 0.002005 0.000000 0.000000
# 5 0.000000 0.000000 0.000000 0.000000 0.018989 0.000000
# 6 0.000000 0.000000 -0.000001 0.000000 0.000000 0.029196
#
#
# Mechanical properties :
#
#
# Convention : Reuss Voigt Hill
#
# Bulk Modulus (GPa) = 117.91122 124.00682 120.95902
# Shear Modulus (GPa) = 53.23044 136.30881 94.76963
#
# Velocity S-wave (km/s) = 4.68714 7.50050 6.25407
# Velocity P-wave (km/s) = 8.82932 11.23344 10.10314
#
# Compressibility (1/GPa) = 0.00848096
#
# Stress axis : x y z
#
# Youngs Moduli (GPa) = 114.83810 134.41992 116.95060
#
# Poissons Ratio (x) = 0.17349 0.34227
# Poissons Ratio (y) = 0.14821 0.45508
# Poissons Ratio (z) = 0.33609 0.52306
#
# Static dielectric constant tensor:
#      x y z
#    x 1.907570 0.000000 0.000000 
#    y 0.000000 1.929120 0.000000 
#    z 0.000000 0.000000 1.936370 
# 
# From -- ./inp_files/416.got.cif
#   From: 2010.05.17/outbox.cif.g08.bks.cpg/sg24_1_cif.got.tgz:416.got - 2010.06.04 00:33:39.
