data_PCOD9336697
_publ_section_title
;
Structure prediction by ZEFSAII (Michael W. Deem and Ramdas Pophale) SiO2 
 PCOD9336697
Probable space group: I 21 21 21
;
_chemical_formula_sum "Si O2"
_cell_formula_units_Z 56
_cell_length_a 11.711470
_cell_length_b 14.137332
_cell_length_c 14.228901
_cell_angle_alpha 90.000000
_cell_angle_beta 90.000000
_cell_angle_gamma 90.000000
_cell_volume 2355.864050
_symmetry_space_group_name_H-M "I 21 21 21"
_symmetry_group_IT_number 24
_symmetry_cell_setting 'orthorhombic'
loop_
_space_group_symop_operation_xyz
x,y,z
-x,1/2-y,z
x,-y,1/2-z
1/2-x,y,-z
1/2+x,1/2+y,1/2+z
1/2-x,-y,1/2+z
1/2+x,1/2-y,-z
-x,1/2+y,1/2-z
loop_
_atom_site_type_symbol
_atom_site_label
_atom_site_fract_x
_atom_site_fract_y
_atom_site_fract_z
Si Si1 0.632589 0.592437 0.016513
Si Si2 0.364935 0.261609 0.345935
Si Si3 0.245971 0.536206 0.890153
Si Si4 0.404546 0.814736 0.578235
Si Si5 0.514475 0.963663 0.350602
Si Si6 0.010959 0.014407 0.357036
Si Si7 0.150096 0.790069 0.629695
O O1 0.675853 0.678956 0.082480
O O2 0.537724 0.538195 0.076975
O O3 0.750000 0.534473 0.000000
O O4 0.571594 0.599580 0.914804
O O5 0.500000 0.250000 0.362020
O O6 0.307919 0.360332 0.374127
O O7 0.350667 0.255645 0.233289
O O8 0.374588 0.528492 0.854057
O O9 0.151368 0.462615 0.852605
O O10 0.250000 0.517925 0.000000
O O11 0.500000 0.750000 0.627788
O O12 0.280488 0.825136 0.623700
O O13 0.376771 0.760279 0.478931
O O14 0.458715 0.919526 0.583489
O O15 0.451019 0.866351 0.363614
O O16 0.477870 0.000000 0.250000
O O17 0.052145 0.000000 0.250000
#
# Coordination Sequence:
#
# PCOD9336697 Si02
#       7
#     8   8   8   8   8   8   8
#     4  12  25  43  71 106 145 198 245 307 371 440
#     4  12  24  44  73 111 148 189 256 315 373 443
#     4  12  24  48  74 111 154 194 246 315 386 457
#     4  11  26  49  69 107 150 196 250 309 379 455
#     4  12  22  44  75 104 138 190 251 302 369 449
#     4  12  28  48  75 108 156 202 248 307 391 464
#     4  11  24  45  74 103 143 192 256 307 370 449
#
# _framework density 23.770472000000002
#
# number of rings (size 3 to 8) (size 9 to 14) (size 15 to 20)
#    0.000    0.286    5.714    2.143    4.000    1.143 
#    7.714    0.714    0.000    0.000    0.000    0.000 
#    0.000    0.000    0.000    0.000    0.000    0.000 
#
# Total GULP energy -156236.352223 kJ/mol
# GULP energy per Si atom -5579.869722 kJ/mol
# Density = 2.371637 g / cm^3
# Si number density = 23.770472 Si / 1000 Ang^3
#
#
#
# Elastic Constant Matrix: (Units=GPa)
#
#
# Indices 1 2 3 4 5 6 
#
# 1 173.5218 25.4883 9.7793 0.0000 0.0000 0.0000
# 2 25.4883 60.8534 18.6631 0.0000 0.0000 0.0000
# 3 9.7793 18.6631 137.8451 0.0000 0.0000 0.0000
# 4 0.0000 0.0000 0.0000 18.9496 0.0000 0.0000
# 5 0.0000 0.0000 0.0000 0.0000 37.2859 0.0000
# 6 0.0000 0.0000 0.0000 0.0000 0.0000 20.0288
#
#
#
# Elastic Compliance Matrix: (Units=1/GPa)
#
#
# Indices 1 2 3 4 5 6 
#
# 1 0.006142 -0.002545 -0.000091 0.000000 0.000000 0.000000
# 2 -0.002545 0.018199 -0.002283 0.000000 0.000000 0.000000
# 3 -0.000091 -0.002283 0.007570 0.000000 0.000000 0.000000
# 4 0.000000 0.000000 0.000000 0.052772 0.000000 0.000000
# 5 0.000000 0.000000 0.000000 0.000000 0.026820 0.000000
# 6 0.000000 0.000000 0.000000 0.000000 0.000000 0.049928
#
#
# Mechanical properties :
#
#
# Convention : Reuss Voigt Hill
#
# Bulk Modulus (GPa) = 45.30507 53.34241 49.32374
# Shear Modulus (GPa) = 27.99134 36.47216 32.23175
#
# Velocity S-wave (km/s) = 3.43529 3.92132 3.68633
# Velocity P-wave (km/s) = 5.90218 6.55681 6.23809
#
# Compressibility (1/GPa) = 0.02207259
#
# Stress axis : x y z
#
# Youngs Moduli (GPa) = 162.81691 54.94800 132.09769
#
# Poissons Ratio (x) = 0.13982 0.01205
# Poissons Ratio (y) = 0.41429 0.30164
# Poissons Ratio (z) = 0.01485 0.12547
#
# Static dielectric constant tensor:
#      x y z
#    x 1.911260 0.000000 0.000000 
#    y 0.000000 1.970450 0.000000 
#    z 0.000000 0.000000 1.902540 
# 
# From -- ./inp_files/25829.got.cif
#   From: 2010.05.17/outbox.cif.g08.bks.cpg/sg24_13_cif.got.tgz:25829.got - 2010.06.04 00:33:39.
