data_PCOD9336479
_publ_section_title
;
Structure prediction by ZEFSAII (Michael W. Deem and Ramdas Pophale) SiO2 
 PCOD9336479
Probable space group: I 21 21 21
;
_chemical_formula_sum "Si O2"
_cell_formula_units_Z 32
_cell_length_a 9.604270
_cell_length_b 11.557756
_cell_length_c 10.647176
_cell_angle_alpha 90.000000
_cell_angle_beta 90.000000
_cell_angle_gamma 90.000000
_cell_volume 1181.877093
_symmetry_space_group_name_H-M "I 21 21 21"
_symmetry_group_IT_number 24
_symmetry_cell_setting 'orthorhombic'
loop_
_space_group_symop_operation_xyz
x,y,z
-x,1/2-y,z
x,-y,1/2-z
1/2-x,y,-z
1/2+x,1/2+y,1/2+z
1/2-x,-y,1/2+z
1/2+x,1/2-y,-z
-x,1/2+y,1/2-z
loop_
_atom_site_type_symbol
_atom_site_label
_atom_site_fract_x
_atom_site_fract_y
_atom_site_fract_z
Si Si1 0.522043 0.517178 0.396647
Si Si2 0.633223 0.314168 0.570128
Si Si3 0.703458 0.345536 0.834716
Si Si4 0.881380 0.084480 0.128872
O O1 0.485917 0.500000 0.250000
O O2 0.573365 0.402585 0.469155
O O3 0.654418 0.605910 0.393878
O O4 0.387370 0.550068 0.480100
O O5 0.500000 0.250000 0.622070
O O6 0.750000 0.238743 0.500000
O O7 0.708825 0.372322 0.686459
O O8 0.692718 0.207396 0.850415
O O9 0.550829 0.394457 0.865651
O O10 0.852803 0.000000 0.250000
#
# Coordination Sequence:
#
# PCOD9336479 Si02
#       4
#     8   8   8   8
#     4  12  24  42  75 114 146 195 262 328 384 457
#     4  12  23  45  76 113 157 204 259 317 393 475
#     4  11  22  39  72 111 146 207 259 306 395 478
#     4  11  21  41  72 103 147 200 256 316 388 468
#
# _framework density 27.075569999999999
#
# number of rings (size 3 to 8) (size 9 to 14) (size 15 to 20)
#    0.000    0.500    7.500    3.000    0.000    0.000 
#    4.500    0.000    0.000   34.500    0.000    0.000 
#    0.000    0.000    0.000    0.000    0.000    0.000 
#
# Total GULP energy -89463.941496 kJ/mol
# GULP energy per Si atom -5591.496344 kJ/mol
# Density = 2.701394 g / cm^3
# Si number density = 27.075570 Si / 1000 Ang^3
#
#
#
# Elastic Constant Matrix: (Units=GPa)
#
#
# Indices 1 2 3 4 5 6 
#
# 1 130.6542 34.2458 26.0402 0.0000 0.0000 0.0000
# 2 34.2458 110.9323 33.1882 0.0000 0.0000 0.0000
# 3 26.0402 33.1882 185.3085 0.0000 0.0000 0.0000
# 4 0.0000 0.0000 0.0000 35.2564 0.0000 0.0000
# 5 0.0000 0.0000 0.0000 0.0000 26.5733 0.0000
# 6 0.0000 0.0000 0.0000 0.0000 0.0000 34.3372
#
#
#
# Elastic Compliance Matrix: (Units=1/GPa)
#
#
# Indices 1 2 3 4 5 6 
#
# 1 0.008427 -0.002375 -0.000759 0.000000 0.000000 0.000000
# 2 -0.002375 0.010194 -0.001492 0.000000 0.000000 0.000000
# 3 -0.000759 -0.001492 0.005770 0.000000 0.000000 0.000000
# 4 0.000000 0.000000 0.000000 0.028364 0.000000 0.000000
# 5 0.000000 0.000000 0.000000 0.000000 0.037632 0.000000
# 6 0.000000 0.000000 0.000000 0.000000 0.000000 0.029123
#
#
# Mechanical properties :
#
#
# Convention : Reuss Voigt Hill
#
# Bulk Modulus (GPa) = 66.04785 68.20483 67.12634
# Shear Modulus (GPa) = 37.36699 41.46143 39.41421
#
# Velocity S-wave (km/s) = 3.71900 3.91746 3.81952
# Velocity P-wave (km/s) = 6.54890 6.76071 6.65565
#
# Compressibility (1/GPa) = 0.01514054
#
# Stress axis : x y z
#
# Youngs Moduli (GPa) = 118.65968 98.09752 173.30190
#
# Poissons Ratio (x) = 0.23294 0.13153
# Poissons Ratio (y) = 0.28177 0.25857
# Poissons Ratio (z) = 0.09006 0.14636
#
# Static dielectric constant tensor:
#      x y z
#    x 2.125870 0.000000 0.000000 
#    y 0.000000 2.146850 0.000000 
#    z 0.000000 0.000000 2.368800 
# 
# From -- ./inp_files/18015.got.cif
#   From: 2010.05.17/outbox.cif.g08.bks.cpg/sg24_10_cif.got.tgz:18015.got - 2010.06.04 00:33:39.
