data_PCOD9336656
_publ_section_title
;
Structure prediction by ZEFSAII (Michael W. Deem and Ramdas Pophale) SiO2 
 PCOD9336656
Probable space group: I 21 21 21
;
_chemical_formula_sum "Si O2"
_cell_formula_units_Z 32
_cell_length_a 18.132991
_cell_length_b 10.588010
_cell_length_c 6.732474
_cell_angle_alpha 90.000000
_cell_angle_beta 90.000000
_cell_angle_gamma 90.000000
_cell_volume 1292.583101
_symmetry_space_group_name_H-M "I 21 21 21"
_symmetry_group_IT_number 24
_symmetry_cell_setting 'orthorhombic'
loop_
_space_group_symop_operation_xyz
x,y,z
-x,1/2-y,z
x,-y,1/2-z
1/2-x,y,-z
1/2+x,1/2+y,1/2+z
1/2-x,-y,1/2+z
1/2+x,1/2-y,-z
-x,1/2+y,1/2-z
loop_
_atom_site_type_symbol
_atom_site_label
_atom_site_fract_x
_atom_site_fract_y
_atom_site_fract_z
Si Si1 0.107018 0.352791 0.823213
Si Si2 0.750000 0.720419 0.500000
Si Si3 0.691163 0.500000 0.750000
Si Si4 0.084729 0.847011 0.027714
Si Si5 0.934200 0.872020 0.269288
O O1 0.111282 0.500000 0.750000
O O2 0.087468 0.239626 0.668227
O O3 0.183004 0.308626 0.926154
O O4 0.047710 0.357190 0.001564
O O5 0.736413 0.621161 0.680944
O O6 0.638358 0.463894 0.561999
O O7 0.109878 0.746280 0.193306
O O8 0.004016 0.882951 0.118103
O O9 0.889706 0.000000 0.250000
#
# Coordination Sequence:
#
# PCOD9336656 Si02
#       5
#     8   4   4   8   8
#     4  12  27  49  79 112 153 209 264 324 396 465
#     4  12  28  48  76 110 152 212 262 318 386 476
#     4  12  24  50  74 108 158 200 264 318 386 478
#     4  11  25  45  77 111 147 202 250 322 396 456
#     4  11  23  48  75 110 154 193 257 322 388 466
#
# _framework density 24.756627999999999
#
# number of rings (size 3 to 8) (size 9 to 14) (size 15 to 20)
#    0.000    0.500    6.250    1.500    0.000    7.000 
#    0.000    5.000    0.000    0.000    0.000    0.000 
#    0.000    0.000    0.000    0.000    0.000    0.000 
#
# Total GULP energy -89155.772641 kJ/mol
# GULP energy per Si atom -5572.235790 kJ/mol
# Density = 2.470028 g / cm^3
# Si number density = 24.756628 Si / 1000 Ang^3
#
#
#
# Elastic Constant Matrix: (Units=GPa)
#
#
# Indices 1 2 3 4 5 6 
#
# 1 82.6967 40.1730 34.5306 0.0000 0.0000 0.0000
# 2 40.1730 124.5127 33.8076 0.0000 0.0000 0.0000
# 3 34.5306 33.8076 147.8129 0.0000 0.0000 0.0000
# 4 0.0000 0.0000 0.0000 46.0382 0.0000 0.0000
# 5 0.0000 0.0000 0.0000 0.0000 38.8896 0.0000
# 6 0.0000 0.0000 0.0000 0.0000 0.0000 30.6427
#
#
#
# Elastic Compliance Matrix: (Units=1/GPa)
#
#
# Indices 1 2 3 4 5 6 
#
# 1 0.015218 -0.004206 -0.002593 0.000000 0.000000 0.000000
# 2 -0.004206 0.009726 -0.001242 0.000000 0.000000 0.000000
# 3 -0.002593 -0.001242 0.007655 0.000000 0.000000 0.000000
# 4 0.000000 0.000000 0.000000 0.021721 0.000000 0.000000
# 5 0.000000 0.000000 0.000000 0.000000 0.025714 0.000000
# 6 0.000000 0.000000 0.000000 0.000000 0.000000 0.032634
#
#
# Mechanical properties :
#
#
# Convention : Reuss Voigt Hill
#
# Bulk Modulus (GPa) = 60.54365 63.56053 62.05209
# Shear Modulus (GPa) = 37.24232 39.54819 38.39526
#
# Velocity S-wave (km/s) = 3.88279 4.00118 3.94243
# Velocity P-wave (km/s) = 6.67907 6.86118 6.77074
#
# Compressibility (1/GPa) = 0.01651701
#
# Stress axis : x y z
#
# Youngs Moduli (GPa) = 65.70988 102.82221 130.63125
#
# Poissons Ratio (x) = 0.43247 0.33875
# Poissons Ratio (y) = 0.27638 0.16222
# Poissons Ratio (z) = 0.17040 0.12769
#
# Static dielectric constant tensor:
#      x y z
#    x 2.043730 0.000000 0.000000 
#    y 0.000000 1.856090 0.000000 
#    z 0.000000 0.000000 2.053160 
# 
# From -- ./inp_files/5293.got.cif
#   From: 2010.05.17/outbox.cif.g08.bks.cpg/sg24_3_cif.got.tgz:5293.got - 2010.06.04 00:33:39.
