data_PCOD9336825
_publ_section_title
;
Structure prediction by ZEFSAII (Michael W. Deem and Ramdas Pophale) SiO2 
 PCOD9336825
Probable space group: I 21 21 21
;
_chemical_formula_sum "Si O2"
_cell_formula_units_Z 32
_cell_length_a 8.665557
_cell_length_b 8.483651
_cell_length_c 20.214248
_cell_angle_alpha 90.000000
_cell_angle_beta 90.000000
_cell_angle_gamma 90.000000
_cell_volume 1486.061788
_symmetry_space_group_name_H-M "I 21 21 21"
_symmetry_group_IT_number 24
_symmetry_cell_setting 'orthorhombic'
loop_
_space_group_symop_operation_xyz
x,y,z
-x,1/2-y,z
x,-y,1/2-z
1/2-x,y,-z
1/2+x,1/2+y,1/2+z
1/2-x,-y,1/2+z
1/2+x,1/2-y,-z
-x,1/2+y,1/2-z
loop_
_atom_site_type_symbol
_atom_site_label
_atom_site_fract_x
_atom_site_fract_y
_atom_site_fract_z
Si Si1 0.847522 0.146842 0.797957
Si Si2 0.368227 0.852239 0.107245
Si Si3 0.166713 0.481516 0.564740
Si Si4 0.127133 0.860130 0.209062
O O1 0.722453 0.252552 0.760146
O O2 0.000000 0.250000 0.809780
O O3 0.884084 0.000000 0.750000
O O4 0.794508 0.075124 0.868445
O O5 0.500000 0.750000 0.147045
O O6 0.477831 0.964748 0.063996
O O7 0.287852 0.704454 0.071461
O O8 0.248034 0.927963 0.156200
O O9 0.250000 0.545784 0.500000
O O10 0.000000 0.750000 0.176283
O O11 0.051463 0.000000 0.250000
#
# Coordination Sequence:
#
# PCOD9336825 Si02
#       4
#     8   8   8   8
#     4  12  21  38  68  99 131 175 222 274 330 396
#     4   8  19  38  62  90 121 172 213 262 326 390
#     4   9  19  38  64  92 130 167 222 270 327 395
#     4  12  24  38  61  99 135 166 221 280 336 384
#
# _framework density 21.533425000000001
#
# number of rings (size 3 to 8) (size 9 to 14) (size 15 to 20)
#    1.500    0.000    2.500    5.250    0.000    0.000 
#    4.500    1.250    0.000    7.500    0.000    0.000 
#    0.000    0.000    0.000    0.000    0.000    0.000 
#
# Total GULP energy -89110.950186 kJ/mol
# GULP energy per Si atom -5569.434387 kJ/mol
# Density = 2.148441 g / cm^3
# Si number density = 21.533425 Si / 1000 Ang^3
#
#
#
# Elastic Constant Matrix: (Units=GPa)
#
#
# Indices 1 2 3 4 5 6 
#
# 1 74.6758 15.1863 39.0281 0.0000 0.0000 0.0000
# 2 15.1863 50.9609 26.4042 0.0000 0.0000 0.0000
# 3 39.0281 26.4042 136.3441 0.0000 0.0000 0.0000
# 4 0.0000 0.0000 0.0000 10.1200 0.0000 0.0000
# 5 0.0000 0.0000 0.0000 0.0000 28.7703 0.0000
# 6 0.0000 0.0000 0.0000 0.0000 0.0000 25.7706
#
#
#
# Elastic Compliance Matrix: (Units=1/GPa)
#
#
# Indices 1 2 3 4 5 6 
#
# 1 0.016068 -0.002673 -0.004082 0.000000 0.000000 0.000000
# 2 -0.002673 0.022256 -0.003545 0.000000 0.000000 0.000000
# 3 -0.004082 -0.003545 0.009189 0.000000 0.000000 0.000000
# 4 0.000000 0.000000 0.000000 0.098814 0.000000 0.000000
# 5 0.000000 0.000000 0.000000 0.000000 0.034758 0.000000
# 6 0.000000 0.000000 0.000000 0.000000 0.000000 0.038804
#
#
# Mechanical properties :
#
#
# Convention : Reuss Voigt Hill
#
# Bulk Modulus (GPa) = 37.15589 47.02422 42.09006
# Shear Modulus (GPa) = 20.04319 25.02299 22.53309
#
# Velocity S-wave (km/s) = 3.05420 3.41259 3.23836
# Velocity P-wave (km/s) = 5.45252 6.11661 5.79409
#
# Compressibility (1/GPa) = 0.02691363
#
# Stress axis : x y z
#
# Youngs Moduli (GPa) = 62.23496 44.93120 108.82280
#
# Poissons Ratio (x) = 0.12012 0.44418
# Poissons Ratio (y) = 0.16638 0.38576
# Poissons Ratio (z) = 0.25403 0.15927
#
# Static dielectric constant tensor:
#      x y z
#    x 1.813070 0.000000 0.000000 
#    y 0.000000 1.803500 0.000000 
#    z 0.000000 0.000000 1.796390 
# 
# From -- ./inp_files/32446.got.cif
#   From: 2010.05.17/outbox.cif.g08.bks.cpg/sg24_17_cif.got.tgz:32446.got - 2010.06.04 00:33:39.
