data_PCOD9336478
_publ_section_title
;
Structure prediction by ZEFSAII (Michael W. Deem and Ramdas Pophale) SiO2 
 PCOD9336478
Probable space group: I 21 21 21
;
_chemical_formula_sum "Si O2"
_cell_formula_units_Z 60
_cell_length_a 17.840965
_cell_length_b 27.061013
_cell_length_c 6.116240
_cell_angle_alpha 90.000000
_cell_angle_beta 90.000000
_cell_angle_gamma 90.000000
_cell_volume 2952.887557
_symmetry_space_group_name_H-M "I 21 21 21"
_symmetry_group_IT_number 24
_symmetry_cell_setting 'orthorhombic'
loop_
_space_group_symop_operation_xyz
x,y,z
-x,1/2-y,z
x,-y,1/2-z
1/2-x,y,-z
1/2+x,1/2+y,1/2+z
1/2-x,-y,1/2+z
1/2+x,1/2-y,-z
-x,1/2+y,1/2-z
loop_
_atom_site_type_symbol
_atom_site_label
_atom_site_fract_x
_atom_site_fract_y
_atom_site_fract_z
Si Si1 0.169916 0.087599 0.913939
Si Si2 0.019108 0.806749 0.094289
Si Si3 0.477261 0.886162 0.598211
Si Si4 0.788351 0.201156 0.754973
Si Si5 0.945413 0.962615 0.080306
Si Si6 0.084650 0.623133 0.806253
Si Si7 0.069765 0.000000 0.750000
Si Si8 0.324027 0.811260 0.146712
O O1 0.179593 0.140799 0.800443
O O2 0.125080 0.046899 0.772646
O O3 0.250000 0.069907 0.000000
O O4 0.108915 0.098072 0.099908
O O5 0.018409 0.829022 0.336156
O O6 0.000000 0.750000 0.088210
O O7 0.100211 0.815789 0.991473
O O8 0.957962 0.838140 0.962980
O O9 0.516567 0.920643 0.772926
O O10 0.522561 0.890923 0.374541
O O11 0.750000 0.197509 0.500000
O O12 0.844484 0.154698 0.768203
O O13 0.823937 0.256399 0.751179
O O14 0.750000 0.199899 0.000000
O O15 0.907515 0.000000 0.250000
O O16 0.896065 0.929490 0.917343
O O17 0.012379 0.990667 0.951033
O O18 0.250000 0.813198 0.000000
#
# Coordination Sequence:
#
# PCOD9336478 Si02
#       8
#     8   8   8   8   8   8   4   8
#     4  12  24  39  59  90 133 188 236 293 347 412
#     4  11  22  38  62  98 134 181 245 293 345 423
#     4  11  23  38  65  94 131 180 235 295 350 415
#     4  11  27  47  74 109 150 193 238 298 380 458
#     4  11  21  41  71  97 131 172 233 293 362 429
#     4  11  23  43  69 104 139 179 238 300 361 438
#     4  12  24  44  60  96 130 176 242 298 356 416
#     4  11  23  43  63  96 145 191 243 293 359 424
#
# _framework density 20.319094
#
# number of rings (size 3 to 8) (size 9 to 14) (size 15 to 20)
#    0.000    0.800    5.333    2.000    3.733    4.267 
#    0.000    0.000    0.000    0.000    5.200    0.000 
#    0.000    0.000    0.000    0.000    0.000    0.000 
#
# Total GULP energy -167139.853712 kJ/mol
# GULP energy per Si atom -5571.328457 kJ/mol
# Density = 2.027285 g / cm^3
# Si number density = 20.319094 Si / 1000 Ang^3
#
#
#
# Elastic Constant Matrix: (Units=GPa)
#
#
# Indices 1 2 3 4 5 6 
#
# 1 24.0301 26.9242 5.5445 0.0000 0.0000 0.0000
# 2 26.9242 117.0821 36.7456 0.0000 0.0000 0.0000
# 3 5.5445 36.7456 57.0242 0.0000 0.0001 -0.0002
# 4 0.0000 0.0000 0.0000 41.7017 0.0000 0.0000
# 5 0.0000 0.0000 0.0001 0.0000 14.7003 0.0000
# 6 0.0000 0.0000 -0.0002 0.0000 0.0000 20.8739
#
#
#
# Elastic Compliance Matrix: (Units=1/GPa)
#
#
# Indices 1 2 3 4 5 6 
#
# 1 0.056648 -0.014162 0.003618 0.000000 0.000000 0.000000
# 2 -0.014162 0.014247 -0.007803 0.000000 0.000000 0.000000
# 3 0.003618 -0.007803 0.022213 0.000000 0.000000 0.000000
# 4 0.000000 0.000000 0.000000 0.023980 0.000000 0.000000
# 5 0.000000 0.000000 0.000000 0.000000 0.068026 0.000000
# 6 0.000000 0.000000 0.000000 0.000000 0.000000 0.047907
#
#
# Mechanical properties :
#
#
# Convention : Reuss Voigt Hill
#
# Bulk Modulus (GPa) = 17.72665 37.39612 27.56138
# Shear Modulus (GPa) = 17.32987 24.04998 20.68992
#
# Velocity S-wave (km/s) = 2.92359 3.44410 3.19447
# Velocity P-wave (km/s) = 4.48771 5.85322 5.21535
#
# Compressibility (1/GPa) = 0.05641223
#
# Stress axis : x y z
#
# Youngs Moduli (GPa) = 17.65301 70.19114 45.01857
#
# Poissons Ratio (x) = 0.99406 -0.16288
# Poissons Ratio (y) = 0.25000 0.35130
# Poissons Ratio (z) = -0.06387 0.54773
#
# Static dielectric constant tensor:
#      x y z
#    x 1.686320 0.000000 0.000000 
#    y 0.000000 1.748580 0.000000 
#    z 0.000000 0.000000 1.834280 
# 
# From -- ./inp_files/4999.got.cif
#   From: 2010.05.17/outbox.cif.g08.bks.cpg/sg24_3_cif.got.tgz:4999.got - 2010.06.04 00:33:39.
