data_PCOD9336682
_publ_section_title
;
Structure prediction by ZEFSAII (Michael W. Deem and Ramdas Pophale) SiO2 
 PCOD9336682
Probable space group: I 21 21 21
;
_chemical_formula_sum "Si O2"
_cell_formula_units_Z 32
_cell_length_a 35.732670
_cell_length_b 7.647206
_cell_length_c 5.976153
_cell_angle_alpha 90.000000
_cell_angle_beta 90.000000
_cell_angle_gamma 90.000000
_cell_volume 1633.014216
_symmetry_space_group_name_H-M "I 21 21 21"
_symmetry_group_IT_number 24
_symmetry_cell_setting 'orthorhombic'
loop_
_space_group_symop_operation_xyz
x,y,z
-x,1/2-y,z
x,-y,1/2-z
1/2-x,y,-z
1/2+x,1/2+y,1/2+z
1/2-x,-y,1/2+z
1/2+x,1/2-y,-z
-x,1/2+y,1/2-z
loop_
_atom_site_type_symbol
_atom_site_label
_atom_site_fract_x
_atom_site_fract_y
_atom_site_fract_z
Si Si1 0.176171 0.000000 0.250000
Si Si2 0.612864 0.346829 0.064276
Si Si3 0.292877 0.651259 0.929770
Si Si4 0.854603 0.000000 0.750000
Si Si5 0.027769 0.088040 0.005302
O O1 0.147730 0.895367 0.408596
O O2 0.201663 0.850162 0.144967
O O3 0.614057 0.500000 0.250000
O O4 0.619683 0.147648 0.138964
O O5 0.571363 0.360206 0.964754
O O6 0.299920 0.500000 0.750000
O O7 0.250000 0.627046 0.000000
O O8 0.325619 0.614502 0.105608
O O9 0.000000 0.250000 0.986778
O O10 0.025666 0.000000 0.750000
O O11 0.018009 0.000000 0.250000
#
# Coordination Sequence:
#
# PCOD9336682 Si02
#       5
#     4   8   8   4   8
#     4  12  24  44  68  98 128 180 224 282 346 412
#     4  11  24  43  70 101 136 177 230 284 342 415
#     4  12  26  42  67  96 134 171 228 284 345 413
#     4  12  24  42  70  98 128 184 224 284 338 412
#     4  11  25  47  72 106 147 187 234 291 353 424
#
# _framework density 19.595666000000001
#
# number of rings (size 3 to 8) (size 9 to 14) (size 15 to 20)
#    0.000    0.500    7.500    0.750    1.750    3.000 
#    4.500    0.000    0.000    0.000    0.000    0.000 
#    0.000    0.000    0.000    0.000    0.000    0.000 
#
# Total GULP energy -89096.939114 kJ/mol
# GULP energy per Si atom -5568.558695 kJ/mol
# Density = 1.955106 g / cm^3
# Si number density = 19.595666 Si / 1000 Ang^3
#
#
#
# Elastic Constant Matrix: (Units=GPa)
#
#
# Indices 1 2 3 4 5 6 
#
# 1 62.5564 10.0758 16.3710 -0.0002 -0.0023 -0.0001
# 2 10.0758 131.8385 36.8432 -0.0001 -0.0021 -0.0001
# 3 16.3710 36.8432 72.3824 -0.0001 -0.0018 -0.0001
# 4 -0.0002 -0.0001 -0.0001 36.5567 -0.0017 -0.0001
# 5 -0.0023 -0.0021 -0.0018 -0.0017 457.0035 -0.0014
# 6 -0.0001 -0.0001 -0.0001 -0.0001 -0.0014 47.2846
#
#
#
# Elastic Compliance Matrix: (Units=1/GPa)
#
#
# Indices 1 2 3 4 5 6 
#
# 1 0.016999 -0.000262 -0.003711 0.000000 0.000000 0.000000
# 2 -0.000262 0.008847 -0.004444 0.000000 0.000000 0.000000
# 3 -0.003711 -0.004444 0.016917 0.000000 0.000000 0.000000
# 4 0.000000 0.000000 0.000000 0.027355 0.000000 0.000000
# 5 0.000000 0.000000 0.000000 0.000000 0.002188 0.000000
# 6 0.000000 0.000000 0.000000 0.000000 0.000000 0.021149
#
#
# Mechanical properties :
#
#
# Convention : Reuss Voigt Hill
#
# Bulk Modulus (GPa) = 38.56783 43.70637 41.13710
# Shear Modulus (GPa) = 42.04093 121.73478 81.88786
#
# Velocity S-wave (km/s) = 4.63689 7.89039 6.47144
# Velocity P-wave (km/s) = 6.95645 10.26467 8.76800
#
# Compressibility (1/GPa) = 0.02592834
#
# Stress axis : x y z
#
# Youngs Moduli (GPa) = 58.82680 113.03344 59.11244
#
# Poissons Ratio (x) = 0.02961 0.21939
# Poissons Ratio (y) = 0.01541 0.26269
# Poissons Ratio (z) = 0.21833 0.50231
#
# Static dielectric constant tensor:
#      x y z
#    x 1.629310 0.000000 0.000000 
#    y 0.000000 1.559670 0.000000 
#    z 0.000000 0.000000 1.752410 
# 
# From -- ./inp_files/7541.got.cif
#   From: 2010.05.17/outbox.cif.g08.bks.cpg/sg24_4_cif.got.tgz:7541.got - 2010.06.04 00:33:39.
