data_PCOD9336048
_publ_section_title
;
Structure prediction by ZEFSAII (Michael W. Deem and Ramdas Pophale) SiO2 
 PCOD9336048
Probable space group: I 21 21 21
;
_chemical_formula_sum "Si O2"
_cell_formula_units_Z 64
_cell_length_a 5.074407
_cell_length_b 26.691123
_cell_length_c 20.660445
_cell_angle_alpha 90.000000
_cell_angle_beta 90.000000
_cell_angle_gamma 90.000000
_cell_volume 2798.284169
_symmetry_space_group_name_H-M "I 21 21 21"
_symmetry_group_IT_number 24
_symmetry_cell_setting 'orthorhombic'
loop_
_space_group_symop_operation_xyz
x,y,z
-x,1/2-y,z
x,-y,1/2-z
1/2-x,y,-z
1/2+x,1/2+y,1/2+z
1/2-x,-y,1/2+z
1/2+x,1/2-y,-z
-x,1/2+y,1/2-z
loop_
_atom_site_type_symbol
_atom_site_label
_atom_site_fract_x
_atom_site_fract_y
_atom_site_fract_z
Si Si1 0.010483 0.342174 0.544252
Si Si2 0.773656 0.045864 0.889317
Si Si3 0.424406 0.025687 0.688163
Si Si4 0.550528 0.134029 0.737329
Si Si5 0.251691 0.221282 0.077525
Si Si6 0.697252 0.610135 0.622913
Si Si7 0.952170 0.692249 0.809938
Si Si8 0.933876 0.542864 0.937965
O O1 0.750000 0.338118 0.500000
O O2 0.994591 0.315016 0.613058
O O3 0.050020 0.401223 0.561069
O O4 0.250000 0.324222 0.500000
O O5 0.531511 0.079633 0.914519
O O6 0.033032 0.078378 0.872617
O O7 0.647225 0.014941 0.829753
O O8 0.857689 0.001369 0.936122
O O9 0.540995 0.080095 0.702884
O O10 0.235307 0.033951 0.627144
O O11 0.284708 0.000000 0.750000
O O12 0.443905 0.123003 0.809162
O O13 0.338610 0.171803 0.705769
O O14 0.837550 0.158095 0.729051
O O15 0.500000 0.250000 0.105278
O O16 0.258840 0.162981 0.091199
O O17 0.000000 0.250000 0.104496
O O18 0.250000 0.227456 0.000000
O O19 0.000000 0.750000 0.792872
O O20 0.750000 0.538610 0.000000
#
# Coordination Sequence:
#
# PCOD9336048 Si02
#       8
#     8   8   8   8   8   8   8   8
#     4  11  25  44  73 101 140 191 244 296 357 425
#     4  12  25  44  66 106 144 186 232 291 355 428
#     4  12  25  47  76 103 148 201 241 294 354 440
#     4  12  26  46  72 105 146 190 241 298 352 438
#     4  10  23  47  75 100 131 180 233 289 356 433
#     4  12  26  46  70 107 142 183 234 293 360 420
#     4  12  27  47  72 105 144 187 241 307 368 416
#     4  11  26  45  71 105 147 195 243 291 358 432
#
# _framework density 22.871158999999999
#
# number of rings (size 3 to 8) (size 9 to 14) (size 15 to 20)
#    0.000    0.500    3.750    3.375    5.250    3.000 
#    2.250    0.000    0.000    0.000    0.000    0.000 
#    0.000    0.000    0.000    0.000    0.000    0.000 
#
# Total GULP energy -179212.089275 kJ/mol
# GULP energy per Si atom -5600.377790 kJ/mol
# Density = 2.281910 g / cm^3
# Si number density = 22.871159 Si / 1000 Ang^3
#
#
#
# Elastic Constant Matrix: (Units=GPa)
#
#
# Indices 1 2 3 4 5 6 
#
# 1 95.8495 19.0767 -3.2715 0.0000 0.0000 0.0000
# 2 19.0767 122.9672 -19.5123 0.0000 0.0000 0.0000
# 3 -3.2715 -19.5123 44.4645 0.0000 0.0000 0.0000
# 4 0.0000 0.0000 0.0000 17.1450 0.0000 0.0000
# 5 0.0000 0.0000 0.0000 0.0000 71.3613 0.0000
# 6 0.0000 0.0000 0.0000 0.0000 0.0000 7.3086
#
#
#
# Elastic Compliance Matrix: (Units=1/GPa)
#
#
# Indices 1 2 3 4 5 6 
#
# 1 0.010766 -0.001660 0.000064 0.000000 0.000000 0.000000
# 2 -0.001660 0.008997 0.003826 0.000000 0.000000 0.000000
# 3 0.000064 0.003826 0.024173 0.000000 0.000000 0.000000
# 4 0.000000 0.000000 0.000000 0.058326 0.000000 0.000000
# 5 0.000000 0.000000 0.000000 0.000000 0.014013 0.000000
# 6 0.000000 0.000000 0.000000 0.000000 0.000000 0.136826
#
#
# Mechanical properties :
#
#
# Convention : Reuss Voigt Hill
#
# Bulk Modulus (GPa) = 20.66332 28.42968 24.54650
# Shear Modulus (GPa) = 18.88405 36.96219 27.92312
#
# Velocity S-wave (km/s) = 2.87657 4.02444 3.49791
# Velocity P-wave (km/s) = 4.48187 5.83543 5.20285
#
# Compressibility (1/GPa) = 0.04839493
#
# Stress axis : x y z
#
# Youngs Moduli (GPa) = 92.88861 111.14967 41.36769
#
# Poissons Ratio (x) = 0.18451 -0.00263
# Poissons Ratio (y) = 0.15420 -0.15827
# Poissons Ratio (z) = -0.00591 -0.42525
#
# Static dielectric constant tensor:
#      x y z
#    x 1.978620 0.000000 0.000000 
#    y 0.000000 1.813760 0.000000 
#    z 0.000000 0.000000 1.894390 
# 
# From -- ./inp_files/32354.got.cif
#   From: 2010.05.17/outbox.cif.g08.bks.cpg/sg24_17_cif.got.tgz:32354.got - 2010.06.04 00:33:39.
