data_PCOD9336974
_publ_section_title
;
Structure prediction by ZEFSAII (Michael W. Deem and Ramdas Pophale) SiO2 
 PCOD9336974
Probable space group: I 21 21 21
;
_chemical_formula_sum "Si O2"
_cell_formula_units_Z 32
_cell_length_a 15.813365
_cell_length_b 5.000315
_cell_length_c 16.785980
_cell_angle_alpha 90.000000
_cell_angle_beta 90.000000
_cell_angle_gamma 90.000000
_cell_volume 1327.297758
_symmetry_space_group_name_H-M "I 21 21 21"
_symmetry_group_IT_number 24
_symmetry_cell_setting 'orthorhombic'
loop_
_space_group_symop_operation_xyz
x,y,z
-x,1/2-y,z
x,-y,1/2-z
1/2-x,y,-z
1/2+x,1/2+y,1/2+z
1/2-x,-y,1/2+z
1/2+x,1/2-y,-z
-x,1/2+y,1/2-z
loop_
_atom_site_type_symbol
_atom_site_label
_atom_site_fract_x
_atom_site_fract_y
_atom_site_fract_z
Si Si1 0.857675 0.708885 0.107150
Si Si2 0.416753 0.887294 0.331362
Si Si3 0.251800 0.294527 0.908843
Si Si4 0.500000 0.250000 0.470101
Si Si5 0.048481 0.500000 0.250000
O O1 0.823531 0.409841 0.123605
O O2 0.921491 0.764819 0.033118
O O3 0.777451 0.898026 0.094025
O O4 0.901458 0.835270 0.184071
O O5 0.500000 0.750000 0.296304
O O6 0.339820 0.728089 0.370146
O O7 0.376297 0.000000 0.250000
O O8 0.459420 0.044252 0.405780
O O9 0.250000 0.205747 0.000000
O O10 0.000000 0.250000 0.208298
#
# Coordination Sequence:
#
# PCOD9336974 Si02
#       5
#     8   8   8   4   4
#     4  12  28  47  78 112 152 200 249 322 384 457
#     4  12  28  48  78 111 156 206 262 321 384 456
#     4  12  27  49  74 112 152 199 259 311 384 456
#     4  12  26  52  78 108 154 206 256 316 386 472
#     4  12  26  48  76 114 150 196 260 312 392 460
#
# _framework density 24.109133
#
# number of rings (size 3 to 8) (size 9 to 14) (size 15 to 20)
#    0.000    0.000    5.000    3.750    7.000    0.000 
#    0.000    0.000    0.000    0.000    0.000    0.000 
#    0.000    0.000    0.000    0.000    0.000    0.000 
#
# Total GULP energy -89236.803492 kJ/mol
# GULP energy per Si atom -5577.300218 kJ/mol
# Density = 2.405426 g / cm^3
# Si number density = 24.109133 Si / 1000 Ang^3
#
#
#
# Elastic Constant Matrix: (Units=GPa)
#
#
# Indices 1 2 3 4 5 6 
#
# 1 92.8095 -4.1892 -6.9831 0.0000 0.0000 0.0000
# 2 -4.1892 49.9126 -7.7080 0.0000 0.0000 0.0000
# 3 -6.9831 -7.7080 85.4467 0.0000 0.0000 0.0000
# 4 0.0000 0.0000 0.0000 33.1438 0.0000 0.0000
# 5 0.0000 0.0000 0.0000 0.0000 59.4822 0.0000
# 6 0.0000 0.0000 0.0000 0.0000 0.0000 44.0805
#
#
#
# Elastic Compliance Matrix: (Units=1/GPa)
#
#
# Indices 1 2 3 4 5 6 
#
# 1 0.010897 0.001067 0.000987 0.000000 0.000000 0.000000
# 2 0.001067 0.020423 0.001929 0.000000 0.000000 0.000000
# 3 0.000987 0.001929 0.011958 0.000000 0.000000 0.000000
# 4 0.000000 0.000000 0.000000 0.030172 0.000000 0.000000
# 5 0.000000 0.000000 0.000000 0.000000 0.016812 0.000000
# 6 0.000000 0.000000 0.000000 0.000000 0.000000 0.022686
#
#
# Mechanical properties :
#
#
# Convention : Reuss Voigt Hill
#
# Bulk Modulus (GPa) = 19.51441 21.15649 20.33545
# Shear Modulus (GPa) = 40.96296 43.81124 42.38710
#
# Velocity S-wave (km/s) = 4.12644 4.26749 4.19756
# Velocity P-wave (km/s) = 5.55114 5.75120 5.65206
#
# Compressibility (1/GPa) = 0.05124418
#
# Stress axis : x y z
#
# Youngs Moduli (GPa) = 91.76698 48.96553 83.62674
#
# Poissons Ratio (x) = -0.05225 -0.08252
# Poissons Ratio (y) = -0.09791 -0.16136
# Poissons Ratio (z) = -0.09056 -0.09448
#
# Static dielectric constant tensor:
#      x y z
#    x 1.944370 0.000000 0.000000 
#    y 0.000000 2.052800 0.000000 
#    z 0.000000 0.000000 1.940220 
# 
# From -- ./inp_files/3123.got.cif
#   From: 2010.05.17/outbox.cif.g08.bks.cpg/sg24_2_cif.got.tgz:3123.got - 2010.06.04 00:33:39.
