data_PCOD9336582
_publ_section_title
;
Structure prediction by ZEFSAII (Michael W. Deem and Ramdas Pophale) SiO2 
 PCOD9336582
Probable space group: I 21 21 21
;
_chemical_formula_sum "Si O2"
_cell_formula_units_Z 32
_cell_length_a 20.252284
_cell_length_b 8.004608
_cell_length_c 9.791256
_cell_angle_alpha 90.000000
_cell_angle_beta 90.000000
_cell_angle_gamma 90.000000
_cell_volume 1587.276123
_symmetry_space_group_name_H-M "I 21 21 21"
_symmetry_group_IT_number 24
_symmetry_cell_setting 'orthorhombic'
loop_
_space_group_symop_operation_xyz
x,y,z
-x,1/2-y,z
x,-y,1/2-z
1/2-x,y,-z
1/2+x,1/2+y,1/2+z
1/2-x,-y,1/2+z
1/2+x,1/2-y,-z
-x,1/2+y,1/2-z
loop_
_atom_site_type_symbol
_atom_site_label
_atom_site_fract_x
_atom_site_fract_y
_atom_site_fract_z
Si Si1 0.571963 0.314488 0.808751
Si Si2 0.836381 0.819426 0.085424
Si Si3 0.197240 0.811067 0.803839
Si Si4 0.824960 0.197479 0.979757
O O1 0.500000 0.250000 0.847773
O O2 0.568812 0.500000 0.750000
O O3 0.602832 0.203652 0.686469
O O4 0.622542 0.302038 0.934528
O O5 0.770585 0.760158 0.165577
O O6 0.839804 0.709693 0.947734
O O7 0.827919 0.009696 0.037544
O O8 0.164376 0.706107 0.682060
O O9 0.200774 0.000000 0.750000
O O10 0.750000 0.261770 0.000000
#
# Coordination Sequence:
#
# PCOD9336582 Si02
#       4
#     8   8   8   8
#     4  12  26  46  69  97 136 180 225 272 336 406
#     4  11  23  39  62  96 134 172 219 271 331 395
#     4  11  23  37  60  97 131 166 217 278 328 380
#     4  12  23  39  66  97 135 173 223 275 332 391
#
# _framework density 20.160323000000002
#
# number of rings (size 3 to 8) (size 9 to 14) (size 15 to 20)
#    0.000    0.500    5.000    5.250    3.500    0.000 
#    0.000    1.250    0.000    0.000    0.000    0.000 
#    0.000    0.000    0.000    0.000    0.000    0.000 
#
# Total GULP energy -89557.414248 kJ/mol
# GULP energy per Si atom -5597.338391 kJ/mol
# Density = 2.011444 g / cm^3
# Si number density = 20.160323 Si / 1000 Ang^3
#
#
#
# Elastic Constant Matrix: (Units=GPa)
#
#
# Indices 1 2 3 4 5 6 
#
# 1 113.8921 31.1515 56.6901 0.0000 0.0000 0.0000
# 2 31.1515 100.1243 34.5067 0.0000 0.0000 0.0000
# 3 56.6901 34.5067 146.3875 0.0000 0.0000 0.0000
# 4 0.0000 0.0000 0.0000 37.1676 0.0000 0.0000
# 5 0.0000 0.0000 0.0000 0.0000 32.7728 0.0000
# 6 0.0000 0.0000 0.0000 0.0000 0.0000 19.1926
#
#
#
# Elastic Compliance Matrix: (Units=1/GPa)
#
#
# Indices 1 2 3 4 5 6 
#
# 1 0.011300 -0.002185 -0.003861 0.000000 0.000000 0.000000
# 2 -0.002185 0.011293 -0.001816 0.000000 0.000000 0.000000
# 3 -0.003861 -0.001816 0.008754 0.000000 0.000000 0.000000
# 4 0.000000 0.000000 0.000000 0.026905 0.000000 0.000000
# 5 0.000000 0.000000 0.000000 0.000000 0.030513 0.000000
# 6 0.000000 0.000000 0.000000 0.000000 0.000000 0.052103
#
#
# Mechanical properties :
#
#
# Convention : Reuss Voigt Hill
#
# Bulk Modulus (GPa) = 64.00522 67.23338 65.61930
# Shear Modulus (GPa) = 30.90227 33.69696 32.29962
#
# Velocity S-wave (km/s) = 3.91938 4.09277 4.00701
# Velocity P-wave (km/s) = 7.23181 7.46700 7.35035
#
# Compressibility (1/GPa) = 0.01562373
#
# Stress axis : x y z
#
# Youngs Moduli (GPa) = 88.49845 88.54856 114.22852
#
# Poissons Ratio (x) = 0.19348 0.44102
# Poissons Ratio (y) = 0.19337 0.20743
# Poissons Ratio (z) = 0.34168 0.16079
#
# Static dielectric constant tensor:
#      x y z
#    x 1.691690 0.000000 0.000000 
#    y 0.000000 1.748470 0.000000 
#    z 0.000000 0.000000 1.750660 
# 
# From -- ./inp_files/14754.got.cif
#   From: 2010.05.17/outbox.cif.g08.bks.cpg/sg24_8_cif.got.tgz:14754.got - 2010.06.04 00:33:39.
