data_PCOD9336683
_publ_section_title
;
Structure prediction by ZEFSAII (Michael W. Deem and Ramdas Pophale) SiO2 
 PCOD9336683
Probable space group: I 21 21 21
;
_chemical_formula_sum "Si O2"
_cell_formula_units_Z 36
_cell_length_a 15.509766
_cell_length_b 14.785594
_cell_length_c 7.583376
_cell_angle_alpha 90.000000
_cell_angle_beta 90.000000
_cell_angle_gamma 90.000000
_cell_volume 1739.028150
_symmetry_space_group_name_H-M "I 21 21 21"
_symmetry_group_IT_number 24
_symmetry_cell_setting 'orthorhombic'
loop_
_space_group_symop_operation_xyz
x,y,z
-x,1/2-y,z
x,-y,1/2-z
1/2-x,y,-z
1/2+x,1/2+y,1/2+z
1/2-x,-y,1/2+z
1/2+x,1/2-y,-z
-x,1/2+y,1/2-z
loop_
_atom_site_type_symbol
_atom_site_label
_atom_site_fract_x
_atom_site_fract_y
_atom_site_fract_z
Si Si1 0.250000 0.710530 0.000000
Si Si2 0.930863 0.597821 0.171269
Si Si3 0.129425 0.606675 0.266522
Si Si4 0.849597 0.278212 0.039385
Si Si5 0.913760 0.690466 0.830571
O O1 0.301973 0.650847 0.862402
O O2 0.175723 0.763517 0.893606
O O3 0.909230 0.500000 0.250000
O O4 0.877754 0.673558 0.278844
O O5 0.030857 0.617970 0.207367
O O6 0.918754 0.605144 0.961384
O O7 0.145309 0.500000 0.250000
O O8 0.137120 0.669508 0.441384
O O9 0.750000 0.296040 0.000000
O O10 0.905031 0.319280 0.879092
O O11 0.000000 0.750000 0.865350
#
# Coordination Sequence:
#
# PCOD9336683 Si02
#       5
#     4   8   8   8   8
#     4  12  22  40  70  96 136 176 224 276 340 412
#     4  11  24  46  68  96 138 184 226 283 348 405
#     4  11  24  43  70 101 143 179 223 292 353 412
#     4  12  24  44  66 100 136 181 234 285 345 410
#     4  12  22  41  72  99 135 183 228 276 346 412
#
# _framework density 20.701218999999998
#
# number of rings (size 3 to 8) (size 9 to 14) (size 15 to 20)
#    0.000    0.444    6.667    2.000    1.556    0.889 
#    6.000    0.000    0.000    0.000    0.000    0.000 
#    0.000    0.000    0.000    0.000    0.000    0.000 
#
# Total GULP energy -100472.564474 kJ/mol
# GULP energy per Si atom -5581.809137 kJ/mol
# Density = 2.065410 g / cm^3
# Si number density = 20.701219 Si / 1000 Ang^3
#
#
#
# Elastic Constant Matrix: (Units=GPa)
#
#
# Indices 1 2 3 4 5 6 
#
# 1 86.1615 34.3843 -12.0321 0.0000 0.0000 0.0000
# 2 34.3843 85.4359 33.2895 0.0000 0.0000 0.0000
# 3 -12.0321 33.2895 106.9737 0.0000 0.0000 0.0000
# 4 0.0000 0.0000 0.0000 14.8547 0.0000 0.0000
# 5 0.0000 0.0000 0.0000 0.0000 27.9775 0.0000
# 6 0.0000 0.0000 0.0000 0.0000 0.0000 21.1097
#
#
#
# Elastic Compliance Matrix: (Units=1/GPa)
#
#
# Indices 1 2 3 4 5 6 
#
# 1 0.015280 -0.007760 0.004134 0.000000 0.000000 0.000000
# 2 -0.007760 0.017261 -0.006244 0.000000 0.000000 0.000000
# 3 0.004134 -0.006244 0.011756 0.000000 0.000000 0.000000
# 4 0.000000 0.000000 0.000000 0.067319 0.000000 0.000000
# 5 0.000000 0.000000 0.000000 0.000000 0.035743 0.000000
# 6 0.000000 0.000000 0.000000 0.000000 0.000000 0.047372
#
#
# Mechanical properties :
#
#
# Convention : Reuss Voigt Hill
#
# Bulk Modulus (GPa) = 40.72423 43.31716 42.02070
# Shear Modulus (GPa) = 22.45596 27.65033 25.05314
#
# Velocity S-wave (km/s) = 3.29715 3.65867 3.48260
# Velocity P-wave (km/s) = 5.84893 6.23042 6.04269
#
# Compressibility (1/GPa) = 0.02455540
#
# Stress axis : x y z
#
# Youngs Moduli (GPa) = 65.44401 57.93433 85.06132
#
# Poissons Ratio (x) = 0.44959 -0.35161
# Poissons Ratio (y) = 0.50786 0.53115
# Poissons Ratio (z) = -0.27052 0.36176
#
# Static dielectric constant tensor:
#      x y z
#    x 1.751180 0.000000 0.000000 
#    y 0.000000 1.763130 0.000000 
#    z 0.000000 0.000000 1.784550 
# 
# From -- ./inp_files/12205.got.cif
#   From: 2010.05.17/outbox.cif.g08.bks.cpg/sg24_7_cif.got.tgz:12205.got - 2010.06.04 00:33:39.
