data_PCOD9336751
_publ_section_title
;
Structure prediction by ZEFSAII (Michael W. Deem and Ramdas Pophale) SiO2 
 PCOD9336751
Probable space group: I 21 21 21
;
_chemical_formula_sum "Si O2"
_cell_formula_units_Z 56
_cell_length_a 12.619936
_cell_length_b 15.278227
_cell_length_c 13.281242
_cell_angle_alpha 90.000000
_cell_angle_beta 90.000000
_cell_angle_gamma 90.000000
_cell_volume 2560.759550
_symmetry_space_group_name_H-M "I 21 21 21"
_symmetry_group_IT_number 24
_symmetry_cell_setting 'orthorhombic'
loop_
_space_group_symop_operation_xyz
x,y,z
-x,1/2-y,z
x,-y,1/2-z
1/2-x,y,-z
1/2+x,1/2+y,1/2+z
1/2-x,-y,1/2+z
1/2+x,1/2-y,-z
-x,1/2+y,1/2-z
loop_
_atom_site_type_symbol
_atom_site_label
_atom_site_fract_x
_atom_site_fract_y
_atom_site_fract_z
Si Si1 0.878374 0.229722 0.095681
Si Si2 0.105609 0.595600 0.883170
Si Si3 0.883351 0.784259 0.072100
Si Si4 0.596152 0.497915 0.127531
Si Si5 0.181856 0.596654 0.248719
Si Si6 0.500000 0.750000 0.224815
Si Si7 0.333260 0.196419 0.116155
Si Si8 0.250000 0.126696 0.500000
O O1 0.832080 0.139938 0.141834
O O2 0.792164 0.300348 0.134358
O O3 0.000000 0.250000 0.121841
O O4 0.865265 0.240169 0.975834
O O5 0.202535 0.586580 0.805045
O O6 0.029194 0.512437 0.896228
O O7 0.022701 0.664257 0.837248
O O8 0.140790 0.643899 0.985160
O O9 0.875957 0.834705 0.176462
O O10 0.000000 0.750000 0.052826
O O11 0.811641 0.697267 0.069545
O O12 0.609910 0.500000 0.250000
O O13 0.629652 0.401236 0.093105
O O14 0.669893 0.566986 0.066208
O O15 0.134510 0.500000 0.250000
O O16 0.396626 0.768349 0.289479
#
# Coordination Sequence:
#
# PCOD9336751 Si02
#       8
#     8   8   8   8   8   4   8   4
#     4  11  25  49  72 100 155 205 248 295 384 461
#     4  12  23  45  76 108 142 185 251 317 366 429
#     4  12  25  48  73 100 143 197 248 295 366 449
#     4  12  26  44  74 115 148 181 248 320 373 433
#     4  12  28  48  69 108 147 195 250 301 371 457
#     4  12  20  42  76 104 142 186 248 306 370 432
#     4  11  25  45  73 113 146 198 248 312 376 450
#     4  12  24  46  72 104 146 192 238 304 374 440
#
# _framework density 21.868511000000002
#
# number of rings (size 3 to 8) (size 9 to 14) (size 15 to 20)
#    0.000    0.286    7.143    1.714    2.000    1.143 
#    7.714    0.000    0.000    0.000    0.000    0.000 
#    0.000    0.000    0.000    0.000    0.000    0.000 
#
# Total GULP energy -156402.020577 kJ/mol
# GULP energy per Si atom -5585.786449 kJ/mol
# Density = 2.181874 g / cm^3
# Si number density = 21.868511 Si / 1000 Ang^3
#
#
#
# Elastic Constant Matrix: (Units=GPa)
#
#
# Indices 1 2 3 4 5 6 
#
# 1 135.3665 19.4068 11.1429 0.0000 0.0000 0.0000
# 2 19.4068 120.7056 31.3402 0.0000 0.0000 0.0000
# 3 11.1429 31.3402 90.7460 0.0000 0.0000 0.0000
# 4 0.0000 0.0000 0.0000 7.8302 0.0000 0.0000
# 5 0.0000 0.0000 0.0000 0.0000 31.8112 0.0000
# 6 0.0000 0.0000 0.0000 0.0000 0.0000 28.3266
#
#
#
# Elastic Compliance Matrix: (Units=1/GPa)
#
#
# Indices 1 2 3 4 5 6 
#
# 1 0.007588 -0.001074 -0.000561 0.000000 0.000000 0.000000
# 2 -0.001074 0.009253 -0.003064 0.000000 0.000000 0.000000
# 3 -0.000561 -0.003064 0.012147 0.000000 0.000000 0.000000
# 4 0.000000 0.000000 0.000000 0.127711 0.000000 0.000000
# 5 0.000000 0.000000 0.000000 0.000000 0.031435 0.000000
# 6 0.000000 0.000000 0.000000 0.000000 0.000000 0.035303
#
#
# Mechanical properties :
#
#
# Convention : Reuss Voigt Hill
#
# Bulk Modulus (GPa) = 51.04712 52.28863 51.66787
# Shear Modulus (GPa) = 20.88873 32.58880 26.73877
#
# Velocity S-wave (km/s) = 3.09398 3.86452 3.50052
# Velocity P-wave (km/s) = 6.01307 6.62382 6.32582
#
# Compressibility (1/GPa) = 0.01958974
#
# Stress axis : x y z
#
# Youngs Moduli (GPa) = 131.79526 108.07542 82.32700
#
# Poissons Ratio (x) = 0.11611 0.04616
# Poissons Ratio (y) = 0.14159 0.25222
# Poissons Ratio (z) = 0.07389 0.33110
#
# Static dielectric constant tensor:
#      x y z
#    x 1.875990 0.000000 0.000000 
#    y 0.000000 1.885990 0.000000 
#    z 0.000000 0.000000 1.847090 
# 
# From -- ./inp_files/25858.got.cif
#   From: 2010.05.17/outbox.cif.g08.bks.cpg/sg24_13_cif.got.tgz:25858.got - 2010.06.04 00:33:39.
