data_PCOD9336562
_publ_section_title
;
Structure prediction by ZEFSAII (Michael W. Deem and Ramdas Pophale) SiO2 
 PCOD9336562
Probable space group: I 21 21 21
;
_chemical_formula_sum "Si O2"
_cell_formula_units_Z 64
_cell_length_a 23.386658
_cell_length_b 9.381818
_cell_length_c 13.407391
_cell_angle_alpha 90.000000
_cell_angle_beta 90.000000
_cell_angle_gamma 90.000000
_cell_volume 2941.707199
_symmetry_space_group_name_H-M "I 21 21 21"
_symmetry_group_IT_number 24
_symmetry_cell_setting 'orthorhombic'
loop_
_space_group_symop_operation_xyz
x,y,z
-x,1/2-y,z
x,-y,1/2-z
1/2-x,y,-z
1/2+x,1/2+y,1/2+z
1/2-x,-y,1/2+z
1/2+x,1/2-y,-z
-x,1/2+y,1/2-z
loop_
_atom_site_type_symbol
_atom_site_label
_atom_site_fract_x
_atom_site_fract_y
_atom_site_fract_z
Si Si1 0.353108 0.229286 0.862491
Si Si2 0.551616 0.649054 0.028299
Si Si3 0.315596 0.526503 0.501040
Si Si4 0.327426 0.760139 0.108048
Si Si5 0.740876 0.547910 0.383905
Si Si6 0.555942 0.661541 0.790183
Si Si7 0.055146 0.833170 0.535220
Si Si8 0.855571 0.225898 0.827176
O O1 0.299141 0.122923 0.843809
O O2 0.389581 0.230733 0.762520
O O3 0.338821 0.389179 0.901968
O O4 0.394182 0.169380 0.951901
O O5 0.500000 0.750000 0.060503
O O6 0.560182 0.665484 0.909333
O O7 0.612939 0.667006 0.078871
O O8 0.532934 0.490466 0.049719
O O9 0.250000 0.568636 0.500000
O O10 0.317800 0.357817 0.478543
O O11 0.343234 0.601193 0.405257
O O12 0.340920 0.687340 0.214301
O O13 0.278225 0.881169 0.124677
O O14 0.750000 0.570065 0.500000
O O15 0.687217 0.641765 0.349191
O O16 0.500000 0.750000 0.760983
O O17 0.551746 0.500000 0.750000
O O18 0.081683 0.776348 0.638776
O O19 0.000000 0.750000 0.497951
#
# Coordination Sequence:
#
# PCOD9336562 Si02
#       8
#     8   8   8   8   8   8   8   8
#     4  11  22  43  75  99 139 190 245 291 369 441
#     4  11  26  45  65 104 145 181 238 307 360 417
#     4  11  23  47  68  98 142 184 228 286 361 434
#     4  12  27  44  70 105 144 185 234 304 358 425
#     4  12  21  45  71 100 141 185 235 297 354 432
#     4  11  25  44  71 103 142 186 246 303 361 441
#     4  11  23  42  73  99 133 193 240 286 362 433
#     4  11  23  46  71 100 143 184 234 292 356 434
#
# _framework density 21.756076
#
# number of rings (size 3 to 8) (size 9 to 14) (size 15 to 20)
#    0.000    0.750    6.250    1.500    3.500    2.500 
#    2.250    0.000    0.000    0.000    0.000    0.000 
#    0.000    0.000    0.000    0.000    0.000    0.000 
#
# Total GULP energy -178601.091080 kJ/mol
# GULP energy per Si atom -5581.284096 kJ/mol
# Density = 2.170656 g / cm^3
# Si number density = 21.756076 Si / 1000 Ang^3
#
#
#
# Elastic Constant Matrix: (Units=GPa)
#
#
# Indices 1 2 3 4 5 6 
#
# 1 101.3493 26.0997 15.7947 0.0000 0.0000 0.0000
# 2 26.0997 94.1898 -3.8747 0.0000 0.0000 0.0000
# 3 15.7947 -3.8747 40.1478 0.0000 0.0000 0.0000
# 4 0.0000 0.0000 0.0000 16.2552 0.0000 0.0000
# 5 0.0000 0.0000 0.0000 0.0000 0.2222 0.0000
# 6 0.0000 0.0000 0.0000 0.0000 0.0000 31.8058
#
#
#
# Elastic Compliance Matrix: (Units=1/GPa)
#
#
# Indices 1 2 3 4 5 6 
#
# 1 0.011494 -0.003384 -0.004849 0.000000 0.000000 0.000000
# 2 -0.003384 0.011656 0.002456 0.000000 0.000000 0.000000
# 3 -0.004849 0.002456 0.027052 0.000000 0.000000 0.000000
# 4 0.000000 0.000000 0.000000 0.061519 0.000000 0.000000
# 5 0.000000 0.000000 0.000000 0.000000 4.500721 0.000000
# 6 0.000000 0.000000 0.000000 0.000000 0.000000 0.031441
#
#
# Mechanical properties :
#
#
# Convention : Reuss Voigt Hill
#
# Bulk Modulus (GPa) = 25.87383 34.63627 30.25505
# Shear Modulus (GPa) = 1.07105 22.83447 11.95276
#
# Velocity S-wave (km/s) = 0.70240 3.24322 2.34647
# Velocity P-wave (km/s) = 3.54631 5.47535 4.61280
#
# Compressibility (1/GPa) = 0.03864908
#
# Stress axis : x y z
#
# Youngs Moduli (GPa) = 87.00157 85.79480 36.96516
#
# Poissons Ratio (x) = 0.29037 0.17923
# Poissons Ratio (y) = 0.29445 -0.09080
# Poissons Ratio (z) = 0.42183 -0.21074
#
# Static dielectric constant tensor:
#      x y z
#    x 1.815430 0.000000 0.000000 
#    y 0.000000 1.842430 0.000000 
#    z 0.000000 0.000000 1.805800 
# 
# From -- ./inp_files/27889.got.cif
#   From: 2010.05.17/outbox.cif.g08.bks.cpg/sg24_14_cif.got.tgz:27889.got - 2010.06.04 00:33:39.
