data_PCOD9336030
_publ_section_title
;
Structure prediction by ZEFSAII (Michael W. Deem and Ramdas Pophale) SiO2 
 PCOD9336030
Probable space group: I 21 21 21
;
_chemical_formula_sum "Si O2"
_cell_formula_units_Z 24
_cell_length_a 13.743155
_cell_length_b 10.059716
_cell_length_c 7.279610
_cell_angle_alpha 90.000000
_cell_angle_beta 90.000000
_cell_angle_gamma 90.000000
_cell_volume 1006.422361
_symmetry_space_group_name_H-M "I 21 21 21"
_symmetry_group_IT_number 24
_symmetry_cell_setting 'orthorhombic'
loop_
_space_group_symop_operation_xyz
x,y,z
-x,1/2-y,z
x,-y,1/2-z
1/2-x,y,-z
1/2+x,1/2+y,1/2+z
1/2-x,-y,1/2+z
1/2+x,1/2-y,-z
-x,1/2+y,1/2-z
loop_
_atom_site_type_symbol
_atom_site_label
_atom_site_fract_x
_atom_site_fract_y
_atom_site_fract_z
Si Si1 0.530867 0.610877 0.939188
Si Si2 0.636814 0.943472 0.452032
Si Si3 0.634723 0.355379 0.959109
O O1 0.500000 0.750000 0.028096
O O2 0.427182 0.538844 0.921754
O O3 0.591392 0.493418 0.036279
O O4 0.406775 0.143003 0.746962
O O5 0.750000 0.951046 0.500000
O O6 0.622702 0.000000 0.250000
O O7 0.605921 0.789689 0.467345
O O8 0.750000 0.362858 0.000000
#
# Coordination Sequence:
#
# PCOD9336030 Si02
#       3
#     8   8   8
#     4  11  24  45  77 114 159 206 261 328 402 469
#     4  11  27  48  80 116 158 215 271 329 402 476
#     4  10  23  45  78 107 158 211 262 326 394 469
#
# _framework density 23.846845999999999
#
# number of rings (size 3 to 8) (size 9 to 14) (size 15 to 20)
#    0.000    1.333    0.000    5.000   14.000    4.000 
#   18.000    0.000    0.000    0.000    0.000    0.000 
#    0.000    0.000    0.000    0.000    0.000    0.000 
#
# Total GULP energy -66921.337782 kJ/mol
# GULP energy per Si atom -5576.778148 kJ/mol
# Density = 2.379257 g / cm^3
# Si number density = 23.846846 Si / 1000 Ang^3
#
#
#
# Elastic Constant Matrix: (Units=GPa)
#
#
# Indices 1 2 3 4 5 6 
#
# 1 168.4437 74.4430 17.3704 0.0000 0.0000 0.0000
# 2 74.4430 299.4228 40.7676 0.0000 0.0000 0.0000
# 3 17.3704 40.7676 107.8507 0.0000 0.0000 0.0000
# 4 0.0000 0.0000 0.0000 26.7047 0.0000 0.0000
# 5 0.0000 0.0000 0.0000 0.0000 32.7596 0.0000
# 6 0.0000 0.0000 0.0000 0.0000 0.0000 112.6420
#
#
#
# Elastic Compliance Matrix: (Units=1/GPa)
#
#
# Indices 1 2 3 4 5 6 
#
# 1 0.006692 -0.001599 -0.000473 0.000000 0.000000 0.000000
# 2 -0.001599 0.003903 -0.001218 0.000000 0.000000 0.000000
# 3 -0.000473 -0.001218 0.009809 0.000000 0.000000 0.000000
# 4 0.000000 0.000000 0.000000 0.037447 0.000000 0.000000
# 5 0.000000 0.000000 0.000000 0.000000 0.030525 0.000000
# 6 0.000000 0.000000 0.000000 0.000000 0.000000 0.008878
#
#
# Mechanical properties :
#
#
# Convention : Reuss Voigt Hill
#
# Bulk Modulus (GPa) = 72.34232 93.43103 82.88667
# Shear Modulus (GPa) = 46.10731 63.96368 55.03549
#
# Velocity S-wave (km/s) = 4.40190 5.18468 4.80924
# Velocity P-wave (km/s) = 7.49918 8.66637 8.10382
#
# Compressibility (1/GPa) = 0.01382317
#
# Stress axis : x y z
#
# Youngs Moduli (GPa) = 149.42398 256.19864 101.95095
#
# Poissons Ratio (x) = 0.40977 0.04825
# Poissons Ratio (y) = 0.23899 0.12416
# Poissons Ratio (z) = 0.07072 0.31200
#
# Static dielectric constant tensor:
#      x y z
#    x 1.933820 0.000000 0.000000 
#    y 0.000000 1.912300 0.000000 
#    z 0.000000 0.000000 2.006180 
# 
# From -- ./inp_files/11766.got.cif
#   From: 2010.05.17/outbox.cif.g08.bks.cpg/sg24_6_cif.got.tgz:11766.got - 2010.06.04 00:33:39.
