data_PCOD9336407
_publ_section_title
;
Structure prediction by ZEFSAII (Michael W. Deem and Ramdas Pophale) SiO2 
 PCOD9336407
Probable space group: I 21 21 21
;
_chemical_formula_sum "Si O2"
_cell_formula_units_Z 64
_cell_length_a 9.623997
_cell_length_b 14.296948
_cell_length_c 27.301833
_cell_angle_alpha 90.000000
_cell_angle_beta 90.000000
_cell_angle_gamma 90.000000
_cell_volume 3756.562531
_symmetry_space_group_name_H-M "I 21 21 21"
_symmetry_group_IT_number 24
_symmetry_cell_setting 'orthorhombic'
loop_
_space_group_symop_operation_xyz
x,y,z
-x,1/2-y,z
x,-y,1/2-z
1/2-x,y,-z
1/2+x,1/2+y,1/2+z
1/2-x,-y,1/2+z
1/2+x,1/2-y,-z
-x,1/2+y,1/2-z
loop_
_atom_site_type_symbol
_atom_site_label
_atom_site_fract_x
_atom_site_fract_y
_atom_site_fract_z
Si Si1 0.994884 0.137660 0.945058
Si Si2 0.224510 0.080280 0.872516
Si Si3 0.337997 0.262448 0.712229
Si Si4 0.832165 0.430989 0.703262
Si Si5 0.166383 0.446126 0.697535
Si Si6 0.970046 0.363061 0.056506
Si Si7 0.757763 0.082831 0.109528
Si Si8 0.661396 0.248041 0.825189
O O1 0.843315 0.096339 0.936143
O O2 0.000000 0.250000 0.942196
O O3 0.079951 0.098705 0.899044
O O4 0.043467 0.111609 0.999417
O O5 0.332860 0.108535 0.914534
O O6 0.263870 0.153196 0.829882
O O7 0.223590 0.981404 0.845935
O O8 0.500000 0.250000 0.696124
O O9 0.248533 0.167237 0.707427
O O10 0.255348 0.351273 0.691634
O O11 0.342459 0.285189 0.770008
O O12 0.806240 0.500000 0.750000
O O13 0.000570 0.423964 0.698750
O O14 0.195510 0.500000 0.750000
O O15 0.210924 0.508265 0.650367
O O16 0.090055 0.419063 0.085505
O O17 0.000000 0.250000 0.056814
O O18 0.756090 0.179424 0.139813
O O19 0.500000 0.250000 0.840782
#
# Coordination Sequence:
#
# PCOD9336407 Si02
#       8
#     8   8   8   8   8   8   8   8
#     4  11  22  34  55  87 119 153 201 238 285 349
#     4  12  20  36  56  83 117 163 191 230 290 344
#     4  11  25  39  59  86 118 156 200 243 282 336
#     4  11  24  39  58  86 119 156 195 236 286 347
#     4  11  24  39  58  86 119 156 195 236 286 347
#     4  11  22  36  55  83 123 157 191 246 289 339
#     4  12  20  36  56  83 117 163 191 230 290 344
#     4  11  20  34  53  86 122 156 194 235 282 336
#
# _framework density 17.036852
#
# number of rings (size 3 to 8) (size 9 to 14) (size 15 to 20)
#    0.000    0.750    7.500    1.125    1.750    2.500 
#    2.250    0.000    0.000    0.000    0.000    5.250 
#    0.000    0.000    0.000    0.000    0.000    0.000 
#
# Total GULP energy -178308.487252 kJ/mol
# GULP energy per Si atom -5572.140227 kJ/mol
# Density = 1.699808 g / cm^3
# Si number density = 17.036852 Si / 1000 Ang^3
#
#
#
# Elastic Constant Matrix: (Units=GPa)
#
#
# Indices 1 2 3 4 5 6 
#
# 1 61.2882 39.8716 1.4313 0.0000 0.0000 0.0000
# 2 39.8716 87.9233 25.5513 0.0000 0.0000 0.0000
# 3 1.4313 25.5513 64.2595 0.0000 0.0000 0.0000
# 4 0.0000 0.0000 0.0000 26.1274 0.0000 0.0000
# 5 0.0000 0.0000 0.0000 0.0000 50.2712 0.0000
# 6 0.0000 0.0000 0.0000 0.0000 0.0000 23.6579
#
#
#
# Elastic Compliance Matrix: (Units=1/GPa)
#
#
# Indices 1 2 3 4 5 6 
#
# 1 0.024159 -0.012210 0.004317 0.000000 0.000000 0.000000
# 2 -0.012210 0.019031 -0.007295 0.000000 0.000000 0.000000
# 3 0.004317 -0.007295 0.018366 0.000000 0.000000 0.000000
# 4 0.000000 0.000000 0.000000 0.038274 0.000000 0.000000
# 5 0.000000 0.000000 0.000000 0.000000 0.019892 0.000000
# 6 0.000000 0.000000 0.000000 0.000000 0.000000 0.042269
#
#
# Mechanical properties :
#
#
# Convention : Reuss Voigt Hill
#
# Bulk Modulus (GPa) = 32.07238 38.57547 35.32393
# Shear Modulus (GPa) = 24.65952 29.78576 27.22264
#
# Velocity S-wave (km/s) = 3.80863 4.18582 4.00167
# Velocity P-wave (km/s) = 6.18118 6.78623 6.49076
#
# Compressibility (1/GPa) = 0.03117947
#
# Stress axis : x y z
#
# Youngs Moduli (GPa) = 41.39237 52.54662 54.44701
#
# Poissons Ratio (x) = 0.64161 -0.23505
# Poissons Ratio (y) = 0.50541 0.39720
# Poissons Ratio (z) = -0.17869 0.38334
#
# Static dielectric constant tensor:
#      x y z
#    x 1.602110 0.000000 0.000000 
#    y 0.000000 1.553610 0.000000 
#    z 0.000000 0.000000 1.568500 
# 
# From -- ./inp_files/16046.got.cif
#   From: 2010.05.17/outbox.cif.g08.bks.cpg/sg24_9_cif.got.tgz:16046.got - 2010.06.04 00:33:39.
