data_PCOD9336813
_publ_section_title
;
Structure prediction by ZEFSAII (Michael W. Deem and Ramdas Pophale) SiO2 
 PCOD9336813
Probable space group: I 21 21 21
;
_chemical_formula_sum "Si O2"
_cell_formula_units_Z 32
_cell_length_a 19.403888
_cell_length_b 7.205255
_cell_length_c 11.667985
_cell_angle_alpha 90.000000
_cell_angle_beta 90.000000
_cell_angle_gamma 90.000000
_cell_volume 1631.300528
_symmetry_space_group_name_H-M "I 21 21 21"
_symmetry_group_IT_number 24
_symmetry_cell_setting 'orthorhombic'
loop_
_space_group_symop_operation_xyz
x,y,z
-x,1/2-y,z
x,-y,1/2-z
1/2-x,y,-z
1/2+x,1/2+y,1/2+z
1/2-x,-y,1/2+z
1/2+x,1/2-y,-z
-x,1/2+y,1/2-z
loop_
_atom_site_type_symbol
_atom_site_label
_atom_site_fract_x
_atom_site_fract_y
_atom_site_fract_z
Si Si1 0.330840 0.000000 0.250000
Si Si2 0.700910 0.319911 0.863595
Si Si3 0.355367 0.842477 0.020283
Si Si4 0.750000 0.025942 0.500000
Si Si5 0.921220 0.793103 0.205185
O O1 0.274706 0.142024 0.195425
O O2 0.375164 0.076585 0.355882
O O3 0.708970 0.117525 0.920165
O O4 0.638893 0.311257 0.773939
O O5 0.681551 0.485685 0.952201
O O6 0.304266 0.672269 0.050870
O O7 0.408453 0.757089 0.928310
O O8 0.000000 0.750000 0.235223
O O9 0.911321 0.000000 0.250000
#
# Coordination Sequence:
#
# PCOD9336813 Si02
#       5
#     4   8   8   4   8
#     4  12  22  38  60  96 140 168 206 280 338 392
#     4  12  22  38  62  94 133 167 217 279 328 388
#     4  12  23  39  61  93 134 174 212 272 329 396
#     4  12  20  38  60  94 136 168 212 266 344 400
#     4  12  25  43  68  96 130 175 227 275 328 391
#
# _framework density 19.616251999999999
#
# number of rings (size 3 to 8) (size 9 to 14) (size 15 to 20)
#    0.000    0.000   10.000    1.500    0.000    0.000 
#    0.000    0.000    0.000    7.500    0.000    0.000 
#    0.000    0.000    0.000    0.000    0.000    0.000 
#
# Total GULP energy -89133.296473 kJ/mol
# GULP energy per Si atom -5570.831030 kJ/mol
# Density = 1.957160 g / cm^3
# Si number density = 19.616252 Si / 1000 Ang^3
#
#
#
# Elastic Constant Matrix: (Units=GPa)
#
#
# Indices 1 2 3 4 5 6 
#
# 1 57.8428 11.4033 30.9595 0.0000 0.0000 0.0000
# 2 11.4033 135.6781 50.1587 0.0000 0.0000 0.0000
# 3 30.9595 50.1587 144.2955 0.0000 0.0000 0.0000
# 4 0.0000 0.0000 0.0000 37.4365 0.0000 0.0000
# 5 0.0000 0.0000 0.0000 0.0000 -17.1893 0.0000
# 6 0.0000 0.0000 0.0000 0.0000 0.0000 21.5999
#
#
#
# Elastic Compliance Matrix: (Units=1/GPa)
#
#
# Indices 1 2 3 4 5 6 
#
# 1 0.019532 -0.000106 -0.004154 0.000000 0.000000 0.000000
# 2 -0.000106 0.008458 -0.002917 0.000000 0.000000 0.000000
# 3 -0.004154 -0.002917 0.008836 0.000000 0.000000 0.000000
# 4 0.000000 0.000000 0.000000 0.026712 0.000000 0.000000
# 5 0.000000 0.000000 0.000000 0.000000 -0.058176 0.000000
# 6 0.000000 0.000000 0.000000 0.000000 0.000000 0.046297
#
#
# Mechanical properties :
#
#
# Convention : Reuss Voigt Hill
#
# Bulk Modulus (GPa) = 44.50104 58.09547 51.29826
# Shear Modulus (GPa) = 68.02397 24.72241 46.37319
#
# Velocity S-wave (km/s) = 5.89514 3.55393 4.86739
# Velocity P-wave (km/s) = 8.31095 6.82062 7.60239
#
# Compressibility (1/GPa) = 0.02247138
#
# Stress axis : x y z
#
# Youngs Moduli (GPa) = 51.19677 118.23433 113.17898
#
# Poissons Ratio (x) = 0.01253 0.47014
# Poissons Ratio (y) = 0.00542 0.33017
# Poissons Ratio (z) = 0.21267 0.34492
#
# Static dielectric constant tensor:
#      x y z
#    x 1.693430 0.000000 0.000000 
#    y 0.000000 1.802740 0.000000 
#    z 0.000000 0.000000 1.767310 
# 
# From -- ./inp_files/21932.got.cif
#   From: 2010.05.17/outbox.cif.g08.bks.cpg/sg24_11_cif.got.tgz:21932.got - 2010.06.04 00:33:39.
