data_PCOD9336624
_publ_section_title
;
Structure prediction by ZEFSAII (Michael W. Deem and Ramdas Pophale) SiO2 
 PCOD9336624
Probable space group: I 21 21 21
;
_chemical_formula_sum "Si O2"
_cell_formula_units_Z 48
_cell_length_a 8.289334
_cell_length_b 17.449724
_cell_length_c 13.492500
_cell_angle_alpha 90.000000
_cell_angle_beta 90.000000
_cell_angle_gamma 90.000000
_cell_volume 1951.644122
_symmetry_space_group_name_H-M "I 21 21 21"
_symmetry_group_IT_number 24
_symmetry_cell_setting 'orthorhombic'
loop_
_space_group_symop_operation_xyz
x,y,z
-x,1/2-y,z
x,-y,1/2-z
1/2-x,y,-z
1/2+x,1/2+y,1/2+z
1/2-x,-y,1/2+z
1/2+x,1/2-y,-z
-x,1/2+y,1/2-z
loop_
_atom_site_type_symbol
_atom_site_label
_atom_site_fract_x
_atom_site_fract_y
_atom_site_fract_z
Si Si1 0.440864 0.428474 0.288829
Si Si2 0.865939 0.814064 0.649821
Si Si3 0.368318 0.183247 0.594275
Si Si4 0.287315 0.912024 0.721734
Si Si5 0.547225 0.876813 0.562801
Si Si6 0.925800 0.050764 0.488577
O O1 0.337735 0.500000 0.250000
O O2 0.348983 0.353066 0.258511
O O3 0.595862 0.424702 0.217201
O O4 0.492015 0.444196 0.399731
O O5 0.678420 0.820015 0.613571
O O6 0.948908 0.852913 0.551749
O O7 0.000000 0.750000 0.667891
O O8 0.500000 0.250000 0.601519
O O9 0.250000 0.197533 0.500000
O O10 0.292369 0.158348 0.698951
O O11 0.460166 0.103675 0.573385
O O12 0.382030 0.882157 0.625149
O O13 0.346423 0.000000 0.750000
O O14 0.597131 0.966679 0.556391
O O15 0.750000 0.086834 0.500000
#
# Coordination Sequence:
#
# PCOD9336624 Si02
#       6
#     8   8   8   8   8   8
#     4  11  23  43  71 110 146 194 251 319 387 459
#     4  11  26  46  71 108 155 196 260 327 393 468
#     4  12  27  49  72 111 156 200 254 320 397 465
#     4  11  25  43  75 108 146 196 259 319 385 467
#     4  11  24  47  74 109 146 206 261 314 398 466
#     4  12  23  45  78 108 149 200 257 318 376 473
#
# _framework density 24.594650000000001
#
# number of rings (size 3 to 8) (size 9 to 14) (size 15 to 20)
#    0.000    0.667    6.667    0.500    2.333    6.667 
#    0.000    0.000    0.000    0.000    0.000    0.000 
#    0.000    0.000    0.000    0.000    0.000    0.000 
#
# Total GULP energy -133681.741996 kJ/mol
# GULP energy per Si atom -5570.072583 kJ/mol
# Density = 2.453867 g / cm^3
# Si number density = 24.594650 Si / 1000 Ang^3
#
#
#
# Elastic Constant Matrix: (Units=GPa)
#
#
# Indices 1 2 3 4 5 6 
#
# 1 69.4420 0.5964 22.3596 0.0000 0.0000 0.0000
# 2 0.5964 95.0520 1.4518 0.0000 0.0000 0.0000
# 3 22.3596 1.4518 52.0663 0.0000 0.0000 0.0000
# 4 0.0000 0.0000 0.0000 13.2422 0.0000 0.0000
# 5 0.0000 0.0000 0.0000 0.0000 41.0305 0.0000
# 6 0.0000 0.0000 0.0000 0.0000 0.0000 8.3315
#
#
#
# Elastic Compliance Matrix: (Units=1/GPa)
#
#
# Indices 1 2 3 4 5 6 
#
# 1 0.016711 0.000005 -0.007177 0.000000 0.000000 0.000000
# 2 0.000005 0.010525 -0.000296 0.000000 0.000000 0.000000
# 3 -0.007177 -0.000296 0.022297 0.000000 0.000000 0.000000
# 4 0.000000 0.000000 0.000000 0.075516 0.000000 0.000000
# 5 0.000000 0.000000 0.000000 0.000000 0.024372 0.000000
# 6 0.000000 0.000000 0.000000 0.000000 0.000000 0.120027
#
#
# Mechanical properties :
#
#
# Convention : Reuss Voigt Hill
#
# Bulk Modulus (GPa) = 28.90348 29.48621 29.19485
# Shear Modulus (GPa) = 16.89671 25.33099 21.11385
#
# Velocity S-wave (km/s) = 2.62393 3.21275 2.93315
# Velocity P-wave (km/s) = 4.57793 5.07713 4.83398
#
# Compressibility (1/GPa) = 0.03459791
#
# Stress axis : x y z
#
# Youngs Moduli (GPa) = 59.83979 95.01147 44.85001
#
# Poissons Ratio (x) = -0.00045 0.32188
# Poissons Ratio (y) = -0.00028 0.01325
# Poissons Ratio (z) = 0.42945 0.02808
#
# Static dielectric constant tensor:
#      x y z
#    x 1.992110 0.000000 0.000000 
#    y 0.000000 2.129520 0.000000 
#    z 0.000000 0.000000 1.914420 
# 
# From -- ./inp_files/24820.got.cif
#   From: 2010.05.17/outbox.cif.g08.bks.cpg/sg24_13_cif.got.tgz:24820.got - 2010.06.04 00:33:39.
