data_PCOD9336579
_publ_section_title
;
Structure prediction by ZEFSAII (Michael W. Deem and Ramdas Pophale) SiO2 
 PCOD9336579
Probable space group: I 21 21 21
;
_chemical_formula_sum "Si O2"
_cell_formula_units_Z 48
_cell_length_a 30.167460
_cell_length_b 9.313030
_cell_length_c 10.062493
_cell_angle_alpha 90.000000
_cell_angle_beta 90.000000
_cell_angle_gamma 90.000000
_cell_volume 2827.062037
_symmetry_space_group_name_H-M "I 21 21 21"
_symmetry_group_IT_number 24
_symmetry_cell_setting 'orthorhombic'
loop_
_space_group_symop_operation_xyz
x,y,z
-x,1/2-y,z
x,-y,1/2-z
1/2-x,y,-z
1/2+x,1/2+y,1/2+z
1/2-x,-y,1/2+z
1/2+x,1/2-y,-z
-x,1/2+y,1/2-z
loop_
_atom_site_type_symbol
_atom_site_label
_atom_site_fract_x
_atom_site_fract_y
_atom_site_fract_z
Si Si1 0.440290 0.502849 0.097854
Si Si2 0.791361 0.990950 0.596920
Si Si3 0.135610 0.262979 0.596707
Si Si4 0.115440 0.987955 0.094068
Si Si5 0.488928 0.080360 0.614338
Si Si6 0.632895 0.243318 0.094515
O O1 0.455458 0.500000 0.250000
O O2 0.408742 0.641517 0.078387
O O3 0.408402 0.366074 0.078529
O O4 0.481365 0.513130 0.001138
O O5 0.750000 0.991731 0.500000
O O6 0.822706 0.851743 0.575917
O O7 0.776370 0.000000 0.750000
O O8 0.823800 0.127162 0.580435
O O9 0.138070 0.140603 0.487119
O O10 0.133980 0.208816 0.750048
O O11 0.062856 0.951802 0.090167
O O12 0.127648 0.000000 0.250000
O O13 0.126789 0.131103 0.011504
O O14 0.500000 0.250000 0.623025
O O15 0.501342 0.000000 0.750000
#
# Coordination Sequence:
#
# PCOD9336579 Si02
#       6
#     8   8   8   8   8   8
#     4   9  19  36  57  77 101 143 192 229 265 323
#     4   9  19  37  62  88 111 139 177 221 279 339
#     4   9  18  38  57  79 111 142 181 227 276 324
#     4  11  23  35  52  81 111 147 191 227 274 324
#     4  11  24  38  52  76 115 151 186 235 283 325
#     4   9  20  36  58  81 109 145 179 226 279 327
#
# _framework density 16.978756000000001
#
# number of rings (size 3 to 8) (size 9 to 14) (size 15 to 20)
#    0.000    2.333    1.667    2.500    4.667    2.667 
#    0.000    4.167    0.000    0.000    0.000    0.000 
#    0.000    0.000    0.000    0.000    0.000    0.000 
#
# Total GULP energy -133845.764152 kJ/mol
# GULP energy per Si atom -5576.906840 kJ/mol
# Density = 1.694011 g / cm^3
# Si number density = 16.978756 Si / 1000 Ang^3
#
#
#
# Elastic Constant Matrix: (Units=GPa)
#
#
# Indices 1 2 3 4 5 6 
#
# 1 59.5281 28.1317 64.7032 0.0000 0.0000 0.0000
# 2 28.1317 98.9770 91.4398 0.0000 0.0000 0.0000
# 3 64.7032 91.4398 153.3391 0.0000 0.0000 0.0000
# 4 0.0000 0.0000 0.0000 33.6469 0.0000 0.0000
# 5 0.0000 0.0000 0.0000 0.0000 36.9227 0.0000
# 6 0.0000 0.0000 0.0000 0.0000 0.0000 7.2949
#
#
#
# Elastic Compliance Matrix: (Units=1/GPa)
#
#
# Indices 1 2 3 4 5 6 
#
# 1 0.033593 0.007900 -0.018886 0.000000 0.000000 0.000000
# 2 0.007900 0.024355 -0.017857 0.000000 0.000000 0.000000
# 3 -0.018886 -0.017857 0.025139 0.000000 0.000000 0.000000
# 4 0.000000 0.000000 0.000000 0.029720 0.000000 0.000000
# 5 0.000000 0.000000 0.000000 0.000000 0.027084 0.000000
# 6 0.000000 0.000000 0.000000 0.000000 0.000000 0.137081
#
#
# Mechanical properties :
#
#
# Convention : Reuss Voigt Hill
#
# Bulk Modulus (GPa) = 39.36805 75.59927 57.48366
# Shear Modulus (GPa) = 14.57191 24.07755 19.32473
#
# Velocity S-wave (km/s) = 2.93276 3.76985 3.37734
# Velocity P-wave (km/s) = 5.89110 7.97317 7.00987
#
# Compressibility (1/GPa) = 0.02540131
#
# Stress axis : x y z
#
# Youngs Moduli (GPa) = 29.76793 41.05901 39.77879
#
# Poissons Ratio (x) = -0.32435 0.75125
# Poissons Ratio (y) = -0.23515 0.71033
# Poissons Ratio (z) = 0.56219 0.73319
#
# Static dielectric constant tensor:
#      x y z
#    x 1.541310 0.000000 0.000000 
#    y 0.000000 1.579350 0.000000 
#    z 0.000000 0.000000 1.574630 
# 
# From -- ./inp_files/9730.got.cif
#   From: 2010.05.17/outbox.cif.g08.bks.cpg/sg24_5_cif.got.tgz:9730.got - 2010.06.04 00:33:39.
