data_PCOD9336330
_publ_section_title
;
Structure prediction by ZEFSAII (Michael W. Deem and Ramdas Pophale) SiO2 
 PCOD9336330
Probable space group: I 21 21 21
;
_chemical_formula_sum "Si O2"
_cell_formula_units_Z 36
_cell_length_a 8.768089
_cell_length_b 8.025178
_cell_length_c 19.623952
_cell_angle_alpha 90.000000
_cell_angle_beta 90.000000
_cell_angle_gamma 90.000000
_cell_volume 1380.848703
_symmetry_space_group_name_H-M "I 21 21 21"
_symmetry_group_IT_number 24
_symmetry_cell_setting 'orthorhombic'
loop_
_space_group_symop_operation_xyz
x,y,z
-x,1/2-y,z
x,-y,1/2-z
1/2-x,y,-z
1/2+x,1/2+y,1/2+z
1/2-x,-y,1/2+z
1/2+x,1/2-y,-z
-x,1/2+y,1/2-z
loop_
_atom_site_type_symbol
_atom_site_label
_atom_site_fract_x
_atom_site_fract_y
_atom_site_fract_z
Si Si1 0.518285 0.029010 0.587187
Si Si2 0.000000 0.750000 0.510797
Si Si3 0.205920 0.679832 0.634945
Si Si4 0.209453 0.922641 0.857598
Si Si5 0.500000 0.250000 0.246772
Si Si6 0.500000 0.750000 0.029917
O O1 0.386842 0.119406 0.630087
O O2 0.587312 0.137066 0.525681
O O3 0.434624 0.886602 0.540911
O O4 0.645196 0.933732 0.630927
O O5 0.123111 0.672486 0.561899
O O6 0.089661 0.626727 0.694386
O O7 0.219882 0.877266 0.649497
O O8 0.128074 0.832055 0.794794
O O9 0.109562 0.859703 0.922172
#
# Coordination Sequence:
#
# PCOD9336330 Si02
#       6
#     8   4   8   8   4   4
#     4  12  24  44  80 123 160 208 266 338 419 477
#     4  11  22  39  76 117 158 195 260 326 414 493
#     4  11  23  45  80 116 156 222 272 331 400 497
#     4  11  23  47  78 114 165 215 267 341 395 492
#     4  10  26  48  78 114 160 220 286 322 404 474
#     4  11  26  43  74 127 172 199 256 340 424 483
#
# _framework density 26.070920000000001
#
# number of rings (size 3 to 8) (size 9 to 14) (size 15 to 20)
#    0.000    0.889    4.444    2.000    0.000    3.556 
#    8.000    0.000    9.778    2.667    0.000    0.000 
#    0.000    0.000    0.000    0.000    0.000    0.000 
#
# Total GULP energy -100697.703383 kJ/mol
# GULP energy per Si atom -5594.316855 kJ/mol
# Density = 2.601158 g / cm^3
# Si number density = 26.070920 Si / 1000 Ang^3
#
#
#
# Elastic Constant Matrix: (Units=GPa)
#
#
# Indices 1 2 3 4 5 6 
#
# 1 208.6951 46.0357 98.3976 0.0000 0.0000 0.0000
# 2 46.0357 69.4475 43.4365 0.0000 0.0000 0.0000
# 3 98.3976 43.4365 176.0096 0.0000 0.0000 0.0000
# 4 0.0000 0.0000 0.0000 43.3151 0.0000 0.0000
# 5 0.0000 0.0000 0.0000 0.0000 38.9903 0.0000
# 6 0.0000 0.0000 0.0000 0.0000 0.0000 57.3028
#
#
#
# Elastic Compliance Matrix: (Units=1/GPa)
#
#
# Indices 1 2 3 4 5 6 
#
# 1 0.006867 -0.002543 -0.003211 0.000000 0.000000 0.000000
# 2 -0.002543 0.017970 -0.003013 0.000000 0.000000 0.000000
# 3 -0.003211 -0.003013 0.008220 0.000000 0.000000 0.000000
# 4 0.000000 0.000000 0.000000 0.023087 0.000000 0.000000
# 5 0.000000 0.000000 0.000000 0.000000 0.025647 0.000000
# 6 0.000000 0.000000 0.000000 0.000000 0.000000 0.017451
#
#
# Mechanical properties :
#
#
# Convention : Reuss Voigt Hill
#
# Bulk Modulus (GPa) = 64.42476 92.21021 78.31749
# Shear Modulus (GPa) = 41.00023 45.67381 43.33702
#
# Velocity S-wave (km/s) = 3.96996 4.19012 4.08152
# Velocity P-wave (km/s) = 6.76602 7.67172 7.23306
#
# Compressibility (1/GPa) = 0.01552198
#
# Stress axis : x y z
#
# Youngs Moduli (GPa) = 145.62922 55.64918 121.65155
#
# Poissons Ratio (x) = 0.14154 0.39064
# Poissons Ratio (y) = 0.37040 0.36651
# Poissons Ratio (z) = 0.46764 0.16766
#
# Static dielectric constant tensor:
#      x y z
#    x 2.093750 0.000000 0.000000 
#    y 0.000000 2.290680 0.000000 
#    z 0.000000 0.000000 1.989350 
# 
# From -- ./inp_files/32532.got.cif
#   From: 2010.05.17/outbox.cif.g08.bks.cpg/sg24_17_cif.got.tgz:32532.got - 2010.06.04 00:33:39.
