data_PCOD9336296
_publ_section_title
;
Structure prediction by ZEFSAII (Michael W. Deem and Ramdas Pophale) SiO2 
 PCOD9336296
Probable space group: I 21 21 21
;
_chemical_formula_sum "Si O2"
_cell_formula_units_Z 40
_cell_length_a 28.919448
_cell_length_b 5.279654
_cell_length_c 12.499000
_cell_angle_alpha 90.000000
_cell_angle_beta 90.000000
_cell_angle_gamma 90.000000
_cell_volume 1908.405807
_symmetry_space_group_name_H-M "I 21 21 21"
_symmetry_group_IT_number 24
_symmetry_cell_setting 'orthorhombic'
loop_
_space_group_symop_operation_xyz
x,y,z
-x,1/2-y,z
x,-y,1/2-z
1/2-x,y,-z
1/2+x,1/2+y,1/2+z
1/2-x,-y,1/2+z
1/2+x,1/2-y,-z
-x,1/2+y,1/2-z
loop_
_atom_site_type_symbol
_atom_site_label
_atom_site_fract_x
_atom_site_fract_y
_atom_site_fract_z
Si Si1 0.840205 0.057283 0.124947
Si Si2 0.808855 0.364904 0.651116
Si Si3 0.750000 0.987270 0.000000
Si Si4 0.384540 0.500000 0.250000
Si Si5 0.876087 0.530824 0.020642
Si Si6 0.049653 0.142352 0.865310
O O1 0.861891 0.804198 0.068845
O O2 0.834245 0.000000 0.250000
O O3 0.872228 0.302670 0.104986
O O4 0.790532 0.115459 0.069030
O O5 0.784605 0.500000 0.750000
O O6 0.775289 0.187137 0.586731
O O7 0.836268 0.536495 0.567263
O O8 0.850798 0.208541 0.702499
O O9 0.416808 0.377603 0.160563
O O10 0.924234 0.521393 0.955393
O O11 0.000000 0.250000 0.897102
O O12 0.045222 0.000000 0.750000
#
# Coordination Sequence:
#
# PCOD9336296 Si02
#       6
#     8   8   4   4   8   8
#     4  11  26  45  67  93 130 176 230 279 324 386
#     4  11  23  38  62  87 133 177 213 268 324 399
#     4  10  26  38  60  96 122 174 230 278 322 376
#     4  12  20  40  58  90 140 180 198 260 340 384
#     4  11  23  44  66  93 131 176 216 262 341 394
#     4  12  23  36  65 103 138 170 212 269 332 412
#
# _framework density 20.959902
#
# number of rings (size 3 to 8) (size 9 to 14) (size 15 to 20)
#    0.000    0.800    5.000    3.000    1.400    6.400 
#    0.000    0.000    0.000    2.400    0.000    0.000 
#    0.000    0.000    0.000    0.000    0.000    0.000 
#
# Total GULP energy -111772.089080 kJ/mol
# GULP energy per Si atom -5588.604454 kJ/mol
# Density = 2.091220 g / cm^3
# Si number density = 20.959902 Si / 1000 Ang^3
#
#
#
# Elastic Constant Matrix: (Units=GPa)
#
#
# Indices 1 2 3 4 5 6 
#
# 1 109.1825 23.7466 32.3265 0.0000 0.0000 0.0000
# 2 23.7466 66.6213 23.5776 0.0000 0.0000 0.0000
# 3 32.3265 23.5776 98.0982 0.0000 0.0000 0.0000
# 4 0.0000 0.0000 0.0000 42.6939 0.0000 0.0000
# 5 0.0000 0.0000 0.0000 0.0000 18.6119 0.0000
# 6 0.0000 0.0000 0.0000 0.0000 0.0000 22.9082
#
#
#
# Elastic Compliance Matrix: (Units=1/GPa)
#
#
# Indices 1 2 3 4 5 6 
#
# 1 0.010600 -0.002778 -0.002825 0.000000 0.000000 0.000000
# 2 -0.002778 0.017134 -0.003203 0.000000 0.000000 0.000000
# 3 -0.002825 -0.003203 0.011895 0.000000 0.000000 0.000000
# 4 0.000000 0.000000 0.000000 0.023423 0.000000 0.000000
# 5 0.000000 0.000000 0.000000 0.000000 0.053729 0.000000
# 6 0.000000 0.000000 0.000000 0.000000 0.000000 0.043653
#
#
# Mechanical properties :
#
#
# Convention : Reuss Voigt Hill
#
# Bulk Modulus (GPa) = 45.42129 48.13372 46.77750
# Shear Modulus (GPa) = 26.97114 29.79287 28.38201
#
# Velocity S-wave (km/s) = 3.59109 3.77427 3.68382
# Velocity P-wave (km/s) = 6.23796 6.48136 6.36082
#
# Compressibility (1/GPa) = 0.02201611
#
# Stress axis : x y z
#
# Youngs Moduli (GPa) = 94.34210 58.36373 84.07195
#
# Poissons Ratio (x) = 0.16215 0.23752
# Poissons Ratio (y) = 0.26211 0.26924
# Poissons Ratio (z) = 0.26653 0.18691
#
# Static dielectric constant tensor:
#      x y z
#    x 1.734530 0.000000 0.000000 
#    y 0.000000 1.891550 0.000000 
#    z 0.000000 0.000000 1.782520 
# 
# From -- ./inp_files/2669.got.cif
#   From: 2010.05.17/outbox.cif.g08.bks.cpg/sg24_2_cif.got.tgz:2669.got - 2010.06.04 00:33:39.
