data_PCOD9336828
_publ_section_title
;
Structure prediction by ZEFSAII (Michael W. Deem and Ramdas Pophale) SiO2 
 PCOD9336828
Probable space group: I 21 21 21
;
_chemical_formula_sum "Si O2"
_cell_formula_units_Z 48
_cell_length_a 8.890701
_cell_length_b 16.720412
_cell_length_c 15.184177
_cell_angle_alpha 90.000000
_cell_angle_beta 90.000000
_cell_angle_gamma 90.000000
_cell_volume 2257.221805
_symmetry_space_group_name_H-M "I 21 21 21"
_symmetry_group_IT_number 24
_symmetry_cell_setting 'orthorhombic'
loop_
_space_group_symop_operation_xyz
x,y,z
-x,1/2-y,z
x,-y,1/2-z
1/2-x,y,-z
1/2+x,1/2+y,1/2+z
1/2-x,-y,1/2+z
1/2+x,1/2-y,-z
-x,1/2+y,1/2-z
loop_
_atom_site_type_symbol
_atom_site_label
_atom_site_fract_x
_atom_site_fract_y
_atom_site_fract_z
Si Si1 0.940224 0.401252 0.955411
Si Si2 0.561016 0.836518 0.162392
Si Si3 0.750000 0.884090 0.000000
Si Si4 0.708056 0.463893 0.344649
Si Si5 0.265731 0.375852 0.157532
Si Si6 0.750000 0.750898 0.500000
Si Si7 0.963902 0.997266 0.115562
O O1 0.830519 0.465167 0.911435
O O2 0.090490 0.406194 0.897516
O O3 0.875455 0.312077 0.964808
O O4 0.976082 0.434783 0.050141
O O5 0.500000 0.750000 0.182932
O O6 0.655118 0.836346 0.072122
O O7 0.415772 0.894042 0.146754
O O8 0.667665 0.856121 0.246091
O O9 0.861337 0.938935 0.057563
O O10 0.678990 0.500000 0.250000
O O11 0.888622 0.450067 0.350114
O O12 0.145057 0.446216 0.172928
O O13 0.212181 0.305729 0.087076
#
# Coordination Sequence:
#
# PCOD9336828 Si02
#       7
#     8   8   4   8   8   4   8
#     4  12  21  42  71 107 149 199 242 299 387 455
#     4  12  29  52  77 108 152 207 259 323 389 446
#     4  12  27  48  79 104 140 204 264 318 367 448
#     4  12  26  44  74 109 152 199 259 308 371 460
#     4  12  25  44  72 112 158 194 250 306 401 462
#     4  12  23  38  73 112 160 200 234 314 387 478
#     4  12  24  44  73 114 142 199 254 314 375 456
#
# _framework density 21.265080000000001
#
# number of rings (size 3 to 8) (size 9 to 14) (size 15 to 20)
#    0.000    0.000    8.333    1.500    2.333    1.333 
#    0.000    0.000    3.667    0.000    0.000    0.000 
#    0.000    0.000    0.000    0.000    0.000    0.000 
#
# Total GULP energy -133875.419771 kJ/mol
# GULP energy per Si atom -5578.142490 kJ/mol
# Density = 2.121668 g / cm^3
# Si number density = 21.265080 Si / 1000 Ang^3
#
#
#
# Elastic Constant Matrix: (Units=GPa)
#
#
# Indices 1 2 3 4 5 6 
#
# 1 87.8583 -33.8283 53.2929 0.0000 0.0000 0.0000
# 2 -33.8283 -81.4360 49.5483 0.0000 0.0000 0.0000
# 3 53.2929 49.5483 108.4596 0.0000 0.0000 0.0000
# 4 0.0000 0.0000 0.0000 43.7963 0.0000 0.0000
# 5 0.0000 0.0000 0.0000 0.0000 46.2663 0.0000
# 6 0.0000 0.0000 0.0000 0.0000 0.0000 -3.1583
#
#
#
# Elastic Compliance Matrix: (Units=1/GPa)
#
#
# Indices 1 2 3 4 5 6 
#
# 1 0.010617 -0.005935 -0.002506 0.000000 0.000000 0.000000
# 2 -0.005935 -0.006291 0.005790 0.000000 0.000000 0.000000
# 3 -0.002506 0.005790 0.007806 0.000000 0.000000 0.000000
# 4 0.000000 0.000000 0.000000 0.022833 0.000000 0.000000
# 5 0.000000 0.000000 0.000000 0.000000 0.021614 0.000000
# 6 0.000000 0.000000 0.000000 0.000000 0.000000 -0.316627
#
#
# Mechanical properties :
#
#
# Convention : Reuss Voigt Hill
#
# Bulk Modulus (GPa) = 146.38252 28.10084 87.24168
# Shear Modulus (GPa) = -19.80417 20.43881 0.31732
#
# Velocity S-wave (km/s) = -3.05503 3.10360 0.38671
# Velocity P-wave (km/s) = 7.51945 5.10748 6.42762
#
# Compressibility (1/GPa) = 0.00683142
#
# Stress axis : x y z
#
# Youngs Moduli (GPa) = 94.19094 -158.94639 128.10712
#
# Poissons Ratio (x) = -0.94328 0.32097
# Poissons Ratio (y) = 0.55899 -0.74176
# Poissons Ratio (z) = 0.23600 0.92033
#
# Static dielectric constant tensor:
#      x y z
#    x 1.850720 0.000000 0.000000 
#    y 0.000000 1.696090 0.000000 
#    z 0.000000 0.000000 1.706400 
# 
# From -- ./inp_files/24855.got.cif
#   From: 2010.05.17/outbox.cif.g08.bks.cpg/sg24_13_cif.got.tgz:24855.got - 2010.06.04 00:33:39.
