data_PCOD9336154
_publ_section_title
;
Structure prediction by ZEFSAII (Michael W. Deem and Ramdas Pophale) SiO2 
 PCOD9336154
Probable space group: I 21 21 21
;
_chemical_formula_sum "Si O2"
_cell_formula_units_Z 48
_cell_length_a 18.458077
_cell_length_b 9.196247
_cell_length_c 13.977463
_cell_angle_alpha 90.000000
_cell_angle_beta 90.000000
_cell_angle_gamma 90.000000
_cell_volume 2372.604949
_symmetry_space_group_name_H-M "I 21 21 21"
_symmetry_group_IT_number 24
_symmetry_cell_setting 'orthorhombic'
loop_
_space_group_symop_operation_xyz
x,y,z
-x,1/2-y,z
x,-y,1/2-z
1/2-x,y,-z
1/2+x,1/2+y,1/2+z
1/2-x,-y,1/2+z
1/2+x,1/2-y,-z
-x,1/2+y,1/2-z
loop_
_atom_site_type_symbol
_atom_site_label
_atom_site_fract_x
_atom_site_fract_y
_atom_site_fract_z
Si Si1 0.177014 0.500000 0.750000
Si Si2 0.250000 0.840180 0.000000
Si Si3 0.155305 0.000000 0.250000
Si Si4 0.388015 0.034961 0.406993
Si Si5 0.415873 0.229457 0.230221
Si Si6 0.579499 0.000000 0.750000
Si Si7 0.966610 0.585805 0.407275
Si Si8 0.700835 0.205175 0.675880
O O1 0.125300 0.378214 0.794014
O O2 0.231586 0.401705 0.688311
O O3 0.307349 0.937849 0.055363
O O4 0.198386 0.738902 0.064304
O O5 0.103108 0.059796 0.163934
O O6 0.205213 0.134968 0.279213
O O7 0.407714 0.173466 0.340037
O O8 0.387864 0.897169 0.337570
O O9 0.442405 0.993954 0.494628
O O10 0.500000 0.250000 0.211820
O O11 0.530182 0.984029 0.656586
O O12 0.632062 0.866475 0.773722
O O13 0.000000 0.750000 0.423573
#
# Coordination Sequence:
#
# PCOD9336154 Si02
#       8
#     4   4   4   8   8   4   8   8
#     4  11  24  43  71  98 135 180 240 288 361 432
#     4  12  24  44  68 106 136 188 244 278 368 432
#     4  11  22  41  71  96 145 192 228 294 361 432
#     4  11  25  44  72  99 137 185 239 291 357 442
#     4  11  25  48  70  98 137 188 233 301 359 424
#     4  10  24  44  68 104 144 184 232 306 368 418
#     4  11  22  41  69 106 139 182 246 296 364 433
#     4  11  24  44  68 101 142 188 231 294 359 439
#
# _framework density 20.230927999999999
#
# number of rings (size 3 to 8) (size 9 to 14) (size 15 to 20)
#    0.000    1.000    5.000    1.500    2.333    1.333 
#    6.000    0.000    0.000    0.000    0.000    0.000 
#    0.000    0.000    0.000    0.000    0.000    0.000 
#
# Total GULP energy -133758.361223 kJ/mol
# GULP energy per Si atom -5573.265051 kJ/mol
# Density = 2.018488 g / cm^3
# Si number density = 20.230928 Si / 1000 Ang^3
#
#
#
# Elastic Constant Matrix: (Units=GPa)
#
#
# Indices 1 2 3 4 5 6 
#
# 1 112.0672 52.5611 41.9694 0.0000 0.0000 0.0000
# 2 52.5611 126.8297 41.5608 0.0000 0.0000 0.0000
# 3 41.9694 41.5608 105.6093 0.0000 0.0000 0.0000
# 4 0.0000 0.0000 0.0000 16.4426 0.0000 0.0000
# 5 0.0000 0.0000 0.0000 0.0000 47.8209 0.0000
# 6 0.0000 0.0000 0.0000 0.0000 0.0000 33.5771
#
#
#
# Elastic Compliance Matrix: (Units=1/GPa)
#
#
# Indices 1 2 3 4 5 6 
#
# 1 0.011958 -0.003901 -0.003217 0.000000 0.000000 0.000000
# 2 -0.003901 0.010325 -0.002513 0.000000 0.000000 0.000000
# 3 -0.003217 -0.002513 0.011736 0.000000 0.000000 0.000000
# 4 0.000000 0.000000 0.000000 0.060818 0.000000 0.000000
# 5 0.000000 0.000000 0.000000 0.000000 0.020911 0.000000
# 6 0.000000 0.000000 0.000000 0.000000 0.000000 0.029782
#
#
# Mechanical properties :
#
#
# Convention : Reuss Voigt Hill
#
# Bulk Modulus (GPa) = 67.76511 68.52097 68.14304
# Shear Modulus (GPa) = 29.46197 33.46246 31.46222
#
# Velocity S-wave (km/s) = 3.82027 4.07138 3.94782
# Velocity P-wave (km/s) = 7.28202 7.48629 7.38486
#
# Compressibility (1/GPa) = 0.01475686
#
# Stress axis : x y z
#
# Youngs Moduli (GPa) = 83.62804 96.85381 85.20782
#
# Poissons Ratio (x) = 0.37787 0.27408
# Poissons Ratio (y) = 0.32627 0.21410
# Poissons Ratio (z) = 0.26900 0.24337
#
# Static dielectric constant tensor:
#      x y z
#    x 1.719170 0.000000 0.000000 
#    y 0.000000 1.622390 0.000000 
#    z 0.000000 0.000000 1.740620 
# 
# From -- ./inp_files/27457.got.cif
#   From: 2010.05.17/outbox.cif.g08.bks.cpg/sg24_14_cif.got.tgz:27457.got - 2010.06.04 00:33:39.
