data_PCOD9336322
_publ_section_title
;
Structure prediction by ZEFSAII (Michael W. Deem and Ramdas Pophale) SiO2 
 PCOD9336322
Probable space group: I 21 21 21
;
_chemical_formula_sum "Si O2"
_cell_formula_units_Z 40
_cell_length_a 12.386470
_cell_length_b 5.270227
_cell_length_c 27.509303
_cell_angle_alpha 90.000000
_cell_angle_beta 90.000000
_cell_angle_gamma 90.000000
_cell_volume 1795.793783
_symmetry_space_group_name_H-M "I 21 21 21"
_symmetry_group_IT_number 24
_symmetry_cell_setting 'orthorhombic'
loop_
_space_group_symop_operation_xyz
x,y,z
-x,1/2-y,z
x,-y,1/2-z
1/2-x,y,-z
1/2+x,1/2+y,1/2+z
1/2-x,-y,1/2+z
1/2+x,1/2-y,-z
-x,1/2+y,1/2-z
loop_
_atom_site_type_symbol
_atom_site_label
_atom_site_fract_x
_atom_site_fract_y
_atom_site_fract_z
Si Si1 0.000000 0.250000 0.527742
Si Si2 0.000000 0.250000 0.365346
Si Si3 0.102618 0.431128 0.051390
Si Si4 0.238858 0.369160 0.872686
Si Si5 0.895597 0.619153 0.879007
Si Si6 0.886474 0.638204 0.295026
O O1 0.938166 0.429458 0.565785
O O2 0.090728 0.386875 0.494910
O O3 0.926511 0.433309 0.333940
O O4 0.075424 0.402074 0.401638
O O5 0.207930 0.298251 0.074039
O O6 0.000000 0.250000 0.045204
O O7 0.189747 0.649698 0.877881
O O8 0.318513 0.338822 0.826085
O O9 0.151781 0.146583 0.861946
O O10 0.000000 0.750000 0.853826
O O11 0.829746 0.500000 0.250000
O O12 0.000000 0.750000 0.275725
#
# Coordination Sequence:
#
# PCOD9336322 Si02
#       6
#     4   4   8   8   8   8
#     4   9  26  44  58  96 136 180 226 296 324 381
#     4  11  18  40  54  96 146 184 192 258 356 405
#     4  11  22  37  65  95 143 169 223 277 331 425
#     4  12  23  44  71  97 130 189 223 276 356 407
#     4  10  26  48  65  91 136 181 243 290 327 383
#     4  12  24  38  67 104 144 172 214 275 353 444
#
# _framework density 22.274274999999999
#
# number of rings (size 3 to 8) (size 9 to 14) (size 15 to 20)
#    0.600    0.400    5.000    1.800    5.600    0.800 
#    0.000    0.000    0.000    2.400    0.000    0.000 
#    0.000    0.000    0.000    0.000    0.000    0.000 
#
# Total GULP energy -111485.616265 kJ/mol
# GULP energy per Si atom -5574.280813 kJ/mol
# Density = 2.222358 g / cm^3
# Si number density = 22.274275 Si / 1000 Ang^3
#
#
#
# Elastic Constant Matrix: (Units=GPa)
#
#
# Indices 1 2 3 4 5 6 
#
# 1 45.5787 -8.4730 13.0925 0.0000 0.0000 0.0000
# 2 -8.4730 59.7589 10.4410 0.0000 0.0000 0.0000
# 3 13.0925 10.4410 65.4936 0.0000 0.0000 0.0000
# 4 0.0000 0.0000 0.0000 36.3937 0.0000 0.0000
# 5 0.0000 0.0000 0.0000 0.0000 -3.7283 0.0000
# 6 0.0000 0.0000 0.0000 0.0000 0.0000 46.9347
#
#
#
# Elastic Compliance Matrix: (Units=1/GPa)
#
#
# Indices 1 2 3 4 5 6 
#
# 1 0.024365 0.004429 -0.005577 0.000000 0.000000 0.000000
# 2 0.004429 0.018018 -0.003758 0.000000 0.000000 0.000000
# 3 -0.005577 -0.003758 0.016983 0.000000 0.000000 0.000000
# 4 0.000000 0.000000 0.000000 0.027477 0.000000 0.000000
# 5 0.000000 0.000000 0.000000 0.000000 -0.268222 0.000000
# 6 0.000000 0.000000 0.000000 0.000000 0.000000 0.021306
#
#
# Mechanical properties :
#
#
# Convention : Reuss Voigt Hill
#
# Bulk Modulus (GPa) = 20.17958 22.32803 21.25380
# Shear Modulus (GPa) = -37.38539 26.30475 -5.54032
#
# Velocity S-wave (km/s) = -4.10129 3.44022 -1.57883
# Velocity P-wave (km/s) = 3.65351 5.08193 2.49779
#
# Compressibility (1/GPa) = 0.04955505
#
# Stress axis : x y z
#
# Youngs Moduli (GPa) = 41.04181 55.49856 58.88375
#
# Poissons Ratio (x) = -0.24581 0.32839
# Poissons Ratio (y) = -0.18178 0.22128
# Poissons Ratio (z) = 0.22888 0.20856
#
# Static dielectric constant tensor:
#      x y z
#    x 2.184980 0.000000 0.000000 
#    y 0.000000 1.849620 0.000000 
#    z 0.000000 0.000000 1.874990 
# 
# From -- ./inp_files/37072.got.cif
#   From: 2010.05.17/outbox.cif.g08.bks.cpg/sg24_19_cif.got.tgz:37072.got - 2010.06.04 00:33:39.
