data_PCOD9336570
_publ_section_title
;
Structure prediction by ZEFSAII (Michael W. Deem and Ramdas Pophale) SiO2 
 PCOD9336570
Probable space group: I 21 21 21
;
_chemical_formula_sum "Si O2"
_cell_formula_units_Z 32
_cell_length_a 7.860998
_cell_length_b 15.377128
_cell_length_c 10.967587
_cell_angle_alpha 90.000000
_cell_angle_beta 90.000000
_cell_angle_gamma 90.000000
_cell_volume 1325.757227
_symmetry_space_group_name_H-M "I 21 21 21"
_symmetry_group_IT_number 24
_symmetry_cell_setting 'orthorhombic'
loop_
_space_group_symop_operation_xyz
x,y,z
-x,1/2-y,z
x,-y,1/2-z
1/2-x,y,-z
1/2+x,1/2+y,1/2+z
1/2-x,-y,1/2+z
1/2+x,1/2-y,-z
-x,1/2+y,1/2-z
loop_
_atom_site_type_symbol
_atom_site_label
_atom_site_fract_x
_atom_site_fract_y
_atom_site_fract_z
Si Si1 0.882119 0.910195 0.693374
Si Si2 0.750000 0.335637 0.500000
Si Si3 0.512948 0.855918 0.803842
Si Si4 0.500000 0.250000 0.323016
Si Si5 0.056455 0.852039 0.461904
O O1 0.705175 0.887766 0.767884
O O2 0.996828 0.831982 0.737639
O O3 0.922327 0.903871 0.548231
O O4 0.939428 0.000000 0.750000
O O5 0.899973 0.384307 0.422102
O O6 0.655981 0.270540 0.409082
O O7 0.500000 0.750000 0.809599
O O8 0.432309 0.884685 0.676688
O O9 0.250000 0.856370 0.500000
O O10 0.000000 0.750000 0.460941
#
# Coordination Sequence:
#
# PCOD9336570 Si02
#       5
#     8   4   8   4   8
#     4  12  26  47  76 114 154 202 259 325 396 468
#     4  12  22  44  78 108 150 212 262 312 402 470
#     4  11  22  44  73 110 148 206 262 320 389 470
#     4  12  22  46  72 106 150 198 256 320 390 470
#     4  11  22  44  79 110 149 199 266 327 391 470
#
# _framework density 24.137150999999999
#
# number of rings (size 3 to 8) (size 9 to 14) (size 15 to 20)
#    0.000    0.500    5.000    5.250    0.000    0.000 
#   15.750    2.500    0.000    0.000    0.000    0.000 
#    0.000    0.000    0.000    0.000    0.000    0.000 
#
# Total GULP energy -89101.790637 kJ/mol
# GULP energy per Si atom -5568.861915 kJ/mol
# Density = 2.408221 g / cm^3
# Si number density = 24.137151 Si / 1000 Ang^3
#
#
#
# Elastic Constant Matrix: (Units=GPa)
#
#
# Indices 1 2 3 4 5 6 
#
# 1 113.1152 10.8806 59.0344 0.0000 0.0000 0.0000
# 2 10.8806 84.2976 19.5434 0.0000 0.0000 0.0000
# 3 59.0344 19.5434 148.4539 0.0002 0.0000 0.0000
# 4 0.0000 0.0000 0.0002 6.9312 0.0001 0.0000
# 5 0.0000 0.0000 0.0000 0.0001 125.4202 0.0000
# 6 0.0000 0.0000 0.0000 0.0000 0.0000 17.5589
#
#
#
# Elastic Compliance Matrix: (Units=1/GPa)
#
#
# Indices 1 2 3 4 5 6 
#
# 1 0.011171 -0.000425 -0.004386 0.000000 0.000000 0.000000
# 2 -0.000425 0.012252 -0.001444 0.000000 0.000000 0.000000
# 3 -0.004386 -0.001444 0.008670 0.000000 0.000000 0.000000
# 4 0.000000 0.000000 0.000000 0.144274 0.000000 0.000000
# 5 0.000000 0.000000 0.000000 0.000000 0.007973 0.000000
# 6 0.000000 0.000000 0.000000 0.000000 0.000000 0.056951
#
#
# Mechanical properties :
#
#
# Convention : Reuss Voigt Hill
#
# Bulk Modulus (GPa) = 51.06441 58.30929 54.68685
# Shear Modulus (GPa) = 19.20642 47.07596 33.14119
#
# Velocity S-wave (km/s) = 2.82391 4.42107 3.70947
# Velocity P-wave (km/s) = 5.64221 7.09021 6.40725
#
# Compressibility (1/GPa) = 0.01958311
#
# Stress axis : x y z
#
# Youngs Moduli (GPa) = 89.52117 81.61697 115.33494
#
# Poissons Ratio (x) = 0.03468 0.50588
# Poissons Ratio (y) = 0.03804 0.16654
# Poissons Ratio (z) = 0.39265 0.11785
#
# Static dielectric constant tensor:
#      x y z
#    x 2.047160 0.000000 0.000000 
#    y 0.000000 1.843420 0.000000 
#    z 0.000000 0.000000 2.165890 
# 
# From -- ./inp_files/10442.got.cif
#   From: 2010.05.17/outbox.cif.g08.bks.cpg/sg24_6_cif.got.tgz:10442.got - 2010.06.04 00:33:39.
