data_PCOD9336302
_publ_section_title
;
Structure prediction by ZEFSAII (Michael W. Deem and Ramdas Pophale) SiO2 
 PCOD9336302
Probable space group: I 21 21 21
;
_chemical_formula_sum "Si O2"
_cell_formula_units_Z 32
_cell_length_a 21.158481
_cell_length_b 5.478649
_cell_length_c 11.389888
_cell_angle_alpha 90.000000
_cell_angle_beta 90.000000
_cell_angle_gamma 90.000000
_cell_volume 1320.314573
_symmetry_space_group_name_H-M "I 21 21 21"
_symmetry_group_IT_number 24
_symmetry_cell_setting 'orthorhombic'
loop_
_space_group_symop_operation_xyz
x,y,z
-x,1/2-y,z
x,-y,1/2-z
1/2-x,y,-z
1/2+x,1/2+y,1/2+z
1/2-x,-y,1/2+z
1/2+x,1/2-y,-z
-x,1/2+y,1/2-z
loop_
_atom_site_type_symbol
_atom_site_label
_atom_site_fract_x
_atom_site_fract_y
_atom_site_fract_z
Si Si1 0.959842 0.456055 0.625479
Si Si2 0.750000 0.453158 0.500000
Si Si3 0.958360 0.500000 0.250000
Si Si4 0.663649 0.148210 0.369185
Si Si5 0.379494 0.245430 0.962121
O O1 0.992962 0.500000 0.750000
O O2 0.935688 0.687872 0.555277
O O3 0.000000 0.250000 0.559021
O O4 0.893173 0.330918 0.653279
O O5 0.812995 0.604146 0.474034
O O6 0.729040 0.283573 0.392838
O O7 0.912854 0.632526 0.346458
O O8 0.000000 0.250000 0.285281
O O9 0.643011 0.010174 0.490274
O O10 0.669820 0.000000 0.250000
#
# Coordination Sequence:
#
# PCOD9336302 Si02
#       5
#     8   4   4   8   8
#     4  11  23  38  67 107 140 184 235 309 391 457
#     4  10  26  42  72 108 144 202 254 330 400 476
#     4  12  32  54  82 114 164 228 278 334 402 496
#     4  11  23  44  71 106 148 192 252 328 393 472
#     4  11  26  47  71 109 150 203 263 324 392 479
#
# _framework density 24.236650000000001
#
# number of rings (size 3 to 8) (size 9 to 14) (size 15 to 20)
#    0.000    1.000    2.500    2.250   10.500    4.000 
#    0.000    0.000    0.000    0.000    0.000    0.000 
#    0.000    0.000    0.000    0.000    0.000    0.000 
#
# Total GULP energy -89086.481226 kJ/mol
# GULP energy per Si atom -5567.905077 kJ/mol
# Density = 2.418149 g / cm^3
# Si number density = 24.236650 Si / 1000 Ang^3
#
#
#
# Elastic Constant Matrix: (Units=GPa)
#
#
# Indices 1 2 3 4 5 6 
#
# 1 141.6237 25.9300 25.7821 0.0000 0.0000 0.0000
# 2 25.9300 92.8350 12.7802 0.0000 0.0000 0.0000
# 3 25.7821 12.7802 102.8024 0.0000 0.0000 0.0000
# 4 0.0000 0.0000 0.0000 -8.6049 0.0000 0.0000
# 5 0.0000 0.0000 0.0000 0.0000 29.1517 0.0000
# 6 0.0000 0.0000 0.0000 0.0000 0.0000 34.8787
#
#
#
# Elastic Compliance Matrix: (Units=1/GPa)
#
#
# Indices 1 2 3 4 5 6 
#
# 1 0.007722 -0.001923 -0.001698 0.000000 0.000000 0.000000
# 2 -0.001923 0.011438 -0.000940 0.000000 0.000000 0.000000
# 3 -0.001698 -0.000940 0.010270 0.000000 0.000000 0.000000
# 4 0.000000 0.000000 0.000000 -0.116213 0.000000 0.000000
# 5 0.000000 0.000000 0.000000 0.000000 0.034303 0.000000
# 6 0.000000 0.000000 0.000000 0.000000 0.000000 0.028671
#
#
# Mechanical properties :
#
#
# Convention : Reuss Voigt Hill
#
# Bulk Modulus (GPa) = 49.23792 51.80509 50.52150
# Shear Modulus (GPa) = -631.48124 29.26968 -301.10578
#
# Velocity S-wave (km/s) = -16.15901 3.47891 -11.15820
# Velocity P-wave (km/s) = 18.10503 6.12847 12.04645
#
# Compressibility (1/GPa) = 0.02030955
#
# Stress axis : x y z
#
# Youngs Moduli (GPa) = 129.49811 87.42533 97.37144
#
# Poissons Ratio (x) = 0.16814 0.16529
# Poissons Ratio (y) = 0.24905 0.09150
# Poissons Ratio (z) = 0.21983 0.08215
#
# Static dielectric constant tensor:
#      x y z
#    x 1.833390 0.000000 0.000000 
#    y 0.000000 2.095430 0.000000 
#    z 0.000000 0.000000 2.014620 
# 
# From -- ./inp_files/1985.got.cif
#   From: 2010.05.17/outbox.cif.g08.bks.cpg/sg24_1_cif.got.tgz:1985.got - 2010.06.04 00:33:39.
