data_PCOD9336059
_publ_section_title
;
Structure prediction by ZEFSAII (Michael W. Deem and Ramdas Pophale) SiO2 
 PCOD9336059
Probable space group: I 21 21 21
;
_chemical_formula_sum "Si O2"
_cell_formula_units_Z 20
_cell_length_a 8.747825
_cell_length_b 11.344678
_cell_length_c 7.670313
_cell_angle_alpha 90.000000
_cell_angle_beta 90.000000
_cell_angle_gamma 90.000000
_cell_volume 761.211510
_symmetry_space_group_name_H-M "I 21 21 21"
_symmetry_group_IT_number 24
_symmetry_cell_setting 'orthorhombic'
loop_
_space_group_symop_operation_xyz
x,y,z
-x,1/2-y,z
x,-y,1/2-z
1/2-x,y,-z
1/2+x,1/2+y,1/2+z
1/2-x,-y,1/2+z
1/2+x,1/2-y,-z
-x,1/2+y,1/2-z
loop_
_atom_site_type_symbol
_atom_site_label
_atom_site_fract_x
_atom_site_fract_y
_atom_site_fract_z
Si Si1 0.582290 0.521946 0.952045
Si Si2 0.250000 0.742981 0.000000
Si Si3 0.630442 0.848079 0.350559
O O1 0.548549 0.500000 0.750000
O O2 0.750000 0.469123 0.000000
O O3 0.612834 0.660715 0.978809
O O4 0.458225 0.463369 0.076815
O O5 0.276985 0.664277 0.169892
O O6 0.500000 0.750000 0.342551
O O7 0.750000 0.818149 0.500000
#
# Coordination Sequence:
#
# PCOD9336059 Si02
#       3
#     8   4   8
#     4  10  23  50  83 119 177 231 279 369 447 512
#     4  10  26  48  82 110 172 232 276 354 438 520
#     4  12  26  49  82 123 168 224 288 359 439 526
#
# _framework density 26.273907999999999
#
# number of rings (size 3 to 8) (size 9 to 14) (size 15 to 20)
#    1.200    0.000    0.000    6.000    0.000    4.800 
#    7.200    0.000    4.400    0.000    0.000    0.000 
#    0.000    0.000    0.000    0.000    0.000    0.000 
#
# Total GULP energy -56028.606851 kJ/mol
# GULP energy per Si atom -5602.860685 kJ/mol
# Density = 2.621411 g / cm^3
# Si number density = 26.273908 Si / 1000 Ang^3
#
#
#
# Elastic Constant Matrix: (Units=GPa)
#
#
# Indices 1 2 3 4 5 6 
#
# 1 111.3329 70.9852 100.6177 0.0000 0.0000 0.0000
# 2 70.9852 147.3966 97.6671 0.0000 0.0000 0.0000
# 3 100.6177 97.6671 346.3564 0.0000 0.0000 0.0000
# 4 0.0000 0.0000 0.0000 32.8677 0.0000 0.0000
# 5 0.0000 0.0000 0.0000 0.0000 52.1109 0.0000
# 6 0.0000 0.0000 0.0000 0.0000 0.0000 57.2599
#
#
#
# Elastic Compliance Matrix: (Units=1/GPa)
#
#
# Indices 1 2 3 4 5 6 
#
# 1 0.014936 -0.005310 -0.002842 0.000000 0.000000 0.000000
# 2 -0.005310 0.010231 -0.001342 0.000000 0.000000 0.000000
# 3 -0.002842 -0.001342 0.004091 0.000000 0.000000 0.000000
# 4 0.000000 0.000000 0.000000 0.030425 0.000000 0.000000
# 5 0.000000 0.000000 0.000000 0.000000 0.019190 0.000000
# 6 0.000000 0.000000 0.000000 0.000000 0.000000 0.017464
#
#
# Mechanical properties :
#
#
# Convention : Reuss Voigt Hill
#
# Bulk Modulus (GPa) = 97.37027 127.06954 112.21991
# Shear Modulus (GPa) = 42.10562 50.83544 46.47053
#
# Velocity S-wave (km/s) = 4.00755 4.40344 4.21015
# Velocity P-wave (km/s) = 7.65206 8.62102 8.15095
#
# Compressibility (1/GPa) = 0.01027008
#
# Stress axis : x y z
#
# Youngs Moduli (GPa) = 66.95302 97.73954 244.42583
#
# Poissons Ratio (x) = 0.51901 0.69454
# Poissons Ratio (y) = 0.35553 0.32813
# Poissons Ratio (z) = 0.19025 0.13121
#
# Static dielectric constant tensor:
#      x y z
#    x 2.119330 0.000000 0.000000 
#    y 0.000000 2.053720 0.000000 
#    z 0.000000 0.000000 1.995380 
# 
# From -- ./inp_files/8451.got.cif
#   From: 2010.05.17/outbox.cif.g08.bks.cpg/sg24_5_cif.got.tgz:8451.got - 2010.06.04 00:33:39.
