data_PCOD9336832
_publ_section_title
;
Structure prediction by ZEFSAII (Michael W. Deem and Ramdas Pophale) SiO2 
 PCOD9336832
Probable space group: I 21 21 21
;
_chemical_formula_sum "Si O2"
_cell_formula_units_Z 48
_cell_length_a 11.421092
_cell_length_b 20.327298
_cell_length_c 9.409014
_cell_angle_alpha 90.000000
_cell_angle_beta 90.000000
_cell_angle_gamma 90.000000
_cell_volume 2184.396131
_symmetry_space_group_name_H-M "I 21 21 21"
_symmetry_group_IT_number 24
_symmetry_cell_setting 'orthorhombic'
loop_
_space_group_symop_operation_xyz
x,y,z
-x,1/2-y,z
x,-y,1/2-z
1/2-x,y,-z
1/2+x,1/2+y,1/2+z
1/2-x,-y,1/2+z
1/2+x,1/2-y,-z
-x,1/2+y,1/2-z
loop_
_atom_site_type_symbol
_atom_site_label
_atom_site_fract_x
_atom_site_fract_y
_atom_site_fract_z
Si Si1 0.008402 0.823349 0.535830
Si Si2 0.043705 0.115112 0.237662
Si Si3 0.703364 0.665586 0.257210
Si Si4 0.195509 0.321307 0.771401
Si Si5 0.173228 0.556527 0.358240
Si Si6 0.001829 0.325899 0.528934
O O1 0.023309 0.824024 0.369800
O O2 0.121426 0.854047 0.609564
O O3 0.000000 0.750000 0.596581
O O4 0.885052 0.846378 0.595770
O O5 0.184710 0.118787 0.252741
O O6 0.998145 0.125694 0.396451
O O7 0.970494 0.060421 0.146974
O O8 0.732776 0.744346 0.277348
O O9 0.615532 0.663417 0.122725
O O10 0.297650 0.373413 0.784053
O O11 0.113280 0.330904 0.633622
O O12 0.209076 0.500000 0.250000
O O13 0.250000 0.545468 0.500000
O O14 0.000000 0.250000 0.477737
#
# Coordination Sequence:
#
# PCOD9336832 Si02
#       6
#     8   8   8   8   8   8
#     4   9  18  34  58  94 130 161 197 248 315 391
#     4  12  22  35  62  93 125 165 213 254 316 382
#     4   9  20  36  62  98 139 164 191 250 327 397
#     4   9  20  41  61  88 132 169 204 249 320 378
#     4  12  29  47  65  86 118 166 229 284 318 372
#     4   9  20  36  57  98 139 169 195 240 311 395
#
# _framework density 21.974036000000002
#
# number of rings (size 3 to 8) (size 9 to 14) (size 15 to 20)
#    0.000    2.000    1.667    3.500    7.000    0.000 
#    0.000    0.000    0.000    8.000    0.000    0.000 
#    0.000    0.000    0.000    0.000    0.000    0.000 
#
# Total GULP energy -133640.523214 kJ/mol
# GULP energy per Si atom -5568.355134 kJ/mol
# Density = 2.192402 g / cm^3
# Si number density = 21.974036 Si / 1000 Ang^3
#
#
#
# Elastic Constant Matrix: (Units=GPa)
#
#
# Indices 1 2 3 4 5 6 
#
# 1 124.5448 25.3355 47.5928 0.0000 0.0000 0.0000
# 2 25.3355 23.3729 23.0946 -0.0002 0.0000 0.0000
# 3 47.5928 23.0946 110.4144 -0.0004 0.0001 -0.0001
# 4 0.0000 -0.0002 -0.0004 17.1258 0.0000 0.0000
# 5 0.0000 0.0000 0.0001 0.0000 17.8381 0.0000
# 6 0.0000 0.0000 -0.0001 0.0000 0.0000 6.2442
#
#
#
# Elastic Compliance Matrix: (Units=1/GPa)
#
#
# Indices 1 2 3 4 5 6 
#
# 1 0.010956 -0.009088 -0.002822 0.000000 0.000000 0.000000
# 2 -0.009088 0.061469 -0.008940 0.000001 0.000000 0.000000
# 3 -0.002822 -0.008940 0.012143 0.000000 0.000000 0.000000
# 4 0.000000 0.000001 0.000000 0.058391 0.000000 0.000000
# 5 0.000000 0.000000 0.000000 0.000000 0.056060 0.000000
# 6 0.000000 0.000000 0.000000 0.000000 0.000000 0.160149
#
#
# Mechanical properties :
#
#
# Convention : Reuss Voigt Hill
#
# Bulk Modulus (GPa) = 23.32679 50.04199 36.68439
# Shear Modulus (GPa) = 12.04365 19.06224 15.55294
#
# Velocity S-wave (km/s) = 2.34366 2.94851 2.66331
# Velocity P-wave (km/s) = 4.23820 5.86637 5.11745
#
# Compressibility (1/GPa) = 0.04286917
#
# Stress axis : x y z
#
# Youngs Moduli (GPa) = 91.27206 16.26834 82.35282
#
# Poissons Ratio (x) = 0.14785 0.23237
# Poissons Ratio (y) = 0.82950 0.73621
# Poissons Ratio (z) = 0.25754 0.14543
#
# Static dielectric constant tensor:
#      x y z
#    x 1.983940 0.000000 0.000000 
#    y 0.000000 1.819680 0.000000 
#    z 0.000000 0.000000 1.810900 
# 
# From -- ./inp_files/11296.got.cif
#   From: 2010.05.17/outbox.cif.g08.bks.cpg/sg24_6_cif.got.tgz:11296.got - 2010.06.04 00:33:39.
