data_PCOD9336986
_publ_section_title
;
Structure prediction by ZEFSAII (Michael W. Deem and Ramdas Pophale) SiO2 
 PCOD9336986
Probable space group: I 21 21 21
;
_chemical_formula_sum "Si O2"
_cell_formula_units_Z 24
_cell_length_a 5.406134
_cell_length_b 11.236531
_cell_length_c 15.151502
_cell_angle_alpha 90.000000
_cell_angle_beta 90.000000
_cell_angle_gamma 90.000000
_cell_volume 920.396054
_symmetry_space_group_name_H-M "I 21 21 21"
_symmetry_group_IT_number 24
_symmetry_cell_setting 'orthorhombic'
loop_
_space_group_symop_operation_xyz
x,y,z
-x,1/2-y,z
x,-y,1/2-z
1/2-x,y,-z
1/2+x,1/2+y,1/2+z
1/2-x,-y,1/2+z
1/2+x,1/2-y,-z
-x,1/2+y,1/2-z
loop_
_atom_site_type_symbol
_atom_site_label
_atom_site_fract_x
_atom_site_fract_y
_atom_site_fract_z
Si Si1 0.419302 0.883897 0.091365
Si Si2 0.500000 0.750000 0.430245
Si Si3 0.500000 0.250000 0.819463
Si Si4 0.884052 0.500000 0.250000
Si Si5 0.250000 0.540690 0.500000
O O1 0.500000 0.750000 0.114300
O O2 0.278657 0.957084 0.166258
O O3 0.250000 0.881774 0.000000
O O4 0.680501 0.951628 0.076995
O O5 0.260132 0.758230 0.370384
O O6 0.472205 0.633834 0.491477
O O7 0.475571 0.377346 0.771389
#
# Coordination Sequence:
#
# PCOD9336986 Si02
#       5
#     8   4   4   4   4
#     4  12  28  53  87 129 179 242 309 388 470 563
#     4  12  27  50  86 123 178 236 298 382 453 553
#     4  12  29  52  84 129 178 236 304 374 469 553
#     4  12  30  54  90 134 190 246 310 396 476 574
#     4  12  26  50  82 124 174 228 304 368 460 548
#
# _framework density 26.075731999999999
#
# number of rings (size 3 to 8) (size 9 to 14) (size 15 to 20)
#    0.000    0.000    5.000    3.000    7.000    4.000 
#    0.000    0.000    0.000    0.000    0.000    0.000 
#    0.000    0.000    0.000    0.000    0.000    0.000 
#
# Total GULP energy -67076.301573 kJ/mol
# GULP energy per Si atom -5589.691798 kJ/mol
# Density = 2.601638 g / cm^3
# Si number density = 26.075732 Si / 1000 Ang^3
#
#
#
# Elastic Constant Matrix: (Units=GPa)
#
#
# Indices 1 2 3 4 5 6 
#
# 1 143.2337 61.3346 67.0435 0.0000 0.0000 0.0000
# 2 61.3346 297.9419 70.5319 0.0000 0.0000 0.0000
# 3 67.0435 70.5319 123.3297 0.0000 0.0000 0.0000
# 4 0.0000 0.0000 0.0000 7.5925 0.0000 0.0000
# 5 0.0000 0.0000 0.0000 0.0000 36.1993 0.0000
# 6 0.0000 0.0000 0.0000 0.0000 0.0000 59.6669
#
#
#
# Elastic Compliance Matrix: (Units=1/GPa)
#
#
# Indices 1 2 3 4 5 6 
#
# 1 0.009548 -0.000852 -0.004703 0.000000 0.000000 0.000000
# 2 -0.000852 0.003958 -0.001800 0.000000 0.000000 0.000000
# 3 -0.004703 -0.001800 0.011695 0.000000 0.000000 0.000000
# 4 0.000000 0.000000 0.000000 0.131709 0.000000 0.000000
# 5 0.000000 0.000000 0.000000 0.000000 0.027625 0.000000
# 6 0.000000 0.000000 0.000000 0.000000 0.000000 0.016760
#
#
# Mechanical properties :
#
#
# Convention : Reuss Voigt Hill
#
# Bulk Modulus (GPa) = 95.33394 106.92504 101.12949
# Shear Modulus (GPa) = 22.77895 45.06474 33.92185
#
# Velocity S-wave (km/s) = 2.95883 4.16170 3.61071
# Velocity P-wave (km/s) = 6.95073 8.01172 7.50001
#
# Compressibility (1/GPa) = 0.01048944
#
# Stress axis : x y z
#
# Youngs Moduli (GPa) = 104.73578 252.65429 85.51022
#
# Poissons Ratio (x) = 0.21531 0.40215
# Poissons Ratio (y) = 0.08926 0.15394
# Poissons Ratio (z) = 0.49257 0.45485
#
# Static dielectric constant tensor:
#      x y z
#    x 2.049300 0.000000 0.000000 
#    y 0.000000 2.044280 0.000000 
#    z 0.000000 0.000000 2.206310 
# 
# From -- ./inp_files/4198.got.cif
#   From: 2010.05.17/outbox.cif.g08.bks.cpg/sg24_3_cif.got.tgz:4198.got - 2010.06.04 00:33:39.
