data_PCOD9336356
_publ_section_title
;
Structure prediction by ZEFSAII (Michael W. Deem and Ramdas Pophale) SiO2 
 PCOD9336356
Probable space group: I 21 21 21
;
_chemical_formula_sum "Si O2"
_cell_formula_units_Z 52
_cell_length_a 9.646635
_cell_length_b 22.850922
_cell_length_c 12.725218
_cell_angle_alpha 90.000000
_cell_angle_beta 90.000000
_cell_angle_gamma 90.000000
_cell_volume 2805.077117
_symmetry_space_group_name_H-M "I 21 21 21"
_symmetry_group_IT_number 24
_symmetry_cell_setting 'orthorhombic'
loop_
_space_group_symop_operation_xyz
x,y,z
-x,1/2-y,z
x,-y,1/2-z
1/2-x,y,-z
1/2+x,1/2+y,1/2+z
1/2-x,-y,1/2+z
1/2+x,1/2-y,-z
-x,1/2+y,1/2-z
loop_
_atom_site_type_symbol
_atom_site_label
_atom_site_fract_x
_atom_site_fract_y
_atom_site_fract_z
Si Si1 0.772971 0.756719 0.124907
Si Si2 0.394038 0.064095 0.793112
Si Si3 0.607229 0.373802 0.195335
Si Si4 0.500000 0.750000 0.261167
Si Si5 0.402121 0.094841 0.440852
Si Si6 0.490713 0.845167 0.866472
Si Si7 0.581374 0.537751 0.482362
O O1 0.630956 0.761988 0.186634
O O2 0.857879 0.697161 0.149702
O O3 0.874103 0.808631 0.158797
O O4 0.750000 0.757030 0.000000
O O5 0.269487 0.109331 0.818387
O O6 0.476443 0.096207 0.701068
O O7 0.473509 0.053551 0.901950
O O8 0.343792 0.000000 0.750000
O O9 0.549705 0.308425 0.177375
O O10 0.590609 0.387811 0.319393
O O11 0.541083 0.418125 0.110402
O O12 0.250000 0.097420 0.500000
O O13 0.492328 0.138039 0.511168
O O14 0.451258 0.028372 0.451475
O O15 0.750000 0.538139 0.500000
#
# Coordination Sequence:
#
# PCOD9336356 Si02
#       7
#     8   8   8   4   8   8   8
#     4  11  22  37  55  87 123 155 191 238 291 355
#     4  11  18  36  60  88 116 143 196 249 293 346
#     4  11  20  32  53  84 119 153 196 236 291 343
#     4  12  22  38  56  78 124 162 192 242 286 340
#     4  11  16  29  53  88 119 145 181 245 301 341
#     4  11  21  34  61  91 115 150 197 237 296 351
#     4   9  19  30  52  85 116 148 188 244 290 343
#
# _framework density 18.537814999999998
#
# number of rings (size 3 to 8) (size 9 to 14) (size 15 to 20)
#    0.000    1.231    4.615    5.538    0.000    0.000 
#    0.000    1.538    0.000    4.615    0.000    0.000 
#    0.000    0.000    0.000    0.000    0.000    0.000 
#
# Total GULP energy -144925.454611 kJ/mol
# GULP energy per Si atom -5574.055947 kJ/mol
# Density = 1.849562 g / cm^3
# Si number density = 18.537815 Si / 1000 Ang^3
#
#
#
# Elastic Constant Matrix: (Units=GPa)
#
#
# Indices 1 2 3 4 5 6 
#
# 1 57.5570 36.3212 2.7951 0.0000 0.0000 0.0000
# 2 36.3212 136.6476 23.7487 0.0000 0.0000 0.0000
# 3 2.7951 23.7487 66.8134 0.0000 0.0000 0.0000
# 4 0.0000 0.0000 0.0000 37.5497 0.0000 0.0000
# 5 0.0000 0.0000 0.0000 0.0000 7.3028 0.0000
# 6 0.0000 0.0000 0.0000 0.0000 0.0000 21.3088
#
#
#
# Elastic Compliance Matrix: (Units=1/GPa)
#
#
# Indices 1 2 3 4 5 6 
#
# 1 0.020962 -0.005776 0.001176 0.000000 0.000000 0.000000
# 2 -0.005776 0.009392 -0.003097 0.000000 0.000000 0.000000
# 3 0.001176 -0.003097 0.016019 0.000000 0.000000 0.000000
# 4 0.000000 0.000000 0.000000 0.026631 0.000000 0.000000
# 5 0.000000 0.000000 0.000000 0.000000 0.136934 0.000000
# 6 0.000000 0.000000 0.000000 0.000000 0.000000 0.046929
#
#
# Mechanical properties :
#
#
# Convention : Reuss Voigt Hill
#
# Bulk Modulus (GPa) = 32.27995 42.97202 37.62598
# Shear Modulus (GPa) = 17.69373 26.44245 22.06809
#
# Velocity S-wave (km/s) = 3.09280 3.78088 3.45401
# Velocity P-wave (km/s) = 5.49588 6.50316 6.02062
#
# Compressibility (1/GPa) = 0.03097898
#
# Stress axis : x y z
#
# Youngs Moduli (GPa) = 47.70543 106.47839 62.42778
#
# Poissons Ratio (x) = 0.61504 -0.07343
# Poissons Ratio (y) = 0.27555 0.19331
# Poissons Ratio (z) = -0.05611 0.32972
#
# Static dielectric constant tensor:
#      x y z
#    x 1.659410 0.000000 0.000000 
#    y 0.000000 1.674020 0.000000 
#    z 0.000000 0.000000 1.663820 
# 
# From -- ./inp_files/25002.got.cif
#   From: 2010.05.17/outbox.cif.g08.bks.cpg/sg24_13_cif.got.tgz:25002.got - 2010.06.04 00:33:39.
