data_PCOD9336427
_publ_section_title
;
Structure prediction by ZEFSAII (Michael W. Deem and Ramdas Pophale) SiO2 
 PCOD9336427
Probable space group: I 21 21 21
;
_chemical_formula_sum "Si O2"
_cell_formula_units_Z 48
_cell_length_a 13.465786
_cell_length_b 12.350484
_cell_length_c 13.265765
_cell_angle_alpha 90.000000
_cell_angle_beta 90.000000
_cell_angle_gamma 90.000000
_cell_volume 2206.215774
_symmetry_space_group_name_H-M "I 21 21 21"
_symmetry_group_IT_number 24
_symmetry_cell_setting 'orthorhombic'
loop_
_space_group_symop_operation_xyz
x,y,z
-x,1/2-y,z
x,-y,1/2-z
1/2-x,y,-z
1/2+x,1/2+y,1/2+z
1/2-x,-y,1/2+z
1/2+x,1/2-y,-z
-x,1/2+y,1/2-z
loop_
_atom_site_type_symbol
_atom_site_label
_atom_site_fract_x
_atom_site_fract_y
_atom_site_fract_z
Si Si1 0.257807 0.812097 0.755895
Si Si2 0.659589 0.425267 0.435978
Si Si3 0.569458 0.346868 0.879652
Si Si4 0.049395 0.503557 0.507347
Si Si5 0.889016 0.226011 0.911872
Si Si6 0.611743 0.780330 0.923271
O O1 0.197248 0.892331 0.826897
O O2 0.345178 0.872676 0.697378
O O3 0.190340 0.757406 0.671030
O O4 0.311607 0.727284 0.831286
O O5 0.750000 0.480368 0.500000
O O6 0.552342 0.481382 0.430473
O O7 0.639770 0.315342 0.499358
O O8 0.500000 0.250000 0.841599
O O9 0.498911 0.446513 0.905946
O O10 0.614122 0.296936 0.984738
O O11 0.112490 0.599888 0.556603
O O12 0.106421 0.394359 0.480819
O O13 0.000000 0.250000 0.871446
O O14 0.500000 0.750000 0.889951
#
# Coordination Sequence:
#
# PCOD9336427 Si02
#       6
#     8   8   8   8   8   8
#     4  11  20  38  65  89 117 153 195 245 294 342
#     4   9  20  37  59  87 118 154 195 242 292 344
#     4   9  20  40  62  86 119 154 192 242 294 347
#     4   9  19  41  63  82 119 160 192 239 295 345
#     4   9  21  39  59  85 120 159 195 240 292 343
#     4   9  19  39  62  87 121 154 192 242 292 347
#
# _framework density 21.756712
#
# number of rings (size 3 to 8) (size 9 to 14) (size 15 to 20)
#    0.000    3.000    0.000    1.000    0.000    4.667 
#    0.000   51.667    0.000    2.000    0.000    0.000 
#    0.000    0.000    0.000    0.000    0.000    0.000 
#
# Total GULP energy -134059.529186 kJ/mol
# GULP energy per Si atom -5585.813716 kJ/mol
# Density = 2.170719 g / cm^3
# Si number density = 21.756712 Si / 1000 Ang^3
#
#
#
# Elastic Constant Matrix: (Units=GPa)
#
#
# Indices 1 2 3 4 5 6 
#
# 1 52.1528 2.9563 33.3455 0.0000 0.0000 0.0000
# 2 2.9563 73.0863 12.1384 0.0000 0.0000 0.0000
# 3 33.3455 12.1384 86.1589 0.0000 0.0000 0.0000
# 4 0.0000 0.0000 0.0000 14.0044 0.0000 0.0000
# 5 0.0000 0.0000 0.0000 0.0000 42.2764 0.0000
# 6 0.0000 0.0000 0.0000 0.0000 0.0000 17.6036
#
#
#
# Elastic Compliance Matrix: (Units=1/GPa)
#
#
# Indices 1 2 3 4 5 6 
#
# 1 0.025507 0.000622 -0.009960 0.000000 0.000000 0.000000
# 2 0.000622 0.014025 -0.002217 0.000000 0.000000 0.000000
# 3 -0.009960 -0.002217 0.015773 0.000000 0.000000 0.000000
# 4 0.000000 0.000000 0.000000 0.071406 0.000000 0.000000
# 5 0.000000 0.000000 0.000000 0.000000 0.023654 0.000000
# 6 0.000000 0.000000 0.000000 0.000000 0.000000 0.056807
#
#
# Mechanical properties :
#
#
# Convention : Reuss Voigt Hill
#
# Bulk Modulus (GPa) = 31.05788 34.25312 32.65550
# Shear Modulus (GPa) = 20.74579 25.64075 23.19327
#
# Velocity S-wave (km/s) = 3.09129 3.43668 3.26855
# Velocity P-wave (km/s) = 5.20072 5.61477 5.41170
#
# Compressibility (1/GPa) = 0.03219795
#
# Stress axis : x y z
#
# Youngs Moduli (GPa) = 39.20481 71.29889 63.39815
#
# Poissons Ratio (x) = -0.04437 0.63141
# Poissons Ratio (y) = -0.02440 0.14054
# Poissons Ratio (z) = 0.39046 0.15806
#
# Static dielectric constant tensor:
#      x y z
#    x 1.830140 0.000000 0.000000 
#    y 0.000000 1.813490 0.000000 
#    z 0.000000 0.000000 1.789190 
# 
# From -- ./inp_files/26459.got.cif
#   From: 2010.05.17/outbox.cif.g08.bks.cpg/sg24_14_cif.got.tgz:26459.got - 2010.06.04 00:33:39.
