data_PCOD9336855
_publ_section_title
;
Structure prediction by ZEFSAII (Michael W. Deem and Ramdas Pophale) SiO2 
 PCOD9336855
Probable space group: I 21 21 21
;
_chemical_formula_sum "Si O2"
_cell_formula_units_Z 32
_cell_length_a 17.212518
_cell_length_b 6.459881
_cell_length_c 13.301560
_cell_angle_alpha 90.000000
_cell_angle_beta 90.000000
_cell_angle_gamma 90.000000
_cell_volume 1479.011337
_symmetry_space_group_name_H-M "I 21 21 21"
_symmetry_group_IT_number 24
_symmetry_cell_setting 'orthorhombic'
loop_
_space_group_symop_operation_xyz
x,y,z
-x,1/2-y,z
x,-y,1/2-z
1/2-x,y,-z
1/2+x,1/2+y,1/2+z
1/2-x,-y,1/2+z
1/2+x,1/2-y,-z
-x,1/2+y,1/2-z
loop_
_atom_site_type_symbol
_atom_site_label
_atom_site_fract_x
_atom_site_fract_y
_atom_site_fract_z
Si Si1 0.145329 0.959710 0.432899
Si Si2 0.250000 0.312515 0.500000
Si Si3 0.081649 0.857714 0.654800
Si Si4 0.530296 0.500000 0.750000
Si Si5 0.735037 0.124476 0.158031
O O1 0.195823 0.167284 0.434570
O O2 0.113964 0.936358 0.546678
O O3 0.078285 0.980874 0.352556
O O4 0.203516 0.778128 0.394622
O O5 0.205562 0.461582 0.575437
O O6 0.157357 0.734969 0.695001
O O7 0.000000 0.750000 0.630824
O O8 0.062271 0.000000 0.750000
O O9 0.500000 0.250000 0.742786
O O10 0.772764 0.000000 0.250000
#
# Coordination Sequence:
#
# PCOD9336855 Si02
#       5
#     8   4   8   4   8
#     4  12  26  50  77 114 153 197 267 322 388 480
#     4  12  22  44  78 110 144 194 254 316 390 448
#     4  12  26  48  71 109 154 199 251 312 386 465
#     4  12  32  52  78 118 160 212 262 332 414 468
#     4  12  25  45  77 111 149 198 261 318 389 467
#
# _framework density 21.636075000000002
#
# number of rings (size 3 to 8) (size 9 to 14) (size 15 to 20)
#    0.000    0.000    5.000    4.500    7.000    3.000 
#    0.000    0.000    0.000    0.000    0.000    0.000 
#    0.000    0.000    0.000    0.000    0.000    0.000 
#
# Total GULP energy -89130.176711 kJ/mol
# GULP energy per Si atom -5570.636044 kJ/mol
# Density = 2.158683 g / cm^3
# Si number density = 21.636075 Si / 1000 Ang^3
#
#
#
# Elastic Constant Matrix: (Units=GPa)
#
#
# Indices 1 2 3 4 5 6 
#
# 1 77.6572 29.8813 7.7987 0.0000 0.0000 0.0000
# 2 29.8813 89.0006 10.8385 0.0000 0.0000 0.0000
# 3 7.7987 10.8385 71.6709 0.0000 0.0000 0.0000
# 4 0.0000 0.0000 0.0000 29.6065 0.0000 0.0000
# 5 0.0000 0.0000 0.0000 0.0000 54.3740 0.0000
# 6 0.0000 0.0000 0.0000 0.0000 0.0000 27.1462
#
#
#
# Elastic Compliance Matrix: (Units=1/GPa)
#
#
# Indices 1 2 3 4 5 6 
#
# 1 0.014841 -0.004876 -0.000878 0.000000 0.000000 0.000000
# 2 -0.004876 0.013049 -0.001443 0.000000 0.000000 0.000000
# 3 -0.000878 -0.001443 0.014266 0.000000 0.000000 0.000000
# 4 0.000000 0.000000 0.000000 0.033776 0.000000 0.000000
# 5 0.000000 0.000000 0.000000 0.000000 0.018391 0.000000
# 6 0.000000 0.000000 0.000000 0.000000 0.000000 0.036838
#
#
# Mechanical properties :
#
#
# Convention : Reuss Voigt Hill
#
# Bulk Modulus (GPa) = 36.01810 37.26286 36.64048
# Shear Modulus (GPa) = 32.29792 34.87937 33.58864
#
# Velocity S-wave (km/s) = 3.86784 4.01944 3.94437
# Velocity P-wave (km/s) = 6.05230 6.22906 6.14132
#
# Compressibility (1/GPa) = 0.02776382
#
# Stress axis : x y z
#
# Youngs Moduli (GPa) = 67.37889 76.63624 70.09513
#
# Poissons Ratio (x) = 0.37368 0.06151
# Poissons Ratio (y) = 0.32854 0.10113
# Poissons Ratio (z) = 0.05913 0.11057
#
# Static dielectric constant tensor:
#      x y z
#    x 1.733340 0.000000 0.000000 
#    y 0.000000 1.867770 0.000000 
#    z 0.000000 0.000000 1.784130 
# 
# From -- ./inp_files/26835.got.cif
#   From: 2010.05.17/outbox.cif.g08.bks.cpg/sg24_14_cif.got.tgz:26835.got - 2010.06.04 00:33:39.
