data_PCOD9336960
_publ_section_title
;
Structure prediction by ZEFSAII (Michael W. Deem and Ramdas Pophale) SiO2 
 PCOD9336960
Probable space group: I 21 21 21
;
_chemical_formula_sum "Si O2"
_cell_formula_units_Z 20
_cell_length_a 10.250781
_cell_length_b 15.064552
_cell_length_c 5.318101
_cell_angle_alpha 90.000000
_cell_angle_beta 90.000000
_cell_angle_gamma 90.000000
_cell_volume 821.239362
_symmetry_space_group_name_H-M "I 21 21 21"
_symmetry_group_IT_number 24
_symmetry_cell_setting 'orthorhombic'
loop_
_space_group_symop_operation_xyz
x,y,z
-x,1/2-y,z
x,-y,1/2-z
1/2-x,y,-z
1/2+x,1/2+y,1/2+z
1/2-x,-y,1/2+z
1/2+x,1/2-y,-z
-x,1/2+y,1/2-z
loop_
_atom_site_type_symbol
_atom_site_label
_atom_site_fract_x
_atom_site_fract_y
_atom_site_fract_z
Si Si1 0.250000 0.572682 0.500000
Si Si2 0.750000 0.190290 0.500000
Si Si3 0.114002 0.188919 0.841775
Si Si4 0.486143 0.500000 0.250000
O O1 0.264022 0.633017 0.747273
O O2 0.380475 0.514800 0.471125
O O3 0.861262 0.257799 0.584552
O O4 0.000000 0.250000 0.968732
O O5 0.250000 0.184991 0.000000
O O6 0.068423 0.089886 0.769042
#
# Coordination Sequence:
#
# PCOD9336960 Si02
#       4
#     4   4   8   4
#     4  12  27  56  85 126 164 234 289 350 423 532
#     4  12  25  56  81 126 170 230 281 354 433 514
#     4  12  28  55  84 126 176 227 288 362 432 518
#     4  12  28  54  86 132 172 226 294 362 426 520
#
# _framework density 24.353435999999999
#
# number of rings (size 3 to 8) (size 9 to 14) (size 15 to 20)
#    0.000    0.000    6.000    1.200    2.800    4.800 
#    7.200    0.000    0.000    0.000    0.000    0.000 
#    0.000    0.000    0.000    0.000    0.000    0.000 
#
# Total GULP energy -55797.097259 kJ/mol
# GULP energy per Si atom -5579.709726 kJ/mol
# Density = 2.429801 g / cm^3
# Si number density = 24.353436 Si / 1000 Ang^3
#
#
#
# Elastic Constant Matrix: (Units=GPa)
#
#
# Indices 1 2 3 4 5 6 
#
# 1 202.8077 119.6887 75.2436 0.0000 0.0000 0.0000
# 2 119.6887 260.6210 102.2370 0.0000 0.0000 0.0000
# 3 75.2436 102.2370 177.0160 0.0000 0.0000 0.0000
# 4 0.0000 0.0000 0.0000 34.1369 0.0000 0.0000
# 5 0.0000 0.0000 0.0000 0.0000 34.5582 0.0000
# 6 0.0000 0.0000 0.0000 0.0000 0.0000 94.6873
#
#
#
# Elastic Compliance Matrix: (Units=1/GPa)
#
#
# Indices 1 2 3 4 5 6 
#
# 1 0.007043 -0.002663 -0.001455 0.000000 0.000000 0.000000
# 2 -0.002663 0.005968 -0.002315 0.000000 0.000000 0.000000
# 3 -0.001455 -0.002315 0.007605 0.000000 0.000000 0.000000
# 4 0.000000 0.000000 0.000000 0.029294 0.000000 0.000000
# 5 0.000000 0.000000 0.000000 0.000000 0.028937 0.000000
# 6 0.000000 0.000000 0.000000 0.000000 0.000000 0.010561
#
#
# Mechanical properties :
#
#
# Convention : Reuss Voigt Hill
#
# Bulk Modulus (GPa) = 129.05824 137.19815 133.12820
# Shear Modulus (GPa) = 47.68401 55.56149 51.62275
#
# Velocity S-wave (km/s) = 4.42973 4.78165 4.60905
# Velocity P-wave (km/s) = 8.90350 9.32438 9.11637
#
# Compressibility (1/GPa) = 0.00774844
#
# Stress axis : x y z
#
# Youngs Moduli (GPa) = 141.99497 167.55464 131.49613
#
# Poissons Ratio (x) = 0.44626 0.19137
# Poissons Ratio (y) = 0.37818 0.30440
# Poissons Ratio (z) = 0.20665 0.38787
#
# Static dielectric constant tensor:
#      x y z
#    x 2.077600 0.000000 0.000000 
#    y 0.000000 2.046020 0.000000 
#    z 0.000000 0.000000 1.923580 
# 
# From -- ./inp_files/1567.got.cif
#   From: 2010.05.17/outbox.cif.g08.bks.cpg/sg24_1_cif.got.tgz:1567.got - 2010.06.04 00:33:39.
