data_PCOD9336566
_publ_section_title
;
Structure prediction by ZEFSAII (Michael W. Deem and Ramdas Pophale) SiO2 
 PCOD9336566
Probable space group: I 21 21 21
;
_chemical_formula_sum "Si O2"
_cell_formula_units_Z 40
_cell_length_a 17.819464
_cell_length_b 5.094444
_cell_length_c 17.535269
_cell_angle_alpha 90.000000
_cell_angle_beta 90.000000
_cell_angle_gamma 90.000000
_cell_volume 1591.856305
_symmetry_space_group_name_H-M "I 21 21 21"
_symmetry_group_IT_number 24
_symmetry_cell_setting 'orthorhombic'
loop_
_space_group_symop_operation_xyz
x,y,z
-x,1/2-y,z
x,-y,1/2-z
1/2-x,y,-z
1/2+x,1/2+y,1/2+z
1/2-x,-y,1/2+z
1/2+x,1/2-y,-z
-x,1/2+y,1/2-z
loop_
_atom_site_type_symbol
_atom_site_label
_atom_site_fract_x
_atom_site_fract_y
_atom_site_fract_z
Si Si1 0.594284 0.000000 0.750000
Si Si2 0.500000 0.250000 0.141601
Si Si3 0.250000 0.548383 0.000000
Si Si4 0.383186 0.500000 0.250000
Si Si5 0.800469 0.500000 0.250000
Si Si6 0.000000 0.750000 0.381094
Si Si7 0.400077 0.226900 0.019804
Si Si8 0.307031 0.877465 0.129938
O O1 0.646601 0.251853 0.735924
O O2 0.542465 0.054525 0.823799
O O3 0.434626 0.291671 0.204605
O O4 0.455350 0.408493 0.072555
O O5 0.175746 0.376434 0.999288
O O6 0.247976 0.734363 0.927663
O O7 0.337648 0.664703 0.188798
O O8 0.744936 0.431489 0.179686
O O9 0.938693 0.639334 0.441323
O O10 0.373744 0.004556 0.080129
#
# Coordination Sequence:
#
# PCOD9336566 Si02
#       8
#     4   4   4   4   4   4   8   8
#     4  12  28  56  82 121 163 236 290 356 415 515
#     4  11  22  44  70 111 158 196 260 329 406 508
#     4  12  26  50  76 122 162 212 278 344 428 522
#     4  12  23  47  76 118 164 214 276 338 426 524
#     4  12  29  49  88 123 167 218 286 360 429 521
#     4  11  28  56  80 113 172 216 298 343 438 498
#     4  11  26  49  77 115 156 212 266 347 422 508
#     4  12  27  47  82 119 162 212 272 351 433 506
#
# _framework density 25.127898999999999
#
# number of rings (size 3 to 8) (size 9 to 14) (size 15 to 20)
#    0.000    0.400    2.000    5.400    8.400    0.000 
#    7.200    0.000    0.000    0.000    0.000    0.000 
#    0.000    0.000    0.000    0.000    0.000    0.000 
#
# Total GULP energy -111654.864873 kJ/mol
# GULP energy per Si atom -5582.743244 kJ/mol
# Density = 2.507071 g / cm^3
# Si number density = 25.127899 Si / 1000 Ang^3
#
#
#
# Elastic Constant Matrix: (Units=GPa)
#
#
# Indices 1 2 3 4 5 6 
#
# 1 133.7819 47.8749 89.2572 0.0000 0.0000 0.0000
# 2 47.8749 96.2551 56.2180 0.0000 0.0000 0.0000
# 3 89.2572 56.2180 225.4986 0.0000 0.0000 0.0000
# 4 0.0000 0.0000 0.0000 39.0947 0.0000 0.0000
# 5 0.0000 0.0000 0.0000 0.0000 108.7667 0.0000
# 6 0.0000 0.0000 0.0000 0.0000 0.0000 51.1259
#
#
#
# Elastic Compliance Matrix: (Units=1/GPa)
#
#
# Indices 1 2 3 4 5 6 
#
# 1 0.011054 -0.003444 -0.003517 0.000000 0.000000 0.000000
# 2 -0.003444 0.013233 -0.001936 0.000000 0.000000 0.000000
# 3 -0.003517 -0.001936 0.006309 0.000000 0.000000 0.000000
# 4 0.000000 0.000000 0.000000 0.025579 0.000000 0.000000
# 5 0.000000 0.000000 0.000000 0.000000 0.009194 0.000000
# 6 0.000000 0.000000 0.000000 0.000000 0.000000 0.019560
#
#
# Mechanical properties :
#
#
# Convention : Reuss Voigt Hill
#
# Bulk Modulus (GPa) = 78.10868 93.58174 85.84521
# Shear Modulus (GPa) = 46.73431 57.27651 52.00541
#
# Velocity S-wave (km/s) = 4.31728 4.77948 4.55425
# Velocity P-wave (km/s) = 7.48357 8.23292 7.86717
#
# Compressibility (1/GPa) = 0.01280267
#
# Stress axis : x y z
#
# Youngs Moduli (GPa) = 90.46908 75.57128 158.49897
#
# Poissons Ratio (x) = 0.26025 0.55739
# Poissons Ratio (y) = 0.31156 0.30682
# Poissons Ratio (z) = 0.31815 0.14629
#
# Static dielectric constant tensor:
#      x y z
#    x 2.241890 0.000000 0.000000 
#    y 0.000000 2.013460 0.000000 
#    z 0.000000 0.000000 1.941620 
# 
# From -- ./inp_files/4604.got.cif
#   From: 2010.05.17/outbox.cif.g08.bks.cpg/sg24_3_cif.got.tgz:4604.got - 2010.06.04 00:33:39.
