data_PCOD9336404
_publ_section_title
;
Structure prediction by ZEFSAII (Michael W. Deem and Ramdas Pophale) SiO2 
 PCOD9336404
Probable space group: I 21 21 21
;
_chemical_formula_sum "Si O2"
_cell_formula_units_Z 40
_cell_length_a 5.034558
_cell_length_b 21.163303
_cell_length_c 20.137942
_cell_angle_alpha 90.000000
_cell_angle_beta 90.000000
_cell_angle_gamma 90.000000
_cell_volume 2145.654956
_symmetry_space_group_name_H-M "I 21 21 21"
_symmetry_group_IT_number 24
_symmetry_cell_setting 'orthorhombic'
loop_
_space_group_symop_operation_xyz
x,y,z
-x,1/2-y,z
x,-y,1/2-z
1/2-x,y,-z
1/2+x,1/2+y,1/2+z
1/2-x,-y,1/2+z
1/2+x,1/2-y,-z
-x,1/2+y,1/2-z
loop_
_atom_site_type_symbol
_atom_site_label
_atom_site_fract_x
_atom_site_fract_y
_atom_site_fract_z
Si Si1 0.502587 0.150660 0.542716
Si Si2 0.446345 0.500121 0.559111
Si Si3 0.880627 0.395101 0.732889
Si Si4 0.603482 0.819123 0.804150
Si Si5 0.553145 0.517744 0.357193
O O1 0.250000 0.170175 0.500000
O O2 0.534702 0.173671 0.617704
O O3 0.750000 0.172303 0.500000
O O4 0.506739 0.074045 0.545374
O O5 0.250000 0.524298 0.500000
O O6 0.733997 0.526149 0.582466
O O7 0.249101 0.509088 0.620525
O O8 0.587526 0.367296 0.733598
O O9 0.879525 0.451668 0.679143
O O10 0.937103 0.426566 0.803718
O O11 0.096071 0.341946 0.710763
O O12 0.500000 0.750000 0.784261
#
# Coordination Sequence:
#
# PCOD9336404 Si02
#       5
#     8   8   8   8   8
#     4  11  21  34  52  73 109 151 194 231 264 310
#     4  11  20  33  55  85 115 146 180 229 286 333
#     4  11  22  38  56  81 107 147 196 232 294 331
#     4  12  24  39  55  77 112 150 201 244 274 326
#     4  11  20  36  59  80 111 145 187 234 281 356
#
# _framework density 18.642325
#
# number of rings (size 3 to 8) (size 9 to 14) (size 15 to 20)
#    0.000    0.800    4.000    6.000    0.000    4.000 
#    0.000    0.000    0.000    0.000    0.000    0.000 
#    0.000   44.800    0.000    0.000    0.000    0.000 
#
# Total GULP energy -111624.387923 kJ/mol
# GULP energy per Si atom -5581.219396 kJ/mol
# Density = 1.859989 g / cm^3
# Si number density = 18.642325 Si / 1000 Ang^3
#
#
#
# Elastic Constant Matrix: (Units=GPa)
#
#
# Indices 1 2 3 4 5 6 
#
# 1 104.6643 -2.9384 11.1233 0.0000 0.0000 0.0000
# 2 -2.9384 34.8916 18.6177 0.0000 0.0000 0.0000
# 3 11.1233 18.6177 47.5793 0.0000 0.0000 0.0000
# 4 0.0000 0.0000 0.0000 -9.7099 0.0000 0.0000
# 5 0.0000 0.0000 0.0000 0.0000 35.6036 0.0000
# 6 0.0000 0.0000 0.0000 0.0000 0.0000 -4.1895
#
#
#
# Elastic Compliance Matrix: (Units=1/GPa)
#
#
# Indices 1 2 3 4 5 6 
#
# 1 0.009986 0.002637 -0.003367 0.000000 0.000000 0.000000
# 2 0.002637 0.036920 -0.015063 0.000000 0.000000 0.000000
# 3 -0.003367 -0.015063 0.027699 0.000000 0.000000 0.000000
# 4 0.000000 0.000000 0.000000 -0.102988 0.000000 0.000000
# 5 0.000000 0.000000 0.000000 0.000000 0.028087 0.000000
# 6 0.000000 0.000000 0.000000 0.000000 0.000000 -0.238690
#
#
# Mechanical properties :
#
#
# Convention : Reuss Voigt Hill
#
# Bulk Modulus (GPa) = 23.24507 26.74893 24.99700
# Shear Modulus (GPa) = -25.89857 15.02968 -5.43445
#
# Velocity S-wave (km/s) = -3.73129 2.84247 -1.70922
# Velocity P-wave (km/s) = 2.46319 5.01523 3.08911
#
# Compressibility (1/GPa) = 0.04301987
#
# Stress axis : x y z
#
# Youngs Moduli (GPa) = 100.13830 27.08571 36.10258
#
# Poissons Ratio (x) = -0.07143 0.12154
# Poissons Ratio (y) = -0.26410 0.54382
# Poissons Ratio (z) = 0.33713 0.40800
#
# Static dielectric constant tensor:
#      x y z
#    x 1.636510 0.000000 0.000000 
#    y 0.000000 1.630180 0.000000 
#    z 0.000000 0.000000 1.665600 
# 
# From -- ./inp_files/28604.got.cif
#   From: 2010.05.17/outbox.cif.g08.bks.cpg/sg24_15_cif.got.tgz:28604.got - 2010.06.04 00:33:39.
