data_PCOD9336218
_publ_section_title
;
Structure prediction by ZEFSAII (Michael W. Deem and Ramdas Pophale) SiO2 
 PCOD9336218
Probable space group: I 21 21 21
;
_chemical_formula_sum "Si O2"
_cell_formula_units_Z 60
_cell_length_a 20.595225
_cell_length_b 8.395278
_cell_length_c 17.439804
_cell_angle_alpha 90.000000
_cell_angle_beta 90.000000
_cell_angle_gamma 90.000000
_cell_volume 3015.388141
_symmetry_space_group_name_H-M "I 21 21 21"
_symmetry_group_IT_number 24
_symmetry_cell_setting 'orthorhombic'
loop_
_space_group_symop_operation_xyz
x,y,z
-x,1/2-y,z
x,-y,1/2-z
1/2-x,y,-z
1/2+x,1/2+y,1/2+z
1/2-x,-y,1/2+z
1/2+x,1/2-y,-z
-x,1/2+y,1/2-z
loop_
_atom_site_type_symbol
_atom_site_label
_atom_site_fract_x
_atom_site_fract_y
_atom_site_fract_z
Si Si1 0.066524 0.842751 0.944077
Si Si2 0.813154 0.122084 0.541175
Si Si3 0.391049 0.000000 0.750000
Si Si4 0.427403 0.197874 0.093577
Si Si5 0.978945 0.577290 0.113015
Si Si6 0.318575 0.605735 0.319289
Si Si7 0.895126 0.119914 0.060790
Si Si8 0.323987 0.320753 0.783266
O O1 0.131022 0.741513 0.932440
O O2 0.000000 0.750000 0.923133
O O3 0.073592 0.008952 0.901875
O O4 0.058856 0.880792 0.034786
O O5 0.750000 0.193610 0.500000
O O6 0.794728 0.013077 0.613399
O O7 0.848581 0.007476 0.480369
O O8 0.436488 0.988053 0.675491
O O9 0.351088 0.164733 0.740185
O O10 0.500000 0.250000 0.114095
O O11 0.372974 0.281472 0.144985
O O12 0.414387 0.255490 0.005671
O O13 0.000000 0.750000 0.145863
O O14 0.040855 0.472398 0.089307
O O15 0.345822 0.500000 0.250000
O O16 0.253744 0.691026 0.289436
O O17 0.856561 0.186737 0.132970
O O18 0.338527 0.500000 0.750000
#
# Coordination Sequence:
#
# PCOD9336218 Si02
#       8
#     8   8   4   8   8   8   8   8
#     4  11  21  40  63  98 131 169 219 286 338 396
#     4  11  21  41  69  96 126 175 229 271 334 404
#     4  12  28  38  64 102 142 186 236 270 334 420
#     4  11  22  42  70  97 128 168 223 285 339 398
#     4  11  22  39  61  98 138 182 225 278 336 395
#     4  10  24  47  70  94 132 176 219 275 348 409
#     4  11  21  40  66  91 134 177 226 276 325 396
#     4  11  25  45  65  94 142 186 226 275 341 404
#
# _framework density 19.897936000000001
#
# number of rings (size 3 to 8) (size 9 to 14) (size 15 to 20)
#    0.000    1.067    5.333    2.400    2.800    0.000 
#    9.600    2.000    0.000    0.000    0.000    0.000 
#    0.000    0.000    0.000    0.000    0.000    0.000 
#
# Total GULP energy -167643.505068 kJ/mol
# GULP energy per Si atom -5588.116836 kJ/mol
# Density = 1.985265 g / cm^3
# Si number density = 19.897936 Si / 1000 Ang^3
#
#
#
# Elastic Constant Matrix: (Units=GPa)
#
#
# Indices 1 2 3 4 5 6 
#
# 1 93.9739 44.0369 28.5138 0.0000 0.0000 0.0000
# 2 44.0369 102.7544 22.6474 0.0000 0.0000 0.0000
# 3 28.5138 22.6474 59.4228 0.0000 0.0000 0.0000
# 4 0.0000 0.0000 0.0000 6.5470 0.0000 0.0000
# 5 0.0000 0.0000 0.0000 0.0000 13.4449 0.0000
# 6 0.0000 0.0000 0.0000 0.0000 0.0000 32.6907
#
#
#
# Elastic Compliance Matrix: (Units=1/GPa)
#
#
# Indices 1 2 3 4 5 6 
#
# 1 0.014577 -0.005137 -0.005037 0.000000 0.000000 0.000000
# 2 -0.005137 0.012435 -0.002274 0.000000 0.000000 0.000000
# 3 -0.005037 -0.002274 0.020112 0.000000 0.000000 0.000000
# 4 0.000000 0.000000 0.000000 0.152741 0.000000 0.000000
# 5 0.000000 0.000000 0.000000 0.000000 0.074378 0.000000
# 6 0.000000 0.000000 0.000000 0.000000 0.000000 0.030590
#
#
# Mechanical properties :
#
#
# Convention : Reuss Voigt Hill
#
# Bulk Modulus (GPa) = 44.98878 49.61636 47.30257
# Shear Modulus (GPa) = 14.83076 21.26673 18.04874
#
# Velocity S-wave (km/s) = 2.73306 3.27278 3.01502
# Velocity P-wave (km/s) = 5.71124 6.26666 5.99539
#
# Compressibility (1/GPa) = 0.02222776
#
# Stress axis : x y z
#
# Youngs Moduli (GPa) = 68.60248 80.42013 49.72105
#
# Poissons Ratio (x) = 0.41311 0.25043
# Poissons Ratio (y) = 0.35241 0.11308
# Poissons Ratio (z) = 0.34554 0.18289
#
# Static dielectric constant tensor:
#      x y z
#    x 1.701530 0.000000 0.000000 
#    y 0.000000 1.743510 0.000000 
#    z 0.000000 0.000000 1.714330 
# 
# From -- ./inp_files/31182.got.cif
#   From: 2010.05.17/outbox.cif.g08.bks.cpg/sg24_16_cif.got.tgz:31182.got - 2010.06.04 00:33:39.
