data_PCOD9336809
_publ_section_title
;
Structure prediction by ZEFSAII (Michael W. Deem and Ramdas Pophale) SiO2 
 PCOD9336809
Probable space group: I 21 21 21
;
_chemical_formula_sum "Si O2"
_cell_formula_units_Z 24
_cell_length_a 8.878244
_cell_length_b 7.858230
_cell_length_c 14.282082
_cell_angle_alpha 90.000000
_cell_angle_beta 90.000000
_cell_angle_gamma 90.000000
_cell_volume 996.422062
_symmetry_space_group_name_H-M "I 21 21 21"
_symmetry_group_IT_number 24
_symmetry_cell_setting 'orthorhombic'
loop_
_space_group_symop_operation_xyz
x,y,z
-x,1/2-y,z
x,-y,1/2-z
1/2-x,y,-z
1/2+x,1/2+y,1/2+z
1/2-x,-y,1/2+z
1/2+x,1/2-y,-z
-x,1/2+y,1/2-z
loop_
_atom_site_type_symbol
_atom_site_label
_atom_site_fract_x
_atom_site_fract_y
_atom_site_fract_z
Si Si1 0.420195 0.592158 0.477113
Si Si2 0.649715 0.161168 0.311215
Si Si3 0.869394 0.387364 0.415336
O O1 0.500000 0.750000 0.428308
O O2 0.250000 0.638104 0.500000
O O3 0.402107 0.430493 0.408371
O O4 0.526878 0.553189 0.567209
O O5 0.500000 0.250000 0.273424
O O6 0.770972 0.310673 0.330157
O O7 0.704155 0.000000 0.250000
O O8 0.750000 0.394292 0.500000
O O9 0.000000 0.250000 0.425246
#
# Coordination Sequence:
#
# PCOD9336809 Si02
#       3
#     8   8   8
#     4  12  24  42  76 109 138 191 260 302 356 448
#     4  12  25  45  70 106 151 195 239 308 381 435
#     4  12  19  43  76 100 137 190 248 299 354 435
#
# _framework density 24.086178
#
# number of rings (size 3 to 8) (size 9 to 14) (size 15 to 20)
#    0.000    0.000   10.000    2.000    0.000    0.000 
#    0.000    3.333    0.000    0.000    0.000    0.000 
#    0.000    0.000    0.000    0.000    0.000    0.000 
#
# Total GULP energy -66876.717219 kJ/mol
# GULP energy per Si atom -5573.059768 kJ/mol
# Density = 2.403136 g / cm^3
# Si number density = 24.086178 Si / 1000 Ang^3
#
#
#
# Elastic Constant Matrix: (Units=GPa)
#
#
# Indices 1 2 3 4 5 6 
#
# 1 197.9787 52.4732 40.5723 0.0000 0.0000 0.0000
# 2 52.4732 90.4576 26.6451 0.0000 0.0000 0.0000
# 3 40.5723 26.6451 64.4560 0.0000 0.0000 0.0000
# 4 0.0000 0.0000 0.0000 15.8143 0.0000 0.0000
# 5 0.0000 0.0000 0.0000 0.0000 -11.9985 0.0000
# 6 0.0000 0.0000 0.0000 0.0000 0.0000 52.1457
#
#
#
# Elastic Compliance Matrix: (Units=1/GPa)
#
#
# Indices 1 2 3 4 5 6 
#
# 1 0.006394 -0.002873 -0.002837 0.000000 0.000000 0.000000
# 2 -0.002873 0.013879 -0.003929 0.000000 0.000000 0.000000
# 3 -0.002837 -0.003929 0.018924 0.000000 0.000000 0.000000
# 4 0.000000 0.000000 0.000000 0.063234 0.000000 0.000000
# 5 0.000000 0.000000 0.000000 0.000000 -0.083343 0.000000
# 6 0.000000 0.000000 0.000000 0.000000 0.000000 0.019177
#
#
# Mechanical properties :
#
#
# Convention : Reuss Voigt Hill
#
# Bulk Modulus (GPa) = 50.20284 65.80818 58.00551
# Shear Modulus (GPa) = 77.90293 26.73908 52.32100
#
# Velocity S-wave (km/s) = 5.69330 3.33549 4.66579
# Velocity P-wave (km/s) = 8.00665 6.49733 7.29115
#
# Compressibility (1/GPa) = 0.01991919
#
# Stress axis : x y z
#
# Youngs Moduli (GPa) = 156.39623 72.05153 52.84234
#
# Poissons Ratio (x) = 0.20704 0.14991
# Poissons Ratio (y) = 0.44939 0.20760
# Poissons Ratio (z) = 0.44369 0.28306
#
# Static dielectric constant tensor:
#      x y z
#    x 1.813010 0.000000 0.000000 
#    y 0.000000 2.431230 0.000000 
#    z 0.000000 0.000000 1.998910 
# 
# From -- ./inp_files/8550.got.cif
#   From: 2010.05.17/outbox.cif.g08.bks.cpg/sg24_5_cif.got.tgz:8550.got - 2010.06.04 00:33:39.
