data_PCOD9336532
_publ_section_title
;
Structure prediction by ZEFSAII (Michael W. Deem and Ramdas Pophale) SiO2 
 PCOD9336532
Probable space group: I 21 21 21
;
_chemical_formula_sum "Si O2"
_cell_formula_units_Z 40
_cell_length_a 14.016354
_cell_length_b 7.830688
_cell_length_c 14.869468
_cell_angle_alpha 90.000000
_cell_angle_beta 90.000000
_cell_angle_gamma 90.000000
_cell_volume 1632.038535
_symmetry_space_group_name_H-M "I 21 21 21"
_symmetry_group_IT_number 24
_symmetry_cell_setting 'orthorhombic'
loop_
_space_group_symop_operation_xyz
x,y,z
-x,1/2-y,z
x,-y,1/2-z
1/2-x,y,-z
1/2+x,1/2+y,1/2+z
1/2-x,-y,1/2+z
1/2+x,1/2-y,-z
-x,1/2+y,1/2-z
loop_
_atom_site_type_symbol
_atom_site_label
_atom_site_fract_x
_atom_site_fract_y
_atom_site_fract_z
Si Si1 0.911745 0.964515 0.145104
Si Si2 0.518152 0.051060 0.144892
Si Si3 0.818650 0.423934 0.650978
Si Si4 0.385683 0.053064 0.643931
Si Si5 0.717002 0.065615 0.405609
O O1 0.898337 0.759068 0.134600
O O2 0.809883 0.044734 0.118526
O O3 0.014353 0.019307 0.105749
O O4 0.920460 0.000000 0.250000
O O5 0.500000 0.250000 0.144324
O O6 0.533964 0.000000 0.250000
O O7 0.422803 0.955554 0.109124
O O8 0.614620 0.019489 0.089850
O O9 0.827547 0.500000 0.750000
O O10 0.719813 0.493032 0.608559
O O11 0.800984 0.222259 0.661177
O O12 0.381811 0.000000 0.750000
O O13 0.750000 0.144116 0.500000
#
# Coordination Sequence:
#
# PCOD9336532 Si02
#       5
#     8   8   8   8   8
#     4   9  17  31  54  80 113 157 199 245 302 368
#     4  11  22  40  69  94 124 166 225 279 316 376
#     4   9  18  37  62  91 121 159 218 264 312 374
#     4   8  15  29  51  82 115 137 190 251 297 360
#     4  11  23  39  59  93 135 168 208 264 335 392
#
# _framework density 24.509225000000001
#
# number of rings (size 3 to 8) (size 9 to 14) (size 15 to 20)
#    0.000    2.400    0.000    3.600    0.000    4.800 
#   14.400    1.000    8.800    0.000    0.000    0.000 
#    0.000    0.000    0.000    0.000    0.000    0.000 
#
# Total GULP energy -111480.979569 kJ/mol
# GULP energy per Si atom -5574.048978 kJ/mol
# Density = 2.445344 g / cm^3
# Si number density = 24.509225 Si / 1000 Ang^3
#
#
#
# Elastic Constant Matrix: (Units=GPa)
#
#
# Indices 1 2 3 4 5 6 
#
# 1 327.4175 19.5597 33.1995 0.0000 0.0000 0.0000
# 2 19.5597 40.0188 -2.5604 0.0000 0.0000 0.0000
# 3 33.1995 -2.5604 46.2845 0.0000 0.0000 0.0000
# 4 0.0000 0.0000 0.0000 3.3524 0.0000 0.0000
# 5 0.0000 0.0000 0.0000 0.0000 44.8401 0.0000
# 6 0.0000 0.0000 0.0000 0.0000 0.0000 67.9870
#
#
#
# Elastic Compliance Matrix: (Units=1/GPa)
#
#
# Indices 1 2 3 4 5 6 
#
# 1 0.003423 -0.001837 -0.002557 0.000000 0.000000 0.000000
# 2 -0.001837 0.026063 0.002759 0.000000 0.000000 0.000000
# 3 -0.002557 0.002759 0.023592 0.000000 0.000000 0.000000
# 4 0.000000 0.000000 0.000000 0.298293 0.000000 0.000000
# 5 0.000000 0.000000 0.000000 0.000000 0.022301 0.000000
# 6 0.000000 0.000000 0.000000 0.000000 0.000000 0.014709
#
#
# Mechanical properties :
#
#
# Convention : Reuss Voigt Hill
#
# Bulk Modulus (GPa) = 20.07671 57.12427 38.60049
# Shear Modulus (GPa) = 12.24731 47.47070 29.85901
#
# Velocity S-wave (km/s) = 2.23783 4.40574 3.49417
# Velocity P-wave (km/s) = 3.85829 7.01702 5.66238
#
# Compressibility (1/GPa) = 0.04980896
#
# Stress axis : x y z
#
# Youngs Moduli (GPa) = 292.12343 38.36927 42.38670
#
# Poissons Ratio (x) = 0.07047 0.10838
# Poissons Ratio (y) = 0.53656 -0.11696
# Poissons Ratio (z) = 0.74697 -0.10587
#
# Static dielectric constant tensor:
#      x y z
#    x 2.128570 0.000000 0.000000 
#    y 0.000000 1.923780 0.000000 
#    z 0.000000 0.000000 1.959060 
# 
# From -- ./inp_files/30597.got.cif
#   From: 2010.05.17/outbox.cif.g08.bks.cpg/sg24_16_cif.got.tgz:30597.got - 2010.06.04 00:33:39.
