data_PCOD9336703
_publ_section_title
;
Structure prediction by ZEFSAII (Michael W. Deem and Ramdas Pophale) SiO2 
 PCOD9336703
Probable space group: I 21 21 21
;
_chemical_formula_sum "Si O2"
_cell_formula_units_Z 28
_cell_length_a 5.798642
_cell_length_b 30.721692
_cell_length_c 7.648071
_cell_angle_alpha 90.000000
_cell_angle_beta 90.000000
_cell_angle_gamma 90.000000
_cell_volume 1362.458676
_symmetry_space_group_name_H-M "I 21 21 21"
_symmetry_group_IT_number 24
_symmetry_cell_setting 'orthorhombic'
loop_
_space_group_symop_operation_xyz
x,y,z
-x,1/2-y,z
x,-y,1/2-z
1/2-x,y,-z
1/2+x,1/2+y,1/2+z
1/2-x,-y,1/2+z
1/2+x,1/2-y,-z
-x,1/2+y,1/2-z
loop_
_atom_site_type_symbol
_atom_site_label
_atom_site_fract_x
_atom_site_fract_y
_atom_site_fract_z
Si Si1 0.250000 0.175548 0.500000
Si Si2 0.250000 0.293231 0.000000
Si Si3 0.505433 0.034911 0.902829
Si Si4 0.500000 0.250000 0.304120
Si Si5 0.931147 0.631820 0.346672
O O1 0.440358 0.208627 0.421769
O O2 0.333629 0.146335 0.660218
O O3 0.304527 0.262970 0.165420
O O4 0.066945 0.326998 0.077189
O O5 0.546497 0.084455 0.833143
O O6 0.483347 0.000000 0.750000
O O7 0.250000 0.033268 0.000000
O O8 0.750000 0.024578 0.000000
O O9 0.750000 0.624740 0.500000
#
# Coordination Sequence:
#
# PCOD9336703 Si02
#       5
#     4   4   8   4   8
#     4  12  24  42  66 104 130 184 242 290 342 424
#     4  12  22  46  66  92 140 188 218 302 354 412
#     4  11  25  48  76 109 145 186 233 292 362 432
#     4  12  24  40  68  98 134 180 244 288 348 410
#     4  11  24  46  69  99 142 182 229 289 360 418
#
# _framework density 20.551081
#
# number of rings (size 3 to 8) (size 9 to 14) (size 15 to 20)
#    0.000    0.571    4.286    4.286    2.000    0.000 
#    5.143    0.000    0.000    0.000    0.000    0.000 
#    0.000    0.000    0.000    0.000    0.000    0.000 
#
# Total GULP energy -78018.769581 kJ/mol
# GULP energy per Si atom -5572.769256 kJ/mol
# Density = 2.050431 g / cm^3
# Si number density = 20.551081 Si / 1000 Ang^3
#
#
#
# Elastic Constant Matrix: (Units=GPa)
#
#
# Indices 1 2 3 4 5 6 
#
# 1 80.3294 28.4149 44.0691 -0.0001 0.0000 0.0000
# 2 28.4149 108.4603 52.9427 0.0001 0.0000 -0.0001
# 3 44.0691 52.9427 155.3224 -0.0003 0.0000 -0.0002
# 4 -0.0001 0.0001 -0.0003 55.7238 0.0000 0.0000
# 5 0.0000 0.0000 0.0000 0.0000 40.9704 0.0000
# 6 0.0000 -0.0001 -0.0002 0.0000 0.0000 51.1873
#
#
#
# Elastic Compliance Matrix: (Units=1/GPa)
#
#
# Indices 1 2 3 4 5 6 
#
# 1 0.015188 -0.002250 -0.003542 0.000000 0.000000 0.000000
# 2 -0.002250 0.011393 -0.003245 0.000000 0.000000 0.000000
# 3 -0.003542 -0.003245 0.008549 0.000000 0.000000 0.000000
# 4 0.000000 0.000000 0.000000 0.017946 0.000000 0.000000
# 5 0.000000 0.000000 0.000000 0.000000 0.024408 0.000000
# 6 0.000000 0.000000 0.000000 0.000000 0.000000 0.019536
#
#
# Mechanical properties :
#
#
# Convention : Reuss Voigt Hill
#
# Bulk Modulus (GPa) = 58.63037 66.10730 62.36883
# Shear Modulus (GPa) = 41.39738 44.15532 42.77635
#
# Velocity S-wave (km/s) = 4.49304 4.64029 4.56726
# Velocity P-wave (km/s) = 7.45034 7.80685 7.63067
#
# Compressibility (1/GPa) = 0.01705601
#
# Stress axis : x y z
#
# Youngs Moduli (GPa) = 65.84176 87.76955 116.96698
#
# Poissons Ratio (x) = 0.19747 0.41434
# Poissons Ratio (y) = 0.14814 0.37958
# Poissons Ratio (z) = 0.23323 0.28483
#
# Static dielectric constant tensor:
#      x y z
#    x 1.846430 0.000000 0.000000 
#    y 0.000000 1.772900 0.000000 
#    z 0.000000 0.000000 1.655790 
# 
# From -- ./inp_files/1105.got.cif
#   From: 2010.05.17/outbox.cif.g08.bks.cpg/sg24_1_cif.got.tgz:1105.got - 2010.06.04 00:33:39.
