data_PCOD9336583
_publ_section_title
;
Structure prediction by ZEFSAII (Michael W. Deem and Ramdas Pophale) SiO2 
 PCOD9336583
Probable space group: I 21 21 21
;
_chemical_formula_sum "Si O2"
_cell_formula_units_Z 36
_cell_length_a 20.717340
_cell_length_b 8.193077
_cell_length_c 10.058078
_cell_angle_alpha 90.000000
_cell_angle_beta 90.000000
_cell_angle_gamma 90.000000
_cell_volume 1707.245706
_symmetry_space_group_name_H-M "I 21 21 21"
_symmetry_group_IT_number 24
_symmetry_cell_setting 'orthorhombic'
loop_
_space_group_symop_operation_xyz
x,y,z
-x,1/2-y,z
x,-y,1/2-z
1/2-x,y,-z
1/2+x,1/2+y,1/2+z
1/2-x,-y,1/2+z
1/2+x,1/2-y,-z
-x,1/2+y,1/2-z
loop_
_atom_site_type_symbol
_atom_site_label
_atom_site_fract_x
_atom_site_fract_y
_atom_site_fract_z
Si Si1 0.250000 0.653329 0.500000
Si Si2 0.051207 0.618027 0.140772
Si Si3 0.364835 0.559681 0.107274
Si Si4 0.214307 0.130619 0.631343
Si Si5 0.832394 0.693704 0.275991
O O1 0.298635 0.540385 0.415996
O O2 0.197265 0.758356 0.417592
O O3 0.018993 0.500000 0.250000
O O4 0.106463 0.707378 0.227576
O O5 0.000000 0.750000 0.091883
O O6 0.086114 0.534713 0.015230
O O7 0.390569 0.500000 0.250000
O O8 0.346098 0.752552 0.106555
O O9 0.250000 0.062733 0.500000
O O10 0.272140 0.243845 0.684346
O O11 0.201933 0.000000 0.750000
O O12 0.842321 0.500000 0.250000
#
# Coordination Sequence:
#
# PCOD9336583 Si02
#       5
#     4   8   8   8   8
#     4  12  22  40  74 114 146 182 236 306 386 442
#     4  12  26  50  72  98 137 197 253 296 349 443
#     4  12  24  42  69 103 142 188 233 308 375 433
#     4  11  23  37  61 102 145 177 224 294 370 429
#     4  11  24  38  68 106 146 178 233 295 367 434
#
# _framework density 21.086594999999999
#
# number of rings (size 3 to 8) (size 9 to 14) (size 15 to 20)
#    0.000    0.444    7.778    0.667    6.222    0.000 
#    0.000    2.222    0.000    0.000    0.000    0.000 
#    0.000    0.000    0.000    0.000    0.000    0.000 
#
# Total GULP energy -100362.991124 kJ/mol
# GULP energy per Si atom -5575.721729 kJ/mol
# Density = 2.103860 g / cm^3
# Si number density = 21.086595 Si / 1000 Ang^3
#
#
#
# Elastic Constant Matrix: (Units=GPa)
#
#
# Indices 1 2 3 4 5 6 
#
# 1 46.3615 7.8693 18.0446 0.0000 0.0000 0.0000
# 2 7.8693 76.1390 55.9994 0.0000 0.0000 0.0000
# 3 18.0446 55.9994 146.5923 0.0000 0.0000 0.0000
# 4 0.0000 0.0000 0.0000 36.6011 0.0000 0.0000
# 5 0.0000 0.0000 0.0000 0.0000 18.8069 0.0000
# 6 0.0000 0.0000 0.0000 0.0000 0.0000 26.6933
#
#
#
# Elastic Compliance Matrix: (Units=1/GPa)
#
#
# Indices 1 2 3 4 5 6 
#
# 1 0.022664 -0.000404 -0.002635 0.000000 0.000000 0.000000
# 2 -0.000404 0.018273 -0.006931 0.000000 0.000000 0.000000
# 3 -0.002635 -0.006931 0.009794 0.000000 0.000000 0.000000
# 4 0.000000 0.000000 0.000000 0.027322 0.000000 0.000000
# 5 0.000000 0.000000 0.000000 0.000000 0.053172 0.000000
# 6 0.000000 0.000000 0.000000 0.000000 0.000000 0.037463
#
#
# Mechanical properties :
#
#
# Convention : Reuss Voigt Hill
#
# Bulk Modulus (GPa) = 32.47786 48.10215 40.29001
# Shear Modulus (GPa) = 25.13943 28.89890 27.01916
#
# Velocity S-wave (km/s) = 3.45657 3.70602 3.58347
# Velocity P-wave (km/s) = 5.60054 6.41670 6.02246
#
# Compressibility (1/GPa) = 0.03079020
#
# Stress axis : x y z
#
# Youngs Moduli (GPa) = 44.12295 54.72518 102.10714
#
# Poissons Ratio (x) = 0.02211 0.26909
# Poissons Ratio (y) = 0.01783 0.70768
# Poissons Ratio (z) = 0.11628 0.37929
#
# Static dielectric constant tensor:
#      x y z
#    x 1.708540 0.000000 0.000000 
#    y 0.000000 1.849100 0.000000 
#    z 0.000000 0.000000 1.980000 
# 
# From -- ./inp_files/9085.got.cif
#   From: 2010.05.17/outbox.cif.g08.bks.cpg/sg24_5_cif.got.tgz:9085.got - 2010.06.04 00:33:39.
