data_PCOD9336708
_publ_section_title
;
Structure prediction by ZEFSAII (Michael W. Deem and Ramdas Pophale) SiO2 
 PCOD9336708
Probable space group: I 21 21 21
;
_chemical_formula_sum "Si O2"
_cell_formula_units_Z 40
_cell_length_a 14.279349
_cell_length_b 9.388530
_cell_length_c 14.318101
_cell_angle_alpha 90.000000
_cell_angle_beta 90.000000
_cell_angle_gamma 90.000000
_cell_volume 1919.514637
_symmetry_space_group_name_H-M "I 21 21 21"
_symmetry_group_IT_number 24
_symmetry_cell_setting 'orthorhombic'
loop_
_space_group_symop_operation_xyz
x,y,z
-x,1/2-y,z
x,-y,1/2-z
1/2-x,y,-z
1/2+x,1/2+y,1/2+z
1/2-x,-y,1/2+z
1/2+x,1/2-y,-z
-x,1/2+y,1/2-z
loop_
_atom_site_type_symbol
_atom_site_label
_atom_site_fract_x
_atom_site_fract_y
_atom_site_fract_z
Si Si1 0.693365 0.998225 0.860624
Si Si2 0.000000 0.250000 0.018488
Si Si3 0.025491 0.011753 0.362383
Si Si4 0.704883 0.500000 0.250000
Si Si5 0.813539 0.725141 0.584927
Si Si6 0.699481 0.316480 0.593639
O O1 0.729748 0.847338 0.895662
O O2 0.694234 0.000000 0.750000
O O3 0.584115 0.986507 0.887292
O O4 0.750010 0.138113 0.888223
O O5 0.949891 0.364333 0.086751
O O6 0.912588 0.213500 0.951860
O O7 0.034409 0.000000 0.250000
O O8 0.089738 0.138495 0.402633
O O9 0.665464 0.611470 0.330659
O O10 0.763582 0.396274 0.315279
O O11 0.750000 0.662163 0.500000
O O12 0.750000 0.365022 0.500000
#
# Coordination Sequence:
#
# PCOD9336708 Si02
#       6
#     8   4   8   4   8   8
#     4  11  24  46  73 101 144 192 240 304 374 438
#     4  12  26  46  76 108 142 200 246 300 370 456
#     4  11  25  40  70 109 143 180 241 301 367 434
#     4  12  24  44  68 100 146 188 238 296 362 436
#     4  12  25  49  74 104 145 194 249 301 378 446
#     4  12  25  42  71 107 143 188 240 306 364 440
#
# _framework density 20.838602000000002
#
# number of rings (size 3 to 8) (size 9 to 14) (size 15 to 20)
#    0.000    0.400    5.000    4.200    5.600    0.000 
#    1.800    0.000    4.400    0.000    0.000    0.000 
#    0.000    0.000    0.000    0.000    0.000    0.000 
#
# Total GULP energy -111349.557193 kJ/mol
# GULP energy per Si atom -5567.477860 kJ/mol
# Density = 2.079117 g / cm^3
# Si number density = 20.838602 Si / 1000 Ang^3
#
#
#
# Elastic Constant Matrix: (Units=GPa)
#
#
# Indices 1 2 3 4 5 6 
#
# 1 101.7045 25.9038 46.1229 0.0000 0.0000 0.0000
# 2 25.9038 140.5031 38.5439 0.0000 0.0000 0.0000
# 3 46.1229 38.5439 107.4838 0.0000 0.0000 0.0000
# 4 0.0000 0.0000 0.0000 31.7692 0.0000 0.0000
# 5 0.0000 0.0000 0.0000 0.0000 24.8299 0.0000
# 6 0.0000 0.0000 0.0000 0.0000 0.0000 37.5782
#
#
#
# Elastic Compliance Matrix: (Units=1/GPa)
#
#
# Indices 1 2 3 4 5 6 
#
# 1 0.012312 -0.000910 -0.004957 0.000000 0.000000 0.000000
# 2 -0.000910 0.007961 -0.002464 0.000000 0.000000 0.000000
# 3 -0.004957 -0.002464 0.012315 0.000000 0.000000 0.000000
# 4 0.000000 0.000000 0.000000 0.031477 0.000000 0.000000
# 5 0.000000 0.000000 0.000000 0.000000 0.040274 0.000000
# 6 0.000000 0.000000 0.000000 0.000000 0.000000 0.026611
#
#
# Mechanical properties :
#
#
# Convention : Reuss Voigt Hill
#
# Bulk Modulus (GPa) = 62.79423 63.42585 63.11004
# Shear Modulus (GPa) = 32.69659 34.77686 33.73672
#
# Velocity S-wave (km/s) = 3.96541 4.08961 4.02799
# Velocity P-wave (km/s) = 7.15297 7.26654 7.20998
#
# Compressibility (1/GPa) = 0.01592503
#
# Stress axis : x y z
#
# Youngs Moduli (GPa) = 81.22031 125.61076 81.20472
#
# Poissons Ratio (x) = 0.11432 0.40253
# Poissons Ratio (y) = 0.07392 0.20012
# Poissons Ratio (z) = 0.40261 0.30955
#
# Static dielectric constant tensor:
#      x y z
#    x 1.821510 0.000000 0.000000 
#    y 0.000000 1.875620 0.000000 
#    z 0.000000 0.000000 1.781350 
# 
# From -- ./inp_files/26327.got.cif
#   From: 2010.05.17/outbox.cif.g08.bks.cpg/sg24_14_cif.got.tgz:26327.got - 2010.06.04 00:33:39.
