data_PCOD9336130
_publ_section_title
;
Structure prediction by ZEFSAII (Michael W. Deem and Ramdas Pophale) SiO2 
 PCOD9336130
Probable space group: I 21 21 21
;
_chemical_formula_sum "Si O2"
_cell_formula_units_Z 40
_cell_length_a 24.012522
_cell_length_b 8.096076
_cell_length_c 9.534603
_cell_angle_alpha 90.000000
_cell_angle_beta 90.000000
_cell_angle_gamma 90.000000
_cell_volume 1853.595502
_symmetry_space_group_name_H-M "I 21 21 21"
_symmetry_group_IT_number 24
_symmetry_cell_setting 'orthorhombic'
loop_
_space_group_symop_operation_xyz
x,y,z
-x,1/2-y,z
x,-y,1/2-z
1/2-x,y,-z
1/2+x,1/2+y,1/2+z
1/2-x,-y,1/2+z
1/2+x,1/2-y,-z
-x,1/2+y,1/2-z
loop_
_atom_site_type_symbol
_atom_site_label
_atom_site_fract_x
_atom_site_fract_y
_atom_site_fract_z
Si Si1 0.395215 0.683508 0.776944
Si Si2 0.437077 0.678732 0.089290
Si Si3 0.182462 0.000000 0.250000
Si Si4 0.250000 0.854784 0.500000
Si Si5 0.848353 0.323588 0.811308
Si Si6 0.940569 0.802901 0.518753
O O1 0.368897 0.500000 0.750000
O O2 0.352616 0.832628 0.762536
O O3 0.438058 0.686810 0.648063
O O4 0.424052 0.711775 0.925822
O O5 0.500000 0.750000 0.119334
O O6 0.385977 0.742685 0.186763
O O7 0.432211 0.480201 0.089367
O O8 0.216630 0.970328 0.392387
O O9 0.293700 0.757529 0.396588
O O10 0.832131 0.500000 0.750000
O O11 0.894586 0.327251 0.933160
O O12 0.000000 0.750000 0.567529
#
# Coordination Sequence:
#
# PCOD9336130 Si02
#       6
#     8   8   4   4   8   8
#     4  10  24  43  69 107 148 184 237 288 352 424
#     4  11  24  42  69 107 143 185 229 282 360 426
#     4  12  24  48  74 100 142 190 236 306 350 418
#     4  12  26  44  74 102 128 192 250 286 364 416
#     4  12  24  44  67  97 136 179 238 290 349 422
#     4  11  23  42  69 103 144 185 230 289 349 423
#
# _framework density 21.57968
#
# number of rings (size 3 to 8) (size 9 to 14) (size 15 to 20)
#    0.000    0.800    3.000    4.200    2.800    0.000 
#    0.000    3.000    0.000    0.000    0.000    0.000 
#    0.000    0.000    0.000    0.000    0.000    0.000 
#
# Total GULP energy -111417.185476 kJ/mol
# GULP energy per Si atom -5570.859274 kJ/mol
# Density = 2.153056 g / cm^3
# Si number density = 21.579680 Si / 1000 Ang^3
#
#
#
# Elastic Constant Matrix: (Units=GPa)
#
#
# Indices 1 2 3 4 5 6 
#
# 1 132.8439 50.0165 59.1051 0.0000 0.0000 0.0000
# 2 50.0165 67.5810 39.7461 0.0000 0.0000 0.0000
# 3 59.1051 39.7461 181.9060 0.0000 0.0000 0.0000
# 4 0.0000 0.0000 0.0000 -72.7563 0.0000 0.0000
# 5 0.0000 0.0000 0.0000 0.0000 125.5116 0.0000
# 6 0.0000 0.0000 0.0000 0.0000 0.0000 12.2247
#
#
#
# Elastic Compliance Matrix: (Units=1/GPa)
#
#
# Indices 1 2 3 4 5 6 
#
# 1 0.011078 -0.006979 -0.002075 0.000000 0.000000 0.000000
# 2 -0.006979 0.021375 -0.002403 0.000000 0.000000 0.000000
# 3 -0.002075 -0.002403 0.006696 0.000000 0.000000 0.000000
# 4 0.000000 0.000000 0.000000 -0.013745 0.000000 0.000000
# 5 0.000000 0.000000 0.000000 0.000000 0.007967 0.000000
# 6 0.000000 0.000000 0.000000 0.000000 0.000000 0.081802
#
#
# Mechanical properties :
#
#
# Convention : Reuss Voigt Hill
#
# Bulk Modulus (GPa) = 61.58694 75.56292 68.57493
# Shear Modulus (GPa) = 34.84319 28.56020 31.70169
#
# Velocity S-wave (km/s) = 4.02260 3.64191 3.83698
# Velocity P-wave (km/s) = 7.08353 7.26474 7.17471
#
# Compressibility (1/GPa) = 0.01623721
#
# Stress axis : x y z
#
# Youngs Moduli (GPa) = 90.26667 46.78301 149.33205
#
# Poissons Ratio (x) = 0.32649 0.30982
# Poissons Ratio (y) = 0.62996 0.35883
# Poissons Ratio (z) = 0.18728 0.11241
#
# Static dielectric constant tensor:
#      x y z
#    x 1.792550 0.000000 0.000000 
#    y 0.000000 1.749160 0.000000 
#    z 0.000000 0.000000 1.847500 
# 
# From -- ./inp_files/9320.got.cif
#   From: 2010.05.17/outbox.cif.g08.bks.cpg/sg24_5_cif.got.tgz:9320.got - 2010.06.04 00:33:39.
