data_PCOD9336492
_publ_section_title
;
Structure prediction by ZEFSAII (Michael W. Deem and Ramdas Pophale) SiO2 
 PCOD9336492
Probable space group: I 21 21 21
;
_chemical_formula_sum "Si O2"
_cell_formula_units_Z 40
_cell_length_a 13.055001
_cell_length_b 7.620647
_cell_length_c 17.731141
_cell_angle_alpha 90.000000
_cell_angle_beta 90.000000
_cell_angle_gamma 90.000000
_cell_volume 1764.027851
_symmetry_space_group_name_H-M "I 21 21 21"
_symmetry_group_IT_number 24
_symmetry_cell_setting 'orthorhombic'
loop_
_space_group_symop_operation_xyz
x,y,z
-x,1/2-y,z
x,-y,1/2-z
1/2-x,y,-z
1/2+x,1/2+y,1/2+z
1/2-x,-y,1/2+z
1/2+x,1/2-y,-z
-x,1/2+y,1/2-z
loop_
_atom_site_type_symbol
_atom_site_label
_atom_site_fract_x
_atom_site_fract_y
_atom_site_fract_z
Si Si1 0.750000 0.138513 0.500000
Si Si2 0.474045 0.540120 0.015512
Si Si3 0.949107 0.560203 0.830485
Si Si4 0.337860 0.500000 0.750000
Si Si5 0.222326 0.177682 0.335684
Si Si6 0.478896 0.947736 0.647559
O O1 0.648181 0.027824 0.485448
O O2 0.771098 0.245230 0.421947
O O3 0.500000 0.750000 0.007314
O O4 0.517192 0.465872 0.093162
O O5 0.520857 0.451793 0.942230
O O6 0.988097 0.500000 0.750000
O O7 0.826961 0.569816 0.829371
O O8 0.000000 0.750000 0.840631
O O9 0.272737 0.326002 0.731209
O O10 0.416647 0.471129 0.680020
O O11 0.121233 0.056133 0.328429
O O12 0.500000 0.750000 0.674934
#
# Coordination Sequence:
#
# PCOD9336492 Si02
#       6
#     4   8   8   4   8   8
#     4  12  20  44  76  94 134 188 254 290 368 432
#     4  11  21  44  68  99 133 191 241 295 355 439
#     4  11  26  44  70 101 147 191 242 300 361 445
#     4  12  26  42  72 104 144 184 248 304 366 450
#     4  12  24  44  74 106 142 197 241 303 378 440
#     4  12  25  42  68 106 147 185 238 309 371 440
#
# _framework density 22.675379
#
# number of rings (size 3 to 8) (size 9 to 14) (size 15 to 20)
#    0.000    0.400    8.000    1.800    5.600    0.800 
#    0.000    3.000    0.000    0.000    0.000    0.000 
#    0.000    0.000    0.000    0.000    0.000    0.000 
#
# Total GULP energy -111578.070365 kJ/mol
# GULP energy per Si atom -5578.903518 kJ/mol
# Density = 2.262377 g / cm^3
# Si number density = 22.675379 Si / 1000 Ang^3
#
#
#
# Elastic Constant Matrix: (Units=GPa)
#
#
# Indices 1 2 3 4 5 6 
#
# 1 110.9478 19.3475 21.9470 0.0000 0.0000 0.0000
# 2 19.3475 71.5382 21.7190 0.0000 0.0000 0.0000
# 3 21.9470 21.7190 181.3074 0.0000 0.0000 0.0000
# 4 0.0000 0.0000 0.0000 28.3368 0.0000 0.0000
# 5 0.0000 0.0000 0.0000 0.0000 32.0080 0.0000
# 6 0.0000 0.0000 0.0000 0.0000 0.0000 -1.3684
#
#
#
# Elastic Compliance Matrix: (Units=1/GPa)
#
#
# Indices 1 2 3 4 5 6 
#
# 1 0.009594 -0.002327 -0.000883 0.000000 0.000000 0.000000
# 2 -0.002327 0.015070 -0.001524 0.000000 0.000000 0.000000
# 3 -0.000883 -0.001524 0.005805 0.000000 0.000000 0.000000
# 4 0.000000 0.000000 0.000000 0.035290 0.000000 0.000000
# 5 0.000000 0.000000 0.000000 0.000000 0.031242 0.000000
# 6 0.000000 0.000000 0.000000 0.000000 0.000000 -0.730790
#
#
# Mechanical properties :
#
#
# Convention : Reuss Voigt Hill
#
# Bulk Modulus (GPa) = 47.61215 54.42450 51.01832
# Shear Modulus (GPa) = -8.09949 31.84727 11.87389
#
# Velocity S-wave (km/s) = -1.89201 3.75171 2.29082
# Velocity P-wave (km/s) = 4.03360 6.54376 5.43557
#
# Compressibility (1/GPa) = 0.02100304
#
# Stress axis : x y z
#
# Youngs Moduli (GPa) = 104.23658 66.35543 172.26972
#
# Poissons Ratio (x) = 0.15438 0.15204
# Poissons Ratio (y) = 0.24252 0.26248
# Poissons Ratio (z) = 0.09200 0.10110
#
# Static dielectric constant tensor:
#      x y z
#    x 1.908280 0.000000 0.000000 
#    y 0.000000 1.920500 0.000000 
#    z 0.000000 0.000000 1.940510 
# 
# From -- ./inp_files/13845.got.cif
#   From: 2010.05.17/outbox.cif.g08.bks.cpg/sg24_7_cif.got.tgz:13845.got - 2010.06.04 00:33:39.
