data_PCOD9336649
_publ_section_title
;
Structure prediction by ZEFSAII (Michael W. Deem and Ramdas Pophale) SiO2 
 PCOD9336649
Probable space group: I 21 21 21
;
_chemical_formula_sum "Si O2"
_cell_formula_units_Z 40
_cell_length_a 9.166275
_cell_length_b 13.814002
_cell_length_c 14.314094
_cell_angle_alpha 90.000000
_cell_angle_beta 90.000000
_cell_angle_gamma 90.000000
_cell_volume 1812.492683
_symmetry_space_group_name_H-M "I 21 21 21"
_symmetry_group_IT_number 24
_symmetry_cell_setting 'orthorhombic'
loop_
_space_group_symop_operation_xyz
x,y,z
-x,1/2-y,z
x,-y,1/2-z
1/2-x,y,-z
1/2+x,1/2+y,1/2+z
1/2-x,-y,1/2+z
1/2+x,1/2-y,-z
-x,1/2+y,1/2-z
loop_
_atom_site_type_symbol
_atom_site_label
_atom_site_fract_x
_atom_site_fract_y
_atom_site_fract_z
Si Si1 0.455882 0.857890 0.260909
Si Si2 0.373497 0.885575 0.764506
Si Si3 0.559062 0.992013 0.109123
Si Si4 0.750000 0.870549 0.500000
Si Si5 0.500000 0.250000 0.896843
Si Si6 0.920440 0.653163 0.028098
O O1 0.500000 0.750000 0.284791
O O2 0.296176 0.860114 0.217969
O O3 0.568280 0.909454 0.189037
O O4 0.448464 0.928777 0.349119
O O5 0.427130 0.827706 0.673754
O O6 0.447406 0.855586 0.861409
O O7 0.388761 0.000000 0.750000
O O8 0.494175 0.938945 0.020219
O O9 0.696515 0.056840 0.081711
O O10 0.620107 0.803967 0.539515
O O11 0.000000 0.750000 0.992651
O O12 0.750000 0.656076 0.000000
#
# Coordination Sequence:
#
# PCOD9336649 Si02
#       6
#     8   8   8   4   4   8
#     4  11  23  45  78 107 149 192 244 309 379 454
#     4  12  24  48  73 106 146 196 244 309 380 448
#     4  11  25  46  70 112 144 196 251 306 381 451
#     4  12  30  50  78 110 148 202 254 328 380 478
#     4  12  30  52  76 112 154 200 256 324 392 456
#     4  12  25  45  74 107 151 197 251 308 373 460
#
# _framework density 22.069054999999999
#
# number of rings (size 3 to 8) (size 9 to 14) (size 15 to 20)
#    0.000    0.400    5.000    3.000    5.600    0.000 
#   16.200    0.000    0.000    0.000    0.000    0.000 
#    0.000    0.000    0.000    0.000    0.000    0.000 
#
# Total GULP energy -111853.119877 kJ/mol
# GULP energy per Si atom -5592.655994 kJ/mol
# Density = 2.201883 g / cm^3
# Si number density = 22.069055 Si / 1000 Ang^3
#
#
#
# Elastic Constant Matrix: (Units=GPa)
#
#
# Indices 1 2 3 4 5 6 
#
# 1 71.6992 48.0780 25.8242 0.0000 0.0000 0.0000
# 2 48.0780 174.0443 49.1354 0.0000 0.0000 0.0000
# 3 25.8242 49.1354 98.5545 0.0000 0.0000 0.0000
# 4 0.0000 0.0000 0.0000 -0.7235 0.0000 0.0000
# 5 0.0000 0.0000 0.0000 0.0000 31.5996 0.0000
# 6 0.0000 0.0000 0.0000 0.0000 0.0000 43.9678
#
#
#
# Elastic Compliance Matrix: (Units=1/GPa)
#
#
# Indices 1 2 3 4 5 6 
#
# 1 0.017654 -0.004156 -0.002554 0.000000 0.000000 0.000000
# 2 -0.004156 0.007665 -0.002733 0.000000 0.000000 0.000000
# 3 -0.002554 -0.002733 0.012178 0.000000 0.000000 0.000000
# 4 0.000000 0.000000 0.000000 -1.382150 0.000000 0.000000
# 5 0.000000 0.000000 0.000000 0.000000 0.031646 0.000000
# 6 0.000000 0.000000 0.000000 0.000000 0.000000 0.022744
#
#
# Mechanical properties :
#
#
# Convention : Reuss Voigt Hill
#
# Bulk Modulus (GPa) = 53.72713 65.59702 59.66207
# Shear Modulus (GPa) = -3.95202 29.71948 12.88373
#
# Velocity S-wave (km/s) = -1.33964 3.67367 2.41880
# Velocity P-wave (km/s) = 4.69095 6.91249 5.90709
#
# Compressibility (1/GPa) = 0.01861257
#
# Stress axis : x y z
#
# Youngs Moduli (GPa) = 56.64581 130.46210 82.11360
#
# Poissons Ratio (x) = 0.54215 0.20971
# Poissons Ratio (y) = 0.23540 0.22438
# Poissons Ratio (z) = 0.14467 0.35650
#
# Static dielectric constant tensor:
#      x y z
#    x 1.799360 0.000000 0.000000 
#    y 0.000000 1.764480 0.000000 
#    z 0.000000 0.000000 1.864870 
# 
# From -- ./inp_files/12351.got.cif
#   From: 2010.05.17/outbox.cif.g08.bks.cpg/sg24_7_cif.got.tgz:12351.got - 2010.06.04 00:33:39.
