data_PCOD9336643
_publ_section_title
;
Structure prediction by ZEFSAII (Michael W. Deem and Ramdas Pophale) SiO2 
 PCOD9336643
Probable space group: I 21 21 21
;
_chemical_formula_sum "Si O2"
_cell_formula_units_Z 40
_cell_length_a 14.345647
_cell_length_b 8.111430
_cell_length_c 16.105406
_cell_angle_alpha 90.000000
_cell_angle_beta 90.000000
_cell_angle_gamma 90.000000
_cell_volume 1874.084816
_symmetry_space_group_name_H-M "I 21 21 21"
_symmetry_group_IT_number 24
_symmetry_cell_setting 'orthorhombic'
loop_
_space_group_symop_operation_xyz
x,y,z
-x,1/2-y,z
x,-y,1/2-z
1/2-x,y,-z
1/2+x,1/2+y,1/2+z
1/2-x,-y,1/2+z
1/2+x,1/2-y,-z
-x,1/2+y,1/2-z
loop_
_atom_site_type_symbol
_atom_site_label
_atom_site_fract_x
_atom_site_fract_y
_atom_site_fract_z
Si Si1 0.688746 0.617097 0.421848
Si Si2 0.229392 0.255892 0.406892
Si Si3 0.000000 0.250000 0.987245
Si Si4 0.277588 0.704886 0.726820
Si Si5 0.920908 0.995162 0.117151
Si Si6 0.080139 0.000000 0.250000
O O1 0.750000 0.681717 0.500000
O O2 0.732370 0.432618 0.408913
O O3 0.579735 0.640940 0.442090
O O4 0.706986 0.721022 0.339379
O O5 0.250000 0.322881 0.500000
O O6 0.268801 0.323092 0.317847
O O7 0.121069 0.315714 0.402997
O O8 0.057351 0.382115 0.042197
O O9 0.341741 0.578235 0.675171
O O10 0.353316 0.845185 0.746005
O O11 0.013866 0.991161 0.171012
#
# Coordination Sequence:
#
# PCOD9336643 Si02
#       6
#     8   8   4   8   8   4
#     4  11  23  45  72 103 148 190 244 297 370 445
#     4  11  26  43  66 105 143 190 233 309 366 430
#     4  12  26  44  76 110 140 204 248 292 368 458
#     4  12  22  43  73 101 147 192 235 304 372 445
#     4  12  24  40  71 109 148 182 244 310 378 432
#     4  12  20  38  72 116 140 180 246 310 368 438
#
# _framework density 21.343751000000001
#
# number of rings (size 3 to 8) (size 9 to 14) (size 15 to 20)
#    0.000    0.400    8.000    0.000    5.600    0.000 
#    0.000    0.000    8.800    0.000    0.000    0.000 
#    0.000    0.000    0.000    0.000    0.000    0.000 
#
# Total GULP energy -111353.648020 kJ/mol
# GULP energy per Si atom -5567.682401 kJ/mol
# Density = 2.129517 g / cm^3
# Si number density = 21.343751 Si / 1000 Ang^3
#
#
#
# Elastic Constant Matrix: (Units=GPa)
#
#
# Indices 1 2 3 4 5 6 
#
# 1 81.3306 49.8835 37.5368 0.0000 0.0000 0.0000
# 2 49.8835 90.3411 19.6104 0.0000 0.0000 0.0000
# 3 37.5368 19.6104 145.3157 0.0000 0.0000 0.0000
# 4 0.0000 0.0000 0.0000 18.2790 0.0000 0.0000
# 5 0.0000 0.0000 0.0000 0.0000 15.5774 0.0000
# 6 0.0000 0.0000 0.0000 0.0000 0.0000 -9.4064
#
#
#
# Elastic Compliance Matrix: (Units=1/GPa)
#
#
# Indices 1 2 3 4 5 6 
#
# 1 0.020521 -0.010488 -0.003886 0.000000 0.000000 0.000000
# 2 -0.010488 0.016763 0.000447 0.000000 0.000000 0.000000
# 3 -0.003886 0.000447 0.007825 0.000000 0.000000 0.000000
# 4 0.000000 0.000000 0.000000 0.054708 0.000000 0.000000
# 5 0.000000 0.000000 0.000000 0.000000 0.064195 0.000000
# 6 0.000000 0.000000 0.000000 0.000000 0.000000 -0.106310
#
#
# Mechanical properties :
#
#
# Convention : Reuss Voigt Hill
#
# Bulk Modulus (GPa) = 57.94887 59.00541 58.47714
# Shear Modulus (GPa) = 54.75995 18.88711 36.82353
#
# Velocity S-wave (km/s) = 5.07069 2.97796 4.15813
# Velocity P-wave (km/s) = 7.84167 6.28726 7.10709
#
# Compressibility (1/GPa) = 0.01725659
#
# Stress axis : x y z
#
# Youngs Moduli (GPa) = 48.72942 59.65449 127.79626
#
# Poissons Ratio (x) = 0.62565 0.49657
# Poissons Ratio (y) = 0.51107 -0.05712
# Poissons Ratio (z) = 0.18934 -0.02666
#
# Static dielectric constant tensor:
#      x y z
#    x 1.720400 0.000000 0.000000 
#    y 0.000000 1.916980 0.000000 
#    z 0.000000 0.000000 1.880310 
# 
# From -- ./inp_files/10788.got.cif
#   From: 2010.05.17/outbox.cif.g08.bks.cpg/sg24_6_cif.got.tgz:10788.got - 2010.06.04 00:33:39.
