data_PCOD9336471
_publ_section_title
;
Structure prediction by ZEFSAII (Michael W. Deem and Ramdas Pophale) SiO2 
 PCOD9336471
Probable space group: I 21 21 21
;
_chemical_formula_sum "Si O2"
_cell_formula_units_Z 32
_cell_length_a 7.444611
_cell_length_b 13.028067
_cell_length_c 12.481826
_cell_angle_alpha 90.000000
_cell_angle_beta 90.000000
_cell_angle_gamma 90.000000
_cell_volume 1210.598460
_symmetry_space_group_name_H-M "I 21 21 21"
_symmetry_group_IT_number 24
_symmetry_cell_setting 'orthorhombic'
loop_
_space_group_symop_operation_xyz
x,y,z
-x,1/2-y,z
x,-y,1/2-z
1/2-x,y,-z
1/2+x,1/2+y,1/2+z
1/2-x,-y,1/2+z
1/2+x,1/2-y,-z
-x,1/2+y,1/2-z
loop_
_atom_site_type_symbol
_atom_site_label
_atom_site_fract_x
_atom_site_fract_y
_atom_site_fract_z
Si Si1 0.250000 0.886878 0.000000
Si Si2 0.750000 0.730769 0.500000
Si Si3 0.323291 0.607005 0.338271
Si Si4 0.599905 0.124015 0.401834
Si Si5 0.905580 0.553810 0.355205
O O1 0.100665 0.832922 0.928765
O O2 0.381969 0.960058 0.935133
O O3 0.636030 0.813789 0.432198
O O4 0.819974 0.654665 0.407114
O O5 0.415962 0.500261 0.374144
O O6 0.351697 0.654241 0.220519
O O7 0.111915 0.580305 0.337326
O O8 0.750000 0.134744 0.500000
O O9 0.824195 0.500000 0.250000
#
# Coordination Sequence:
#
# PCOD9336471 Si02
#       5
#     4   4   8   8   8
#     4  11  22  38  66 106 139 200 263 306 374 494
#     4  11  24  40  76 118 155 200 275 326 384 468
#     4  11  21  42  68 109 157 207 254 336 394 467
#     4  11  21  40  71 101 154 207 264 314 414 466
#     4  11  22  42  69 106 155 202 254 317 401 469
#
# _framework density 26.433205000000001
#
# number of rings (size 3 to 8) (size 9 to 14) (size 15 to 20)
#    0.000    1.000    6.250    0.750    3.500    2.000 
#    0.000    0.000    5.500    0.000    0.000    0.000 
#    0.000    0.000    0.000    0.000    0.000    0.000 
#
# Total GULP energy -89341.308430 kJ/mol
# GULP energy per Si atom -5583.831777 kJ/mol
# Density = 2.637304 g / cm^3
# Si number density = 26.433205 Si / 1000 Ang^3
#
#
#
# Elastic Constant Matrix: (Units=GPa)
#
#
# Indices 1 2 3 4 5 6 
#
# 1 131.6917 16.3331 37.0172 0.0000 0.0000 0.0000
# 2 16.3331 78.8451 34.5372 0.0000 0.0000 0.0000
# 3 37.0172 34.5372 201.1082 0.0000 0.0000 0.0000
# 4 0.0000 0.0000 0.0000 180.4246 0.0000 0.0000
# 5 0.0000 0.0000 0.0000 0.0000 43.3112 0.0000
# 6 0.0000 0.0000 0.0000 0.0000 0.0000 71.2709
#
#
#
# Elastic Compliance Matrix: (Units=1/GPa)
#
#
# Indices 1 2 3 4 5 6 
#
# 1 0.008096 -0.001108 -0.001300 0.000000 0.000000 0.000000
# 2 -0.001108 0.013866 -0.002177 0.000000 0.000000 0.000000
# 3 -0.001300 -0.002177 0.005586 0.000000 0.000000 0.000000
# 4 0.000000 0.000000 0.000000 0.005542 0.000000 0.000000
# 5 0.000000 0.000000 0.000000 0.000000 0.023089 0.000000
# 6 0.000000 0.000000 0.000000 0.000000 0.000000 0.014031
#
#
# Mechanical properties :
#
#
# Convention : Reuss Voigt Hill
#
# Bulk Modulus (GPa) = 54.41293 65.26889 59.84091
# Shear Modulus (GPa) = 58.47481 80.58515 69.52998
#
# Velocity S-wave (km/s) = 4.70848 5.52743 5.13431
# Velocity P-wave (km/s) = 7.08445 8.09211 7.60499
#
# Compressibility (1/GPa) = 0.01837799
#
# Stress axis : x y z
#
# Youngs Moduli (GPa) = 123.51316 72.11695 179.02929
#
# Poissons Ratio (x) = 0.07989 0.23274
# Poissons Ratio (y) = 0.13682 0.38982
# Poissons Ratio (z) = 0.16057 0.15703
#
# Static dielectric constant tensor:
#      x y z
#    x 1.887340 0.000000 0.000000 
#    y 0.000000 2.166550 0.000000 
#    z 0.000000 0.000000 1.935580 
# 
# From -- ./inp_files/18193.got.cif
#   From: 2010.05.17/outbox.cif.g08.bks.cpg/sg24_10_cif.got.tgz:18193.got - 2010.06.04 00:33:39.
