data_PCOD9336174
_publ_section_title
;
Structure prediction by ZEFSAII (Michael W. Deem and Ramdas Pophale) SiO2 
 PCOD9336174
Probable space group: I 21 21 21
;
_chemical_formula_sum "Si O2"
_cell_formula_units_Z 48
_cell_length_a 14.594879
_cell_length_b 5.293659
_cell_length_c 25.917806
_cell_angle_alpha 90.000000
_cell_angle_beta 90.000000
_cell_angle_gamma 90.000000
_cell_volume 2002.417793
_symmetry_space_group_name_H-M "I 21 21 21"
_symmetry_group_IT_number 24
_symmetry_cell_setting 'orthorhombic'
loop_
_space_group_symop_operation_xyz
x,y,z
-x,1/2-y,z
x,-y,1/2-z
1/2-x,y,-z
1/2+x,1/2+y,1/2+z
1/2-x,-y,1/2+z
1/2+x,1/2-y,-z
-x,1/2+y,1/2-z
loop_
_atom_site_type_symbol
_atom_site_label
_atom_site_fract_x
_atom_site_fract_y
_atom_site_fract_z
Si Si1 0.167713 0.828489 0.209307
Si Si2 0.121681 0.482457 0.633808
Si Si3 0.500000 0.750000 0.595047
Si Si4 0.000000 0.250000 0.343134
Si Si5 0.840883 0.275417 0.021157
Si Si6 0.234903 0.985270 0.610238
Si Si7 0.500000 0.250000 0.060308
Si Si8 0.830802 0.000000 0.750000
O O1 0.089074 0.649393 0.187787
O O2 0.203529 0.980342 0.160532
O O3 0.257031 0.719778 0.237778
O O4 0.116478 0.000000 0.250000
O O5 0.165950 0.218884 0.617114
O O6 0.112679 0.510751 0.696307
O O7 0.033068 0.534074 0.599390
O O8 0.189119 0.711509 0.617540
O O9 0.526696 0.497018 0.624689
O O10 0.412170 0.657294 0.561553
O O11 0.790371 0.488460 0.056290
O O12 0.750000 0.132916 0.000000
O O13 0.913384 0.333774 0.975262
#
# Coordination Sequence:
#
# PCOD9336174 Si02
#       8
#     8   8   4   4   8   8   4   4
#     4  11  24  41  68 102 144 198 249 302 378 459
#     4  11  25  49  76 112 146 196 248 316 367 459
#     4  11  28  49  66 108 146 196 245 313 380 446
#     4  12  28  41  67  96 155 186 241 312 376 458
#     4  11  24  51  77 110 147 203 250 319 380 454
#     4  11  24  48  73 103 151 196 246 301 384 444
#     4  11  26  50  81 116 153 196 268 311 384 456
#     4  10  24  44  76 104 148 200 252 306 386 450
#
# _framework density 23.971022999999999
#
# number of rings (size 3 to 8) (size 9 to 14) (size 15 to 20)
#    0.000    1.000    5.000    0.000    8.167    0.667 
#    9.000    3.333    0.000    0.000    0.000    0.000 
#    0.000    0.000    0.000    0.000    0.000    0.000 
#
# Total GULP energy -133764.153269 kJ/mol
# GULP energy per Si atom -5573.506386 kJ/mol
# Density = 2.391646 g / cm^3
# Si number density = 23.971023 Si / 1000 Ang^3
#
#
#
# Elastic Constant Matrix: (Units=GPa)
#
#
# Indices 1 2 3 4 5 6 
#
# 1 135.0760 30.3464 58.6356 0.0000 0.0000 0.0000
# 2 30.3464 74.4553 29.8609 0.0000 0.0000 0.0000
# 3 58.6356 29.8609 174.4837 0.0000 0.0000 0.0000
# 4 0.0000 0.0000 0.0000 12.3992 0.0000 0.0000
# 5 0.0000 0.0000 0.0000 0.0000 2.1211 0.0000
# 6 0.0000 0.0000 0.0000 0.0000 0.0000 25.4081
#
#
#
# Elastic Compliance Matrix: (Units=1/GPa)
#
#
# Indices 1 2 3 4 5 6 
#
# 1 0.009139 -0.002677 -0.002613 0.000000 0.000000 0.000000
# 2 -0.002677 0.015205 -0.001703 0.000000 0.000000 0.000000
# 3 -0.002613 -0.001703 0.006901 0.000000 0.000000 0.000000
# 4 0.000000 0.000000 0.000000 0.080651 0.000000 0.000000
# 5 0.000000 0.000000 0.000000 0.000000 0.471454 0.000000
# 6 0.000000 0.000000 0.000000 0.000000 0.000000 0.039358
#
#
# Mechanical properties :
#
#
# Convention : Reuss Voigt Hill
#
# Bulk Modulus (GPa) = 57.93927 69.07785 63.50856
# Shear Modulus (GPa) = 7.78277 25.66381 16.72329
#
# Velocity S-wave (km/s) = 1.80383 3.27558 2.64416
# Velocity P-wave (km/s) = 5.34429 6.57158 5.98945
#
# Compressibility (1/GPa) = 0.01725945
#
# Stress axis : x y z
#
# Youngs Moduli (GPa) = 109.42198 65.76902 144.91316
#
# Poissons Ratio (x) = 0.17605 0.37866
# Poissons Ratio (y) = 0.29291 0.24672
# Poissons Ratio (z) = 0.28592 0.11198
#
# Static dielectric constant tensor:
#      x y z
#    x 1.987490 0.000000 0.000000 
#    y 0.000000 1.845590 0.000000 
#    z 0.000000 0.000000 1.986980 
# 
# From -- ./inp_files/37411.got.cif
#   From: 2010.05.17/outbox.cif.g08.bks.cpg/sg24_19_cif.got.tgz:37411.got - 2010.06.04 00:33:39.
