data_PCOD9336559
_publ_section_title
;
Structure prediction by ZEFSAII (Michael W. Deem and Ramdas Pophale) SiO2 
 PCOD9336559
Probable space group: I 21 21 21
;
_chemical_formula_sum "Si O2"
_cell_formula_units_Z 40
_cell_length_a 11.808907
_cell_length_b 9.006459
_cell_length_c 16.583730
_cell_angle_alpha 90.000000
_cell_angle_beta 90.000000
_cell_angle_gamma 90.000000
_cell_volume 1763.786430
_symmetry_space_group_name_H-M "I 21 21 21"
_symmetry_group_IT_number 24
_symmetry_cell_setting 'orthorhombic'
loop_
_space_group_symop_operation_xyz
x,y,z
-x,1/2-y,z
x,-y,1/2-z
1/2-x,y,-z
1/2+x,1/2+y,1/2+z
1/2-x,-y,1/2+z
1/2+x,1/2-y,-z
-x,1/2+y,1/2-z
loop_
_atom_site_type_symbol
_atom_site_label
_atom_site_fract_x
_atom_site_fract_y
_atom_site_fract_z
Si Si1 0.819528 0.665190 0.281518
Si Si2 0.953437 0.914342 0.942719
Si Si3 0.761869 0.064442 0.330019
Si Si4 0.027074 0.400053 0.097888
Si Si5 0.081683 0.118148 0.821263
O O1 0.803312 0.500000 0.250000
O O2 0.816268 0.781340 0.205705
O O3 0.929503 0.634511 0.336439
O O4 0.705955 0.686841 0.334388
O O5 0.827333 0.918862 0.902755
O O6 0.000000 0.750000 0.931299
O O7 0.031265 0.030502 0.895799
O O8 0.967954 0.964094 0.035366
O O9 0.701005 0.000000 0.250000
O O10 0.858939 0.943106 0.352378
O O11 0.000000 0.250000 0.046219
O O12 0.000000 0.250000 0.797085
O O13 0.082367 0.000000 0.750000
#
# Coordination Sequence:
#
# PCOD9336559 Si02
#       5
#     8   8   8   8   8
#     4  11  25  43  75 109 149 200 267 327 393 486
#     4  12  27  48  76 113 160 206 261 340 420 497
#     4  12  25  49  81 110 151 209 273 327 399 503
#     4  12  28  48  71 112 156 211 264 336 412 484
#     4  11  22  43  73 111 150 204 267 328 398 490
#
# _framework density 22.678481999999999
#
# number of rings (size 3 to 8) (size 9 to 14) (size 15 to 20)
#    0.000    0.400    2.000    7.800    2.800    0.800 
#    7.200    0.000    0.000    0.000    0.000    0.000 
#    0.000    0.000    0.000    0.000    0.000    0.000 
#
# Total GULP energy -111423.757354 kJ/mol
# GULP energy per Si atom -5571.187868 kJ/mol
# Density = 2.262687 g / cm^3
# Si number density = 22.678482 Si / 1000 Ang^3
#
#
#
# Elastic Constant Matrix: (Units=GPa)
#
#
# Indices 1 2 3 4 5 6 
#
# 1 206.0989 78.2121 63.5904 0.0000 0.0000 0.0000
# 2 78.2121 150.9909 37.6828 0.0000 0.0000 0.0000
# 3 63.5904 37.6828 73.9710 0.0000 0.0000 0.0000
# 4 0.0000 0.0000 0.0000 50.4783 0.0000 0.0000
# 5 0.0000 0.0000 0.0000 0.0000 10.7098 0.0000
# 6 0.0000 0.0000 0.0000 0.0000 0.0000 44.0630
#
#
#
# Elastic Compliance Matrix: (Units=1/GPa)
#
#
# Indices 1 2 3 4 5 6 
#
# 1 0.007380 -0.002566 -0.005037 0.000000 0.000000 0.000000
# 2 -0.002566 0.008479 -0.002114 0.000000 0.000000 0.000000
# 3 -0.005037 -0.002114 0.018926 0.000000 0.000000 0.000000
# 4 0.000000 0.000000 0.000000 0.019811 0.000000 0.000000
# 5 0.000000 0.000000 0.000000 0.000000 0.093373 0.000000
# 6 0.000000 0.000000 0.000000 0.000000 0.000000 0.022695
#
#
# Mechanical properties :
#
#
# Convention : Reuss Voigt Hill
#
# Bulk Modulus (GPa) = 65.13981 87.78127 76.46054
# Shear Modulus (GPa) = 25.61284 37.82190 31.71737
#
# Velocity S-wave (km/s) = 3.36429 4.08823 3.74380
# Velocity P-wave (km/s) = 6.62395 7.81510 7.24405
#
# Compressibility (1/GPa) = 0.01535160
#
# Stress axis : x y z
#
# Youngs Moduli (GPa) = 135.50412 117.93174 52.83688
#
# Poissons Ratio (x) = 0.30256 0.26615
# Poissons Ratio (y) = 0.34764 0.11170
# Poissons Ratio (z) = 0.68257 0.24932
#
# Static dielectric constant tensor:
#      x y z
#    x 2.044540 0.000000 0.000000 
#    y 0.000000 1.838580 0.000000 
#    z 0.000000 0.000000 1.904950 
# 
# From -- ./inp_files/13822.got.cif
#   From: 2010.05.17/outbox.cif.g08.bks.cpg/sg24_7_cif.got.tgz:13822.got - 2010.06.04 00:33:39.
