data_PCOD9336565
_publ_section_title
;
Structure prediction by ZEFSAII (Michael W. Deem and Ramdas Pophale) SiO2 
 PCOD9336565
Probable space group: I 21 21 21
;
_chemical_formula_sum "Si O2"
_cell_formula_units_Z 44
_cell_length_a 15.234736
_cell_length_b 17.966268
_cell_length_c 8.181902
_cell_angle_alpha 90.000000
_cell_angle_beta 90.000000
_cell_angle_gamma 90.000000
_cell_volume 2239.479441
_symmetry_space_group_name_H-M "I 21 21 21"
_symmetry_group_IT_number 24
_symmetry_cell_setting 'orthorhombic'
loop_
_space_group_symop_operation_xyz
x,y,z
-x,1/2-y,z
x,-y,1/2-z
1/2-x,y,-z
1/2+x,1/2+y,1/2+z
1/2-x,-y,1/2+z
1/2+x,1/2-y,-z
-x,1/2+y,1/2-z
loop_
_atom_site_type_symbol
_atom_site_label
_atom_site_fract_x
_atom_site_fract_y
_atom_site_fract_z
Si Si1 0.663815 0.281386 0.614743
Si Si2 0.842203 0.450136 0.407347
Si Si3 0.478377 0.469581 0.431287
Si Si4 0.933110 0.804906 0.843237
Si Si5 0.254806 0.651623 0.691968
Si Si6 0.142321 0.500000 0.250000
O O1 0.750000 0.285493 0.500000
O O2 0.638827 0.365695 0.652696
O O3 0.593641 0.243914 0.498280
O O4 0.686746 0.222977 0.756527
O O5 0.834739 0.500000 0.250000
O O6 0.750000 0.450175 0.500000
O O7 0.920727 0.482368 0.518267
O O8 0.455754 0.500000 0.250000
O O9 0.472793 0.381161 0.407558
O O10 0.417149 0.497582 0.583000
O O11 0.842924 0.829827 0.755733
O O12 0.000000 0.750000 0.746944
O O13 0.250000 0.643186 0.500000
O O14 0.297775 0.574751 0.757909
#
# Coordination Sequence:
#
# PCOD9336565 Si02
#       6
#     8   8   8   8   8   4
#     4   9  20  40  65  87 127 180 226 277 358 425
#     4  11  23  43  67  97 136 186 241 305 366 425
#     4  12  25  43  69 104 139 184 241 294 354 441
#     4  11  22  44  69  93 132 188 232 278 354 440
#     4  11  25  42  67 106 139 182 235 300 366 439
#     4  12  26  44  70 104 148 184 234 296 378 432
#
# _framework density 19.647423
#
# number of rings (size 3 to 8) (size 9 to 14) (size 15 to 20)
#    0.000    1.091    4.545    1.636    3.818    0.727 
#    3.273    0.909    0.000    0.000    0.000    0.000 
#    0.000    0.000    0.000    0.000    0.000    0.000 
#
# Total GULP energy -122713.589166 kJ/mol
# GULP energy per Si atom -5577.890417 kJ/mol
# Density = 1.960270 g / cm^3
# Si number density = 19.647423 Si / 1000 Ang^3
#
#
#
# Elastic Constant Matrix: (Units=GPa)
#
#
# Indices 1 2 3 4 5 6 
#
# 1 123.3758 34.3559 50.7178 0.0000 0.0000 0.0000
# 2 34.3559 133.2461 52.6121 0.0000 0.0000 0.0000
# 3 50.7178 52.6121 108.3044 0.0000 0.0000 0.0000
# 4 0.0000 0.0000 0.0000 59.5832 0.0000 0.0000
# 5 0.0000 0.0000 0.0000 0.0000 22.3035 0.0000
# 6 0.0000 0.0000 0.0000 0.0000 0.0000 35.5118
#
#
#
# Elastic Compliance Matrix: (Units=1/GPa)
#
#
# Indices 1 2 3 4 5 6 
#
# 1 0.010127 -0.000914 -0.004298 0.000000 0.000000 0.000000
# 2 -0.000914 0.009369 -0.004123 0.000000 0.000000 0.000000
# 3 -0.004298 -0.004123 0.013249 0.000000 0.000000 0.000000
# 4 0.000000 0.000000 0.000000 0.016783 0.000000 0.000000
# 5 0.000000 0.000000 0.000000 0.000000 0.044836 0.000000
# 6 0.000000 0.000000 0.000000 0.000000 0.000000 0.028160
#
#
# Mechanical properties :
#
#
# Convention : Reuss Voigt Hill
#
# Bulk Modulus (GPa) = 71.05427 71.14421 71.09924
# Shear Modulus (GPa) = 34.27358 38.62908 36.45133
#
# Velocity S-wave (km/s) = 4.18117 4.43890 4.31196
# Velocity P-wave (km/s) = 7.71704 7.90954 7.81388
#
# Compressibility (1/GPa) = 0.01407375
#
# Stress axis : x y z
#
# Youngs Moduli (GPa) = 98.74820 106.74020 75.47735
#
# Poissons Ratio (x) = 0.09755 0.32443
# Poissons Ratio (y) = 0.09024 0.31120
# Poissons Ratio (z) = 0.42445 0.44010
#
# Static dielectric constant tensor:
#      x y z
#    x 1.544130 0.000000 0.000000 
#    y 0.000000 1.794690 0.000000 
#    z 0.000000 0.000000 1.670200 
# 
# From -- ./inp_files/12684.got.cif
#   From: 2010.05.17/outbox.cif.g08.bks.cpg/sg24_7_cif.got.tgz:12684.got - 2010.06.04 00:33:39.
