data_PCOD9336243
_publ_section_title
;
Structure prediction by ZEFSAII (Michael W. Deem and Ramdas Pophale) SiO2 
 PCOD9336243
Probable space group: I 21 21 21
;
_chemical_formula_sum "Si O2"
_cell_formula_units_Z 64
_cell_length_a 11.355683
_cell_length_b 13.438913
_cell_length_c 15.869276
_cell_angle_alpha 90.000000
_cell_angle_beta 90.000000
_cell_angle_gamma 90.000000
_cell_volume 2421.779041
_symmetry_space_group_name_H-M "I 21 21 21"
_symmetry_group_IT_number 24
_symmetry_cell_setting 'orthorhombic'
loop_
_space_group_symop_operation_xyz
x,y,z
-x,1/2-y,z
x,-y,1/2-z
1/2-x,y,-z
1/2+x,1/2+y,1/2+z
1/2-x,-y,1/2+z
1/2+x,1/2-y,-z
-x,1/2+y,1/2-z
loop_
_atom_site_type_symbol
_atom_site_label
_atom_site_fract_x
_atom_site_fract_y
_atom_site_fract_z
Si Si1 0.744990 0.233520 0.099609
Si Si2 0.092549 0.608914 0.736506
Si Si3 0.050059 0.849867 0.906461
Si Si4 0.456637 0.384178 0.926609
Si Si5 0.816902 0.293952 0.373637
Si Si6 0.419923 0.915821 0.408701
Si Si7 0.602536 0.602088 0.727261
Si Si8 0.554036 0.902309 0.879813
O O1 0.667866 0.176861 0.171537
O O2 0.830363 0.309973 0.272763
O O3 0.878712 0.199822 0.116109
O O4 0.750000 0.197111 0.000000
O O5 0.150724 0.500000 0.750000
O O6 0.042727 0.646065 0.826506
O O7 0.973860 0.591858 0.683438
O O8 0.186841 0.823064 0.894974
O O9 0.066329 0.967133 0.930834
O O10 0.000000 0.750000 0.952042
O O11 0.571188 0.399369 0.868831
O O12 0.401695 0.494425 0.917036
O O13 0.497704 0.364599 0.020831
O O14 0.922053 0.365461 0.408915
O O15 0.851569 0.182578 0.395095
O O16 0.304272 0.846332 0.406406
O O17 0.669160 0.500000 0.750000
O O18 0.479620 0.595936 0.780561
#
# Coordination Sequence:
#
# PCOD9336243 Si02
#       8
#     8   8   8   8   8   8   8   8
#     4  12  26  48  76 107 156 211 260 336 406 485
#     4  10  24  49  74 110 155 203 270 328 392 480
#     4  11  25  47  78 109 154 210 263 332 397 492
#     4  11  23  45  75 103 157 199 258 328 408 486
#     4   9  19  43  69 105 151 188 257 324 400 462
#     4  11  26  49  68 113 154 206 268 319 411 493
#     4   8  17  37  65 105 142 189 249 317 391 470
#     4   8  19  41  71 109 149 189 256 330 400 476
#
# _framework density 26.426853000000001
#
# number of rings (size 3 to 8) (size 9 to 14) (size 15 to 20)
#    0.750    1.250    1.250    1.125    0.000    8.000 
#   11.250    0.000    0.000    0.000    0.000    0.000 
#    0.000    0.000    0.000    0.000    0.000    0.000 
#
# Total GULP energy -178438.958343 kJ/mol
# GULP energy per Si atom -5576.217448 kJ/mol
# Density = 2.636670 g / cm^3
# Si number density = 26.426853 Si / 1000 Ang^3
#
#
#
# Elastic Constant Matrix: (Units=GPa)
#
#
# Indices 1 2 3 4 5 6 
#
# 1 106.0730 58.4440 23.2105 0.0000 0.0000 0.0000
# 2 58.4440 219.2556 46.7230 0.0000 0.0000 0.0000
# 3 23.2105 46.7230 90.0646 0.0000 0.0000 0.0000
# 4 0.0000 0.0000 0.0000 30.2370 0.0000 0.0000
# 5 0.0000 0.0000 0.0000 0.0000 13.9633 0.0000
# 6 0.0000 0.0000 0.0000 0.0000 0.0000 22.6672
#
#
#
# Elastic Compliance Matrix: (Units=1/GPa)
#
#
# Indices 1 2 3 4 5 6 
#
# 1 0.011230 -0.002672 -0.001508 0.000000 0.000000 0.000000
# 2 -0.002672 0.005764 -0.002301 0.000000 0.000000 0.000000
# 3 -0.001508 -0.002301 0.012686 0.000000 0.000000 0.000000
# 4 0.000000 0.000000 0.000000 0.033072 0.000000 0.000000
# 5 0.000000 0.000000 0.000000 0.000000 0.071616 0.000000
# 6 0.000000 0.000000 0.000000 0.000000 0.000000 0.044117
#
#
# Mechanical properties :
#
#
# Convention : Reuss Voigt Hill
#
# Bulk Modulus (GPa) = 59.82152 74.68313 67.25233
# Shear Modulus (GPa) = 25.37840 32.50790 28.94315
#
# Velocity S-wave (km/s) = 3.10227 3.51110 3.31300
# Velocity P-wave (km/s) = 5.95969 6.69020 6.33548
#
# Compressibility (1/GPa) = 0.01671639
#
# Stress axis : x y z
#
# Youngs Moduli (GPa) = 89.05007 173.50424 78.82957
#
# Poissons Ratio (x) = 0.46361 0.11886
# Poissons Ratio (y) = 0.23794 0.18142
# Poissons Ratio (z) = 0.13427 0.39930
#
# Static dielectric constant tensor:
#      x y z
#    x 2.083900 0.000000 0.000000 
#    y 0.000000 2.200910 0.000000 
#    z 0.000000 0.000000 2.223350 
# 
# From -- ./inp_files/26014.got.cif
#   From: 2010.05.17/outbox.cif.g08.bks.cpg/sg24_14_cif.got.tgz:26014.got - 2010.06.04 00:33:39.
