data_PCOD9336034
_publ_section_title
;
Structure prediction by ZEFSAII (Michael W. Deem and Ramdas Pophale) SiO2 
 PCOD9336034
Probable space group: I 21 21 21
;
_chemical_formula_sum "Si O2"
_cell_formula_units_Z 60
_cell_length_a 25.817605
_cell_length_b 16.310686
_cell_length_c 6.667430
_cell_angle_alpha 90.000000
_cell_angle_beta 90.000000
_cell_angle_gamma 90.000000
_cell_volume 2807.673765
_symmetry_space_group_name_H-M "I 21 21 21"
_symmetry_group_IT_number 24
_symmetry_cell_setting 'orthorhombic'
loop_
_space_group_symop_operation_xyz
x,y,z
-x,1/2-y,z
x,-y,1/2-z
1/2-x,y,-z
1/2+x,1/2+y,1/2+z
1/2-x,-y,1/2+z
1/2+x,1/2-y,-z
-x,1/2+y,1/2-z
loop_
_atom_site_type_symbol
_atom_site_label
_atom_site_fract_x
_atom_site_fract_y
_atom_site_fract_z
Si Si1 0.354398 0.881534 0.910736
Si Si2 0.050525 0.912127 0.831436
Si Si3 0.379925 0.360354 0.827164
Si Si4 0.811280 0.789802 0.977027
Si Si5 0.916293 0.320172 0.058870
Si Si6 0.493139 0.595039 0.800878
Si Si7 0.750000 0.525941 0.000000
Si Si8 0.197729 0.417101 0.873989
O O1 0.370607 0.867937 0.679312
O O2 0.402308 0.925005 0.015472
O O3 0.344636 0.792866 0.011872
O O4 0.302786 0.929341 0.950627
O O5 0.071494 0.852837 0.660718
O O6 0.034780 0.000000 0.750000
O O7 0.003879 0.881599 0.968494
O O8 0.336499 0.341614 0.658434
O O9 0.398214 0.273765 0.925839
O O10 0.433066 0.395519 0.744182
O O11 0.351666 0.420195 0.981518
O O12 0.813343 0.842327 0.776093
O O13 0.750000 0.770465 0.000000
O O14 0.969136 0.344100 0.177368
O O15 0.507459 0.500000 0.750000
O O16 0.738748 0.500000 0.250000
O O17 0.204883 0.500000 0.750000
O O18 0.250000 0.401686 0.000000
#
# Coordination Sequence:
#
# PCOD9336034 Si02
#       8
#     8   8   8   8   8   8   4   8
#     4  10  24  41  70 104 142 191 237 300 366 444
#     4  11  22  42  73 100 137 188 235 291 368 447
#     4  11  26  46  72 103 143 184 241 303 362 443
#     4  11  22  47  69 100 141 186 238 290 370 441
#     4  10  23  46  71 102 140 186 239 295 371 442
#     4  11  24  43  71 104 141 180 232 300 360 434
#     4  12  28  44  64 112 156 198 254 320 370 446
#     4  12  27  44  72 103 141 192 241 303 373 444
#
# _framework density 21.370003000000001
#
# number of rings (size 3 to 8) (size 9 to 14) (size 15 to 20)
#    0.000    1.067    3.333    2.000    5.600    1.067 
#    1.200    4.000    0.000    0.000    0.000    0.000 
#    0.000    0.000    0.000    0.000    0.000    0.000 
#
# Total GULP energy -167282.293759 kJ/mol
# GULP energy per Si atom -5576.076459 kJ/mol
# Density = 2.132136 g / cm^3
# Si number density = 21.370003 Si / 1000 Ang^3
#
#
#
# Elastic Constant Matrix: (Units=GPa)
#
#
# Indices 1 2 3 4 5 6 
#
# 1 99.7337 14.7479 48.5749 0.0000 0.0000 0.0000
# 2 14.7479 40.7031 43.7459 0.0000 0.0000 0.0000
# 3 48.5749 43.7459 131.2565 0.0000 0.0000 0.0000
# 4 0.0000 0.0000 0.0000 30.1722 0.0000 0.0000
# 5 0.0000 0.0000 0.0000 0.0000 34.1859 0.0000
# 6 0.0000 0.0000 0.0000 0.0000 0.0000 28.7660
#
#
#
# Elastic Compliance Matrix: (Units=1/GPa)
#
#
# Indices 1 2 3 4 5 6 
#
# 1 0.012243 0.000676 -0.004756 0.000000 0.000000 0.000000
# 2 0.000676 0.038317 -0.013021 0.000000 0.000000 0.000000
# 3 -0.004756 -0.013021 0.013718 0.000000 0.000000 0.000000
# 4 0.000000 0.000000 0.000000 0.033143 0.000000 0.000000
# 5 0.000000 0.000000 0.000000 0.000000 0.029252 0.000000
# 6 0.000000 0.000000 0.000000 0.000000 0.000000 0.034763
#
#
# Mechanical properties :
#
#
# Convention : Reuss Voigt Hill
#
# Bulk Modulus (GPa) = 33.24834 53.98117 43.61476
# Shear Modulus (GPa) = 24.31137 29.59980 26.95558
#
# Velocity S-wave (km/s) = 3.37655 3.72574 3.55544
# Velocity P-wave (km/s) = 5.54920 6.61992 6.10807
#
# Compressibility (1/GPa) = 0.03007669
#
# Stress axis : x y z
#
# Youngs Moduli (GPa) = 81.67783 26.09779 72.89502
#
# Poissons Ratio (x) = -0.01763 0.34669
# Poissons Ratio (y) = -0.05518 0.94914
# Poissons Ratio (z) = 0.38847 0.33981
#
# Static dielectric constant tensor:
#      x y z
#    x 1.728690 0.000000 0.000000 
#    y 0.000000 1.790310 0.000000 
#    z 0.000000 0.000000 1.870470 
# 
# From -- ./inp_files/7282.got.cif
#   From: 2010.05.17/outbox.cif.g08.bks.cpg/sg24_4_cif.got.tgz:7282.got - 2010.06.04 00:33:39.
