data_PCOD9336964
_publ_section_title
;
Structure prediction by ZEFSAII (Michael W. Deem and Ramdas Pophale) SiO2 
 PCOD9336964
Probable space group: I 21 21 21
;
_chemical_formula_sum "Si O2"
_cell_formula_units_Z 20
_cell_length_a 14.405607
_cell_length_b 5.089365
_cell_length_c 11.889142
_cell_angle_alpha 90.000000
_cell_angle_beta 90.000000
_cell_angle_gamma 90.000000
_cell_volume 871.657107
_symmetry_space_group_name_H-M "I 21 21 21"
_symmetry_group_IT_number 24
_symmetry_cell_setting 'orthorhombic'
loop_
_space_group_symop_operation_xyz
x,y,z
-x,1/2-y,z
x,-y,1/2-z
1/2-x,y,-z
1/2+x,1/2+y,1/2+z
1/2-x,-y,1/2+z
1/2+x,1/2-y,-z
-x,1/2+y,1/2-z
loop_
_atom_site_type_symbol
_atom_site_label
_atom_site_fract_x
_atom_site_fract_y
_atom_site_fract_z
Si Si1 0.161360 0.955861 0.553237
Si Si2 0.174170 0.248582 0.175991
Si Si3 0.500000 0.250000 0.325768
O O1 0.250000 0.113158 0.500000
O O2 0.130224 0.774777 0.448559
O O3 0.215453 0.786709 0.647420
O O4 0.083820 0.141026 0.600003
O O5 0.155688 0.500000 0.250000
O O6 0.145310 0.000000 0.250000
O O7 0.472859 0.500000 0.250000
#
# Coordination Sequence:
#
# PCOD9336964 Si02
#       3
#     8   8   4
#     4   8  23  41  68 113 148 193 253 305 380 451
#     4   9  19  37  66 100 138 188 247 299 368 437
#     4  12  26  46  72 112 162 194 250 322 376 450
#
# _framework density 22.944803
#
# number of rings (size 3 to 8) (size 9 to 14) (size 15 to 20)
#    2.400    0.000    0.000    1.200    0.000   16.000 
#    0.000    0.000    0.000    7.200    0.000   14.000 
#    0.000    0.000    0.000    0.000    0.000    0.000 
#
# Total GULP energy -55773.110205 kJ/mol
# GULP energy per Si atom -5577.311020 kJ/mol
# Density = 2.289258 g / cm^3
# Si number density = 22.944803 Si / 1000 Ang^3
#
#
#
# Elastic Constant Matrix: (Units=GPa)
#
#
# Indices 1 2 3 4 5 6 
#
# 1 96.3820 40.8183 40.2327 0.0000 0.0000 0.0000
# 2 40.8183 172.2047 76.1424 0.0000 0.0000 0.0000
# 3 40.2327 76.1424 114.5371 0.0000 0.0000 0.0000
# 4 0.0000 0.0000 0.0000 15.6362 0.0000 0.0000
# 5 0.0000 0.0000 0.0000 0.0000 -2.1718 0.0000
# 6 0.0000 0.0000 0.0000 0.0000 0.0000 -91.9039
#
#
#
# Elastic Compliance Matrix: (Units=1/GPa)
#
#
# Indices 1 2 3 4 5 6 
#
# 1 0.012404 -0.001436 -0.003403 0.000000 0.000000 0.000000
# 2 -0.001436 0.008391 -0.005074 0.000000 0.000000 0.000000
# 3 -0.003403 -0.005074 0.013299 0.000000 0.000000 0.000000
# 4 0.000000 0.000000 0.000000 0.063954 0.000000 0.000000
# 5 0.000000 0.000000 0.000000 0.000000 -0.460445 0.000000
# 6 0.000000 0.000000 0.000000 0.000000 0.000000 -0.010881
#
#
# Mechanical properties :
#
#
# Convention : Reuss Voigt Hill
#
# Bulk Modulus (GPa) = 70.07959 77.50118 73.79038
# Shear Modulus (GPa) = -14.33906 -0.62586 -7.48246
#
# Velocity S-wave (km/s) = -2.50259 -0.52284 -1.80780
# Velocity P-wave (km/s) = 4.71788 5.78671 5.27942
#
# Compressibility (1/GPa) = 0.01426949
#
# Stress axis : x y z
#
# Youngs Moduli (GPa) = 80.62106 119.17889 75.19388
#
# Poissons Ratio (x) = 0.17109 0.25586
# Poissons Ratio (y) = 0.11574 0.38152
# Poissons Ratio (z) = 0.27432 0.60468
#
# Static dielectric constant tensor:
#      x y z
#    x 1.901740 0.000000 0.000000 
#    y 0.000000 1.824300 0.000000 
#    z 0.000000 0.000000 1.922660 
# 
# From -- ./inp_files/17226.got.cif
#   From: 2010.05.17/outbox.cif.g08.bks.cpg/sg24_9_cif.got.tgz:17226.got - 2010.06.04 00:33:39.
