data_PCOD9336561
_publ_section_title
;
Structure prediction by ZEFSAII (Michael W. Deem and Ramdas Pophale) SiO2 
 PCOD9336561
Probable space group: I 21 21 21
;
_chemical_formula_sum "Si O2"
_cell_formula_units_Z 32
_cell_length_a 11.496050
_cell_length_b 8.169130
_cell_length_c 14.578017
_cell_angle_alpha 90.000000
_cell_angle_beta 90.000000
_cell_angle_gamma 90.000000
_cell_volume 1369.061330
_symmetry_space_group_name_H-M "I 21 21 21"
_symmetry_group_IT_number 24
_symmetry_cell_setting 'orthorhombic'
loop_
_space_group_symop_operation_xyz
x,y,z
-x,1/2-y,z
x,-y,1/2-z
1/2-x,y,-z
1/2+x,1/2+y,1/2+z
1/2-x,-y,1/2+z
1/2+x,1/2-y,-z
-x,1/2+y,1/2-z
loop_
_atom_site_type_symbol
_atom_site_label
_atom_site_fract_x
_atom_site_fract_y
_atom_site_fract_z
Si Si1 0.604918 0.878387 0.163416
Si Si2 0.620159 0.831752 0.483590
Si Si3 0.974692 0.986955 0.142900
Si Si4 0.190813 0.810689 0.099140
O O1 0.500000 0.750000 0.147433
O O2 0.713315 0.753344 0.170609
O O3 0.589086 0.000000 0.250000
O O4 0.630474 0.003156 0.078793
O O5 0.500000 0.750000 0.444025
O O6 0.750000 0.758498 0.500000
O O7 0.582970 0.870393 0.586793
O O8 0.902470 0.834486 0.103321
O O9 0.111477 0.965568 0.123026
O O10 0.956643 0.000000 0.250000
O O11 0.250000 0.828842 0.000000
#
# Coordination Sequence:
#
# PCOD9336561 Si02
#       4
#     8   8   8   8
#     4  12  25  45  71 101 143 192 243 303 382 456
#     4  12  27  45  70 106 149 193 251 317 381 454
#     4  11  24  42  72 106 138 191 246 308 371 449
#     4  11  22  43  75  97 138 195 246 295 376 458
#
# _framework density 23.373678000000002
#
# number of rings (size 3 to 8) (size 9 to 14) (size 15 to 20)
#    0.000    0.500    5.000    3.000    3.500    4.000 
#    0.000    0.000    0.000    0.000    0.000    0.000 
#    0.000    0.000    0.000    0.000    0.000    0.000 
#
# Total GULP energy -89190.072863 kJ/mol
# GULP energy per Si atom -5574.379554 kJ/mol
# Density = 2.332048 g / cm^3
# Si number density = 23.373678 Si / 1000 Ang^3
#
#
#
# Elastic Constant Matrix: (Units=GPa)
#
#
# Indices 1 2 3 4 5 6 
#
# 1 179.9910 49.9280 6.3119 0.0000 0.0000 0.0000
# 2 49.9280 49.2981 15.4363 0.0000 0.0000 0.0000
# 3 6.3119 15.4363 136.5482 0.0000 0.0000 0.0000
# 4 0.0000 0.0000 0.0000 -17.1871 0.0000 0.0000
# 5 0.0000 0.0000 0.0000 0.0000 28.8102 0.0000
# 6 0.0000 0.0000 0.0000 0.0000 0.0000 31.5744
#
#
#
# Elastic Compliance Matrix: (Units=1/GPa)
#
#
# Indices 1 2 3 4 5 6 
#
# 1 0.007766 -0.008037 0.000550 0.000000 0.000000 0.000000
# 2 -0.008037 0.029347 -0.002946 0.000000 0.000000 0.000000
# 3 0.000550 -0.002946 0.007631 0.000000 0.000000 0.000000
# 4 0.000000 0.000000 0.000000 -0.058183 0.000000 0.000000
# 5 0.000000 0.000000 0.000000 0.000000 0.034710 0.000000
# 6 0.000000 0.000000 0.000000 0.000000 0.000000 0.031671
#
#
# Mechanical properties :
#
#
# Convention : Reuss Voigt Hill
#
# Bulk Modulus (GPa) = 41.88176 56.57662 49.22919
# Shear Modulus (GPa) = 61.14763 28.25022 44.69892
#
# Velocity S-wave (km/s) = 5.12032 3.48031 4.37780
# Velocity P-wave (km/s) = 7.27421 6.35672 6.83089
#
# Compressibility (1/GPa) = 0.02387674
#
# Stress axis : x y z
#
# Youngs Moduli (GPa) = 128.76536 34.07462 131.04335
#
# Poissons Ratio (x) = 0.27387 -0.07202
# Poissons Ratio (y) = 1.03494 0.38607
# Poissons Ratio (z) = -0.07077 0.10039
#
# Static dielectric constant tensor:
#      x y z
#    x 2.023790 0.000000 0.000000 
#    y 0.000000 1.994920 0.000000 
#    z 0.000000 0.000000 1.921920 
# 
# From -- ./inp_files/10251.got.cif
#   From: 2010.05.17/outbox.cif.g08.bks.cpg/sg24_6_cif.got.tgz:10251.got - 2010.06.04 00:33:39.
