data_PCOD9336012
_publ_section_title
;
Structure prediction by ZEFSAII (Michael W. Deem and Ramdas Pophale) SiO2 
 PCOD9336012
Probable space group: I 21 21 21
;
_chemical_formula_sum "Si O2"
_cell_formula_units_Z 32
_cell_length_a 7.247472
_cell_length_b 8.975494
_cell_length_c 24.551800
_cell_angle_alpha 90.000000
_cell_angle_beta 90.000000
_cell_angle_gamma 90.000000
_cell_volume 1597.085787
_symmetry_space_group_name_H-M "I 21 21 21"
_symmetry_group_IT_number 24
_symmetry_cell_setting 'orthorhombic'
loop_
_space_group_symop_operation_xyz
x,y,z
-x,1/2-y,z
x,-y,1/2-z
1/2-x,y,-z
1/2+x,1/2+y,1/2+z
1/2-x,-y,1/2+z
1/2+x,1/2-y,-z
-x,1/2+y,1/2-z
loop_
_atom_site_type_symbol
_atom_site_label
_atom_site_fract_x
_atom_site_fract_y
_atom_site_fract_z
Si Si1 0.814283 0.560197 0.938268
Si Si2 0.000000 0.750000 0.788262
Si Si3 0.546228 0.420708 0.859905
Si Si4 0.235347 0.000000 0.250000
Si Si5 0.299440 0.384471 0.390228
O O1 0.714185 0.437559 0.901891
O O2 0.752230 0.721684 0.914393
O O3 0.033543 0.555660 0.927762
O O4 0.750000 0.549270 0.000000
O O5 0.115819 0.646115 0.830099
O O6 0.865586 0.645409 0.753756
O O7 0.500000 0.250000 0.849753
O O8 0.611468 0.494926 0.803701
O O9 0.372908 0.508282 0.884897
#
# Coordination Sequence:
#
# PCOD9336012 Si02
#       5
#     8   4   8   4   8
#     4  10  23  46  73 101 127 179 234 282 346 414
#     4  10  24  44  68  94 134 180 228 288 326 416
#     4  12  28  42  66 104 141 180 224 286 351 416
#     4  12  26  44  70 100 136 186 236 284 352 412
#     4  10  23  45  69 100 133 173 230 291 331 413
#
# _framework density 20.036494999999999
#
# number of rings (size 3 to 8) (size 9 to 14) (size 15 to 20)
#    0.000    1.500    5.000    0.750   14.000    1.000 
#    4.500    0.000    0.000    0.000    0.000    0.000 
#    0.000    0.000    0.000    0.000    0.000    0.000 
#
# Total GULP energy -89448.859476 kJ/mol
# GULP energy per Si atom -5590.553717 kJ/mol
# Density = 1.999089 g / cm^3
# Si number density = 20.036495 Si / 1000 Ang^3
#
#
#
# Elastic Constant Matrix: (Units=GPa)
#
#
# Indices 1 2 3 4 5 6 
#
# 1 83.6707 39.9198 36.4496 0.0000 0.0000 0.0000
# 2 39.9198 50.9469 7.9617 0.0000 0.0000 0.0000
# 3 36.4496 7.9617 98.5165 0.0000 0.0000 0.0000
# 4 0.0000 0.0000 0.0000 14.7641 0.0000 0.0000
# 5 0.0000 0.0000 0.0000 0.0000 27.8117 0.0000
# 6 0.0000 0.0000 0.0000 0.0000 0.0000 36.0774
#
#
#
# Elastic Compliance Matrix: (Units=1/GPa)
#
#
# Indices 1 2 3 4 5 6 
#
# 1 0.023251 -0.017090 -0.007222 0.000000 0.000000 0.000000
# 2 -0.017090 0.032441 0.003701 0.000000 0.000000 0.000000
# 3 -0.007222 0.003701 0.012523 0.000000 0.000000 0.000000
# 4 0.000000 0.000000 0.000000 0.067732 0.000000 0.000000
# 5 0.000000 0.000000 0.000000 0.000000 0.035956 0.000000
# 6 0.000000 0.000000 0.000000 0.000000 0.000000 0.027718
#
#
# Mechanical properties :
#
#
# Convention : Reuss Voigt Hill
#
# Bulk Modulus (GPa) = 37.04391 44.64404 40.84398
# Shear Modulus (GPa) = 20.01273 25.65084 22.83179
#
# Velocity S-wave (km/s) = 3.16383 3.58188 3.37933
# Velocity P-wave (km/s) = 5.64578 6.27983 5.97122
#
# Compressibility (1/GPa) = 0.02699499
#
# Stress axis : x y z
#
# Youngs Moduli (GPa) = 43.00810 30.82514 79.85107
#
# Poissons Ratio (x) = 0.52681 0.57665
# Poissons Ratio (y) = 0.73502 -0.29556
# Poissons Ratio (z) = 0.31058 -0.11410
#
# Static dielectric constant tensor:
#      x y z
#    x 1.718100 0.000000 0.000000 
#    y 0.000000 1.715020 0.000000 
#    z 0.000000 0.000000 1.686040 
# 
# From -- ./inp_files/34979.got.cif
#   From: 2010.05.17/outbox.cif.g08.bks.cpg/sg24_18_cif.got.tgz:34979.got - 2010.06.04 00:33:39.
