data_PCOD9336959
_publ_section_title
;
Structure prediction by ZEFSAII (Michael W. Deem and Ramdas Pophale) SiO2 
 PCOD9336959
Probable space group: I 21 21 21
;
_chemical_formula_sum "Si O2"
_cell_formula_units_Z 36
_cell_length_a 18.456030
_cell_length_b 4.909569
_cell_length_c 14.993680
_cell_angle_alpha 90.000000
_cell_angle_beta 90.000000
_cell_angle_gamma 90.000000
_cell_volume 1358.594629
_symmetry_space_group_name_H-M "I 21 21 21"
_symmetry_group_IT_number 24
_symmetry_cell_setting 'orthorhombic'
loop_
_space_group_symop_operation_xyz
x,y,z
-x,1/2-y,z
x,-y,1/2-z
1/2-x,y,-z
1/2+x,1/2+y,1/2+z
1/2-x,-y,1/2+z
1/2+x,1/2-y,-z
-x,1/2+y,1/2-z
loop_
_atom_site_type_symbol
_atom_site_label
_atom_site_fract_x
_atom_site_fract_y
_atom_site_fract_z
Si Si1 0.781879 0.222846 0.419967
Si Si2 0.071395 0.074446 0.467529
Si Si3 0.050869 0.500000 0.750000
Si Si4 0.146014 0.659675 0.605511
Si Si5 0.500000 0.750000 0.688608
Si Si6 0.228995 0.000000 0.750000
O O1 0.750000 0.415852 0.500000
O O2 0.634181 0.206315 0.555307
O O3 0.777044 0.333483 0.319909
O O4 0.719726 0.993120 0.422975
O O5 0.000000 0.250000 0.489841
O O6 0.101596 0.856590 0.539440
O O7 0.055754 0.897998 0.378458
O O8 0.095217 0.447039 0.658552
O O9 0.000000 0.750000 0.728511
O O10 0.176084 0.833047 0.687611
O O11 0.471793 0.500000 0.750000
#
# Coordination Sequence:
#
# PCOD9336959 Si02
#       6
#     8   8   4   8   4   4
#     4  12  29  52  88 128 180 239 316 384 476 576
#     4  12  32  60  94 135 194 251 325 408 489 577
#     4  12  29  52  90 131 188 238 300 378 477 574
#     4  12  29  55  85 135 179 249 311 384 480 577
#     4  12  30  62  92 134 188 248 326 398 498 572
#     4  12  25  54  86 121 182 238 306 384 471 574
#
# _framework density 26.497973000000002
#
# number of rings (size 3 to 8) (size 9 to 14) (size 15 to 20)
#    0.000    0.000    5.556    0.667    9.333    2.667 
#    6.000    0.000    0.000    0.000    0.000    0.000 
#    0.000    0.000    0.000    0.000    0.000    0.000 
#
# Total GULP energy -100709.946820 kJ/mol
# GULP energy per Si atom -5594.997046 kJ/mol
# Density = 2.643766 g / cm^3
# Si number density = 26.497973 Si / 1000 Ang^3
#
#
#
# Elastic Constant Matrix: (Units=GPa)
#
#
# Indices 1 2 3 4 5 6 
#
# 1 197.6306 75.5853 98.2167 0.0000 0.0000 0.0000
# 2 75.5853 133.7325 67.3017 0.0000 0.0000 0.0000
# 3 98.2167 67.3017 197.0576 0.0000 0.0000 0.0000
# 4 0.0000 0.0000 0.0000 43.9057 0.0000 0.0000
# 5 0.0000 0.0000 0.0000 0.0000 60.6616 0.0000
# 6 0.0000 0.0000 0.0000 0.0000 0.0000 37.4498
#
#
#
# Elastic Compliance Matrix: (Units=1/GPa)
#
#
# Indices 1 2 3 4 5 6 
#
# 1 0.007535 -0.002860 -0.002779 0.000000 0.000000 0.000000
# 2 -0.002860 0.010115 -0.002029 0.000000 0.000000 0.000000
# 3 -0.002779 -0.002029 0.007153 0.000000 0.000000 0.000000
# 4 0.000000 0.000000 0.000000 0.022776 0.000000 0.000000
# 5 0.000000 0.000000 0.000000 0.000000 0.016485 0.000000
# 6 0.000000 0.000000 0.000000 0.000000 0.000000 0.026702
#
#
# Mechanical properties :
#
#
# Convention : Reuss Voigt Hill
#
# Bulk Modulus (GPa) = 105.63286 112.29201 108.96244
# Shear Modulus (GPa) = 45.76338 47.55788 46.66063
#
# Velocity S-wave (km/s) = 4.16029 4.24107 4.20088
# Velocity P-wave (km/s) = 7.93904 8.15180 8.04612
#
# Compressibility (1/GPa) = 0.00946675
#
# Stress axis : x y z
#
# Youngs Moduli (GPa) = 132.71844 98.85901 139.81020
#
# Poissons Ratio (x) = 0.28277 0.38847
# Poissons Ratio (y) = 0.37961 0.28369
# Poissons Ratio (z) = 0.36877 0.20060
#
# Static dielectric constant tensor:
#      x y z
#    x 2.230270 0.000000 0.000000 
#    y 0.000000 2.266280 0.000000 
#    z 0.000000 0.000000 2.475420 
# 
# From -- ./inp_files/27375.got.cif
#   From: 2010.05.17/outbox.cif.g08.bks.cpg/sg24_14_cif.got.tgz:27375.got - 2010.06.04 00:33:39.
