data_PCOD9336696
_publ_section_title
;
Structure prediction by ZEFSAII (Michael W. Deem and Ramdas Pophale) SiO2 
 PCOD9336696
Probable space group: I 21 21 21
;
_chemical_formula_sum "Si O2"
_cell_formula_units_Z 36
_cell_length_a 7.465682
_cell_length_b 11.845888
_cell_length_c 19.821389
_cell_angle_alpha 90.000000
_cell_angle_beta 90.000000
_cell_angle_gamma 90.000000
_cell_volume 1752.956722
_symmetry_space_group_name_H-M "I 21 21 21"
_symmetry_group_IT_number 24
_symmetry_cell_setting 'orthorhombic'
loop_
_space_group_symop_operation_xyz
x,y,z
-x,1/2-y,z
x,-y,1/2-z
1/2-x,y,-z
1/2+x,1/2+y,1/2+z
1/2-x,-y,1/2+z
1/2+x,1/2-y,-z
-x,1/2+y,1/2-z
loop_
_atom_site_type_symbol
_atom_site_label
_atom_site_fract_x
_atom_site_fract_y
_atom_site_fract_z
Si Si1 0.914637 0.371744 0.552588
Si Si2 0.747635 0.516665 0.330430
Si Si3 0.750000 0.018603 0.000000
Si Si4 0.101060 0.365899 0.129310
Si Si5 0.062518 0.630982 0.720496
O O1 0.750000 0.368328 0.500000
O O2 0.838170 0.419906 0.623208
O O3 0.000000 0.250000 0.563263
O O4 0.075812 0.446044 0.521204
O O5 0.772529 0.500000 0.250000
O O6 0.598050 0.615698 0.334029
O O7 0.943049 0.545567 0.356749
O O8 0.794705 0.094091 0.064071
O O9 0.241192 0.354214 0.190169
O O10 0.000000 0.250000 0.117856
O O11 0.070083 0.500000 0.750000
O O12 0.000000 0.750000 0.756164
#
# Coordination Sequence:
#
# PCOD9336696 Si02
#       5
#     8   8   4   8   8
#     4  12  25  47  77 111 152 200 259 319 389 468
#     4  11  25  45  72 108 152 193 249 312 381 460
#     4  12  26  44  70 108 140 196 258 318 380 454
#     4  12  25  45  71 102 143 195 252 315 375 454
#     4  11  24  45  73 105 147 193 250 309 381 456
#
# _framework density 20.536729000000001
#
# number of rings (size 3 to 8) (size 9 to 14) (size 15 to 20)
#    0.000    0.444    7.778    0.667    0.000    6.222 
#    0.000    1.111    0.000    0.000    0.000    0.000 
#    0.000    0.000    0.000    0.000    0.000    0.000 
#
# Total GULP energy -100301.590193 kJ/mol
# GULP energy per Si atom -5572.310566 kJ/mol
# Density = 2.048999 g / cm^3
# Si number density = 20.536729 Si / 1000 Ang^3
#
#
#
# Elastic Constant Matrix: (Units=GPa)
#
#
# Indices 1 2 3 4 5 6 
#
# 1 152.2781 61.2680 40.1559 0.0000 0.0000 0.0000
# 2 61.2680 147.5662 59.0115 0.0000 0.0000 0.0000
# 3 40.1559 59.0115 95.8809 0.0000 0.0000 0.0000
# 4 0.0000 0.0000 0.0000 24.5228 0.0000 0.0000
# 5 0.0000 0.0000 0.0000 0.0000 26.6396 0.0000
# 6 0.0000 0.0000 0.0000 0.0000 0.0000 45.0102
#
#
#
# Elastic Compliance Matrix: (Units=1/GPa)
#
#
# Indices 1 2 3 4 5 6 
#
# 1 0.008100 -0.002662 -0.001754 0.000000 0.000000 0.000000
# 2 -0.002662 0.009864 -0.004956 0.000000 0.000000 0.000000
# 3 -0.001754 -0.004956 0.014215 0.000000 0.000000 0.000000
# 4 0.000000 0.000000 0.000000 0.040778 0.000000 0.000000
# 5 0.000000 0.000000 0.000000 0.000000 0.037538 0.000000
# 6 0.000000 0.000000 0.000000 0.000000 0.000000 0.022217
#
#
# Mechanical properties :
#
#
# Convention : Reuss Voigt Hill
#
# Bulk Modulus (GPa) = 74.43470 79.62180 77.02825
# Shear Modulus (GPa) = 32.06471 34.92050 33.49261
#
# Velocity S-wave (km/s) = 3.95566 4.12806 4.04278
# Velocity P-wave (km/s) = 7.56217 7.84702 7.70591
#
# Compressibility (1/GPa) = 0.01343459
#
# Stress axis : x y z
#
# Youngs Moduli (GPa) = 123.44967 101.38277 70.35007
#
# Poissons Ratio (x) = 0.26985 0.12342
# Poissons Ratio (y) = 0.32858 0.34865
# Poissons Ratio (z) = 0.21658 0.50245
#
# Static dielectric constant tensor:
#      x y z
#    x 1.750830 0.000000 0.000000 
#    y 0.000000 1.809310 0.000000 
#    z 0.000000 0.000000 1.750840 
# 
# From -- ./inp_files/34533.got.cif
#   From: 2010.05.17/outbox.cif.g08.bks.cpg/sg24_18_cif.got.tgz:34533.got - 2010.06.04 00:33:39.
