data_PCOD9336557
_publ_section_title
;
Structure prediction by ZEFSAII (Michael W. Deem and Ramdas Pophale) SiO2 
 PCOD9336557
Probable space group: I 21 21 21
;
_chemical_formula_sum "Si O2"
_cell_formula_units_Z 44
_cell_length_a 9.163560
_cell_length_b 18.395789
_cell_length_c 13.646902
_cell_angle_alpha 90.000000
_cell_angle_beta 90.000000
_cell_angle_gamma 90.000000
_cell_volume 2300.470774
_symmetry_space_group_name_H-M "I 21 21 21"
_symmetry_group_IT_number 24
_symmetry_cell_setting 'orthorhombic'
loop_
_space_group_symop_operation_xyz
x,y,z
-x,1/2-y,z
x,-y,1/2-z
1/2-x,y,-z
1/2+x,1/2+y,1/2+z
1/2-x,-y,1/2+z
1/2+x,1/2-y,-z
-x,1/2+y,1/2-z
loop_
_atom_site_type_symbol
_atom_site_label
_atom_site_fract_x
_atom_site_fract_y
_atom_site_fract_z
Si Si1 0.595196 0.500000 0.750000
Si Si2 0.550765 0.949780 0.406471
Si Si3 0.139273 0.418015 0.127420
Si Si4 0.680335 0.578780 0.104488
Si Si5 0.827282 0.755982 0.394967
Si Si6 0.403408 0.176796 0.223503
O O1 0.487760 0.443192 0.801984
O O2 0.697365 0.538923 0.829347
O O3 0.576351 0.920644 0.516742
O O4 0.714241 0.966328 0.368369
O O5 0.475143 0.887793 0.340625
O O6 0.448757 0.020052 0.408782
O O7 0.195222 0.336817 0.146538
O O8 0.621299 0.646022 0.167928
O O9 0.750000 0.597862 0.000000
O O10 0.750000 0.750336 0.500000
O O11 0.751555 0.697599 0.325188
O O12 0.000000 0.750000 0.406469
O O13 0.500000 0.250000 0.219342
#
# Coordination Sequence:
#
# PCOD9336557 Si02
#       6
#     4   8   8   8   8   8
#     4  12  24  40  68  96 132 170 224 278 332 396
#     4  11  22  43  68  97 136 170 226 278 336 394
#     4  11  23  39  62 103 130 167 216 286 335 386
#     4  12  26  45  67  99 132 179 229 274 329 402
#     4  12  23  38  63  99 137 169 216 275 342 399
#     4  12  24  44  69  96 134 186 220 272 338 405
#
# _framework density 19.126518999999998
#
# number of rings (size 3 to 8) (size 9 to 14) (size 15 to 20)
#    0.000    0.364    7.273    2.727    2.545    0.727 
#    0.000    2.727    4.000    0.000    0.000    0.000 
#    0.000    0.000    0.000    0.000    0.000    0.000 
#
# Total GULP energy -123030.183326 kJ/mol
# GULP energy per Si atom -5592.281060 kJ/mol
# Density = 1.908299 g / cm^3
# Si number density = 19.126519 Si / 1000 Ang^3
#
#
#
# Elastic Constant Matrix: (Units=GPa)
#
#
# Indices 1 2 3 4 5 6 
#
# 1 125.4923 19.6559 37.0195 0.0000 0.0000 0.0000
# 2 19.6559 55.7977 24.1606 0.0000 0.0000 0.0000
# 3 37.0195 24.1606 97.7904 0.0000 0.0000 0.0000
# 4 0.0000 0.0000 0.0000 29.1223 0.0000 0.0000
# 5 0.0000 0.0000 0.0000 0.0000 25.6487 0.0000
# 6 0.0000 0.0000 0.0000 0.0000 0.0000 37.2097
#
#
#
# Elastic Compliance Matrix: (Units=1/GPa)
#
#
# Indices 1 2 3 4 5 6 
#
# 1 0.009152 -0.001930 -0.002988 0.000000 0.000000 0.000000
# 2 -0.001930 0.020476 -0.004328 0.000000 0.000000 0.000000
# 3 -0.002988 -0.004328 0.012426 0.000000 0.000000 0.000000
# 4 0.000000 0.000000 0.000000 0.034338 0.000000 0.000000
# 5 0.000000 0.000000 0.000000 0.000000 0.038988 0.000000
# 6 0.000000 0.000000 0.000000 0.000000 0.000000 0.026875
#
#
# Mechanical properties :
#
#
# Convention : Reuss Voigt Hill
#
# Bulk Modulus (GPa) = 42.44108 48.97250 45.70679
# Shear Modulus (GPa) = 29.65558 31.61243 30.63400
#
# Velocity S-wave (km/s) = 3.94190 4.06988 4.00640
# Velocity P-wave (km/s) = 6.55408 6.90980 6.73429
#
# Compressibility (1/GPa) = 0.02356208
#
# Stress axis : x y z
#
# Youngs Moduli (GPa) = 109.26156 48.83762 80.47418
#
# Poissons Ratio (x) = 0.09428 0.24044
# Poissons Ratio (y) = 0.21092 0.34830
# Poissons Ratio (z) = 0.32645 0.21138
#
# Static dielectric constant tensor:
#      x y z
#    x 1.694130 0.000000 0.000000 
#    y 0.000000 1.671520 0.000000 
#    z 0.000000 0.000000 1.648590 
# 
# From -- ./inp_files/24708.got.cif
#   From: 2010.05.17/outbox.cif.g08.bks.cpg/sg24_13_cif.got.tgz:24708.got - 2010.06.04 00:33:39.
