data_PCOD9336662
_publ_section_title
;
Structure prediction by ZEFSAII (Michael W. Deem and Ramdas Pophale) SiO2 
 PCOD9336662
Probable space group: I 21 21 21
;
_chemical_formula_sum "Si O2"
_cell_formula_units_Z 36
_cell_length_a 7.237039
_cell_length_b 19.880538
_cell_length_c 10.815363
_cell_angle_alpha 90.000000
_cell_angle_beta 90.000000
_cell_angle_gamma 90.000000
_cell_volume 1556.073642
_symmetry_space_group_name_H-M "I 21 21 21"
_symmetry_group_IT_number 24
_symmetry_cell_setting 'orthorhombic'
loop_
_space_group_symop_operation_xyz
x,y,z
-x,1/2-y,z
x,-y,1/2-z
1/2-x,y,-z
1/2+x,1/2+y,1/2+z
1/2-x,-y,1/2+z
1/2+x,1/2-y,-z
-x,1/2+y,1/2-z
loop_
_atom_site_type_symbol
_atom_site_label
_atom_site_fract_x
_atom_site_fract_y
_atom_site_fract_z
Si Si1 0.462340 0.000000 0.750000
Si Si2 0.636209 0.187921 0.123073
Si Si3 0.349153 0.305904 0.380211
Si Si4 0.350919 0.074445 0.126722
Si Si5 0.529937 0.559066 0.011087
O O1 0.321662 0.059740 0.786558
O O2 0.546657 0.029066 0.621232
O O3 0.500000 0.250000 0.092652
O O4 0.758316 0.191891 0.248862
O O5 0.495154 0.129679 0.162620
O O6 0.750000 0.171752 0.000000
O O7 0.500000 0.250000 0.348905
O O8 0.250000 0.276961 0.500000
O O9 0.427768 0.377079 0.431550
O O10 0.250000 0.094854 0.000000
O O11 0.461562 0.005515 0.100555
O O12 0.750000 0.575654 0.000000
#
# Coordination Sequence:
#
# PCOD9336662 Si02
#       5
#     4   8   8   8   8
#     4   8  16  32  62  90 116 152 194 238 292 358
#     4  11  24  41  60  85 118 158 204 254 303 356
#     4  11  25  41  59  86 121 158 199 251 307 358
#     4   9  18  34  58  86 114 150 195 242 291 348
#     4   9  18  35  60  87 119 157 197 242 293 354
#
# _framework density 23.135152999999999
#
# number of rings (size 3 to 8) (size 9 to 14) (size 15 to 20)
#    0.000    2.667    0.000    4.000    0.000    7.111 
#    0.000    0.000    0.000    0.000    0.000    0.000 
#    0.000    0.000    0.000    0.000    0.000    0.000 
#
# Total GULP energy -100274.664915 kJ/mol
# GULP energy per Si atom -5570.814718 kJ/mol
# Density = 2.308250 g / cm^3
# Si number density = 23.135153 Si / 1000 Ang^3
#
#
#
# Elastic Constant Matrix: (Units=GPa)
#
#
# Indices 1 2 3 4 5 6 
#
# 1 19.5029 4.6473 1.7041 0.0000 0.0000 0.0000
# 2 4.6473 79.2742 3.0957 0.0000 0.0000 0.0000
# 3 1.7041 3.0957 166.5962 -0.0002 0.0000 0.0000
# 4 0.0000 0.0000 -0.0002 -7.2229 0.0001 0.0000
# 5 0.0000 0.0000 0.0000 0.0001 -21.4704 0.0000
# 6 0.0000 0.0000 0.0000 0.0000 0.0000 19.0786
#
#
#
# Elastic Compliance Matrix: (Units=1/GPa)
#
#
# Indices 1 2 3 4 5 6 
#
# 1 0.052038 -0.003032 -0.000476 0.000000 0.000000 0.000000
# 2 -0.003032 0.012800 -0.000207 0.000000 0.000000 0.000000
# 3 -0.000476 -0.000207 0.006011 0.000000 0.000000 0.000000
# 4 0.000000 0.000000 0.000000 -0.138449 0.000000 0.000000
# 5 0.000000 0.000000 0.000000 0.000000 -0.046576 0.000000
# 6 0.000000 0.000000 0.000000 0.000000 0.000000 0.052415
#
#
# Mechanical properties :
#
#
# Convention : Reuss Voigt Hill
#
# Bulk Modulus (GPa) = 15.76785 31.58529 23.67657
# Shear Modulus (GPa) = -150.64617 15.13882 -67.75368
#
# Velocity S-wave (km/s) = -8.07818 2.56083 -5.41753
# Velocity P-wave (km/s) = 8.95428 4.73560 5.37369
#
# Compressibility (1/GPa) = 0.06342020
#
# Stress axis : x y z
#
# Youngs Moduli (GPa) = 19.21655 78.12330 166.35477
#
# Poissons Ratio (x) = 0.23688 0.07918
# Poissons Ratio (y) = 0.05827 0.03441
# Poissons Ratio (z) = 0.00915 0.01616
#
# Static dielectric constant tensor:
#      x y z
#    x 1.939260 0.000000 0.000000 
#    y 0.000000 1.944670 0.000000 
#    z 0.000000 0.000000 2.023390 
# 
# From -- ./inp_files/18384.got.cif
#   From: 2010.05.17/outbox.cif.g08.bks.cpg/sg24_10_cif.got.tgz:18384.got - 2010.06.04 00:33:39.
