data_PCOD9336375
_publ_section_title
;
Structure prediction by ZEFSAII (Michael W. Deem and Ramdas Pophale) SiO2 
 PCOD9336375
Probable space group: I 21 21 21
;
_chemical_formula_sum "Si O2"
_cell_formula_units_Z 36
_cell_length_a 8.467315
_cell_length_b 15.635641
_cell_length_c 14.281744
_cell_angle_alpha 90.000000
_cell_angle_beta 90.000000
_cell_angle_gamma 90.000000
_cell_volume 1890.787189
_symmetry_space_group_name_H-M "I 21 21 21"
_symmetry_group_IT_number 24
_symmetry_cell_setting 'orthorhombic'
loop_
_space_group_symop_operation_xyz
x,y,z
-x,1/2-y,z
x,-y,1/2-z
1/2-x,y,-z
1/2+x,1/2+y,1/2+z
1/2-x,-y,1/2+z
1/2+x,1/2-y,-z
-x,1/2+y,1/2-z
loop_
_atom_site_type_symbol
_atom_site_label
_atom_site_fract_x
_atom_site_fract_y
_atom_site_fract_z
Si Si1 0.611547 0.105699 0.059611
Si Si2 0.044075 0.655844 0.765678
Si Si3 0.808492 0.952414 0.153073
Si Si4 0.693519 0.500000 0.250000
Si Si5 0.614514 0.499931 0.565597
O O1 0.566393 0.155000 0.153077
O O2 0.694501 0.018570 0.098511
O O3 0.750000 0.149951 0.000000
O O4 0.467690 0.076947 0.993083
O O5 0.204587 0.627402 0.816700
O O6 0.000000 0.750000 0.797022
O O7 0.917116 0.579529 0.780556
O O8 0.967676 0.940117 0.094678
O O9 0.852143 0.000000 0.250000
O O10 0.799558 0.526716 0.338446
O O11 0.750000 0.461397 0.500000
#
# Coordination Sequence:
#
# PCOD9336375 Si02
#       5
#     8   8   8   4   8
#     4   9  18  35  60  86 117 163 203 250 315 379
#     4  11  21  39  61  89 126 166 205 257 314 385
#     4   9  17  35  61  84 120 168 205 241 309 378
#     4  12  22  38  60  90 122 162 212 256 312 374
#     4  11  19  33  64  91 120 160 208 263 311 371
#
# _framework density 19.039688999999999
#
# number of rings (size 3 to 8) (size 9 to 14) (size 15 to 20)
#    0.000    1.778    6.667    0.000    0.000    0.000 
#    4.000    1.111    0.000   20.000    0.000    0.000 
#    0.000    0.000    0.000    0.000    0.000    0.000 
#
# Total GULP energy -100318.655235 kJ/mol
# GULP energy per Si atom -5573.258624 kJ/mol
# Density = 1.899635 g / cm^3
# Si number density = 19.039689 Si / 1000 Ang^3
#
#
#
# Elastic Constant Matrix: (Units=GPa)
#
#
# Indices 1 2 3 4 5 6 
#
# 1 130.0873 43.6511 35.9470 0.0000 0.0000 0.0000
# 2 43.6511 73.8845 -4.9431 0.0000 0.0000 0.0000
# 3 35.9470 -4.9431 70.8825 0.0000 0.0000 0.0000
# 4 0.0000 0.0000 0.0000 10.6439 0.0000 0.0000
# 5 0.0000 0.0000 0.0000 0.0000 63.9177 0.0000
# 6 0.0000 0.0000 0.0000 0.0000 0.0000 9.8328
#
#
#
# Elastic Compliance Matrix: (Units=1/GPa)
#
#
# Indices 1 2 3 4 5 6 
#
# 1 0.012065 -0.007573 -0.006647 0.000000 0.000000 0.000000
# 2 -0.007573 0.018351 0.005120 0.000000 0.000000 0.000000
# 3 -0.006647 0.005120 0.017836 0.000000 0.000000 0.000000
# 4 0.000000 0.000000 0.000000 0.093951 0.000000 0.000000
# 5 0.000000 0.000000 0.000000 0.000000 0.015645 0.000000
# 6 0.000000 0.000000 0.000000 0.000000 0.000000 0.101701
#
#
# Mechanical properties :
#
#
# Convention : Reuss Voigt Hill
#
# Bulk Modulus (GPa) = 33.27420 47.12938 40.20179
# Shear Modulus (GPa) = 17.37537 30.22548 23.80043
#
# Velocity S-wave (km/s) = 3.02418 3.98867 3.53943
# Velocity P-wave (km/s) = 5.45054 6.78377 6.15337
#
# Compressibility (1/GPa) = 0.03005331
#
# Stress axis : x y z
#
# Youngs Moduli (GPa) = 82.88584 54.49269 56.06760
#
# Poissons Ratio (x) = 0.41265 0.37266
# Poissons Ratio (y) = 0.62766 -0.28707
# Poissons Ratio (z) = 0.55091 -0.27901
#
# Static dielectric constant tensor:
#      x y z
#    x 1.709040 0.000000 0.000000 
#    y 0.000000 1.640840 0.000000 
#    z 0.000000 0.000000 1.733280 
# 
# From -- ./inp_files/12216.got.cif
#   From: 2010.05.17/outbox.cif.g08.bks.cpg/sg24_7_cif.got.tgz:12216.got - 2010.06.04 00:33:39.
