data_PCOD9336397
_publ_section_title
;
Structure prediction by ZEFSAII (Michael W. Deem and Ramdas Pophale) SiO2 
 PCOD9336397
Probable space group: I 21 21 21
;
_chemical_formula_sum "Si O2"
_cell_formula_units_Z 64
_cell_length_a 22.120582
_cell_length_b 10.466173
_cell_length_c 13.981520
_cell_angle_alpha 90.000000
_cell_angle_beta 90.000000
_cell_angle_gamma 90.000000
_cell_volume 3236.971283
_symmetry_space_group_name_H-M "I 21 21 21"
_symmetry_group_IT_number 24
_symmetry_cell_setting 'orthorhombic'
loop_
_space_group_symop_operation_xyz
x,y,z
-x,1/2-y,z
x,-y,1/2-z
1/2-x,y,-z
1/2+x,1/2+y,1/2+z
1/2-x,-y,1/2+z
1/2+x,1/2-y,-z
-x,1/2+y,1/2-z
loop_
_atom_site_type_symbol
_atom_site_label
_atom_site_fract_x
_atom_site_fract_y
_atom_site_fract_z
Si Si1 0.793456 0.958522 0.370942
Si Si2 0.836398 0.261012 0.587682
Si Si3 0.964306 0.878434 0.534368
Si Si4 0.586881 0.628780 0.806481
Si Si5 0.792151 0.740706 0.133759
Si Si6 0.457187 0.127901 0.473391
Si Si7 0.163874 0.463058 0.908508
Si Si8 0.922996 0.876355 0.313355
O O1 0.724245 0.913680 0.354393
O O2 0.811739 0.960144 0.482691
O O3 0.850535 0.885013 0.328748
O O4 0.793520 0.108175 0.342910
O O5 0.814200 0.260569 0.476992
O O6 0.776654 0.305129 0.643290
O O7 0.896454 0.345344 0.587165
O O8 0.848258 0.112551 0.614543
O O9 0.900106 0.891374 0.589359
O O10 0.950728 0.878793 0.419524
O O11 0.000000 0.750000 0.558160
O O12 0.006150 0.001296 0.552924
O O13 0.574987 0.500000 0.750000
O O14 0.658697 0.655295 0.814084
O O15 0.560791 0.622888 0.913830
O O16 0.563798 0.750102 0.746801
O O17 0.500000 0.250000 0.461421
O O18 0.939524 0.000000 0.250000
#
# Coordination Sequence:
#
# PCOD9336397 Si02
#       8
#     8   8   8   8   8   8   8   8
#     4   8  14  27  49  67  81 109 157 204 235 260
#     4   8  14  27  49  67  81 109 157 204 235 260
#     4  11  22  32  43  65  99 130 156 187 226 272
#     4  11  22  32  43  65  99 130 156 187 226 272
#     4   8  14  28  47  66  85 111 150 202 243 260
#     4  11  20  32  47  66  91 127 166 191 216 265
#     4   8  14  28  47  66  85 111 150 202 243 260
#     4  11  20  32  47  66  91 127 166 191 216 265
#
# _framework density 19.771569
#
# number of rings (size 3 to 8) (size 9 to 14) (size 15 to 20)
#    0.000    2.500    2.500    3.000    0.000    3.000 
#    0.000    1.250    0.000    6.000    0.000    0.000 
#    0.000    6.000    0.000    0.000    0.000    0.000 
#
# Total GULP energy -178420.855449 kJ/mol
# GULP energy per Si atom -5575.651733 kJ/mol
# Density = 1.972657 g / cm^3
# Si number density = 19.771569 Si / 1000 Ang^3
#
#
#
# Elastic Constant Matrix: (Units=GPa)
#
#
# Indices 1 2 3 4 5 6 
#
# 1 201.9347 68.7524 12.3577 0.0000 0.0000 0.0000
# 2 68.7524 116.9664 0.1161 0.0000 0.0000 0.0000
# 3 12.3577 0.1161 9.5715 0.0000 0.0000 0.0000
# 4 0.0000 0.0000 0.0000 -0.9684 0.0000 0.0000
# 5 0.0000 0.0000 0.0000 0.0000 27.6447 0.0000
# 6 0.0000 0.0000 0.0000 0.0000 0.0000 24.6611
#
#
#
# Elastic Compliance Matrix: (Units=1/GPa)
#
#
# Indices 1 2 3 4 5 6 
#
# 1 0.006861 -0.004024 -0.008810 0.000000 0.000000 0.000000
# 2 -0.004024 0.010910 0.005063 0.000000 0.000000 0.000000
# 3 -0.008810 0.005063 0.115790 0.000000 0.000000 0.000000
# 4 0.000000 0.000000 0.000000 -1.032650 0.000000 0.000000
# 5 0.000000 0.000000 0.000000 0.000000 0.036173 0.000000
# 6 0.000000 0.000000 0.000000 0.000000 0.000000 0.040550
#
#
# Mechanical properties :
#
#
# Convention : Reuss Voigt Hill
#
# Bulk Modulus (GPa) = 8.47314 54.54722 31.51018
# Shear Modulus (GPa) = -6.51480 26.75057 10.11789
#
# Velocity S-wave (km/s) = -1.81719 3.68228 2.26462
# Velocity P-wave (km/s) = 0.32878 6.76221 4.77595
#
# Compressibility (1/GPa) = 0.11802004
#
# Stress axis : x y z
#
# Youngs Moduli (GPa) = 145.74281 91.65947 8.63631
#
# Poissons Ratio (x) = 0.36887 0.07609
# Poissons Ratio (y) = 0.58652 -0.04373
# Poissons Ratio (z) = 1.28398 -0.46412
#
# Static dielectric constant tensor:
#      x y z
#    x 1.750180 0.000000 0.000000 
#    y 0.000000 1.655920 0.000000 
#    z 0.000000 0.000000 1.734670 
# 
# From -- ./inp_files/34311.got.cif
#   From: 2010.05.17/outbox.cif.g08.bks.cpg/sg24_18_cif.got.tgz:34311.got - 2010.06.04 00:33:39.
