data_PCOD9336288
_publ_section_title
;
Structure prediction by ZEFSAII (Michael W. Deem and Ramdas Pophale) SiO2 
 PCOD9336288
Probable space group: I 21 21 21
;
_chemical_formula_sum "Si O2"
_cell_formula_units_Z 52
_cell_length_a 14.847934
_cell_length_b 7.636041
_cell_length_c 22.483373
_cell_angle_alpha 90.000000
_cell_angle_beta 90.000000
_cell_angle_gamma 90.000000
_cell_volume 2549.152078
_symmetry_space_group_name_H-M "I 21 21 21"
_symmetry_group_IT_number 24
_symmetry_cell_setting 'orthorhombic'
loop_
_space_group_symop_operation_xyz
x,y,z
-x,1/2-y,z
x,-y,1/2-z
1/2-x,y,-z
1/2+x,1/2+y,1/2+z
1/2-x,-y,1/2+z
1/2+x,1/2-y,-z
-x,1/2+y,1/2-z
loop_
_atom_site_type_symbol
_atom_site_label
_atom_site_fract_x
_atom_site_fract_y
_atom_site_fract_z
Si Si1 0.216788 0.378320 0.881166
Si Si2 0.981116 0.042523 0.890078
Si Si3 0.046947 0.941960 0.477594
Si Si4 0.844792 0.891301 0.193410
Si Si5 0.680783 0.703722 0.260551
Si Si6 0.000000 0.750000 0.799397
Si Si7 0.500000 0.250000 0.614280
Si Si8 0.250000 0.834633 0.500000
O O1 0.125791 0.490541 0.885737
O O2 0.301442 0.484577 0.856949
O O3 0.198280 0.239548 0.829330
O O4 0.229514 0.285497 0.943399
O O5 0.000000 0.250000 0.880369
O O6 0.023353 0.914803 0.841424
O O7 0.013616 0.003253 0.956661
O O8 0.156118 0.930992 0.483221
O O9 0.000000 0.750000 0.466519
O O10 0.016801 0.081544 0.428030
O O11 0.761210 0.788374 0.222552
O O12 0.916159 0.776153 0.158574
O O13 0.883704 0.000000 0.250000
O O14 0.677498 0.500000 0.250000
O O15 0.586554 0.787665 0.240661
#
# Coordination Sequence:
#
# PCOD9336288 Si02
#       8
#     8   8   8   8   8   4   4   4
#     4  11  23  46  70  97 142 184 229 283 350 410
#     4  11  22  43  67  99 150 180 226 275 336 422
#     4  11  25  46  71 108 141 184 238 282 347 416
#     4  10  25  49  70 101 132 183 235 294 353 413
#     4  11  26  40  68 105 139 179 234 284 345 427
#     4  12  25  38  70 106 143 192 212 282 354 418
#     4  12  27  50  74 102 139 180 242 302 342 412
#     4  12  24  44  78  98 142 192 224 294 348 406
#
# _framework density 20.398938000000001
#
# number of rings (size 3 to 8) (size 9 to 14) (size 15 to 20)
#    0.000    0.923    4.615    2.308    5.385    0.615 
#    6.923    0.000    0.000    0.000    0.000    0.000 
#    0.000    0.000    0.000    0.000    0.000    0.000 
#
# Total GULP energy -145351.130470 kJ/mol
# GULP energy per Si atom -5590.428095 kJ/mol
# Density = 2.035251 g / cm^3
# Si number density = 20.398938 Si / 1000 Ang^3
#
#
#
# Elastic Constant Matrix: (Units=GPa)
#
#
# Indices 1 2 3 4 5 6 
#
# 1 92.8052 21.9058 51.2813 0.0000 0.0000 0.0000
# 2 21.9058 75.0023 51.1507 0.0000 0.0000 0.0000
# 3 51.2813 51.1507 147.6506 0.0000 0.0000 0.0000
# 4 0.0000 0.0000 0.0000 -2.4624 0.0000 0.0000
# 5 0.0000 0.0000 0.0000 0.0000 19.3539 0.0000
# 6 0.0000 0.0000 0.0000 0.0000 0.0000 17.3291
#
#
#
# Elastic Compliance Matrix: (Units=1/GPa)
#
#
# Indices 1 2 3 4 5 6 
#
# 1 0.013388 -0.000968 -0.004315 0.000000 0.000000 0.000000
# 2 -0.000968 0.017527 -0.005736 0.000000 0.000000 0.000000
# 3 -0.004315 -0.005736 0.010258 0.000000 0.000000 0.000000
# 4 0.000000 0.000000 0.000000 -0.406115 0.000000 0.000000
# 5 0.000000 0.000000 0.000000 0.000000 0.051669 0.000000
# 6 0.000000 0.000000 0.000000 0.000000 0.000000 0.057706
#
#
# Mechanical properties :
#
#
# Convention : Reuss Voigt Hill
#
# Bulk Modulus (GPa) = 52.25422 62.68151 57.46786
# Shear Modulus (GPa) = -22.01188 19.58548 -1.21320
#
# Velocity S-wave (km/s) = -3.28848 3.10195 -0.77203
# Velocity P-wave (km/s) = 3.35454 6.60484 5.23817
#
# Compressibility (1/GPa) = 0.01913721
#
# Stress axis : x y z
#
# Youngs Moduli (GPa) = 74.69514 57.05351 97.48142
#
# Poissons Ratio (x) = 0.05521 0.42059
# Poissons Ratio (y) = 0.07228 0.55915
# Poissons Ratio (z) = 0.32228 0.32726
#
# Static dielectric constant tensor:
#      x y z
#    x 1.786770 0.000000 0.000000 
#    y 0.000000 1.741230 0.000000 
#    z 0.000000 0.000000 1.696510 
# 
# From -- ./inp_files/33732.got.cif
#   From: 2010.05.17/outbox.cif.g08.bks.cpg/sg24_17_cif.got.tgz:33732.got - 2010.06.04 00:33:39.
