data_PCOD9336317
_publ_section_title
;
Structure prediction by ZEFSAII (Michael W. Deem and Ramdas Pophale) SiO2 
 PCOD9336317
Probable space group: I 21 21 21
;
_chemical_formula_sum "Si O2"
_cell_formula_units_Z 36
_cell_length_a 10.763878
_cell_length_b 6.271988
_cell_length_c 24.380463
_cell_angle_alpha 90.000000
_cell_angle_beta 90.000000
_cell_angle_gamma 90.000000
_cell_volume 1645.947332
_symmetry_space_group_name_H-M "I 21 21 21"
_symmetry_group_IT_number 24
_symmetry_cell_setting 'orthorhombic'
loop_
_space_group_symop_operation_xyz
x,y,z
-x,1/2-y,z
x,-y,1/2-z
1/2-x,y,-z
1/2+x,1/2+y,1/2+z
1/2-x,-y,1/2+z
1/2+x,1/2-y,-z
-x,1/2+y,1/2-z
loop_
_atom_site_type_symbol
_atom_site_label
_atom_site_fract_x
_atom_site_fract_y
_atom_site_fract_z
Si Si1 0.794752 0.025940 0.598354
Si Si2 0.620077 0.601279 0.926629
Si Si3 0.000000 0.250000 0.665880
Si Si4 0.674669 0.500000 0.250000
Si Si5 0.137248 0.225685 0.173802
Si Si6 0.250000 0.784921 0.500000
O O1 0.693649 0.925638 0.640515
O O2 0.803515 0.859669 0.548822
O O3 0.737978 0.243718 0.575325
O O4 0.920766 0.086063 0.629187
O O5 0.500000 0.750000 0.932686
O O6 0.620982 0.464442 0.870709
O O7 0.642100 0.432085 0.974686
O O8 0.908128 0.382051 0.704891
O O9 0.763239 0.334605 0.219187
O O10 0.000000 0.250000 0.197900
#
# Coordination Sequence:
#
# PCOD9336317 Si02
#       6
#     8   8   4   4   8   4
#     4  11  24  49  71 105 148 193 241 304 360 438
#     4  11  22  48  72 102 145 191 246 305 363 434
#     4  12  26  48  74 104 156 192 246 296 366 454
#     4  12  26  46  74 112 140 202 240 298 372 436
#     4  11  24  44  75 106 143 186 251 305 361 432
#     4  10  26  46  70 116 136 192 252 294 380 424
#
# _framework density 21.871904000000001
#
# number of rings (size 3 to 8) (size 9 to 14) (size 15 to 20)
#    0.000    0.889    4.444    2.000    0.000    2.667 
#   12.000    0.000    0.000    0.000    0.000    0.000 
#    0.000    0.000    0.000    0.000    0.000    0.000 
#
# Total GULP energy -100787.725598 kJ/mol
# GULP energy per Si atom -5599.318089 kJ/mol
# Density = 2.182212 g / cm^3
# Si number density = 21.871904 Si / 1000 Ang^3
#
#
#
# Elastic Constant Matrix: (Units=GPa)
#
#
# Indices 1 2 3 4 5 6 
#
# 1 150.5684 56.6455 77.5708 0.0000 0.0000 0.0000
# 2 56.6455 84.6178 34.5674 0.0000 0.0000 0.0000
# 3 77.5708 34.5674 94.6166 0.0000 0.0000 0.0000
# 4 0.0000 0.0000 0.0000 6.8037 0.0000 0.0000
# 5 0.0000 0.0000 0.0000 0.0000 11.5673 0.0000
# 6 0.0000 0.0000 0.0000 0.0000 0.0000 45.2012
#
#
#
# Elastic Compliance Matrix: (Units=1/GPa)
#
#
# Indices 1 2 3 4 5 6 
#
# 1 0.013185 -0.005184 -0.008916 0.000000 0.000000 0.000000
# 2 -0.005184 0.015929 -0.001569 0.000000 0.000000 0.000000
# 3 -0.008916 -0.001569 0.018452 0.000000 0.000000 0.000000
# 4 0.000000 0.000000 0.000000 0.146979 0.000000 0.000000
# 5 0.000000 0.000000 0.000000 0.000000 0.086451 0.000000
# 6 0.000000 0.000000 0.000000 0.000000 0.000000 0.022123
#
#
# Mechanical properties :
#
#
# Convention : Reuss Voigt Hill
#
# Bulk Modulus (GPa) = 61.62327 74.15223 67.88775
# Shear Modulus (GPa) = 14.71159 23.44904 19.08032
#
# Velocity S-wave (km/s) = 2.59632 3.27786 2.95679
# Velocity P-wave (km/s) = 6.10111 6.94999 6.53934
#
# Compressibility (1/GPa) = 0.01622764
#
# Stress axis : x y z
#
# Youngs Moduli (GPa) = 75.84287 62.77673 54.19522
#
# Poissons Ratio (x) = 0.32546 0.48319
# Poissons Ratio (y) = 0.39319 0.08505
# Poissons Ratio (z) = 0.67619 0.09852
#
# Static dielectric constant tensor:
#      x y z
#    x 1.779700 0.000000 0.000000 
#    y 0.000000 1.794900 0.000000 
#    z 0.000000 0.000000 1.795270 
# 
# From -- ./inp_files/35422.got.cif
#   From: 2010.05.17/outbox.cif.g08.bks.cpg/sg24_18_cif.got.tgz:35422.got - 2010.06.04 00:33:39.
