data_PCOD9336364
_publ_section_title
;
Structure prediction by ZEFSAII (Michael W. Deem and Ramdas Pophale) SiO2 
 PCOD9336364
Probable space group: I 21 21 21
;
_chemical_formula_sum "Si O2"
_cell_formula_units_Z 48
_cell_length_a 9.581276
_cell_length_b 12.595674
_cell_length_c 22.759740
_cell_angle_alpha 90.000000
_cell_angle_beta 90.000000
_cell_angle_gamma 90.000000
_cell_volume 2746.705259
_symmetry_space_group_name_H-M "I 21 21 21"
_symmetry_group_IT_number 24
_symmetry_cell_setting 'orthorhombic'
loop_
_space_group_symop_operation_xyz
x,y,z
-x,1/2-y,z
x,-y,1/2-z
1/2-x,y,-z
1/2+x,1/2+y,1/2+z
1/2-x,-y,1/2+z
1/2+x,1/2-y,-z
-x,1/2+y,1/2-z
loop_
_atom_site_type_symbol
_atom_site_label
_atom_site_fract_x
_atom_site_fract_y
_atom_site_fract_z
Si Si1 0.380842 0.668826 0.884785
Si Si2 0.238708 0.718470 0.762717
Si Si3 0.000000 0.250000 0.179591
Si Si4 0.844229 0.284120 0.552154
Si Si5 0.039642 0.987094 0.320645
Si Si6 0.073281 0.500000 0.750000
Si Si7 0.651435 0.414581 0.326949
O O1 0.500000 0.750000 0.905180
O O2 0.323517 0.711113 0.823170
O O3 0.248797 0.682095 0.927356
O O4 0.450627 0.560190 0.864704
O O5 0.356313 0.742392 0.715750
O O6 0.164579 0.607236 0.749757
O O7 0.144423 0.820569 0.777620
O O8 0.982710 0.368498 0.155174
O O9 0.750000 0.332740 0.500000
O O10 0.859234 0.360979 0.608934
O O11 0.000000 0.250000 0.535598
O O12 0.999303 0.000000 0.250000
O O13 0.199731 0.026971 0.322422
O O14 0.974588 0.490236 0.692513
#
# Coordination Sequence:
#
# PCOD9336364 Si02
#       7
#     8   8   4   8   8   4   8
#     4  11  18  36  59  81 116 160 198 245 299 357
#     4  11  18  31  48  73 115 160 203 232 287 355
#     4  12  20  30  48  84 112 158 208 232 272 368
#     4  11  24  40  62  90 120 155 206 260 316 371
#     4  12  19  33  56  83 122 166 203 237 291 367
#     4  12  22  30  50  80 118 172 194 246 304 372
#     4  11  21  37  53  81 126 167 195 245 313 366
#
# _framework density 17.475483000000001
#
# number of rings (size 3 to 8) (size 9 to 14) (size 15 to 20)
#    0.000    0.667    8.333    4.000    0.000    0.000 
#    0.000    0.000    0.000    0.000    0.000    1.167 
#    5.000    0.000    0.000    0.000    0.000    0.000 
#
# Total GULP energy -133682.910671 kJ/mol
# GULP energy per Si atom -5570.121278 kJ/mol
# Density = 1.743571 g / cm^3
# Si number density = 17.475483 Si / 1000 Ang^3
#
#
#
# Elastic Constant Matrix: (Units=GPa)
#
#
# Indices 1 2 3 4 5 6 
#
# 1 104.6608 32.0568 35.1938 0.0000 0.0000 0.0000
# 2 32.0568 98.4160 25.1714 0.0000 0.0000 0.0000
# 3 35.1938 25.1714 69.6999 0.0000 0.0000 0.0000
# 4 0.0000 0.0000 0.0000 -182.4998 0.0000 0.0000
# 5 0.0000 0.0000 0.0000 0.0000 19.4697 0.0000
# 6 0.0000 0.0000 0.0000 0.0000 0.0000 20.1075
#
#
#
# Elastic Compliance Matrix: (Units=1/GPa)
#
#
# Indices 1 2 3 4 5 6 
#
# 1 0.012092 -0.002619 -0.005160 0.000000 0.000000 0.000000
# 2 -0.002619 0.011762 -0.002925 0.000000 0.000000 0.000000
# 3 -0.005160 -0.002925 0.018009 0.000000 0.000000 0.000000
# 4 0.000000 0.000000 0.000000 -0.005479 0.000000 0.000000
# 5 0.000000 0.000000 0.000000 0.000000 0.051362 0.000000
# 6 0.000000 0.000000 0.000000 0.000000 0.000000 0.049733
#
#
# Mechanical properties :
#
#
# Convention : Reuss Voigt Hill
#
# Bulk Modulus (GPa) = 48.88813 50.84675 49.86744
# Shear Modulus (GPa) = 30.17414 -16.56087 6.80664
#
# Velocity S-wave (km/s) = 4.15981 -3.08175 1.97571
# Velocity P-wave (km/s) = 7.14899 4.06156 5.81396
#
# Compressibility (1/GPa) = 0.02045486
#
# Stress axis : x y z
#
# Youngs Moduli (GPa) = 82.69993 85.01786 55.52760
#
# Poissons Ratio (x) = 0.22266 0.28651
# Poissons Ratio (y) = 0.21659 0.16244
# Poissons Ratio (z) = 0.42671 0.24871
#
# Static dielectric constant tensor:
#      x y z
#    x 1.991730 0.000000 0.000000 
#    y 0.000000 1.712810 0.000000 
#    z 0.000000 0.000000 1.606260 
# 
# From -- ./inp_files/11428.got.cif
#   From: 2010.05.17/outbox.cif.g08.bks.cpg/sg24_6_cif.got.tgz:11428.got - 2010.06.04 00:33:39.
