data_PCOD9336181
_publ_section_title
;
Structure prediction by ZEFSAII (Michael W. Deem and Ramdas Pophale) SiO2 
 PCOD9336181
Probable space group: I 21 21 21
;
_chemical_formula_sum "Si O2"
_cell_formula_units_Z 32
_cell_length_a 17.914977
_cell_length_b 9.910243
_cell_length_c 8.604432
_cell_angle_alpha 90.000000
_cell_angle_beta 90.000000
_cell_angle_gamma 90.000000
_cell_volume 1527.646134
_symmetry_space_group_name_H-M "I 21 21 21"
_symmetry_group_IT_number 24
_symmetry_cell_setting 'orthorhombic'
loop_
_space_group_symop_operation_xyz
x,y,z
-x,1/2-y,z
x,-y,1/2-z
1/2-x,y,-z
1/2+x,1/2+y,1/2+z
1/2-x,-y,1/2+z
1/2+x,1/2-y,-z
-x,1/2+y,1/2-z
loop_
_atom_site_type_symbol
_atom_site_label
_atom_site_fract_x
_atom_site_fract_y
_atom_site_fract_z
Si Si1 0.712189 0.857382 0.330167
Si Si2 0.708206 0.366467 0.661257
Si Si3 0.071272 0.150641 0.835396
Si Si4 0.450144 0.125937 0.797393
O O1 0.750000 0.876258 0.500000
O O2 0.774695 0.776848 0.235979
O O3 0.643446 0.749669 0.317946
O O4 0.693174 0.000000 0.250000
O O5 0.737119 0.500000 0.750000
O O6 0.750000 0.370666 0.500000
O O7 0.619480 0.377921 0.679354
O O8 0.000000 0.250000 0.796595
O O9 0.071853 0.000000 0.750000
O O10 0.070221 0.124153 0.021201
O O11 0.500000 0.250000 0.765934
O O12 0.499684 0.000000 0.750000
#
# Coordination Sequence:
#
# PCOD9336181 Si02
#       4
#     8   8   8   8
#     4  12  25  45  67 104 143 187 235 298 357 422
#     4  11  24  43  71 103 137 186 236 292 357 427
#     4  11  25  48  73 106 144 188 241 292 358 429
#     4  10  24  45  68 102 141 185 232 291 354 427
#
# _framework density 20.947258999999999
#
# number of rings (size 3 to 8) (size 9 to 14) (size 15 to 20)
#    0.000    1.000    2.500    3.000   10.500    2.000 
#    9.000    0.000    0.000    0.000    0.000    0.000 
#    0.000    0.000    0.000    0.000    0.000    0.000 
#
# Total GULP energy -89082.035542 kJ/mol
# GULP energy per Si atom -5567.627221 kJ/mol
# Density = 2.089958 g / cm^3
# Si number density = 20.947259 Si / 1000 Ang^3
#
#
#
# Elastic Constant Matrix: (Units=GPa)
#
#
# Indices 1 2 3 4 5 6 
#
# 1 80.6179 60.2173 35.2783 0.0000 0.0000 0.0000
# 2 60.2173 223.9936 67.6918 0.0000 0.0000 0.0000
# 3 35.2783 67.6918 97.5086 0.0000 0.0000 0.0000
# 4 0.0000 0.0000 0.0000 42.5919 0.0000 0.0000
# 5 0.0000 0.0000 0.0000 0.0000 114.6010 0.0000
# 6 0.0000 0.0000 0.0000 0.0000 0.0000 31.0551
#
#
#
# Elastic Compliance Matrix: (Units=1/GPa)
#
#
# Indices 1 2 3 4 5 6 
#
# 1 0.016490 -0.003328 -0.003655 0.000000 0.000000 0.000000
# 2 -0.003328 0.006321 -0.003184 0.000000 0.000000 0.000000
# 3 -0.003655 -0.003184 0.013789 0.000000 0.000000 0.000000
# 4 0.000000 0.000000 0.000000 0.023479 0.000000 0.000000
# 5 0.000000 0.000000 0.000000 0.000000 0.008726 0.000000
# 6 0.000000 0.000000 0.000000 0.000000 0.000000 0.032201
#
#
# Mechanical properties :
#
#
# Convention : Reuss Voigt Hill
#
# Bulk Modulus (GPa) = 61.48588 80.94388 71.21488
# Shear Modulus (GPa) = 39.44375 53.57846 46.51111
#
# Velocity S-wave (km/s) = 4.34407 5.06294 4.71721
# Velocity P-wave (km/s) = 7.38767 8.53835 7.98377
#
# Compressibility (1/GPa) = 0.01626390
#
# Stress axis : x y z
#
# Youngs Moduli (GPa) = 60.64307 158.19036 72.52377
#
# Poissons Ratio (x) = 0.52652 0.26510
# Poissons Ratio (y) = 0.20184 0.23093
# Poissons Ratio (z) = 0.22167 0.50372
#
# Static dielectric constant tensor:
#      x y z
#    x 1.793820 0.000000 0.000000 
#    y 0.000000 0.960150 0.000000 
#    z 0.000000 0.000000 1.786960 
# 
# From -- ./inp_files/8949.got.cif
#   From: 2010.05.17/outbox.cif.g08.bks.cpg/sg24_5_cif.got.tgz:8949.got - 2010.06.04 00:33:39.
