data_PCOD9336256
_publ_section_title
;
Structure prediction by ZEFSAII (Michael W. Deem and Ramdas Pophale) SiO2 
 PCOD9336256
Probable space group: I 21 21 21
;
_chemical_formula_sum "Si O2"
_cell_formula_units_Z 40
_cell_length_a 17.131237
_cell_length_b 16.854434
_cell_length_c 5.803487
_cell_angle_alpha 90.000000
_cell_angle_beta 90.000000
_cell_angle_gamma 90.000000
_cell_volume 1675.683186
_symmetry_space_group_name_H-M "I 21 21 21"
_symmetry_group_IT_number 24
_symmetry_cell_setting 'orthorhombic'
loop_
_space_group_symop_operation_xyz
x,y,z
-x,1/2-y,z
x,-y,1/2-z
1/2-x,y,-z
1/2+x,1/2+y,1/2+z
1/2-x,-y,1/2+z
1/2+x,1/2-y,-z
-x,1/2+y,1/2-z
loop_
_atom_site_type_symbol
_atom_site_label
_atom_site_fract_x
_atom_site_fract_y
_atom_site_fract_z
Si Si1 0.380551 0.558059 0.551630
Si Si2 0.415712 0.714111 0.835244
Si Si3 0.684108 0.165215 0.299593
Si Si4 0.060737 0.964077 0.506724
Si Si5 0.669342 0.680315 0.524902
O O1 0.349339 0.500000 0.750000
O O2 0.401020 0.643057 0.661916
O O3 0.322682 0.585450 0.349349
O O4 0.466675 0.527445 0.486454
O O5 0.500000 0.750000 0.815806
O O6 0.352281 0.781095 0.771391
O O7 0.399343 0.675439 0.078987
O O8 0.750000 0.160334 0.500000
O O9 0.686263 0.245438 0.147196
O O10 0.095116 0.874982 0.520693
O O11 0.083067 0.000000 0.250000
O O12 0.090039 0.000000 0.750000
O O13 0.750000 0.632421 0.500000
#
# Coordination Sequence:
#
# PCOD9336256 Si02
#       5
#     8   8   8   8   8
#     4  10  25  43  70 105 152 193 249 317 379 454
#     4  11  23  42  73 106 139 187 256 301 377 457
#     4  11  25  41  74 107 145 194 253 311 386 461
#     4  11  27  45  72 111 152 202 256 305 380 459
#     4  11  24  44  68 107 152 190 239 319 373 451
#
# _framework density 23.870863
#
# number of rings (size 3 to 8) (size 9 to 14) (size 15 to 20)
#    0.000    1.200    4.000    0.000   11.200    0.800 
#    0.000    0.000    4.400    2.400    0.000    0.000 
#    0.000    0.000    0.000    0.000    0.000    0.000 
#
# Total GULP energy -111556.389700 kJ/mol
# GULP energy per Si atom -5577.819485 kJ/mol
# Density = 2.381653 g / cm^3
# Si number density = 23.870863 Si / 1000 Ang^3
#
#
#
# Elastic Constant Matrix: (Units=GPa)
#
#
# Indices 1 2 3 4 5 6 
#
# 1 91.4629 43.6470 47.2215 0.0000 0.0000 0.0000
# 2 43.6470 101.9005 65.0029 0.0000 0.0000 0.0000
# 3 47.2215 65.0029 146.1928 0.0000 0.0000 0.0000
# 4 0.0000 0.0000 0.0000 31.3468 0.0000 0.0000
# 5 0.0000 0.0000 0.0000 0.0000 -11.9058 0.0000
# 6 0.0000 0.0000 0.0000 0.0000 0.0000 23.8250
#
#
#
# Elastic Compliance Matrix: (Units=1/GPa)
#
#
# Indices 1 2 3 4 5 6 
#
# 1 0.014455 -0.004485 -0.002675 0.000000 0.000000 0.000000
# 2 -0.004485 0.015091 -0.005261 0.000000 0.000000 0.000000
# 3 -0.002675 -0.005261 0.010044 0.000000 0.000000 0.000000
# 4 0.000000 0.000000 0.000000 0.031901 0.000000 0.000000
# 5 0.000000 0.000000 0.000000 0.000000 -0.083993 0.000000
# 6 0.000000 0.000000 0.000000 0.000000 0.000000 0.041973
#
#
# Mechanical properties :
#
#
# Convention : Reuss Voigt Hill
#
# Bulk Modulus (GPa) = 67.81088 72.36657 70.08872
# Shear Modulus (GPa) = 84.41968 20.89886 52.65927
#
# Velocity S-wave (km/s) = 5.95331 2.96209 4.70191
# Velocity P-wave (km/s) = 8.70201 6.48693 7.67480
#
# Compressibility (1/GPa) = 0.01474690
#
# Stress axis : x y z
#
# Youngs Moduli (GPa) = 69.18167 66.26574 99.56630
#
# Poissons Ratio (x) = 0.29721 0.26631
# Poissons Ratio (y) = 0.31029 0.52384
# Poissons Ratio (z) = 0.18504 0.34864
#
# Static dielectric constant tensor:
#      x y z
#    x 1.949090 0.000000 0.000000 
#    y 0.000000 1.936720 0.000000 
#    z 0.000000 0.000000 2.050070 
# 
# From -- ./inp_files/4488.got.cif
#   From: 2010.05.17/outbox.cif.g08.bks.cpg/sg24_3_cif.got.tgz:4488.got - 2010.06.04 00:33:39.
