data_PCOD9336432
_publ_section_title
;
Structure prediction by ZEFSAII (Michael W. Deem and Ramdas Pophale) SiO2 
 PCOD9336432
Probable space group: I 21 21 21
;
_chemical_formula_sum "Si O2"
_cell_formula_units_Z 48
_cell_length_a 10.673735
_cell_length_b 16.174032
_cell_length_c 14.376598
_cell_angle_alpha 90.000000
_cell_angle_beta 90.000000
_cell_angle_gamma 90.000000
_cell_volume 2481.937514
_symmetry_space_group_name_H-M "I 21 21 21"
_symmetry_group_IT_number 24
_symmetry_cell_setting 'orthorhombic'
loop_
_space_group_symop_operation_xyz
x,y,z
-x,1/2-y,z
x,-y,1/2-z
1/2-x,y,-z
1/2+x,1/2+y,1/2+z
1/2-x,-y,1/2+z
1/2+x,1/2-y,-z
-x,1/2+y,1/2-z
loop_
_atom_site_type_symbol
_atom_site_label
_atom_site_fract_x
_atom_site_fract_y
_atom_site_fract_z
Si Si1 0.141615 0.257795 0.428959
Si Si2 0.640910 0.643023 0.748770
Si Si3 0.561443 0.000000 0.750000
Si Si4 0.117767 0.805762 0.462428
Si Si5 0.609968 0.506193 0.464093
Si Si6 0.154910 0.000000 0.750000
Si Si7 0.637953 0.950829 0.934882
O O1 0.250000 0.230225 0.500000
O O2 0.146753 0.205868 0.334082
O O3 0.162001 0.355003 0.410832
O O4 0.000000 0.250000 0.467811
O O5 0.525596 0.580077 0.761474
O O6 0.626906 0.685698 0.649044
O O7 0.759737 0.582216 0.746218
O O8 0.638921 0.005800 0.843135
O O9 0.250000 0.772698 0.500000
O O10 0.101897 0.897795 0.504985
O O11 0.000000 0.750000 0.487750
O O12 0.750000 0.479654 0.500000
O O13 0.593325 0.497251 0.352746
O O14 0.498154 0.459788 0.517176
O O15 0.750000 0.978615 0.000000
#
# Coordination Sequence:
#
# PCOD9336432 Si02
#       7
#     8   8   4   8   8   4   8
#     4  11  25  41  63  98 134 171 212 269 336 390
#     4  11  21  40  69  96 122 172 232 267 308 392
#     4  11  20  39  68  92 118 178 228 260 312 392
#     4  11  23  43  65  99 132 170 221 268 329 388
#     4  11  22  44  69  99 128 173 229 268 321 392
#     4  11  22  37  74 102 122 168 228 288 312 378
#     4  11  25  42  64 100 138 170 212 275 339 393
#
# _framework density 19.339728999999998
#
# number of rings (size 3 to 8) (size 9 to 14) (size 15 to 20)
#    0.000    1.000    6.667    1.500    2.333    1.333 
#    0.000    4.167    0.000    0.000    0.000    0.000 
#    0.000    0.000    0.000    0.000    0.000    0.000 
#
# Total GULP energy -134071.819117 kJ/mol
# GULP energy per Si atom -5586.325797 kJ/mol
# Density = 1.929571 g / cm^3
# Si number density = 19.339729 Si / 1000 Ang^3
#
#
#
# Elastic Constant Matrix: (Units=GPa)
#
#
# Indices 1 2 3 4 5 6 
#
# 1 98.0012 33.7338 56.0096 0.0000 0.0000 0.0000
# 2 33.7338 64.1805 39.8035 0.0000 0.0000 0.0000
# 3 56.0096 39.8035 168.8186 0.0000 0.0000 0.0000
# 4 0.0000 0.0000 0.0000 33.1116 0.0000 0.0000
# 5 0.0000 0.0000 0.0000 0.0000 28.2083 0.0000
# 6 0.0000 0.0000 0.0000 0.0000 0.0000 4.9630
#
#
#
# Elastic Compliance Matrix: (Units=1/GPa)
#
#
# Indices 1 2 3 4 5 6 
#
# 1 0.013941 -0.005223 -0.003394 0.000000 0.000000 0.000000
# 2 -0.005223 0.020206 -0.003031 0.000000 0.000000 0.000000
# 3 -0.003394 -0.003031 0.007764 0.000000 0.000000 0.000000
# 4 0.000000 0.000000 0.000000 0.030201 0.000000 0.000000
# 5 0.000000 0.000000 0.000000 0.000000 0.035451 0.000000
# 6 0.000000 0.000000 0.000000 0.000000 0.000000 0.201490
#
#
# Mechanical properties :
#
#
# Convention : Reuss Voigt Hill
#
# Bulk Modulus (GPa) = 53.71845 65.56600 59.64222
# Shear Modulus (GPa) = 14.76864 26.68682 20.72773
#
# Velocity S-wave (km/s) = 2.76641 3.71873 3.27734
# Velocity P-wave (km/s) = 6.16770 7.23978 6.72514
#
# Compressibility (1/GPa) = 0.01861558
#
# Stress axis : x y z
#
# Youngs Moduli (GPa) = 71.72831 49.48969 128.79501
#
# Poissons Ratio (x) = 0.25848 0.43713
# Poissons Ratio (y) = 0.37463 0.39042
# Poissons Ratio (z) = 0.24345 0.15002
#
# Static dielectric constant tensor:
#      x y z
#    x 1.682670 0.000000 0.000000 
#    y 0.000000 1.675020 0.000000 
#    z 0.000000 0.000000 1.711060 
# 
# From -- ./inp_files/25766.got.cif
#   From: 2010.05.17/outbox.cif.g08.bks.cpg/sg24_13_cif.got.tgz:25766.got - 2010.06.04 00:33:39.
