data_PCOD9336507
_publ_section_title
;
Structure prediction by ZEFSAII (Michael W. Deem and Ramdas Pophale) SiO2 
 PCOD9336507
Probable space group: I 21 21 21
;
_chemical_formula_sum "Si O2"
_cell_formula_units_Z 60
_cell_length_a 8.700150
_cell_length_b 15.961624
_cell_length_c 21.420211
_cell_angle_alpha 90.000000
_cell_angle_beta 90.000000
_cell_angle_gamma 90.000000
_cell_volume 2974.593065
_symmetry_space_group_name_H-M "I 21 21 21"
_symmetry_group_IT_number 24
_symmetry_cell_setting 'orthorhombic'
loop_
_space_group_symop_operation_xyz
x,y,z
-x,1/2-y,z
x,-y,1/2-z
1/2-x,y,-z
1/2+x,1/2+y,1/2+z
1/2-x,-y,1/2+z
1/2+x,1/2-y,-z
-x,1/2+y,1/2-z
loop_
_atom_site_type_symbol
_atom_site_label
_atom_site_fract_x
_atom_site_fract_y
_atom_site_fract_z
Si Si1 0.511768 0.390191 0.834527
Si Si2 0.616735 0.000000 0.250000
Si Si3 0.054702 0.044612 0.874184
Si Si4 0.819030 0.558333 0.162527
Si Si5 0.786011 0.282489 0.862670
Si Si6 0.668823 0.279347 0.284480
Si Si7 0.630711 0.870057 0.799856
Si Si8 0.264020 0.395402 0.073534
O O1 0.622753 0.466859 0.814796
O O2 0.613664 0.317675 0.863840
O O3 0.438696 0.360815 0.769956
O O4 0.385530 0.418278 0.884988
O O5 0.507271 0.040221 0.197468
O O6 0.731616 0.063284 0.286659
O O7 0.118864 0.137656 0.885895
O O8 0.899530 0.038871 0.913212
O O9 0.188239 0.976254 0.885606
O O10 0.720169 0.626309 0.200710
O O11 0.988222 0.601757 0.156659
O O12 0.824454 0.266964 0.790109
O O13 0.803521 0.197137 0.899820
O O14 0.500000 0.250000 0.304979
O O15 0.791321 0.217326 0.316331
O O16 0.250000 0.389361 0.000000
#
# Coordination Sequence:
#
# PCOD9336507 Si02
#       8
#     8   4   8   8   8   8   8   8
#     4  11  22  38  57  83 120 171 225 264 313 379
#     4  12  20  34  60  86 132 168 210 266 330 394
#     4  11  23  37  57  88 124 167 216 275 327 379
#     4  11  23  37  58  86 124 168 212 263 328 402
#     4  11  22  36  54  83 123 170 222 263 309 375
#     4  12  23  34  56  92 134 170 207 255 324 397
#     4  12  20  35  56  86 127 173 208 250 321 401
#     4  12  25  43  63  87 125 179 232 276 315 372
#
# _framework density 20.170826000000002
#
# number of rings (size 3 to 8) (size 9 to 14) (size 15 to 20)
#    0.000    0.533    5.333    4.400    3.733    2.133 
#    0.000    2.000    0.000    0.000    0.000    0.000 
#    0.000   46.933    0.000    0.000    0.000    0.000 
#
# Total GULP energy -167310.688849 kJ/mol
# GULP energy per Si atom -5577.022962 kJ/mol
# Density = 2.012492 g / cm^3
# Si number density = 20.170826 Si / 1000 Ang^3
#
#
#
# Elastic Constant Matrix: (Units=GPa)
#
#
# Indices 1 2 3 4 5 6 
#
# 1 133.6786 50.5203 13.4176 0.0000 0.0000 0.0000
# 2 50.5203 96.2736 26.5595 0.0000 0.0000 0.0000
# 3 13.4176 26.5595 45.6497 0.0000 0.0000 0.0000
# 4 0.0000 0.0000 0.0000 12.2549 0.0000 0.0000
# 5 0.0000 0.0000 0.0000 0.0000 5.2060 0.0000
# 6 0.0000 0.0000 0.0000 0.0000 0.0000 37.1071
#
#
#
# Elastic Compliance Matrix: (Units=1/GPa)
#
#
# Indices 1 2 3 4 5 6 
#
# 1 0.009332 -0.004932 0.000127 0.000000 0.000000 0.000000
# 2 -0.004932 0.014979 -0.007266 0.000000 0.000000 0.000000
# 3 0.000127 -0.007266 0.026096 0.000000 0.000000 0.000000
# 4 0.000000 0.000000 0.000000 0.081600 0.000000 0.000000
# 5 0.000000 0.000000 0.000000 0.000000 0.192086 0.000000
# 6 0.000000 0.000000 0.000000 0.000000 0.000000 0.026949
#
#
# Mechanical properties :
#
#
# Convention : Reuss Voigt Hill
#
# Bulk Modulus (GPa) = 38.07291 50.73296 44.40293
# Shear Modulus (GPa) = 13.02287 23.25389 18.13838
#
# Velocity S-wave (km/s) = 2.54368 3.39904 3.00198
# Velocity P-wave (km/s) = 5.24817 6.37267 5.83756
#
# Compressibility (1/GPa) = 0.02626539
#
# Stress axis : x y z
#
# Youngs Moduli (GPa) = 107.16063 66.75792 38.32009
#
# Poissons Ratio (x) = 0.32924 -0.00485
# Poissons Ratio (y) = 0.52850 0.27842
# Poissons Ratio (z) = -0.01356 0.48504
#
# Static dielectric constant tensor:
#      x y z
#    x 1.825270 0.000000 0.000000 
#    y 0.000000 1.773650 0.000000 
#    z 0.000000 0.000000 1.676190 
# 
# From -- ./inp_files/35262.got.cif
#   From: 2010.05.17/outbox.cif.g08.bks.cpg/sg24_18_cif.got.tgz:35262.got - 2010.06.04 00:33:39.
