data_PCOD9336930
_publ_section_title
;
Structure prediction by ZEFSAII (Michael W. Deem and Ramdas Pophale) SiO2 
 PCOD9336930
Probable space group: I 21 21 21
;
_chemical_formula_sum "Si O2"
_cell_formula_units_Z 32
_cell_length_a 16.610026
_cell_length_b 15.942138
_cell_length_c 5.380596
_cell_angle_alpha 90.000000
_cell_angle_beta 90.000000
_cell_angle_gamma 90.000000
_cell_volume 1424.778198
_symmetry_space_group_name_H-M "I 21 21 21"
_symmetry_group_IT_number 24
_symmetry_cell_setting 'orthorhombic'
loop_
_space_group_symop_operation_xyz
x,y,z
-x,1/2-y,z
x,-y,1/2-z
1/2-x,y,-z
1/2+x,1/2+y,1/2+z
1/2-x,-y,1/2+z
1/2+x,1/2-y,-z
-x,1/2+y,1/2-z
loop_
_atom_site_type_symbol
_atom_site_label
_atom_site_fract_x
_atom_site_fract_y
_atom_site_fract_z
Si Si1 0.697157 0.815574 0.750213
Si Si2 0.890031 0.322991 0.518532
Si Si3 0.250000 0.050467 0.500000
Si Si4 0.500000 0.250000 0.119287
Si Si5 0.533006 0.098539 0.751210
O O1 0.750000 0.817966 0.500000
O O2 0.628176 0.885894 0.764576
O O3 0.750000 0.820652 0.000000
O O4 0.647531 0.728417 0.787836
O O5 0.823966 0.391152 0.585688
O O6 0.916937 0.257203 0.725829
O O7 0.975178 0.366022 0.462920
O O8 0.274135 0.000000 0.750000
O O9 0.506445 0.162557 0.969745
O O10 0.516802 0.000000 0.750000
#
# Coordination Sequence:
#
# PCOD9336930 Si02
#       5
#     8   8   4   4   8
#     4  12  26  49  80 110 154 209 263 328 396 470
#     4  12  26  48  78 111 156 211 261 328 401 480
#     4  12  32  48  76 124 162 204 270 336 402 478
#     4  12  24  50  80 112 158 210 272 320 410 476
#     4  12  28  47  78 113 158 206 268 329 399 478
#
# _framework density 22.459637000000001
#
# number of rings (size 3 to 8) (size 9 to 14) (size 15 to 20)
#    0.000    0.000    6.250    2.250    8.750    1.000 
#    0.000    0.000    0.000    0.000    0.000    0.000 
#    0.000    0.000    0.000    0.000    0.000    0.000 
#
# Total GULP energy -89345.772805 kJ/mol
# GULP energy per Si atom -5584.110800 kJ/mol
# Density = 2.240852 g / cm^3
# Si number density = 22.459637 Si / 1000 Ang^3
#
#
#
# Elastic Constant Matrix: (Units=GPa)
#
#
# Indices 1 2 3 4 5 6 
#
# 1 125.9317 18.8217 63.2479 0.0000 0.0000 0.0000
# 2 18.8217 89.1393 43.8041 0.0000 0.0000 0.0000
# 3 63.2479 43.8041 105.8370 0.0000 0.0000 0.0000
# 4 0.0000 0.0000 0.0000 15.4445 0.0000 0.0000
# 5 0.0000 0.0000 0.0000 0.0000 43.7298 0.0000
# 6 0.0000 0.0000 0.0000 0.0000 0.0000 26.5218
#
#
#
# Elastic Compliance Matrix: (Units=1/GPa)
#
#
# Indices 1 2 3 4 5 6 
#
# 1 0.011445 0.001186 -0.007330 0.000000 0.000000 0.000000
# 2 0.001186 0.014205 -0.006588 0.000000 0.000000 0.000000
# 3 -0.007330 -0.006588 0.016556 0.000000 0.000000 0.000000
# 4 0.000000 0.000000 0.000000 0.064748 0.000000 0.000000
# 5 0.000000 0.000000 0.000000 0.000000 0.022868 0.000000
# 6 0.000000 0.000000 0.000000 0.000000 0.000000 0.037705
#
#
# Mechanical properties :
#
#
# Convention : Reuss Voigt Hill
#
# Bulk Modulus (GPa) = 59.73336 63.62837 61.68086
# Shear Modulus (GPa) = 25.17974 30.14150 27.66062
#
# Velocity S-wave (km/s) = 3.35193 3.66735 3.51318
# Velocity P-wave (km/s) = 6.45246 6.80619 6.63168
#
# Compressibility (1/GPa) = 0.01674106
#
# Stress axis : x y z
#
# Youngs Moduli (GPa) = 87.37298 70.39563 60.40230
#
# Poissons Ratio (x) = -0.08346 0.44277
# Poissons Ratio (y) = -0.10359 0.39792
# Poissons Ratio (z) = 0.64047 0.46376
#
# Static dielectric constant tensor:
#      x y z
#    x 1.875990 0.000000 0.000000 
#    y 0.000000 1.909250 0.000000 
#    z 0.000000 0.000000 2.064480 
# 
# From -- ./inp_files/4294.got.cif
#   From: 2010.05.17/outbox.cif.g08.bks.cpg/sg24_3_cif.got.tgz:4294.got - 2010.06.04 00:33:39.
