data_PCOD9336395
_publ_section_title
;
Structure prediction by ZEFSAII (Michael W. Deem and Ramdas Pophale) SiO2 
 PCOD9336395
Probable space group: I 21 21 21
;
_chemical_formula_sum "Si O2"
_cell_formula_units_Z 48
_cell_length_a 7.028196
_cell_length_b 14.705842
_cell_length_c 16.006411
_cell_angle_alpha 90.000000
_cell_angle_beta 90.000000
_cell_angle_gamma 90.000000
_cell_volume 1654.351251
_symmetry_space_group_name_H-M "I 21 21 21"
_symmetry_group_IT_number 24
_symmetry_cell_setting 'orthorhombic'
loop_
_space_group_symop_operation_xyz
x,y,z
-x,1/2-y,z
x,-y,1/2-z
1/2-x,y,-z
1/2+x,1/2+y,1/2+z
1/2-x,-y,1/2+z
1/2+x,1/2-y,-z
-x,1/2+y,1/2-z
loop_
_atom_site_type_symbol
_atom_site_label
_atom_site_fract_x
_atom_site_fract_y
_atom_site_fract_z
Si Si1 0.903051 0.081924 0.649322
Si Si2 0.720925 0.294105 0.417164
Si Si3 0.529939 0.456783 0.608006
Si Si4 0.916210 0.843638 0.407895
Si Si5 0.520990 0.886975 0.342458
Si Si6 0.653169 0.336224 0.751484
O O1 0.900347 0.098059 0.748504
O O2 0.018519 0.162727 0.607498
O O3 0.692269 0.063894 0.619105
O O4 0.019223 0.989668 0.628619
O O5 0.750000 0.235140 0.500000
O O6 0.628443 0.375823 0.558509
O O7 0.801283 0.267176 0.324889
O O8 0.522643 0.560150 0.573280
O O9 0.630053 0.429025 0.696831
O O10 0.685943 0.851902 0.405143
O O11 0.000000 0.750000 0.445716
O O12 0.969665 0.835109 0.309310
O O13 0.327149 0.834929 0.318543
#
# Coordination Sequence:
#
# PCOD9336395 Si02
#       6
#     8   8   8   8   8   8
#     4   9  15  26  47  71  94 121 151 198 245 293
#     4   9  18  29  48  75  89 122 167 213 244 278
#     4   9  18  30  48  71  96 125 160 202 252 292
#     4  11  20  30  47  76 104 130 154 197 259 322
#     4   9  16  28  47  72  97 122 155 194 252 299
#     4   9  18  30  49  68  96 126 159 205 247 293
#
# _framework density 29.014395
#
# number of rings (size 3 to 8) (size 9 to 14) (size 15 to 20)
#    1.000    1.667    1.667    1.500    4.667    1.333 
#    0.000    0.000    0.000    0.000   17.333    0.000 
#    0.000    0.000    0.000    0.000    0.000    0.000 
#
# Total GULP energy -133963.174871 kJ/mol
# GULP energy per Si atom -5581.798953 kJ/mol
# Density = 2.894836 g / cm^3
# Si number density = 29.014395 Si / 1000 Ang^3
#
#
#
# Elastic Constant Matrix: (Units=GPa)
#
#
# Indices 1 2 3 4 5 6 
#
# 1 94.1291 4.2623 -18.2461 0.0000 0.0000 0.0000
# 2 4.2623 149.6828 -0.3724 0.0000 0.0000 0.0000
# 3 -18.2461 -0.3724 60.4156 0.0000 0.0000 0.0000
# 4 0.0000 0.0000 0.0000 7.6777 0.0000 0.0000
# 5 0.0000 0.0000 0.0000 0.0000 43.2904 0.0000
# 6 0.0000 0.0000 0.0000 0.0000 0.0000 43.1073
#
#
#
# Elastic Compliance Matrix: (Units=1/GPa)
#
#
# Indices 1 2 3 4 5 6 
#
# 1 0.011299 -0.000313 0.003410 0.000000 0.000000 0.000000
# 2 -0.000313 0.006690 -0.000053 0.000000 0.000000 0.000000
# 3 0.003410 -0.000053 0.017582 0.000000 0.000000 0.000000
# 4 0.000000 0.000000 0.000000 0.130247 0.000000 0.000000
# 5 0.000000 0.000000 0.000000 0.000000 0.023100 0.000000
# 6 0.000000 0.000000 0.000000 0.000000 0.000000 0.023198
#
#
# Mechanical properties :
#
#
# Convention : Reuss Voigt Hill
#
# Bulk Modulus (GPa) = 24.00501 30.61277 27.30889
# Shear Modulus (GPa) = 22.73622 40.05400 31.39511
#
# Velocity S-wave (km/s) = 2.80236 3.71952 3.29303
# Velocity P-wave (km/s) = 4.33156 5.38704 4.88787
#
# Compressibility (1/GPa) = 0.04165796
#
# Stress axis : x y z
#
# Youngs Moduli (GPa) = 88.50351 149.48622 56.87732
#
# Poissons Ratio (x) = 0.04683 -0.19398
# Poissons Ratio (y) = 0.02772 0.00304
# Poissons Ratio (z) = -0.30184 0.00798
#
# Static dielectric constant tensor:
#      x y z
#    x 2.334660 0.000000 0.000000 
#    y 0.000000 2.524390 0.000000 
#    z 0.000000 0.000000 2.182200 
# 
# From -- ./inp_files/29585.got.cif
#   From: 2010.05.17/outbox.cif.g08.bks.cpg/sg24_15_cif.got.tgz:29585.got - 2010.06.04 00:33:39.
