data_PCOD9336894
_publ_section_title
;
Structure prediction by ZEFSAII (Michael W. Deem and Ramdas Pophale) SiO2 
 PCOD9336894
Probable space group: I 21 21 21
;
_chemical_formula_sum "Si O2"
_cell_formula_units_Z 20
_cell_length_a 7.474597
_cell_length_b 7.695311
_cell_length_c 12.149904
_cell_angle_alpha 90.000000
_cell_angle_beta 90.000000
_cell_angle_gamma 90.000000
_cell_volume 698.854563
_symmetry_space_group_name_H-M "I 21 21 21"
_symmetry_group_IT_number 24
_symmetry_cell_setting 'orthorhombic'
loop_
_space_group_symop_operation_xyz
x,y,z
-x,1/2-y,z
x,-y,1/2-z
1/2-x,y,-z
1/2+x,1/2+y,1/2+z
1/2-x,-y,1/2+z
1/2+x,1/2-y,-z
-x,1/2+y,1/2-z
loop_
_atom_site_type_symbol
_atom_site_label
_atom_site_fract_x
_atom_site_fract_y
_atom_site_fract_z
Si Si1 0.418424 0.579266 0.929758
Si Si2 0.250000 0.831917 0.500000
Si Si3 0.201542 0.211047 0.753804
O O1 0.500000 0.750000 0.983178
O O2 0.576142 0.442187 0.956002
O O3 0.337234 0.664821 0.815152
O O4 0.250000 0.531250 0.000000
O O5 0.206888 0.745643 0.617394
O O6 0.000000 0.250000 0.717449
O O7 0.236081 0.000000 0.750000
#
# Coordination Sequence:
#
# PCOD9336894 Si02
#       3
#     8   4   8
#     4  12  23  49  85 114 163 223 278 358 440 511
#     4  12  28  56  78 126 174 220 292 362 442 538
#     4  12  27  54  84 122 172 226 295 364 445 535
#
# _framework density 28.618255000000001
#
# number of rings (size 3 to 8) (size 9 to 14) (size 15 to 20)
#    0.000    0.000    6.000    3.600    0.000    1.600 
#   32.400    0.000    0.000    0.000    0.000    0.000 
#    0.000    0.000    0.000    0.000    0.000    0.000 
#
# Total GULP energy -55838.021560 kJ/mol
# GULP energy per Si atom -5583.802156 kJ/mol
# Density = 2.855312 g / cm^3
# Si number density = 28.618255 Si / 1000 Ang^3
#
#
#
# Elastic Constant Matrix: (Units=GPa)
#
#
# Indices 1 2 3 4 5 6 
#
# 1 257.1250 47.8597 115.2226 0.0000 0.0000 0.0000
# 2 47.8597 162.8758 111.8716 0.0000 0.0000 0.0000
# 3 115.2226 111.8716 314.9884 0.0000 0.0000 0.0000
# 4 0.0000 0.0000 0.0000 75.2142 0.0000 0.0000
# 5 0.0000 0.0000 0.0000 0.0000 117.7126 0.0000
# 6 0.0000 0.0000 0.0000 0.0000 0.0000 36.4868
#
#
#
# Elastic Compliance Matrix: (Units=1/GPa)
#
#
# Indices 1 2 3 4 5 6 
#
# 1 0.004660 -0.000263 -0.001611 0.000000 0.000000 0.000000
# 2 -0.000263 0.008135 -0.002793 0.000000 0.000000 0.000000
# 3 -0.001611 -0.002793 0.004756 0.000000 0.000000 0.000000
# 4 0.000000 0.000000 0.000000 0.013295 0.000000 0.000000
# 5 0.000000 0.000000 0.000000 0.000000 0.008495 0.000000
# 6 0.000000 0.000000 0.000000 0.000000 0.000000 0.027407
#
#
# Mechanical properties :
#
#
# Convention : Reuss Voigt Hill
#
# Bulk Modulus (GPa) = 121.69600 142.76633 132.23117
# Shear Modulus (GPa) = 63.43304 76.55174 69.99239
#
# Velocity S-wave (km/s) = 4.71310 5.17758 4.95079
# Velocity P-wave (km/s) = 8.49906 9.25947 8.88740
#
# Compressibility (1/GPa) = 0.00821720
#
# Stress axis : x y z
#
# Youngs Moduli (GPa) = 214.58583 122.91952 210.24873
#
# Poissons Ratio (x) = 0.03227 0.33880
# Poissons Ratio (y) = 0.05633 0.58730
# Poissons Ratio (z) = 0.34579 0.34336
#
# Static dielectric constant tensor:
#      x y z
#    x 1.971300 0.000000 0.000000 
#    y 0.000000 2.196980 0.000000 
#    z 0.000000 0.000000 2.240460 
# 
# From -- ./inp_files/17845.got.cif
#   From: 2010.05.17/outbox.cif.g08.bks.cpg/sg24_9_cif.got.tgz:17845.got - 2010.06.04 00:33:39.
