data_PCOD9336724
_publ_section_title
;
Structure prediction by ZEFSAII (Michael W. Deem and Ramdas Pophale) SiO2 
 PCOD9336724
Probable space group: I 21 21 21
;
_chemical_formula_sum "Si O2"
_cell_formula_units_Z 32
_cell_length_a 12.185933
_cell_length_b 8.372264
_cell_length_c 12.422008
_cell_angle_alpha 90.000000
_cell_angle_beta 90.000000
_cell_angle_gamma 90.000000
_cell_volume 1267.341058
_symmetry_space_group_name_H-M "I 21 21 21"
_symmetry_group_IT_number 24
_symmetry_cell_setting 'orthorhombic'
loop_
_space_group_symop_operation_xyz
x,y,z
-x,1/2-y,z
x,-y,1/2-z
1/2-x,y,-z
1/2+x,1/2+y,1/2+z
1/2-x,-y,1/2+z
1/2+x,1/2-y,-z
-x,1/2+y,1/2-z
loop_
_atom_site_type_symbol
_atom_site_label
_atom_site_fract_x
_atom_site_fract_y
_atom_site_fract_z
Si Si1 0.000000 0.750000 0.480046
Si Si2 0.926011 0.518195 0.875309
Si Si3 0.701441 0.122189 0.886000
Si Si4 0.776077 0.248996 0.339472
Si Si5 0.000000 0.750000 0.034780
O O1 0.070887 0.637750 0.401996
O O2 0.924932 0.647159 0.561030
O O3 0.956605 0.500000 0.750000
O O4 0.816227 0.627310 0.878815
O O5 0.016350 0.609637 0.947393
O O6 0.728204 0.243801 0.789917
O O7 0.737571 0.939932 0.864824
O O8 0.750000 0.164675 0.000000
O O9 0.894472 0.286639 0.391754
#
# Coordination Sequence:
#
# PCOD9336724 Si02
#       5
#     4   8   8   8   4
#     4  12  26  50  78 118 160 204 276 342 400 486
#     4  12  27  48  78 121 157 216 269 339 409 485
#     4  11  24  49  77 116 162 212 272 334 405 490
#     4  11  26  47  79 114 161 219 264 335 409 482
#     4  12  24  50  78 114 166 210 276 326 414 492
#
# _framework density 25.249717
#
# number of rings (size 3 to 8) (size 9 to 14) (size 15 to 20)
#    0.000    0.500    2.500    5.250    0.000    6.000 
#    4.500    0.000    0.000    0.000    0.000    0.000 
#    0.000    0.000    0.000    0.000    0.000    0.000 
#
# Total GULP energy -89443.605988 kJ/mol
# GULP energy per Si atom -5590.225374 kJ/mol
# Density = 2.519225 g / cm^3
# Si number density = 25.249717 Si / 1000 Ang^3
#
#
#
# Elastic Constant Matrix: (Units=GPa)
#
#
# Indices 1 2 3 4 5 6 
#
# 1 114.8820 50.0075 40.1762 0.0000 0.0000 0.0000
# 2 50.0075 104.2102 28.2225 0.0000 0.0000 0.0000
# 3 40.1762 28.2225 139.1310 0.0000 0.0000 0.0000
# 4 0.0000 0.0000 0.0000 39.3618 0.0000 0.0000
# 5 0.0000 0.0000 0.0000 0.0000 34.7706 0.0000
# 6 0.0000 0.0000 0.0000 0.0000 0.0000 30.3463
#
#
#
# Elastic Compliance Matrix: (Units=1/GPa)
#
#
# Indices 1 2 3 4 5 6 
#
# 1 0.011697 -0.004972 -0.002369 0.000000 0.000000 0.000000
# 2 -0.004972 0.012267 -0.001053 0.000000 0.000000 0.000000
# 3 -0.002369 -0.001053 0.008085 0.000000 0.000000 0.000000
# 4 0.000000 0.000000 0.000000 0.025405 0.000000 0.000000
# 5 0.000000 0.000000 0.000000 0.000000 0.028760 0.000000
# 6 0.000000 0.000000 0.000000 0.000000 0.000000 0.032953
#
#
# Mechanical properties :
#
#
# Convention : Reuss Voigt Hill
#
# Bulk Modulus (GPa) = 65.52139 66.11505 65.81822
# Shear Modulus (GPa) = 35.45047 36.88353 36.16700
#
# Velocity S-wave (km/s) = 3.75106 3.82612 3.78878
# Velocity P-wave (km/s) = 6.69076 6.76463 6.72780
#
# Compressibility (1/GPa) = 0.01526219
#
# Stress axis : x y z
#
# Youngs Moduli (GPa) = 85.49021 81.52102 123.68313
#
# Poissons Ratio (x) = 0.40528 0.29304
# Poissons Ratio (y) = 0.42502 0.13020
# Poissons Ratio (z) = 0.20255 0.08582
#
# Static dielectric constant tensor:
#      x y z
#    x 2.045880 0.000000 0.000000 
#    y 0.000000 2.111580 0.000000 
#    z 0.000000 0.000000 1.986810 
# 
# From -- ./inp_files/20372.got.cif
#   From: 2010.05.17/outbox.cif.g08.bks.cpg/sg24_11_cif.got.tgz:20372.got - 2010.06.04 00:33:39.
