data_PCOD9336763
_publ_section_title
;
Structure prediction by ZEFSAII (Michael W. Deem and Ramdas Pophale) SiO2 
 PCOD9336763
Probable space group: I 21 21 21
;
_chemical_formula_sum "Si O2"
_cell_formula_units_Z 32
_cell_length_a 5.311990
_cell_length_b 15.967468
_cell_length_c 15.197468
_cell_angle_alpha 90.000000
_cell_angle_beta 90.000000
_cell_angle_gamma 90.000000
_cell_volume 1289.034499
_symmetry_space_group_name_H-M "I 21 21 21"
_symmetry_group_IT_number 24
_symmetry_cell_setting 'orthorhombic'
loop_
_space_group_symop_operation_xyz
x,y,z
-x,1/2-y,z
x,-y,1/2-z
1/2-x,y,-z
1/2+x,1/2+y,1/2+z
1/2-x,-y,1/2+z
1/2+x,1/2-y,-z
-x,1/2+y,1/2-z
loop_
_atom_site_type_symbol
_atom_site_label
_atom_site_fract_x
_atom_site_fract_y
_atom_site_fract_z
Si Si1 0.815710 0.000000 0.250000
Si Si2 0.136687 0.838414 0.314723
Si Si3 0.447046 0.446470 0.433491
Si Si4 0.250000 0.092540 0.000000
Si Si5 0.262793 0.801768 0.130408
O O1 0.975581 0.080725 0.217164
O O2 0.664814 0.030400 0.337153
O O3 0.000000 0.750000 0.322398
O O4 0.239914 0.857021 0.410402
O O5 0.317969 0.821912 0.232761
O O6 0.250000 0.402514 0.500000
O O7 0.518769 0.530240 0.485225
O O8 0.697653 0.392087 0.413183
O O9 0.500000 0.750000 0.095428
O O10 0.000000 0.750000 0.123841
#
# Coordination Sequence:
#
# PCOD9336763 Si02
#       5
#     4   8   8   4   8
#     4  12  24  52  80 110 170 222 274 344 420 510
#     4  11  25  46  79 116 160 213 281 340 429 493
#     4  12  26  47  80 113 157 217 277 336 425 499
#     4  12  26  44  72 118 154 200 278 346 414 502
#     4  11  26  50  79 113 159 216 272 344 417 494
#
# _framework density 24.824781999999999
#
# number of rings (size 3 to 8) (size 9 to 14) (size 15 to 20)
#    0.000    0.500    2.500    6.000    3.500    3.000 
#    2.250    1.250    0.000    0.000    0.000    0.000 
#    0.000    0.000    0.000    0.000    0.000    0.000 
#
# Total GULP energy -89448.481637 kJ/mol
# GULP energy per Si atom -5590.530102 kJ/mol
# Density = 2.476828 g / cm^3
# Si number density = 24.824782 Si / 1000 Ang^3
#
#
#
# Elastic Constant Matrix: (Units=GPa)
#
#
# Indices 1 2 3 4 5 6 
#
# 1 93.3243 41.0636 32.7730 0.0000 0.0000 0.0000
# 2 41.0636 138.6751 35.6976 0.0000 0.0000 0.0000
# 3 32.7730 35.6976 192.4485 0.0000 0.0000 0.0000
# 4 0.0000 0.0000 0.0000 43.3099 0.0000 0.0000
# 5 0.0000 0.0000 0.0000 0.0000 49.3554 0.0000
# 6 0.0000 0.0000 0.0000 0.0000 0.0000 22.0303
#
#
#
# Elastic Compliance Matrix: (Units=1/GPa)
#
#
# Indices 1 2 3 4 5 6 
#
# 1 0.012743 -0.003376 -0.001544 0.000000 0.000000 0.000000
# 2 -0.003376 0.008467 -0.000996 0.000000 0.000000 0.000000
# 3 -0.001544 -0.000996 0.005644 0.000000 0.000000 0.000000
# 4 0.000000 0.000000 0.000000 0.023089 0.000000 0.000000
# 5 0.000000 0.000000 0.000000 0.000000 0.020261 0.000000
# 6 0.000000 0.000000 0.000000 0.000000 0.000000 0.045392
#
#
# Mechanical properties :
#
#
# Convention : Reuss Voigt Hill
#
# Bulk Modulus (GPa) = 66.56513 71.50181 69.03347
# Shear Modulus (GPa) = 37.75437 43.93336 40.84387
#
# Velocity S-wave (km/s) = 3.90402 4.21139 4.06061
# Velocity P-wave (km/s) = 6.86979 7.24658 7.06070
#
# Compressibility (1/GPa) = 0.01502288
#
# Stress axis : x y z
#
# Youngs Moduli (GPa) = 78.47492 118.10465 177.18585
#
# Poissons Ratio (x) = 0.39871 0.27355
# Poissons Ratio (y) = 0.26493 0.17642
# Poissons Ratio (z) = 0.12115 0.11759
#
# Static dielectric constant tensor:
#      x y z
#    x 2.405590 0.000000 0.000000 
#    y 0.000000 1.712080 0.000000 
#    z 0.000000 0.000000 2.018780 
# 
# From -- ./inp_files/23498.got.cif
#   From: 2010.05.17/outbox.cif.g08.bks.cpg/sg24_12_cif.got.tgz:23498.got - 2010.06.04 00:33:39.
