data_PCOD9336365
_publ_section_title
;
Structure prediction by ZEFSAII (Michael W. Deem and Ramdas Pophale) SiO2 
 PCOD9336365
Probable space group: I 21 21 21
;
_chemical_formula_sum "Si O2"
_cell_formula_units_Z 48
_cell_length_a 7.670097
_cell_length_b 22.057774
_cell_length_c 16.200720
_cell_angle_alpha 90.000000
_cell_angle_beta 90.000000
_cell_angle_gamma 90.000000
_cell_volume 2740.923126
_symmetry_space_group_name_H-M "I 21 21 21"
_symmetry_group_IT_number 24
_symmetry_cell_setting 'orthorhombic'
loop_
_space_group_symop_operation_xyz
x,y,z
-x,1/2-y,z
x,-y,1/2-z
1/2-x,y,-z
1/2+x,1/2+y,1/2+z
1/2-x,-y,1/2+z
1/2+x,1/2-y,-z
-x,1/2+y,1/2-z
loop_
_atom_site_type_symbol
_atom_site_label
_atom_site_fract_x
_atom_site_fract_y
_atom_site_fract_z
Si Si1 0.750000 0.300870 0.500000
Si Si2 0.684598 0.496463 0.155005
Si Si3 0.161690 0.628219 0.189190
Si Si4 0.825805 0.051522 0.822385
Si Si5 0.962761 0.980072 0.088050
Si Si6 0.500000 0.250000 0.634305
Si Si7 0.984819 0.897645 0.927924
O O1 0.662382 0.263981 0.573789
O O2 0.597755 0.343391 0.464312
O O3 0.740519 0.500000 0.250000
O O4 0.525060 0.448785 0.146963
O O5 0.600546 0.561511 0.132719
O O6 0.851304 0.487590 0.097350
O O7 0.249013 0.610037 0.276194
O O8 0.041375 0.572541 0.158458
O O9 0.055829 0.690490 0.184975
O O10 0.316720 0.626054 0.120722
O O11 0.828640 0.000000 0.750000
O O12 0.693850 0.025425 0.890478
O O13 0.946146 0.943776 0.002944
#
# Coordination Sequence:
#
# PCOD9336365 Si02
#       7
#     4   8   8   8   8   4   8
#     4  12  24  34  48  76  98 158 192 230 268 316
#     4  11  18  31  50  74 102 144 171 221 280 333
#     4  11  21  37  49  74 106 149 188 235 268 324
#     4   9  19  33  51  71  99 138 179 224 281 321
#     4  11  20  32  53  75 102 141 182 225 277 330
#     4  12  24  36  52  68 110 154 202 232 264 322
#     4  12  20  34  52  77 110 142 190 228 273 324
#
# _framework density 17.512349
#
# number of rings (size 3 to 8) (size 9 to 14) (size 15 to 20)
#    0.000    1.000    8.333    3.000    0.000    0.000 
#    0.000    0.000    0.000    0.000    0.000    0.000 
#    0.000    0.000   34.000    0.000    1.000    0.333 
#
# Total GULP energy -133961.508344 kJ/mol
# GULP energy per Si atom -5581.729514 kJ/mol
# Density = 1.747249 g / cm^3
# Si number density = 17.512349 Si / 1000 Ang^3
#
#
#
# Elastic Constant Matrix: (Units=GPa)
#
#
# Indices 1 2 3 4 5 6 
#
# 1 109.6211 31.6702 26.7778 0.0000 0.0000 0.0000
# 2 31.6702 62.8248 26.7657 0.0000 0.0000 0.0000
# 3 26.7778 26.7657 36.3151 0.0000 0.0000 0.0000
# 4 0.0000 0.0000 0.0000 20.9956 0.0000 0.0000
# 5 0.0000 0.0000 0.0000 0.0000 26.3325 0.0000
# 6 0.0000 0.0000 0.0000 0.0000 0.0000 17.9784
#
#
#
# Elastic Compliance Matrix: (Units=1/GPa)
#
#
# Indices 1 2 3 4 5 6 
#
# 1 0.011551 -0.003199 -0.006160 0.000000 0.000000 0.000000
# 2 -0.003199 0.024089 -0.015396 0.000000 0.000000 0.000000
# 3 -0.006160 -0.015396 0.043427 0.000000 0.000000 0.000000
# 4 0.000000 0.000000 0.000000 0.047629 0.000000 0.000000
# 5 0.000000 0.000000 0.000000 0.000000 0.037976 0.000000
# 6 0.000000 0.000000 0.000000 0.000000 0.000000 0.055622
#
#
# Mechanical properties :
#
#
# Convention : Reuss Voigt Hill
#
# Bulk Modulus (GPa) = 33.83248 42.13205 37.98227
# Shear Modulus (GPa) = 17.87912 21.29778 19.58845
#
# Velocity S-wave (km/s) = 3.19869 3.49113 3.34810
# Velocity P-wave (km/s) = 5.74485 6.35306 6.05659
#
# Compressibility (1/GPa) = 0.02955739
#
# Stress axis : x y z
#
# Youngs Moduli (GPa) = 86.57127 41.51271 23.02735
#
# Poissons Ratio (x) = 0.13278 0.14185
# Poissons Ratio (y) = 0.27690 0.35453
# Poissons Ratio (z) = 0.53328 0.63913
#
# Static dielectric constant tensor:
#      x y z
#    x 1.679160 0.000000 0.000000 
#    y 0.000000 1.585260 0.000000 
#    z 0.000000 0.000000 1.640870 
# 
# From -- ./inp_files/29730.got.cif
#   From: 2010.05.17/outbox.cif.g08.bks.cpg/sg24_15_cif.got.tgz:29730.got - 2010.06.04 00:33:39.
