data_PCOD9336484
_publ_section_title
;
Structure prediction by ZEFSAII (Michael W. Deem and Ramdas Pophale) SiO2 
 PCOD9336484
Probable space group: I 21 21 21
;
_chemical_formula_sum "Si O2"
_cell_formula_units_Z 44
_cell_length_a 8.545386
_cell_length_b 18.011432
_cell_length_c 12.812468
_cell_angle_alpha 90.000000
_cell_angle_beta 90.000000
_cell_angle_gamma 90.000000
_cell_volume 1972.026385
_symmetry_space_group_name_H-M "I 21 21 21"
_symmetry_group_IT_number 24
_symmetry_cell_setting 'orthorhombic'
loop_
_space_group_symop_operation_xyz
x,y,z
-x,1/2-y,z
x,-y,1/2-z
1/2-x,y,-z
1/2+x,1/2+y,1/2+z
1/2-x,-y,1/2+z
1/2+x,1/2-y,-z
-x,1/2+y,1/2-z
loop_
_atom_site_type_symbol
_atom_site_label
_atom_site_fract_x
_atom_site_fract_y
_atom_site_fract_z
Si Si1 0.945538 0.169598 0.830153
Si Si2 0.064915 0.169523 0.376649
Si Si3 0.078307 0.028610 0.944945
Si Si4 0.750000 0.038790 0.500000
Si Si5 0.687961 0.086438 0.725248
Si Si6 0.422081 0.133580 0.385247
O O1 0.768845 0.136877 0.814974
O O2 0.000000 0.250000 0.872105
O O3 0.042839 0.105202 0.887283
O O4 0.986944 0.169227 0.708438
O O5 0.249195 0.166246 0.373826
O O6 0.024729 0.150014 0.496837
O O7 0.000000 0.250000 0.351939
O O8 0.987768 0.112742 0.295739
O O9 0.090274 0.955437 0.872762
O O10 0.250000 0.031312 0.000000
O O11 0.912924 0.009278 0.005945
O O12 0.757657 0.087065 0.606304
O O13 0.704633 0.000000 0.750000
#
# Coordination Sequence:
#
# PCOD9336484 Si02
#       6
#     8   8   8   4   8   8
#     4  12  25  43  67 100 139 181 229 296 355 410
#     4  11  23  38  62 105 141 177 222 293 370 414
#     4  12  24  47  71 101 136 187 240 288 343 418
#     4  12  22  44  74 102 132 176 246 284 340 418
#     4  12  22  42  69  97 131 182 234 287 343 428
#     4  11  21  42  66  98 138 182 230 286 355 429
#
# _framework density 22.312075
#
# number of rings (size 3 to 8) (size 9 to 14) (size 15 to 20)
#    0.000    0.364    7.273    2.182    0.000    5.818 
#    1.636    0.000    0.000    0.000    0.000    0.000 
#    0.000    0.000    0.000    0.000    0.000    0.000 
#
# Total GULP energy -122681.990156 kJ/mol
# GULP energy per Si atom -5576.454098 kJ/mol
# Density = 2.226129 g / cm^3
# Si number density = 22.312075 Si / 1000 Ang^3
#
#
#
# Elastic Constant Matrix: (Units=GPa)
#
#
# Indices 1 2 3 4 5 6 
#
# 1 113.6572 17.8259 11.7594 0.0000 0.0000 0.0000
# 2 17.8259 140.8712 4.1627 0.0000 0.0000 0.0000
# 3 11.7594 4.1627 8.8373 0.0000 0.0000 0.0000
# 4 0.0000 0.0000 0.0000 8.8164 0.0000 0.0000
# 5 0.0000 0.0000 0.0000 0.0000 9.7036 0.0000
# 6 0.0000 0.0000 0.0000 0.0000 0.0000 14.5447
#
#
#
# Elastic Compliance Matrix: (Units=1/GPa)
#
#
# Indices 1 2 3 4 5 6 
#
# 1 0.010317 -0.000913 -0.013299 0.000000 0.000000 0.000000
# 2 -0.000913 0.007280 -0.002215 0.000000 0.000000 0.000000
# 3 -0.013299 -0.002215 0.131896 0.000000 0.000000 0.000000
# 4 0.000000 0.000000 0.000000 0.113425 0.000000 0.000000
# 5 0.000000 0.000000 0.000000 0.000000 0.103054 0.000000
# 6 0.000000 0.000000 0.000000 0.000000 0.000000 0.068753
#
#
# Mechanical properties :
#
#
# Convention : Reuss Voigt Hill
#
# Bulk Modulus (GPa) = 8.57335 36.76240 22.66787
# Shear Modulus (GPa) = 9.87247 21.92080 15.89664
#
# Velocity S-wave (km/s) = 2.10578 3.13783 2.67211
# Velocity P-wave (km/s) = 3.12462 5.44428 4.43866
#
# Compressibility (1/GPa) = 0.11664057
#
# Stress axis : x y z
#
# Youngs Moduli (GPa) = 96.92285 137.37013 7.58173
#
# Poissons Ratio (x) = 0.12536 0.10083
# Poissons Ratio (y) = 0.08845 0.01679
# Poissons Ratio (z) = 1.28899 0.30422
#
# Static dielectric constant tensor:
#      x y z
#    x 2.023140 0.000000 0.000000 
#    y 0.000000 1.873060 0.000000 
#    z 0.000000 0.000000 1.833700 
# 
# From -- ./inp_files/24727.got.cif
#   From: 2010.05.17/outbox.cif.g08.bks.cpg/sg24_13_cif.got.tgz:24727.got - 2010.06.04 00:33:39.
