data_PCOD9336622
_publ_section_title
;
Structure prediction by ZEFSAII (Michael W. Deem and Ramdas Pophale) SiO2 
 PCOD9336622
Probable space group: I 21 21 21
;
_chemical_formula_sum "Si O2"
_cell_formula_units_Z 48
_cell_length_a 17.864163
_cell_length_b 9.433032
_cell_length_c 13.637752
_cell_angle_alpha 90.000000
_cell_angle_beta 90.000000
_cell_angle_gamma 90.000000
_cell_volume 2298.141520
_symmetry_space_group_name_H-M "I 21 21 21"
_symmetry_group_IT_number 24
_symmetry_cell_setting 'orthorhombic'
loop_
_space_group_symop_operation_xyz
x,y,z
-x,1/2-y,z
x,-y,1/2-z
1/2-x,y,-z
1/2+x,1/2+y,1/2+z
1/2-x,-y,1/2+z
1/2+x,1/2-y,-z
-x,1/2+y,1/2-z
loop_
_atom_site_type_symbol
_atom_site_label
_atom_site_fract_x
_atom_site_fract_y
_atom_site_fract_z
Si Si1 0.072182 0.440509 0.641311
Si Si2 0.169067 0.948775 0.052280
Si Si3 0.267943 0.000000 0.750000
Si Si4 0.782014 0.000000 0.250000
Si Si5 0.839256 0.751509 0.747680
Si Si6 0.558499 0.370211 0.077018
Si Si7 0.833424 0.885959 0.045557
O O1 0.095778 0.500000 0.750000
O O2 0.099360 0.282535 0.667657
O O3 0.114697 0.460844 0.537248
O O4 0.992222 0.510328 0.629279
O O5 0.180898 0.022554 0.156922
O O6 0.147712 0.781516 0.059266
O O7 0.250000 0.955690 0.000000
O O8 0.108534 0.043329 0.997584
O O9 0.211695 0.877294 0.781271
O O10 0.725694 0.131357 0.229933
O O11 0.828444 0.039178 0.347969
O O12 0.886194 0.710076 0.652111
O O13 0.500000 0.250000 0.040694
O O14 0.750000 0.891006 0.000000
#
# Coordination Sequence:
#
# PCOD9336622 Si02
#       7
#     8   8   4   4   8   8   8
#     4  12  25  45  66 105 149 189 235 302 364 435
#     4  11  24  47  71 105 142 194 240 302 360 427
#     4  12  24  44  78 106 140 188 254 302 350 432
#     4  12  22  46  74 106 144 186 252 306 354 422
#     4  12  23  44  70 106 144 188 235 304 363 420
#     4  12  27  43  68 107 150 193 237 293 376 434
#     4  11  23  43  71 104 146 191 248 291 366 432
#
# _framework density 20.886441999999999
#
# number of rings (size 3 to 8) (size 9 to 14) (size 15 to 20)
#    0.000    0.333    7.500    1.000    1.167    3.333 
#    3.000    0.833    0.000    0.000    0.000    0.000 
#    0.000    0.000    0.000    0.000    0.000    0.000 
#
# Total GULP energy -133788.323387 kJ/mol
# GULP energy per Si atom -5574.513474 kJ/mol
# Density = 2.083890 g / cm^3
# Si number density = 20.886442 Si / 1000 Ang^3
#
#
#
# Elastic Constant Matrix: (Units=GPa)
#
#
# Indices 1 2 3 4 5 6 
#
# 1 69.2513 49.2625 51.3766 0.0000 0.0000 0.0000
# 2 49.2625 92.6711 46.3775 0.0000 0.0000 0.0000
# 3 51.3766 46.3775 159.7089 0.0000 0.0000 0.0000
# 4 0.0000 0.0000 0.0000 30.3368 0.0000 0.0000
# 5 0.0000 0.0000 0.0000 0.0000 -11.1091 0.0000
# 6 0.0000 0.0000 0.0000 0.0000 0.0000 28.4835
#
#
#
# Elastic Compliance Matrix: (Units=1/GPa)
#
#
# Indices 1 2 3 4 5 6 
#
# 1 0.026432 -0.011461 -0.005175 0.000000 0.000000 0.000000
# 2 -0.011461 0.017595 -0.001423 0.000000 0.000000 0.000000
# 3 -0.005175 -0.001423 0.008339 0.000000 0.000000 0.000000
# 4 0.000000 0.000000 0.000000 0.032963 0.000000 0.000000
# 5 0.000000 0.000000 0.000000 0.000000 -0.090016 0.000000
# 6 0.000000 0.000000 0.000000 0.000000 0.000000 0.035108
#
#
# Mechanical properties :
#
#
# Convention : Reuss Voigt Hill
#
# Bulk Modulus (GPa) = 61.53953 68.40717 64.97335
# Shear Modulus (GPa) = 69.48713 21.18321 45.33517
#
# Velocity S-wave (km/s) = 5.77419 3.18812 4.66398
# Velocity P-wave (km/s) = 8.60133 6.80993 7.75751
#
# Compressibility (1/GPa) = 0.01624972
#
# Stress axis : x y z
#
# Youngs Moduli (GPa) = 37.83239 56.83301 119.91632
#
# Poissons Ratio (x) = 0.65138 0.62054
# Poissons Ratio (y) = 0.43361 0.17058
# Poissons Ratio (z) = 0.19577 0.08085
#
# Static dielectric constant tensor:
#      x y z
#    x 1.728080 0.000000 0.000000 
#    y 0.000000 2.382410 0.000000 
#    z 0.000000 0.000000 1.856100 
# 
# From -- ./inp_files/27078.got.cif
#   From: 2010.05.17/outbox.cif.g08.bks.cpg/sg24_14_cif.got.tgz:27078.got - 2010.06.04 00:33:39.
