data_PCOD9336605
_publ_section_title
;
Structure prediction by ZEFSAII (Michael W. Deem and Ramdas Pophale) SiO2 
 PCOD9336605
Probable space group: I 21 21 21
;
_chemical_formula_sum "Si O2"
_cell_formula_units_Z 36
_cell_length_a 19.233874
_cell_length_b 9.287870
_cell_length_c 8.995784
_cell_angle_alpha 90.000000
_cell_angle_beta 90.000000
_cell_angle_gamma 90.000000
_cell_volume 1607.022338
_symmetry_space_group_name_H-M "I 21 21 21"
_symmetry_group_IT_number 24
_symmetry_cell_setting 'orthorhombic'
loop_
_space_group_symop_operation_xyz
x,y,z
-x,1/2-y,z
x,-y,1/2-z
1/2-x,y,-z
1/2+x,1/2+y,1/2+z
1/2-x,-y,1/2+z
1/2+x,1/2-y,-z
-x,1/2+y,1/2-z
loop_
_atom_site_type_symbol
_atom_site_label
_atom_site_fract_x
_atom_site_fract_y
_atom_site_fract_z
Si Si1 0.500000 0.750000 0.371091
Si Si2 0.861438 0.665387 0.801796
Si Si3 0.387174 0.219043 0.612241
Si Si4 0.726612 0.656481 0.670990
Si Si5 0.024144 0.474809 0.415671
O O1 0.567301 0.729898 0.265704
O O2 0.489455 0.610396 0.478571
O O3 0.866233 0.500000 0.750000
O O4 0.793323 0.739414 0.735679
O O5 0.844596 0.655308 0.976282
O O6 0.345218 0.226710 0.766785
O O7 0.417213 0.363233 0.534044
O O8 0.453157 0.112660 0.617384
O O9 0.722405 0.500000 0.750000
O O10 0.750000 0.643762 0.500000
O O11 0.050619 0.500000 0.250000
#
# Coordination Sequence:
#
# PCOD9336605 Si02
#       5
#     4   8   8   8   8
#     4  12  24  42  72 110 142 196 238 286 372 426
#     4  11  23  41  70 104 139 187 238 296 348 425
#     4  11  23  44  67 103 138 180 235 295 353 416
#     4  11  24  40  69 102 140 187 241 298 357 428
#     4  11  25  39  71 102 142 180 228 299 351 427
#
# _framework density 22.401679000000001
#
# number of rings (size 3 to 8) (size 9 to 14) (size 15 to 20)
#    0.000    0.889    2.222    6.667    6.222    0.000 
#    0.000    0.000    9.778    0.000    0.000    0.000 
#    0.000    0.000    0.000    0.000    0.000    0.000 
#
# Total GULP energy -100207.154507 kJ/mol
# GULP energy per Si atom -5567.064139 kJ/mol
# Density = 2.235069 g / cm^3
# Si number density = 22.401679 Si / 1000 Ang^3
#
#
#
# Elastic Constant Matrix: (Units=GPa)
#
#
# Indices 1 2 3 4 5 6 
#
# 1 121.7092 31.7098 26.1101 0.0000 0.0000 0.0000
# 2 31.7098 75.3908 31.8968 0.0000 0.0000 0.0000
# 3 26.1101 31.8968 145.6355 0.0000 0.0000 0.0000
# 4 0.0000 0.0000 0.0000 10.1931 0.0000 0.0000
# 5 0.0000 0.0000 0.0000 0.0000 34.0870 0.0000
# 6 0.0000 0.0000 0.0000 0.0000 0.0000 13.6877
#
#
#
# Elastic Compliance Matrix: (Units=1/GPa)
#
#
# Indices 1 2 3 4 5 6 
#
# 1 0.009332 -0.003546 -0.000897 0.000000 0.000000 0.000000
# 2 -0.003546 0.015966 -0.002861 0.000000 0.000000 0.000000
# 3 -0.000897 -0.002861 0.007654 0.000000 0.000000 0.000000
# 4 0.000000 0.000000 0.000000 0.098105 0.000000 0.000000
# 5 0.000000 0.000000 0.000000 0.000000 0.029337 0.000000
# 6 0.000000 0.000000 0.000000 0.000000 0.000000 0.073058
#
#
# Mechanical properties :
#
#
# Convention : Reuss Voigt Hill
#
# Bulk Modulus (GPa) = 54.51021 58.01877 56.26449
# Shear Modulus (GPa) = 19.67145 28.46148 24.06646
#
# Velocity S-wave (km/s) = 2.96653 3.56828 3.28123
# Velocity P-wave (km/s) = 6.00996 6.55228 6.28697
#
# Compressibility (1/GPa) = 0.01834519
#
# Stress axis : x y z
#
# Youngs Moduli (GPa) = 107.15243 62.63234 130.65345
#
# Poissons Ratio (x) = 0.22209 0.11713
# Poissons Ratio (y) = 0.37996 0.37382
# Poissons Ratio (z) = 0.09607 0.17920
#
# Static dielectric constant tensor:
#      x y z
#    x 1.954990 0.000000 0.000000 
#    y 0.000000 1.761300 0.000000 
#    z 0.000000 0.000000 2.565090 
# 
# From -- ./inp_files/9056.got.cif
#   From: 2010.05.17/outbox.cif.g08.bks.cpg/sg24_5_cif.got.tgz:9056.got - 2010.06.04 00:33:39.
