data_PCOD9336558
_publ_section_title
;
Structure prediction by ZEFSAII (Michael W. Deem and Ramdas Pophale) SiO2 
 PCOD9336558
Probable space group: I 21 21 21
;
_chemical_formula_sum "Si O2"
_cell_formula_units_Z 56
_cell_length_a 12.965462
_cell_length_b 14.397968
_cell_length_c 14.068325
_cell_angle_alpha 90.000000
_cell_angle_beta 90.000000
_cell_angle_gamma 90.000000
_cell_volume 2626.222956
_symmetry_space_group_name_H-M "I 21 21 21"
_symmetry_group_IT_number 24
_symmetry_cell_setting 'orthorhombic'
loop_
_space_group_symop_operation_xyz
x,y,z
-x,1/2-y,z
x,-y,1/2-z
1/2-x,y,-z
1/2+x,1/2+y,1/2+z
1/2-x,-y,1/2+z
1/2+x,1/2-y,-z
-x,1/2+y,1/2-z
loop_
_atom_site_type_symbol
_atom_site_label
_atom_site_fract_x
_atom_site_fract_y
_atom_site_fract_z
Si Si1 0.776253 0.043668 0.899074
Si Si2 0.814134 0.843622 0.095872
Si Si3 0.355988 0.100264 0.441158
Si Si4 0.996768 0.571796 0.559121
Si Si5 0.411751 0.827162 0.260412
Si Si6 0.500000 0.750000 0.584274
Si Si7 0.786847 0.223941 0.202603
Si Si8 0.500000 0.250000 0.529843
O O1 0.746498 0.119260 0.822903
O O2 0.895270 0.020859 0.917229
O O3 0.713651 0.949970 0.883868
O O4 0.750000 0.090233 0.000000
O O5 0.789355 0.776087 0.182883
O O6 0.935051 0.827180 0.084707
O O7 0.750000 0.823886 0.000000
O O8 0.250000 0.100257 0.500000
O O9 0.365171 0.112986 0.326779
O O10 0.418107 0.191082 0.472927
O O11 0.415091 0.005995 0.469481
O O12 0.968159 0.612121 0.661375
O O13 0.003346 0.657381 0.483386
O O14 0.500000 0.750000 0.231420
O O15 0.314352 0.784288 0.318237
O O16 0.394759 0.748562 0.649653
#
# Coordination Sequence:
#
# PCOD9336558 Si02
#       8
#     8   8   8   8   8   4   8   4
#     4  11  22  43  71 109 145 190 253 317 370 448
#     4  11  25  42  71 104 145 193 243 310 370 450
#     4  12  28  46  74 107 149 197 248 314 390 455
#     4  12  26  46  74 108 150 199 251 320 378 457
#     4  12  25  45  75 110 147 199 259 317 380 457
#     4  12  27  47  76 110 158 210 247 316 395 458
#     4  12  25  43  73 108 149 195 255 304 388 452
#     4  12  23  45  70  98 140 188 243 298 379 444
#
# _framework density 21.323398000000001
#
# number of rings (size 3 to 8) (size 9 to 14) (size 15 to 20)
#    0.000    0.286    4.286    5.143    4.000    1.143 
#    0.000    0.000    0.000    0.000    0.000    0.000 
#    0.000    0.000    0.000    0.000    0.000    0.000 
#
# Total GULP energy -156196.136446 kJ/mol
# GULP energy per Si atom -5578.433445 kJ/mol
# Density = 2.127487 g / cm^3
# Si number density = 21.323398 Si / 1000 Ang^3
#
#
#
# Elastic Constant Matrix: (Units=GPa)
#
#
# Indices 1 2 3 4 5 6 
#
# 1 132.2886 40.5139 27.9799 0.0000 0.0000 0.0000
# 2 40.5139 92.4695 8.8878 0.0000 0.0000 0.0000
# 3 27.9799 8.8878 85.5728 0.0000 0.0000 0.0000
# 4 0.0000 0.0000 0.0000 17.1596 0.0000 0.0000
# 5 0.0000 0.0000 0.0000 0.0000 18.7154 0.0000
# 6 0.0000 0.0000 0.0000 0.0000 0.0000 45.6628
#
#
#
# Elastic Compliance Matrix: (Units=1/GPa)
#
#
# Indices 1 2 3 4 5 6 
#
# 1 0.009286 -0.003815 -0.002640 0.000000 0.000000 0.000000
# 2 -0.003815 0.012491 -0.000050 0.000000 0.000000 0.000000
# 3 -0.002640 -0.000050 0.012554 0.000000 0.000000 0.000000
# 4 0.000000 0.000000 0.000000 0.058276 0.000000 0.000000
# 5 0.000000 0.000000 0.000000 0.000000 0.053432 0.000000
# 6 0.000000 0.000000 0.000000 0.000000 0.000000 0.021900
#
#
# Mechanical properties :
#
#
# Convention : Reuss Voigt Hill
#
# Bulk Modulus (GPa) = 46.90135 51.67711 49.28923
# Shear Modulus (GPa) = 26.58791 31.83750 29.21270
#
# Velocity S-wave (km/s) = 3.53496 3.86823 3.70534
# Velocity P-wave (km/s) = 6.22128 6.65120 6.43983
#
# Compressibility (1/GPa) = 0.02132135
#
# Stress axis : x y z
#
# Youngs Moduli (GPa) = 107.69033 80.06063 79.65356
#
# Poissons Ratio (x) = 0.30541 0.21029
# Poissons Ratio (y) = 0.41081 0.00398
# Poissons Ratio (z) = 0.28431 0.00400
#
# Static dielectric constant tensor:
#      x y z
#    x 1.933120 0.000000 0.000000 
#    y 0.000000 1.800780 0.000000 
#    z 0.000000 0.000000 1.904110 
# 
# From -- ./inp_files/25864.got.cif
#   From: 2010.05.17/outbox.cif.g08.bks.cpg/sg24_13_cif.got.tgz:25864.got - 2010.06.04 00:33:39.
