data_PCOD9336463
_publ_section_title
;
Structure prediction by ZEFSAII (Michael W. Deem and Ramdas Pophale) SiO2 
 PCOD9336463
Probable space group: I 21 21 21
;
_chemical_formula_sum "Si O2"
_cell_formula_units_Z 64
_cell_length_a 8.919081
_cell_length_b 18.433800
_cell_length_c 19.366513
_cell_angle_alpha 90.000000
_cell_angle_beta 90.000000
_cell_angle_gamma 90.000000
_cell_volume 3184.097890
_symmetry_space_group_name_H-M "I 21 21 21"
_symmetry_group_IT_number 24
_symmetry_cell_setting 'orthorhombic'
loop_
_space_group_symop_operation_xyz
x,y,z
-x,1/2-y,z
x,-y,1/2-z
1/2-x,y,-z
1/2+x,1/2+y,1/2+z
1/2-x,-y,1/2+z
1/2+x,1/2-y,-z
-x,1/2+y,1/2-z
loop_
_atom_site_type_symbol
_atom_site_label
_atom_site_fract_x
_atom_site_fract_y
_atom_site_fract_z
Si Si1 0.601188 0.690893 0.231191
Si Si2 0.873155 0.203891 0.267478
Si Si3 0.915704 0.822754 0.384888
Si Si4 0.891790 0.969634 0.453027
Si Si5 0.890113 0.947965 0.184840
Si Si6 0.123872 0.958792 0.552010
Si Si7 0.750646 0.452846 0.681537
Si Si8 0.554673 0.172372 0.120976
O O1 0.500000 0.750000 0.191676
O O2 0.745694 0.738773 0.252491
O O3 0.659131 0.621835 0.190370
O O4 0.507096 0.668615 0.299737
O O5 0.948639 0.173631 0.196991
O O6 0.820582 0.131647 0.305432
O O7 0.000000 0.250000 0.306383
O O8 0.963323 0.895247 0.423627
O O9 0.734173 0.825601 0.387096
O O10 0.000000 0.750000 0.409838
O O11 0.750000 0.952725 0.500000
O O12 0.014169 0.005821 0.502884
O O13 0.843815 0.014782 0.386348
O O14 0.071338 0.939959 0.180961
O O15 0.854153 0.000000 0.250000
O O16 0.250000 0.930487 0.500000
O O17 0.023237 0.894092 0.582532
O O18 0.196974 0.003224 0.614411
O O19 0.782148 0.500000 0.750000
O O20 0.500000 0.250000 0.093661
#
# Coordination Sequence:
#
# PCOD9336463 Si02
#       8
#     8   8   8   8   8   8   8   8
#     4  11  22  40  66 103 137 169 223 287 351 399
#     4  11  21  38  67 101 134 170 221 290 338 396
#     4  11  24  41  65  95 138 185 226 267 332 413
#     4  12  26  46  63  98 143 180 231 282 339 402
#     4  11  23  40  71 100 130 181 240 277 333 410
#     4  12  26  43  68  98 140 183 223 281 347 407
#     4  11  23  41  71 100 130 182 233 281 337 411
#     4  11  23  42  62  97 141 180 224 272 332 414
#
# _framework density 20.099883999999999
#
# number of rings (size 3 to 8) (size 9 to 14) (size 15 to 20)
#    0.000    0.750    8.750    0.000    1.750    1.500 
#    0.000    2.500    0.000    4.500    0.000    0.000 
#    0.000    0.000    0.000    0.000    0.000    0.000 
#
# Total GULP energy -178661.291381 kJ/mol
# GULP energy per Si atom -5583.165356 kJ/mol
# Density = 2.005414 g / cm^3
# Si number density = 20.099884 Si / 1000 Ang^3
#
#
#
# Elastic Constant Matrix: (Units=GPa)
#
#
# Indices 1 2 3 4 5 6 
#
# 1 75.4113 28.1359 22.4564 0.0000 0.0000 0.0000
# 2 28.1359 106.2422 45.7618 0.0000 0.0000 0.0000
# 3 22.4564 45.7618 97.5232 0.0000 0.0000 0.0000
# 4 0.0000 0.0000 0.0000 20.7559 0.0000 0.0000
# 5 0.0000 0.0000 0.0000 0.0000 26.4087 0.0000
# 6 0.0000 0.0000 0.0000 0.0000 0.0000 26.2633
#
#
#
# Elastic Compliance Matrix: (Units=1/GPa)
#
#
# Indices 1 2 3 4 5 6 
#
# 1 0.015018 -0.003118 -0.001995 0.000000 0.000000 0.000000
# 2 -0.003118 0.012444 -0.005121 0.000000 0.000000 0.000000
# 3 -0.001995 -0.005121 0.013117 0.000000 0.000000 0.000000
# 4 0.000000 0.000000 0.000000 0.048179 0.000000 0.000000
# 5 0.000000 0.000000 0.000000 0.000000 0.037866 0.000000
# 6 0.000000 0.000000 0.000000 0.000000 0.000000 0.038076
#
#
# Mechanical properties :
#
#
# Convention : Reuss Voigt Hill
#
# Bulk Modulus (GPa) = 49.72652 52.43167 51.07909
# Shear Modulus (GPa) = 26.05905 26.87373 26.46639
#
# Velocity S-wave (km/s) = 3.60457 3.66048 3.63263
# Velocity P-wave (km/s) = 6.48978 6.63383 6.56220
#
# Compressibility (1/GPa) = 0.02010999
#
# Stress axis : x y z
#
# Youngs Moduli (GPa) = 66.58677 80.35960 76.23966
#
# Poissons Ratio (x) = 0.25055 0.15211
# Poissons Ratio (y) = 0.20761 0.39045
# Poissons Ratio (z) = 0.13285 0.41155
#
# Static dielectric constant tensor:
#      x y z
#    x 1.780200 0.000000 0.000000 
#    y 0.000000 1.714200 0.000000 
#    z 0.000000 0.000000 1.720670 
# 
# From -- ./inp_files/32947.got.cif
#   From: 2010.05.17/outbox.cif.g08.bks.cpg/sg24_17_cif.got.tgz:32947.got - 2010.06.04 00:33:39.
