data_PCOD9336277
_publ_section_title
;
Structure prediction by ZEFSAII (Michael W. Deem and Ramdas Pophale) SiO2 
 PCOD9336277
Probable space group: I 21 21 21
;
_chemical_formula_sum "Si O2"
_cell_formula_units_Z 56
_cell_length_a 13.429570
_cell_length_b 8.507707
_cell_length_c 22.370453
_cell_angle_alpha 90.000000
_cell_angle_beta 90.000000
_cell_angle_gamma 90.000000
_cell_volume 2555.932678
_symmetry_space_group_name_H-M "I 21 21 21"
_symmetry_group_IT_number 24
_symmetry_cell_setting 'orthorhombic'
loop_
_space_group_symop_operation_xyz
x,y,z
-x,1/2-y,z
x,-y,1/2-z
1/2-x,y,-z
1/2+x,1/2+y,1/2+z
1/2-x,-y,1/2+z
1/2+x,1/2-y,-z
-x,1/2+y,1/2-z
loop_
_atom_site_type_symbol
_atom_site_label
_atom_site_fract_x
_atom_site_fract_y
_atom_site_fract_z
Si Si1 0.774478 0.223292 0.162487
Si Si2 0.574918 0.500000 0.250000
Si Si3 0.849008 0.558546 0.116357
Si Si4 0.250000 0.818653 0.000000
Si Si5 0.947718 0.079372 0.088728
Si Si6 0.913255 0.042651 0.847182
Si Si7 0.274393 0.735411 0.203292
Si Si8 0.576055 0.110622 0.470100
O O1 0.803440 0.399151 0.143822
O O2 0.851939 0.108593 0.129655
O O3 0.778734 0.202261 0.233684
O O4 0.661296 0.187236 0.143447
O O5 0.501297 0.567045 0.300537
O O6 0.644990 0.629368 0.219524
O O7 0.804619 0.699450 0.155665
O O8 0.967692 0.534096 0.116240
O O9 0.812312 0.581477 0.047982
O O10 0.179100 0.703194 0.962581
O O11 0.000000 0.250000 0.080747
O O12 0.917220 0.006845 0.025452
O O13 0.839360 0.909873 0.819823
O O14 0.952960 0.978246 0.909864
O O15 0.500000 0.250000 0.484038
#
# Coordination Sequence:
#
# PCOD9336277 Si02
#       8
#     8   4   8   4   8   8   8   8
#     4  11  24  46  69 100 143 184 235 295 358 422
#     4  12  24  42  72 102 146 180 234 290 360 426
#     4  11  24  45  74  99 141 189 236 296 358 426
#     4  12  24  42  76 104 136 182 242 294 354 428
#     4  10  25  47  70 103 143 186 239 296 357 429
#     4  12  26  42  70 105 141 185 232 299 354 430
#     4  12  23  46  70 104 140 188 237 293 356 428
#     4  12  24  45  71 104 135 183 236 289 355 429
#
# _framework density 21.90981
#
# number of rings (size 3 to 8) (size 9 to 14) (size 15 to 20)
#    0.000    0.571    5.714    2.143    0.000    2.286 
#    2.571    8.571    0.000    0.000    0.000    0.000 
#    0.000    0.000    0.000    0.000    0.000    0.000 
#
# Total GULP energy -156759.225868 kJ/mol
# GULP energy per Si atom -5598.543781 kJ/mol
# Density = 2.185994 g / cm^3
# Si number density = 21.909810 Si / 1000 Ang^3
#
#
#
# Elastic Constant Matrix: (Units=GPa)
#
#
# Indices 1 2 3 4 5 6 
#
# 1 91.6447 19.0517 35.8210 0.0000 0.0000 0.0000
# 2 19.0517 50.2668 27.6063 0.0000 0.0000 0.0000
# 3 35.8210 27.6063 138.7846 0.0000 0.0000 0.0000
# 4 0.0000 0.0000 0.0000 28.0130 0.0000 0.0000
# 5 0.0000 0.0000 0.0000 0.0000 35.6424 0.0000
# 6 0.0000 0.0000 0.0000 0.0000 0.0000 36.0165
#
#
#
# Elastic Compliance Matrix: (Units=1/GPa)
#
#
# Indices 1 2 3 4 5 6 
#
# 1 0.012623 -0.003362 -0.002589 0.000000 0.000000 0.000000
# 2 -0.003362 0.023229 -0.003753 0.000000 0.000000 0.000000
# 3 -0.002589 -0.003753 0.008620 0.000000 0.000000 0.000000
# 4 0.000000 0.000000 0.000000 0.035698 0.000000 0.000000
# 5 0.000000 0.000000 0.000000 0.000000 0.028057 0.000000
# 6 0.000000 0.000000 0.000000 0.000000 0.000000 0.027765
#
#
# Mechanical properties :
#
#
# Convention : Reuss Voigt Hill
#
# Bulk Modulus (GPa) = 39.89836 49.51710 44.70773
# Shear Modulus (GPa) = 30.53356 33.14886 31.84121
#
# Velocity S-wave (km/s) = 3.73715 3.89391 3.81633
# Velocity P-wave (km/s) = 6.07219 6.54723 6.31418
#
# Compressibility (1/GPa) = 0.02506369
#
# Stress axis : x y z
#
# Youngs Moduli (GPa) = 79.22245 43.04928 116.00670
#
# Poissons Ratio (x) = 0.14474 0.30036
# Poissons Ratio (y) = 0.26636 0.43535
# Poissons Ratio (z) = 0.20512 0.16156
#
# Static dielectric constant tensor:
#      x y z
#    x 1.814900 0.000000 0.000000 
#    y 0.000000 1.819250 0.000000 
#    z 0.000000 0.000000 1.761630 
# 
# From -- ./inp_files/33791.got.cif
#   From: 2010.05.17/outbox.cif.g08.bks.cpg/sg24_17_cif.got.tgz:33791.got - 2010.06.04 00:33:39.
