data_PCOD9336861
_publ_section_title
;
Structure prediction by ZEFSAII (Michael W. Deem and Ramdas Pophale) SiO2 
 PCOD9336861
Probable space group: I 21 21 21
;
_chemical_formula_sum "Si O2"
_cell_formula_units_Z 24
_cell_length_a 6.716779
_cell_length_b 10.033672
_cell_length_c 12.353918
_cell_angle_alpha 90.000000
_cell_angle_beta 90.000000
_cell_angle_gamma 90.000000
_cell_volume 832.579423
_symmetry_space_group_name_H-M "I 21 21 21"
_symmetry_group_IT_number 24
_symmetry_cell_setting 'orthorhombic'
loop_
_space_group_symop_operation_xyz
x,y,z
-x,1/2-y,z
x,-y,1/2-z
1/2-x,y,-z
1/2+x,1/2+y,1/2+z
1/2-x,-y,1/2+z
1/2+x,1/2-y,-z
-x,1/2+y,1/2-z
loop_
_atom_site_type_symbol
_atom_site_label
_atom_site_fract_x
_atom_site_fract_y
_atom_site_fract_z
Si Si1 0.750000 0.599886 0.000000
Si Si2 0.658997 0.666471 0.764016
Si Si3 0.668247 0.000000 0.750000
Si Si4 0.006809 0.609622 0.586719
O O1 0.755298 0.671468 0.113219
O O2 0.565195 0.499989 0.002501
O O3 0.593365 0.500000 0.750000
O O4 0.603395 0.832530 0.758554
O O5 0.840461 0.651259 0.676752
O O6 0.814154 0.965015 0.647533
O O7 0.000000 0.750000 0.521638
#
# Coordination Sequence:
#
# PCOD9336861 Si02
#       4
#     4   8   4   8
#     4  12  26  46  68 116 138 172 246 294 336 416
#     4  12  26  46  74 105 142 186 233 287 354 415
#     4  12  22  46  76  96 142 188 226 286 348 412
#     4  12  26  46  74 105 142 186 233 287 354 415
#
# _framework density 28.826077999999999
#
# number of rings (size 3 to 8) (size 9 to 14) (size 15 to 20)
#    0.000    0.000   10.000    0.000    0.000    9.333 
#    0.000    0.000    0.000    0.000    0.000    0.000 
#    0.000    0.000    0.000    0.000    0.000    0.000 
#
# Total GULP energy -67048.740097 kJ/mol
# GULP energy per Si atom -5587.395008 kJ/mol
# Density = 2.876047 g / cm^3
# Si number density = 28.826078 Si / 1000 Ang^3
#
#
#
# Elastic Constant Matrix: (Units=GPa)
#
#
# Indices 1 2 3 4 5 6 
#
# 1 132.4922 62.5615 23.6982 0.0000 0.0000 0.0000
# 2 62.5615 227.6694 -0.0305 0.0000 0.0000 0.0000
# 3 23.6982 -0.0305 105.8676 0.0000 0.0000 0.0000
# 4 0.0000 0.0000 0.0000 -0.9803 0.0000 0.0000
# 5 0.0000 0.0000 0.0000 0.0000 26.9087 0.0000
# 6 0.0000 0.0000 0.0000 0.0000 0.0000 86.1268
#
#
#
# Elastic Compliance Matrix: (Units=1/GPa)
#
#
# Indices 1 2 3 4 5 6 
#
# 1 0.009092 -0.002499 -0.002036 0.000000 0.000000 0.000000
# 2 -0.002499 0.005079 0.000561 0.000000 0.000000 0.000000
# 3 -0.002036 0.000561 0.009902 0.000000 0.000000 0.000000
# 4 0.000000 0.000000 0.000000 -1.020112 0.000000 0.000000
# 5 0.000000 0.000000 0.000000 0.000000 0.037163 0.000000
# 6 0.000000 0.000000 0.000000 0.000000 0.000000 0.011611
#
#
# Mechanical properties :
#
#
# Convention : Reuss Voigt Hill
#
# Bulk Modulus (GPa) = 62.01584 70.94306 66.47945
# Shear Modulus (GPa) = -5.35364 47.73104 21.18870
#
# Velocity S-wave (km/s) = -1.36428 4.07360 2.71413
# Velocity P-wave (km/s) = 4.36793 6.84031 5.73884
#
# Compressibility (1/GPa) = 0.01612491
#
# Stress axis : x y z
#
# Youngs Moduli (GPa) = 109.99234 196.88965 100.99340
#
# Poissons Ratio (x) = 0.49194 0.20561
# Poissons Ratio (y) = 0.27482 -0.05663
# Poissons Ratio (z) = 0.22393 -0.11041
#
# Static dielectric constant tensor:
#      x y z
#    x 2.305880 0.000000 0.000000 
#    y 0.000000 2.367320 0.000000 
#    z 0.000000 0.000000 1.960530 
# 
# From -- ./inp_files/10029.got.cif
#   From: 2010.05.17/outbox.cif.g08.bks.cpg/sg24_6_cif.got.tgz:10029.got - 2010.06.04 00:33:39.
