data_PCOD9336325
_publ_section_title
;
Structure prediction by ZEFSAII (Michael W. Deem and Ramdas Pophale) SiO2 
 PCOD9336325
Probable space group: I 21 21 21
;
_chemical_formula_sum "Si O2"
_cell_formula_units_Z 32
_cell_length_a 19.267022
_cell_length_b 14.079229
_cell_length_c 5.174667
_cell_angle_alpha 90.000000
_cell_angle_beta 90.000000
_cell_angle_gamma 90.000000
_cell_volume 1403.705086
_symmetry_space_group_name_H-M "I 21 21 21"
_symmetry_group_IT_number 24
_symmetry_cell_setting 'orthorhombic'
loop_
_space_group_symop_operation_xyz
x,y,z
-x,1/2-y,z
x,-y,1/2-z
1/2-x,y,-z
1/2+x,1/2+y,1/2+z
1/2-x,-y,1/2+z
1/2+x,1/2-y,-z
-x,1/2+y,1/2-z
loop_
_atom_site_type_symbol
_atom_site_label
_atom_site_fract_x
_atom_site_fract_y
_atom_site_fract_z
Si Si1 0.750000 0.432613 0.000000
Si Si2 0.027552 0.557712 0.992243
Si Si3 0.151832 0.756859 0.424271
Si Si4 0.000000 0.250000 0.264728
Si Si5 0.678890 0.135730 0.426425
O O1 0.745182 0.500000 0.250000
O O2 0.815253 0.359809 0.024163
O O3 0.015095 0.500000 0.250000
O O4 0.996429 0.660093 0.046997
O O5 0.000036 0.500000 0.750000
O O6 0.110121 0.573751 0.959266
O O7 0.176726 0.684574 0.646728
O O8 0.068557 0.750784 0.410042
O O9 0.174626 0.718879 0.142834
O O10 0.750000 0.083230 0.500000
#
# Coordination Sequence:
#
# PCOD9336325 Si02
#       5
#     4   8   8   4   8
#     4  12  24  42  68 104 138 182 242 304 362 436
#     4  11  25  43  68 104 143 184 243 294 356 442
#     4  11  23  43  68  98 134 189 241 287 365 440
#     4  10  26  48  74 102 150 200 238 310 378 426
#     4  11  21  41  70  96 132 180 227 291 356 428
#
# _framework density 22.796813
#
# number of rings (size 3 to 8) (size 9 to 14) (size 15 to 20)
#    0.000    1.000    2.500    4.500    0.000   11.000 
#    0.000    5.000    0.000    0.000    0.000    0.000 
#    0.000    0.000    0.000    0.000    0.000    0.000 
#
# Total GULP energy -89588.562996 kJ/mol
# GULP energy per Si atom -5599.285187 kJ/mol
# Density = 2.274493 g / cm^3
# Si number density = 22.796813 Si / 1000 Ang^3
#
#
#
# Elastic Constant Matrix: (Units=GPa)
#
#
# Indices 1 2 3 4 5 6 
#
# 1 80.9141 -13.7943 13.9394 0.0000 0.0000 0.0000
# 2 -13.7943 124.8634 73.0644 0.0000 0.0000 0.0000
# 3 13.9394 73.0644 179.1905 0.0000 0.0000 0.0000
# 4 0.0000 0.0000 0.0000-1795.3011 0.0000 0.0000
# 5 0.0000 0.0000 0.0000 0.0000 28.0554 0.0000
# 6 0.0000 0.0000 0.0000 0.0000 0.0000 -17.6994
#
#
#
# Elastic Compliance Matrix: (Units=1/GPa)
#
#
# Indices 1 2 3 4 5 6 
#
# 1 0.013186 0.002701 -0.002127 0.000000 0.000000 0.000000
# 2 0.002701 0.011072 -0.004725 0.000000 0.000000 0.000000
# 3 -0.002127 -0.004725 0.007673 0.000000 0.000000 0.000000
# 4 0.000000 0.000000 0.000000 -0.000557 0.000000 0.000000
# 5 0.000000 0.000000 0.000000 0.000000 0.035644 0.000000
# 6 0.000000 0.000000 0.000000 0.000000 0.000000 -0.056499
#
#
# Mechanical properties :
#
#
# Convention : Reuss Voigt Hill
#
# Bulk Modulus (GPa) = 42.32023 59.04302 50.68162
# Shear Modulus (GPa) = 187.29919 -336.20511 -74.45296
#
# Velocity S-wave (km/s) = 9.07406 -12.15727 -5.72104
# Velocity P-wave (km/s) = 11.33090 13.08089 4.62171
#
# Compressibility (1/GPa) = 0.02362936
#
# Stress axis : x y z
#
# Youngs Moduli (GPa) = 75.83917 90.31905 130.33388
#
# Poissons Ratio (x) = -0.24399 0.27725
# Poissons Ratio (y) = -0.20488 0.61578
# Poissons Ratio (z) = 0.16133 0.42673
#
# Static dielectric constant tensor:
#      x y z
#    x 1.904340 0.000000 0.000000 
#    y 0.000000 1.819570 0.000000 
#    z 0.000000 0.000000 1.816770 
# 
# From -- ./inp_files/5277.got.cif
#   From: 2010.05.17/outbox.cif.g08.bks.cpg/sg24_3_cif.got.tgz:5277.got - 2010.06.04 00:33:39.
