data_PCOD9336814
_publ_section_title
;
Structure prediction by ZEFSAII (Michael W. Deem and Ramdas Pophale) SiO2 
 PCOD9336814
Probable space group: I 21 21 21
;
_chemical_formula_sum "Si O2"
_cell_formula_units_Z 48
_cell_length_a 13.383257
_cell_length_b 12.563957
_cell_length_c 13.327904
_cell_angle_alpha 90.000000
_cell_angle_beta 90.000000
_cell_angle_gamma 90.000000
_cell_volume 2241.042615
_symmetry_space_group_name_H-M "I 21 21 21"
_symmetry_group_IT_number 24
_symmetry_cell_setting 'orthorhombic'
loop_
_space_group_symop_operation_xyz
x,y,z
-x,1/2-y,z
x,-y,1/2-z
1/2-x,y,-z
1/2+x,1/2+y,1/2+z
1/2-x,-y,1/2+z
1/2+x,1/2-y,-z
-x,1/2+y,1/2-z
loop_
_atom_site_type_symbol
_atom_site_label
_atom_site_fract_x
_atom_site_fract_y
_atom_site_fract_z
Si Si1 0.729260 0.158459 0.773180
Si Si2 0.346991 0.529110 0.546595
Si Si3 0.331118 0.139992 0.915709
Si Si4 0.488593 0.363712 0.076808
Si Si5 0.949876 0.146855 0.369259
Si Si6 0.587255 0.000000 0.250000
Si Si7 0.910126 0.500000 0.250000
O O1 0.678422 0.069621 0.844197
O O2 0.710427 0.263898 0.843043
O O3 0.658200 0.172408 0.677199
O O4 0.835620 0.103037 0.742749
O O5 0.250000 0.477620 0.500000
O O6 0.379787 0.625392 0.475907
O O7 0.436125 0.447017 0.552205
O O8 0.346141 0.040296 0.842510
O O9 0.250000 0.122535 0.000000
O O10 0.433987 0.144929 0.982662
O O11 0.500000 0.250000 0.130380
O O12 0.482623 0.460318 0.157218
O O13 0.000000 0.250000 0.412691
O O14 0.020001 0.099103 0.281888
#
# Coordination Sequence:
#
# PCOD9336814 Si02
#       7
#     8   8   8   8   8   4   4
#     4  12  20  38  68 104 137 174 237 309 361 431
#     4  12  21  39  69 104 135 176 241 306 355 442
#     4  12  26  43  70 102 136 191 251 300 359 446
#     4  12  24  42  71 105 141 190 245 306 370 447
#     4  12  22  37  65 101 138 178 230 299 377 431
#     4  12  25  43  68 108 152 188 236 318 396 438
#     4  12  23  41  68  98 138 180 238 308 362 432
#
# _framework density 21.418602
#
# number of rings (size 3 to 8) (size 9 to 14) (size 15 to 20)
#    0.000    0.000   10.000    1.500    0.000    0.667 
#    0.000    1.667    0.000    0.000    0.000    0.000 
#    0.000    0.000    0.000    0.000    0.000    0.000 
#
# Total GULP energy -133679.316245 kJ/mol
# GULP energy per Si atom -5569.971510 kJ/mol
# Density = 2.136985 g / cm^3
# Si number density = 21.418602 Si / 1000 Ang^3
#
#
#
# Elastic Constant Matrix: (Units=GPa)
#
#
# Indices 1 2 3 4 5 6 
#
# 1 59.1051 36.3465 23.1999 0.0000 0.0000 0.0000
# 2 36.3465 81.6625 42.0156 0.0000 0.0000 0.0000
# 3 23.1999 42.0156 94.9507 0.0000 0.0000 0.0000
# 4 0.0000 0.0000 0.0000 42.3037 0.0000 0.0000
# 5 0.0000 0.0000 0.0000 0.0000 41.6269 0.0000
# 6 0.0000 0.0000 0.0000 0.0000 0.0000 25.6212
#
#
#
# Elastic Compliance Matrix: (Units=1/GPa)
#
#
# Indices 1 2 3 4 5 6 
#
# 1 0.023446 -0.009695 -0.001439 0.000000 0.000000 0.000000
# 2 -0.009695 0.019864 -0.006421 0.000000 0.000000 0.000000
# 3 -0.001439 -0.006421 0.013725 0.000000 0.000000 0.000000
# 4 0.000000 0.000000 0.000000 0.023639 0.000000 0.000000
# 5 0.000000 0.000000 0.000000 0.000000 0.024023 0.000000
# 6 0.000000 0.000000 0.000000 0.000000 0.000000 0.039030
#
#
# Mechanical properties :
#
#
# Convention : Reuss Voigt Hill
#
# Bulk Modulus (GPa) = 45.60981 48.76025 47.18503
# Shear Modulus (GPa) = 26.86091 30.85411 28.85751
#
# Velocity S-wave (km/s) = 3.54516 3.79955 3.67456
# Velocity P-wave (km/s) = 6.17238 6.48564 6.33095
#
# Compressibility (1/GPa) = 0.02192511
#
# Stress axis : x y z
#
# Youngs Moduli (GPa) = 42.65181 50.34155 72.86193
#
# Poissons Ratio (x) = 0.48807 0.10482
# Poissons Ratio (y) = 0.41351 0.46785
# Poissons Ratio (z) = 0.06136 0.32325
#
# Static dielectric constant tensor:
#      x y z
#    x 1.880420 0.000000 0.000000 
#    y 0.000000 1.819080 0.000000 
#    z 0.000000 0.000000 1.806480 
# 
# From -- ./inp_files/26462.got.cif
#   From: 2010.05.17/outbox.cif.g08.bks.cpg/sg24_14_cif.got.tgz:26462.got - 2010.06.04 00:33:39.
