data_PCOD9336856
_publ_section_title
;
Structure prediction by ZEFSAII (Michael W. Deem and Ramdas Pophale) SiO2 
 PCOD9336856
Probable space group: I 21 21 21
;
_chemical_formula_sum "Si O2"
_cell_formula_units_Z 32
_cell_length_a 13.297142
_cell_length_b 5.775208
_cell_length_c 18.676942
_cell_angle_alpha 90.000000
_cell_angle_beta 90.000000
_cell_angle_gamma 90.000000
_cell_volume 1434.272617
_symmetry_space_group_name_H-M "I 21 21 21"
_symmetry_group_IT_number 24
_symmetry_cell_setting 'orthorhombic'
loop_
_space_group_symop_operation_xyz
x,y,z
-x,1/2-y,z
x,-y,1/2-z
1/2-x,y,-z
1/2+x,1/2+y,1/2+z
1/2-x,-y,1/2+z
1/2+x,1/2-y,-z
-x,1/2+y,1/2-z
loop_
_atom_site_type_symbol
_atom_site_label
_atom_site_fract_x
_atom_site_fract_y
_atom_site_fract_z
Si Si1 0.438621 0.000000 0.250000
Si Si2 0.750000 0.539744 0.500000
Si Si3 0.806558 0.159082 0.678423
Si Si4 0.387110 0.310604 0.584425
Si Si5 0.896134 0.124318 0.946386
O O1 0.500000 0.250000 0.237011
O O2 0.358592 0.092606 0.308221
O O3 0.663764 0.389743 0.536537
O O4 0.803845 0.700513 0.557124
O O5 0.693217 0.157530 0.647786
O O6 0.809649 0.000000 0.750000
O O7 0.875953 0.058481 0.615206
O O8 0.500000 0.250000 0.607740
O O9 0.394088 0.517231 0.526338
O O10 0.000000 0.250000 0.935289
#
# Coordination Sequence:
#
# PCOD9336856 Si02
#       5
#     4   4   8   8   8
#     4  12  30  54  78 118 164 216 266 324 406 486
#     4  12  22  44  78 110 150 198 270 338 388 478
#     4  12  29  50  76 118 168 211 267 335 405 497
#     4  12  26  49  75 114 155 209 273 329 408 478
#     4  12  26  47  81 114 152 208 270 340 401 474
#
# _framework density 22.310960999999999
#
# number of rings (size 3 to 8) (size 9 to 14) (size 15 to 20)
#    0.000    0.000    8.750    0.000    7.000    1.000 
#    2.250    0.000    0.000    0.000    0.000    0.000 
#    0.000    0.000    0.000    0.000    0.000    0.000 
#
# Total GULP energy -89371.226729 kJ/mol
# GULP energy per Si atom -5585.701671 kJ/mol
# Density = 2.226018 g / cm^3
# Si number density = 22.310961 Si / 1000 Ang^3
#
#
#
# Elastic Constant Matrix: (Units=GPa)
#
#
# Indices 1 2 3 4 5 6 
#
# 1 210.3703 76.7388 62.7248 0.0000 0.0000 0.0000
# 2 76.7388 100.5629 43.1802 0.0000 0.0000 0.0000
# 3 62.7248 43.1802 102.0843 0.0000 0.0000 0.0000
# 4 0.0000 0.0000 0.0000 59.7867 0.0000 0.0000
# 5 0.0000 0.0000 0.0000 0.0000 -2.3028 0.0000
# 6 0.0000 0.0000 0.0000 0.0000 0.0000 43.7430
#
#
#
# Elastic Compliance Matrix: (Units=1/GPa)
#
#
# Indices 1 2 3 4 5 6 
#
# 1 0.007082 -0.004321 -0.002524 0.000000 0.000000 0.000000
# 2 -0.004321 0.014787 -0.003600 0.000000 0.000000 0.000000
# 3 -0.002524 -0.003600 0.012869 0.000000 0.000000 0.000000
# 4 0.000000 0.000000 0.000000 0.016726 0.000000 0.000000
# 5 0.000000 0.000000 0.000000 0.000000 -0.434259 0.000000
# 6 0.000000 0.000000 0.000000 0.000000 0.000000 0.022861
#
#
# Mechanical properties :
#
#
# Convention : Reuss Voigt Hill
#
# Bulk Modulus (GPa) = 72.20534 86.47834 79.34184
# Shear Modulus (GPa) = -14.95088 35.60364 10.32638
#
# Velocity S-wave (km/s) = -2.59146 3.99907 2.15370
# Velocity P-wave (km/s) = 4.84553 7.75681 6.46712
#
# Compressibility (1/GPa) = 0.01384939
#
# Stress axis : x y z
#
# Youngs Moduli (GPa) = 141.20016 67.62818 77.70387
#
# Poissons Ratio (x) = 0.29219 0.19613
# Poissons Ratio (y) = 0.61006 0.27972
# Poissons Ratio (z) = 0.35639 0.24345
#
# Static dielectric constant tensor:
#      x y z
#    x 1.832310 0.000000 0.000000 
#    y 0.000000 1.929750 0.000000 
#    z 0.000000 0.000000 1.877370 
# 
# From -- ./inp_files/4382.got.cif
#   From: 2010.05.17/outbox.cif.g08.bks.cpg/sg24_3_cif.got.tgz:4382.got - 2010.06.04 00:33:39.
