data_PCOD9336744
_publ_section_title
;
Structure prediction by ZEFSAII (Michael W. Deem and Ramdas Pophale) SiO2 
 PCOD9336744
Probable space group: I 21 21 21
;
_chemical_formula_sum "Si O2"
_cell_formula_units_Z 36
_cell_length_a 8.915730
_cell_length_b 8.866980
_cell_length_c 18.151267
_cell_angle_alpha 90.000000
_cell_angle_beta 90.000000
_cell_angle_gamma 90.000000
_cell_volume 1434.959296
_symmetry_space_group_name_H-M "I 21 21 21"
_symmetry_group_IT_number 24
_symmetry_cell_setting 'orthorhombic'
loop_
_space_group_symop_operation_xyz
x,y,z
-x,1/2-y,z
x,-y,1/2-z
1/2-x,y,-z
1/2+x,1/2+y,1/2+z
1/2-x,-y,1/2+z
1/2+x,1/2-y,-z
-x,1/2+y,1/2-z
loop_
_atom_site_type_symbol
_atom_site_label
_atom_site_fract_x
_atom_site_fract_y
_atom_site_fract_z
Si Si1 0.778080 0.000000 0.250000
Si Si2 0.000000 0.250000 0.277261
Si Si3 0.987168 0.077209 0.850027
Si Si4 0.492272 0.922552 0.527473
Si Si5 0.250000 0.647524 0.000000
Si Si6 0.256106 0.105872 0.616892
O O1 0.891261 0.137140 0.234911
O O2 0.661972 0.001008 0.181980
O O3 0.884914 0.336173 0.329729
O O4 0.000000 0.250000 0.822532
O O5 0.997595 0.084004 0.938682
O O6 0.129066 0.972268 0.834791
O O7 0.500000 0.750000 0.553616
O O8 0.627465 0.041286 0.539619
O O9 0.344095 0.989917 0.563950
O O10 0.192780 0.761852 0.936294
#
# Coordination Sequence:
#
# PCOD9336744 Si02
#       6
#     4   4   8   8   4   8
#     4  12  32  54  78 112 158 228 276 332 404 482
#     4  12  30  52  80 114 154 212 282 340 392 490
#     4  11  28  48  79 115 161 212 265 333 403 497
#     4  11  25  43  75 119 162 200 257 328 425 475
#     4  12  22  42  74 120 158 200 254 324 418 480
#     4  12  25  48  81 121 153 206 265 344 412 482
#
# _framework density 25.087820000000001
#
# number of rings (size 3 to 8) (size 9 to 14) (size 15 to 20)
#    0.000    0.444    4.444    1.333   12.444    1.778 
#    0.000    0.000    0.000    0.000    0.000    0.000 
#    0.000    0.000    0.000    0.000    0.000    0.000 
#
# Total GULP energy -100750.156941 kJ/mol
# GULP energy per Si atom -5597.230941 kJ/mol
# Density = 2.503072 g / cm^3
# Si number density = 25.087820 Si / 1000 Ang^3
#
#
#
# Elastic Constant Matrix: (Units=GPa)
#
#
# Indices 1 2 3 4 5 6 
#
# 1 203.5642 93.1932 47.3985 0.0000 0.0000 0.0000
# 2 93.1932 163.0402 33.6283 0.0000 0.0000 0.0000
# 3 47.3985 33.6283 67.3844 0.0000 0.0000 0.0000
# 4 0.0000 0.0000 0.0000 14.0648 0.0000 0.0000
# 5 0.0000 0.0000 0.0000 0.0000 18.5176 0.0000
# 6 0.0000 0.0000 0.0000 0.0000 0.0000 46.9984
#
#
#
# Elastic Compliance Matrix: (Units=1/GPa)
#
#
# Indices 1 2 3 4 5 6 
#
# 1 0.007291 -0.003466 -0.003398 0.000000 0.000000 0.000000
# 2 -0.003466 0.008485 -0.001796 0.000000 0.000000 0.000000
# 3 -0.003398 -0.001796 0.018127 0.000000 0.000000 0.000000
# 4 0.000000 0.000000 0.000000 0.071099 0.000000 0.000000
# 5 0.000000 0.000000 0.000000 0.000000 0.054003 0.000000
# 6 0.000000 0.000000 0.000000 0.000000 0.000000 0.021277
#
#
# Mechanical properties :
#
#
# Convention : Reuss Voigt Hill
#
# Bulk Modulus (GPa) = 60.31036 86.93653 73.62345
# Shear Modulus (GPa) = 24.61457 33.23409 28.92433
#
# Velocity S-wave (km/s) = 3.13571 3.64361 3.39916
# Velocity P-wave (km/s) = 6.09935 7.24081 6.69445
#
# Compressibility (1/GPa) = 0.01658090
#
# Stress axis : x y z
#
# Youngs Moduli (GPa) = 137.16140 117.85030 55.16590
#
# Poissons Ratio (x) = 0.40851 0.18748
# Poissons Ratio (y) = 0.47545 0.09910
# Poissons Ratio (z) = 0.46613 0.21170
#
# Static dielectric constant tensor:
#      x y z
#    x 1.936490 0.000000 0.000000 
#    y 0.000000 2.046440 0.000000 
#    z 0.000000 0.000000 2.009970 
# 
# From -- ./inp_files/32530.got.cif
#   From: 2010.05.17/outbox.cif.g08.bks.cpg/sg24_17_cif.got.tgz:32530.got - 2010.06.04 00:33:39.
