data_PCOD9336523
_publ_section_title
;
Structure prediction by ZEFSAII (Michael W. Deem and Ramdas Pophale) SiO2 
 PCOD9336523
Probable space group: I 21 21 21
;
_chemical_formula_sum "Si O2"
_cell_formula_units_Z 36
_cell_length_a 7.914913
_cell_length_b 9.826652
_cell_length_c 21.513993
_cell_angle_alpha 90.000000
_cell_angle_beta 90.000000
_cell_angle_gamma 90.000000
_cell_volume 1673.295892
_symmetry_space_group_name_H-M "I 21 21 21"
_symmetry_group_IT_number 24
_symmetry_cell_setting 'orthorhombic'
loop_
_space_group_symop_operation_xyz
x,y,z
-x,1/2-y,z
x,-y,1/2-z
1/2-x,y,-z
1/2+x,1/2+y,1/2+z
1/2-x,-y,1/2+z
1/2+x,1/2-y,-z
-x,1/2+y,1/2-z
loop_
_atom_site_type_symbol
_atom_site_label
_atom_site_fract_x
_atom_site_fract_y
_atom_site_fract_z
Si Si1 0.381391 0.537340 0.135487
Si Si2 0.500000 0.250000 0.268403
Si Si3 0.190848 0.282845 0.176734
Si Si4 0.700785 0.421763 0.072750
Si Si5 0.806508 0.714964 0.071065
O O1 0.481645 0.613243 0.190641
O O2 0.235980 0.439709 0.162178
O O3 0.503536 0.448578 0.090364
O O4 0.302845 0.665561 0.100247
O O5 0.333186 0.239232 0.226198
O O6 0.226713 0.199583 0.113603
O O7 0.000000 0.250000 0.196822
O O8 0.779780 0.563913 0.096297
O O9 0.750000 0.403961 0.000000
O O10 0.000000 0.750000 0.076058
O O11 0.750000 0.706353 0.000000
#
# Coordination Sequence:
#
# PCOD9336523 Si02
#       5
#     8   4   8   8   8
#     4  12  24  48  75 106 151 206 249 321 387 452
#     4  12  26  52  74 102 158 200 260 322 376 462
#     4  12  28  48  74 113 146 199 256 313 392 460
#     4  11  23  45  74 109 149 193 248 313 389 462
#     4  11  22  39  67 106 146 196 251 310 380 461
#
# _framework density 21.514427999999999
#
# number of rings (size 3 to 8) (size 9 to 14) (size 15 to 20)
#    0.000    0.444    4.444    4.667    0.000    3.556 
#    8.000    0.000    0.000    0.000    0.000    0.000 
#    0.000    0.000    0.000    0.000    0.000    0.000 
#
# Total GULP energy -100644.823070 kJ/mol
# GULP energy per Si atom -5591.379059 kJ/mol
# Density = 2.146546 g / cm^3
# Si number density = 21.514428 Si / 1000 Ang^3
#
#
#
# Elastic Constant Matrix: (Units=GPa)
#
#
# Indices 1 2 3 4 5 6 
#
# 1 141.1332 21.0478 47.1766 0.0000 0.0000 0.0000
# 2 21.0478 113.3222 36.0937 0.0000 0.0000 0.0000
# 3 47.1766 36.0937 105.1804 0.0000 0.0000 0.0000
# 4 0.0000 0.0000 0.0000 -1.8516 0.0000 0.0000
# 5 0.0000 0.0000 0.0000 0.0000 29.7673 0.0000
# 6 0.0000 0.0000 0.0000 0.0000 0.0000 36.3651
#
#
#
# Elastic Compliance Matrix: (Units=1/GPa)
#
#
# Indices 1 2 3 4 5 6 
#
# 1 0.008351 -0.000402 -0.003608 0.000000 0.000000 0.000000
# 2 -0.000402 0.009927 -0.003226 0.000000 0.000000 0.000000
# 3 -0.003608 -0.003226 0.012233 0.000000 0.000000 0.000000
# 4 0.000000 0.000000 0.000000 -0.540067 0.000000 0.000000
# 5 0.000000 0.000000 0.000000 0.000000 0.033594 0.000000
# 6 0.000000 0.000000 0.000000 0.000000 0.000000 0.027499
#
#
# Mechanical properties :
#
#
# Convention : Reuss Voigt Hill
#
# Bulk Modulus (GPa) = 62.34880 63.14132 62.74506
# Shear Modulus (GPa) = -11.66467 29.87733 9.10633
#
# Velocity S-wave (km/s) = -2.33100 3.73058 2.05958
# Velocity P-wave (km/s) = 4.66885 6.92592 5.90621
#
# Compressibility (1/GPa) = 0.01603880
#
# Stress axis : x y z
#
# Youngs Moduli (GPa) = 119.73922 100.73954 81.74734
#
# Poissons Ratio (x) = 0.04050 0.29494
# Poissons Ratio (y) = 0.04814 0.26372
# Poissons Ratio (z) = 0.43201 0.32500
#
# Static dielectric constant tensor:
#      x y z
#    x 1.785590 0.000000 0.000000 
#    y 0.000000 1.777860 0.000000 
#    z 0.000000 0.000000 1.807380 
# 
# From -- ./inp_files/9095.got.cif
#   From: 2010.05.17/outbox.cif.g08.bks.cpg/sg24_5_cif.got.tgz:9095.got - 2010.06.04 00:33:39.
