data_PCOD9336062
_publ_section_title
;
Structure prediction by ZEFSAII (Michael W. Deem and Ramdas Pophale) SiO2 
 PCOD9336062
Probable space group: I 21 21 21
;
_chemical_formula_sum "Si O2"
_cell_formula_units_Z 52
_cell_length_a 25.955184
_cell_length_b 5.581465
_cell_length_c 16.835760
_cell_angle_alpha 90.000000
_cell_angle_beta 90.000000
_cell_angle_gamma 90.000000
_cell_volume 2438.962056
_symmetry_space_group_name_H-M "I 21 21 21"
_symmetry_group_IT_number 24
_symmetry_cell_setting 'orthorhombic'
loop_
_space_group_symop_operation_xyz
x,y,z
-x,1/2-y,z
x,-y,1/2-z
1/2-x,y,-z
1/2+x,1/2+y,1/2+z
1/2-x,-y,1/2+z
1/2+x,1/2-y,-z
-x,1/2+y,1/2-z
loop_
_atom_site_type_symbol
_atom_site_label
_atom_site_fract_x
_atom_site_fract_y
_atom_site_fract_z
Si Si1 0.263560 0.161902 0.179321
Si Si2 0.861616 0.098637 0.858697
Si Si3 0.373546 0.883353 0.520002
Si Si4 0.417035 0.000000 0.250000
Si Si5 0.057087 0.813716 0.910082
Si Si6 0.156753 0.601870 0.329724
Si Si7 0.218672 0.780669 0.068213
O O1 0.300618 0.389655 0.163527
O O2 0.204762 0.233356 0.197561
O O3 0.284936 0.000000 0.250000
O O4 0.257326 0.971095 0.108328
O O5 0.885006 0.274477 0.789440
O O6 0.898791 0.873561 0.878160
O O7 0.861269 0.215595 0.945763
O O8 0.376954 0.737306 0.603132
O O9 0.419871 0.038242 0.483706
O O10 0.326310 0.060534 0.531558
O O11 0.451439 0.948174 0.173314
O O12 0.000000 0.750000 0.936236
O O13 0.130568 0.500000 0.250000
O O14 0.188293 0.393284 0.373891
O O15 0.250000 0.643888 0.000000
#
# Coordination Sequence:
#
# PCOD9336062 Si02
#       7
#     8   8   8   4   8   8   8
#     4  11  22  38  57  95 137 183 230 262 319 406
#     4  11  22  40  62  95 133 178 230 283 335 391
#     4  10  24  41  61  95 131 170 235 280 340 408
#     4  10  24  38  62  92 128 178 230 288 330 396
#     4  11  26  44  67  93 136 182 236 292 346 402
#     4  11  24  37  63  94 139 183 221 277 348 409
#     4  11  22  38  61  93 136 176 220 268 327 406
#
# _framework density 21.320547000000001
#
# number of rings (size 3 to 8) (size 9 to 14) (size 15 to 20)
#    0.000    1.231    3.846    1.385    6.462    3.077 
#    0.000    0.000    0.000    0.000    0.000    0.000 
#   64.615    0.000    0.000    0.000    0.000    0.000 
#
# Total GULP energy -144780.518571 kJ/mol
# GULP energy per Si atom -5568.481484 kJ/mol
# Density = 2.127202 g / cm^3
# Si number density = 21.320547 Si / 1000 Ang^3
#
#
#
# Elastic Constant Matrix: (Units=GPa)
#
#
# Indices 1 2 3 4 5 6 
#
# 1 80.7852 22.3084 64.4562 0.0000 0.0000 0.0000
# 2 22.3084 53.9570 47.8201 0.0000 0.0000 0.0000
# 3 64.4562 47.8201 168.6072 0.0000 0.0000 0.0000
# 4 0.0000 0.0000 0.0000 49.9204 0.0000 0.0000
# 5 0.0000 0.0000 0.0000 0.0000 -23.5651 0.0000
# 6 0.0000 0.0000 0.0000 0.0000 0.0000 44.1929
#
#
#
# Elastic Compliance Matrix: (Units=1/GPa)
#
#
# Indices 1 2 3 4 5 6 
#
# 1 0.017939 -0.001789 -0.006351 0.000000 0.000000 0.000000
# 2 -0.001789 0.024934 -0.006388 0.000000 0.000000 0.000000
# 3 -0.006351 -0.006388 0.010171 0.000000 0.000000 0.000000
# 4 0.000000 0.000000 0.000000 0.020032 0.000000 0.000000
# 5 0.000000 0.000000 0.000000 0.000000 -0.042436 0.000000
# 6 0.000000 0.000000 0.000000 0.000000 0.000000 0.022628
#
#
# Mechanical properties :
#
#
# Convention : Reuss Voigt Hill
#
# Bulk Modulus (GPa) = 41.68496 63.61318 52.64907
# Shear Modulus (GPa) = 55.35881 25.36061 40.35971
#
# Velocity S-wave (km/s) = 5.10112 3.45264 4.35558
# Velocity P-wave (km/s) = 7.36812 6.76725 7.07407
#
# Compressibility (1/GPa) = 0.02398947
#
# Stress axis : x y z
#
# Youngs Moduli (GPa) = 55.74296 40.10549 98.32349
#
# Poissons Ratio (x) = 0.07173 0.62443
# Poissons Ratio (y) = 0.09970 0.62810
# Poissons Ratio (z) = 0.35401 0.25620
#
# Static dielectric constant tensor:
#      x y z
#    x 1.829190 0.000000 0.000000 
#    y 0.000000 1.857230 0.000000 
#    z 0.000000 0.000000 1.803150 
# 
# From -- ./inp_files/31644.got.cif
#   From: 2010.05.17/outbox.cif.g08.bks.cpg/sg24_16_cif.got.tgz:31644.got - 2010.06.04 00:33:39.
