data_PCOD9336989
_publ_section_title
;
Structure prediction by ZEFSAII (Michael W. Deem and Ramdas Pophale) SiO2 
 PCOD9336989
Probable space group: I 21 21 21
;
_chemical_formula_sum "Si O2"
_cell_formula_units_Z 36
_cell_length_a 15.204744
_cell_length_b 17.984711
_cell_length_c 5.730043
_cell_angle_alpha 90.000000
_cell_angle_beta 90.000000
_cell_angle_gamma 90.000000
_cell_volume 1566.897028
_symmetry_space_group_name_H-M "I 21 21 21"
_symmetry_group_IT_number 24
_symmetry_cell_setting 'orthorhombic'
loop_
_space_group_symop_operation_xyz
x,y,z
-x,1/2-y,z
x,-y,1/2-z
1/2-x,y,-z
1/2+x,1/2+y,1/2+z
1/2-x,-y,1/2+z
1/2+x,1/2-y,-z
-x,1/2+y,1/2-z
loop_
_atom_site_type_symbol
_atom_site_label
_atom_site_fract_x
_atom_site_fract_y
_atom_site_fract_z
Si Si1 0.250000 0.204224 0.500000
Si Si2 0.500000 0.250000 0.038821
Si Si3 0.250000 0.959475 0.500000
Si Si4 0.971713 0.000000 0.250000
Si Si5 0.329198 0.333730 0.190577
Si Si6 0.107626 0.872696 0.301011
Si Si7 0.627302 0.000000 0.250000
O O1 0.300737 0.262144 0.337956
O O2 0.179632 0.150603 0.384398
O O3 0.534283 0.428970 0.714335
O O4 0.565265 0.297392 0.883923
O O5 0.161802 0.910584 0.510486
O O6 0.257729 0.000000 0.750000
O O7 0.920640 0.989612 0.496043
O O8 0.327039 0.418950 0.282556
O O9 0.250000 0.334475 0.000000
O O10 0.432926 0.311565 0.149472
#
# Coordination Sequence:
#
# PCOD9336989 Si02
#       7
#     4   4   4   4   8   8   4
#     4  12  29  50  82 117 158 220 274 354 419 502
#     4  12  26  52  78 112 164 208 270 342 412 490
#     4  12  27  48  80 115 156 204 262 340 405 484
#     4  12  30  51  81 122 158 216 274 337 408 505
#     4  12  29  53  83 117 163 216 279 344 419 501
#     4  12  27  49  80 113 164 206 279 329 423 480
#     4  12  32  51  83 116 166 214 278 331 410 489
#
# _framework density 22.975342999999999
#
# number of rings (size 3 to 8) (size 9 to 14) (size 15 to 20)
#    0.000    0.000    5.556    2.000   12.444    0.000 
#    0.000    0.000    0.000    0.000    0.000    0.000 
#    0.000    0.000    0.000    0.000    0.000    0.000 
#
# Total GULP energy -100376.292372 kJ/mol
# GULP energy per Si atom -5576.460687 kJ/mol
# Density = 2.292305 g / cm^3
# Si number density = 22.975343 Si / 1000 Ang^3
#
#
#
# Elastic Constant Matrix: (Units=GPa)
#
#
# Indices 1 2 3 4 5 6 
#
# 1 78.3785 12.8170 51.0890 0.0000 0.0000 0.0000
# 2 12.8170 149.4292 43.8222 0.0000 0.0000 0.0000
# 3 51.0890 43.8222 101.4773 0.0000 0.0000 0.0000
# 4 0.0000 0.0000 0.0000 14.7523 0.0000 0.0000
# 5 0.0000 0.0000 0.0000 0.0000 10.0361 0.0000
# 6 0.0000 0.0000 0.0000 0.0000 0.0000 217.2489
#
#
#
# Elastic Compliance Matrix: (Units=1/GPa)
#
#
# Indices 1 2 3 4 5 6 
#
# 1 0.019230 0.001362 -0.010270 0.000000 0.000000 0.000000
# 2 0.001362 0.007759 -0.004037 0.000000 0.000000 0.000000
# 3 -0.010270 -0.004037 0.016768 0.000000 0.000000 0.000000
# 4 0.000000 0.000000 0.000000 0.067786 0.000000 0.000000
# 5 0.000000 0.000000 0.000000 0.000000 0.099640 0.000000
# 6 0.000000 0.000000 0.000000 0.000000 0.000000 0.004603
#
#
# Mechanical properties :
#
#
# Convention : Reuss Voigt Hill
#
# Bulk Modulus (GPa) = 55.96280 60.52682 58.24481
# Shear Modulus (GPa) = 20.19142 63.17792 41.68467
#
# Velocity S-wave (km/s) = 2.96772 5.24956 4.26411
# Velocity P-wave (km/s) = 6.01280 7.94640 7.04624
#
# Compressibility (1/GPa) = 0.01786901
#
# Stress axis : x y z
#
# Youngs Moduli (GPa) = 52.00264 128.88164 59.63801
#
# Poissons Ratio (x) = -0.17558 0.61246
# Poissons Ratio (y) = -0.07084 0.24073
# Poissons Ratio (z) = 0.53405 0.52024
#
# Static dielectric constant tensor:
#      x y z
#    x 2.299580 0.000000 0.000000 
#    y 0.000000 1.939870 0.000000 
#    z 0.000000 0.000000 1.780270 
# 
# From -- ./inp_files/5436.got.cif
#   From: 2010.05.17/outbox.cif.g08.bks.cpg/sg24_3_cif.got.tgz:5436.got - 2010.06.04 00:33:39.
