data_PCOD9336029
_publ_section_title
;
Structure prediction by ZEFSAII (Michael W. Deem and Ramdas Pophale) SiO2 
 PCOD9336029
Probable space group: I 21 21 21
;
_chemical_formula_sum "Si O2"
_cell_formula_units_Z 28
_cell_length_a 8.967499
_cell_length_b 7.552437
_cell_length_c 17.300686
_cell_angle_alpha 90.000000
_cell_angle_beta 90.000000
_cell_angle_gamma 90.000000
_cell_volume 1171.714413
_symmetry_space_group_name_H-M "I 21 21 21"
_symmetry_group_IT_number 24
_symmetry_cell_setting 'orthorhombic'
loop_
_space_group_symop_operation_xyz
x,y,z
-x,1/2-y,z
x,-y,1/2-z
1/2-x,y,-z
1/2+x,1/2+y,1/2+z
1/2-x,-y,1/2+z
1/2+x,1/2-y,-z
-x,1/2+y,1/2-z
loop_
_atom_site_type_symbol
_atom_site_label
_atom_site_fract_x
_atom_site_fract_y
_atom_site_fract_z
Si Si1 0.538255 0.548560 0.880065
Si Si2 0.732081 0.500000 0.250000
Si Si3 0.000000 0.250000 0.809490
Si Si4 0.250000 0.820525 0.000000
Si Si5 0.219459 0.531609 0.585368
O O1 0.500000 0.750000 0.857076
O O2 0.664241 0.482318 0.823891
O O3 0.614204 0.567170 0.964935
O O4 0.381981 0.449160 0.875711
O O5 0.623089 0.334644 0.245437
O O6 0.913097 0.113140 0.865513
O O7 0.199129 0.678594 0.934344
O O8 0.250000 0.613036 0.500000
#
# Coordination Sequence:
#
# PCOD9336029 Si02
#       5
#     8   4   4   4   8
#     4  10  23  45  76 100 137 191 233 284 355 433
#     4  12  32  42  74  96 156 190 226 294 350 448
#     4  12  30  46  64 110 144 188 234 296 358 418
#     4   8  20  44  78 102 130 182 240 290 344 416
#     4   9  23  44  73 102 135 177 238 301 341 416
#
# _framework density 23.896608000000001
#
# number of rings (size 3 to 8) (size 9 to 14) (size 15 to 20)
#    0.857    1.143    0.000    0.000   16.000    2.286 
#    0.000    0.000    0.000    0.000    0.000    0.000 
#    0.000    0.000    0.000    0.000    0.000    0.000 
#
# Total GULP energy -78208.249758 kJ/mol
# GULP energy per Si atom -5586.303554 kJ/mol
# Density = 2.384222 g / cm^3
# Si number density = 23.896608 Si / 1000 Ang^3
#
#
#
# Elastic Constant Matrix: (Units=GPa)
#
#
# Indices 1 2 3 4 5 6 
#
# 1 167.0134 31.3087 49.5023 0.0000 0.0000 0.0000
# 2 31.3087 30.4433 14.1935 0.0000 0.0000 0.0000
# 3 49.5023 14.1935 63.0131 0.0000 0.0000 0.0000
# 4 0.0000 0.0000 0.0000 23.7442 0.0000 0.0000
# 5 0.0000 0.0000 0.0000 0.0000 25.9931 0.0000
# 6 0.0000 0.0000 0.0000 0.0000 0.0000 48.0074
#
#
#
# Elastic Compliance Matrix: (Units=1/GPa)
#
#
# Indices 1 2 3 4 5 6 
#
# 1 0.008833 -0.006535 -0.005467 0.000000 0.000000 0.000000
# 2 -0.006535 0.041538 -0.004222 0.000000 0.000000 0.000000
# 3 -0.005467 -0.004222 0.021116 0.000000 0.000000 0.000000
# 4 0.000000 0.000000 0.000000 0.042116 0.000000 0.000000
# 5 0.000000 0.000000 0.000000 0.000000 0.038472 0.000000
# 6 0.000000 0.000000 0.000000 0.000000 0.000000 0.020830
#
#
# Mechanical properties :
#
#
# Convention : Reuss Voigt Hill
#
# Bulk Modulus (GPa) = 25.61664 50.05323 37.83493
# Shear Modulus (GPa) = 22.89741 30.57995 26.73868
#
# Velocity S-wave (km/s) = 3.09882 3.58114 3.34867
# Velocity P-wave (km/s) = 4.85248 6.17176 5.55145
#
# Compressibility (1/GPa) = 0.03903713
#
# Stress axis : x y z
#
# Youngs Moduli (GPa) = 113.21049 24.07459 47.35822
#
# Poissons Ratio (x) = 0.15733 0.25891
# Poissons Ratio (y) = 0.73986 0.19996
# Poissons Ratio (z) = 0.61894 0.10165
#
# Static dielectric constant tensor:
#      x y z
#    x 1.913960 0.000000 0.000000 
#    y 0.000000 1.964410 0.000000 
#    z 0.000000 0.000000 1.949250 
# 
# From -- ./inp_files/8734.got.cif
#   From: 2010.05.17/outbox.cif.g08.bks.cpg/sg24_5_cif.got.tgz:8734.got - 2010.06.04 00:33:39.
