data_PCOD9336442
_publ_section_title
;
Structure prediction by ZEFSAII (Michael W. Deem and Ramdas Pophale) SiO2 
 PCOD9336442
Probable space group: I 21 21 21
;
_chemical_formula_sum "Si O2"
_cell_formula_units_Z 56
_cell_length_a 20.855643
_cell_length_b 9.299654
_cell_length_c 13.928284
_cell_angle_alpha 90.000000
_cell_angle_beta 90.000000
_cell_angle_gamma 90.000000
_cell_volume 2701.394357
_symmetry_space_group_name_H-M "I 21 21 21"
_symmetry_group_IT_number 24
_symmetry_cell_setting 'orthorhombic'
loop_
_space_group_symop_operation_xyz
x,y,z
-x,1/2-y,z
x,-y,1/2-z
1/2-x,y,-z
1/2+x,1/2+y,1/2+z
1/2-x,-y,1/2+z
1/2+x,1/2-y,-z
-x,1/2+y,1/2-z
loop_
_atom_site_type_symbol
_atom_site_label
_atom_site_fract_x
_atom_site_fract_y
_atom_site_fract_z
Si Si1 0.362396 0.992952 0.648078
Si Si2 0.323226 0.737539 0.522644
Si Si3 0.594967 0.655043 0.152693
Si Si4 0.932663 0.320869 0.869872
Si Si5 0.257638 0.818918 0.114618
Si Si6 0.823497 0.051670 0.358917
Si Si7 0.927825 0.741766 0.048679
O O1 0.349096 0.836544 0.608816
O O2 0.396732 0.000000 0.750000
O O3 0.295847 0.079048 0.659916
O O4 0.401119 0.083272 0.570210
O O5 0.250000 0.783972 0.500000
O O6 0.372827 0.764486 0.434734
O O7 0.319260 0.577768 0.565401
O O8 0.566328 0.495869 0.132679
O O9 0.577215 0.714027 0.257063
O O10 0.671892 0.640468 0.147252
O O11 0.576189 0.760390 0.065788
O O12 0.000000 0.250000 0.902504
O O13 0.238739 0.654957 0.138076
O O14 0.250000 0.835678 0.000000
O O15 0.881918 0.150620 0.395018
O O16 0.832669 0.000000 0.250000
O O17 0.000000 0.750000 0.081967
#
# Coordination Sequence:
#
# PCOD9336442 Si02
#       7
#     8   8   8   8   8   8   8
#     4  11  23  40  69  98 131 174 230 288 351 416
#     4  12  25  42  67 108 140 177 233 300 352 407
#     4  11  23  45  72  99 137 189 233 273 356 437
#     4  11  26  45  70 107 141 182 235 297 351 419
#     4  11  20  43  70  98 133 183 230 276 353 427
#     4  11  26  44  65 102 145 176 229 298 359 409
#     4  11  24  45  70  92 130 191 234 278 342 436
#
# _framework density 20.730035999999998
#
# number of rings (size 3 to 8) (size 9 to 14) (size 15 to 20)
#    0.000    0.857    4.286    3.857    8.000    0.571 
#    0.000    1.429    0.000    0.000    0.000    0.000 
#    0.000    0.000    0.000    0.000    0.000    0.000 
#
# Total GULP energy -156484.698678 kJ/mol
# GULP energy per Si atom -5588.739239 kJ/mol
# Density = 2.068285 g / cm^3
# Si number density = 20.730036 Si / 1000 Ang^3
#
#
#
# Elastic Constant Matrix: (Units=GPa)
#
#
# Indices 1 2 3 4 5 6 
#
# 1 118.4746 18.3257 11.1167 0.0000 0.0000 0.0000
# 2 18.3257 81.5682 16.0136 0.0000 0.0000 0.0000
# 3 11.1167 16.0136 132.1923 0.0000 0.0000 0.0000
# 4 0.0000 0.0000 0.0000 29.1933 0.0000 0.0000
# 5 0.0000 0.0000 0.0000 0.0000 18.8509 0.0000
# 6 0.0000 0.0000 0.0000 0.0000 0.0000 23.4283
#
#
#
# Elastic Compliance Matrix: (Units=1/GPa)
#
#
# Indices 1 2 3 4 5 6 
#
# 1 0.008778 -0.001872 -0.000511 0.000000 0.000000 0.000000
# 2 -0.001872 0.012957 -0.001412 0.000000 0.000000 0.000000
# 3 -0.000511 -0.001412 0.007779 0.000000 0.000000 0.000000
# 4 0.000000 0.000000 0.000000 0.034254 0.000000 0.000000
# 5 0.000000 0.000000 0.000000 0.000000 0.053048 0.000000
# 6 0.000000 0.000000 0.000000 0.000000 0.000000 0.042683
#
#
# Mechanical properties :
#
#
# Convention : Reuss Voigt Hill
#
# Bulk Modulus (GPa) = 45.61309 47.01632 46.31471
# Shear Modulus (GPa) = 28.66993 33.41312 31.04153
#
# Velocity S-wave (km/s) = 3.72292 4.01911 3.87385
# Velocity P-wave (km/s) = 6.36643 6.65336 6.51147
#
# Compressibility (1/GPa) = 0.02192353
#
# Stress axis : x y z
#
# Youngs Moduli (GPa) = 113.91933 77.17564 128.55413
#
# Poissons Ratio (x) = 0.14445 0.06575
# Poissons Ratio (y) = 0.21323 0.18155
# Poissons Ratio (z) = 0.05826 0.10899
#
# Static dielectric constant tensor:
#      x y z
#    x 1.741210 0.000000 0.000000 
#    y 0.000000 1.753580 0.000000 
#    z 0.000000 0.000000 1.815310 
# 
# From -- ./inp_files/27525.got.cif
#   From: 2010.05.17/outbox.cif.g08.bks.cpg/sg24_14_cif.got.tgz:27525.got - 2010.06.04 00:33:39.
