data_PCOD9336544
_publ_section_title
;
Structure prediction by ZEFSAII (Michael W. Deem and Ramdas Pophale) SiO2 
 PCOD9336544
Probable space group: I 21 21 21
;
_chemical_formula_sum "Si O2"
_cell_formula_units_Z 32
_cell_length_a 10.412082
_cell_length_b 9.079962
_cell_length_c 14.071123
_cell_angle_alpha 90.000000
_cell_angle_beta 90.000000
_cell_angle_gamma 90.000000
_cell_volume 1330.302386
_symmetry_space_group_name_H-M "I 21 21 21"
_symmetry_group_IT_number 24
_symmetry_cell_setting 'orthorhombic'
loop_
_space_group_symop_operation_xyz
x,y,z
-x,1/2-y,z
x,-y,1/2-z
1/2-x,y,-z
1/2+x,1/2+y,1/2+z
1/2-x,-y,1/2+z
1/2+x,1/2-y,-z
-x,1/2+y,1/2-z
loop_
_atom_site_type_symbol
_atom_site_label
_atom_site_fract_x
_atom_site_fract_y
_atom_site_fract_z
Si Si1 0.627020 0.167364 0.275430
Si Si2 0.041427 0.919738 0.474100
Si Si3 0.600718 0.883737 0.838150
Si Si4 0.203812 0.916548 0.650424
O O1 0.840471 0.428336 0.100149
O O2 0.670957 0.249183 0.178495
O O3 0.598309 0.000000 0.250000
O O4 0.753587 0.825474 0.159836
O O5 0.097663 0.966934 0.575313
O O6 0.000000 0.750000 0.478011
O O7 0.934226 0.026422 0.432435
O O8 0.500000 0.750000 0.824220
O O9 0.592528 0.000000 0.750000
O O10 0.000000 0.750000 0.809450
O O11 0.204660 0.000000 0.750000
#
# Coordination Sequence:
#
# PCOD9336544 Si02
#       4
#     8   8   8   8
#     4  11  23  40  67 103 143 192 243 300 371 440
#     4  11  23  43  72 109 150 197 253 308 368 448
#     4  11  22  41  74 110 146 195 254 311 369 442
#     4  11  24  44  73 108 151 198 246 309 380 443
#
# _framework density 24.054680999999999
#
# number of rings (size 3 to 8) (size 9 to 14) (size 15 to 20)
#    0.000    1.000    0.000    9.000    0.000    1.000 
#    0.000    7.500    0.000   21.000    0.000    1.750 
#    0.000    0.000    0.000    0.000    0.000    0.000 
#
# Total GULP energy -89719.271155 kJ/mol
# GULP energy per Si atom -5607.454447 kJ/mol
# Density = 2.399993 g / cm^3
# Si number density = 24.054681 Si / 1000 Ang^3
#
#
#
# Elastic Constant Matrix: (Units=GPa)
#
#
# Indices 1 2 3 4 5 6 
#
# 1 212.3253 69.6828 68.3790 0.0000 0.0000 0.0000
# 2 69.6828 134.0500 40.8526 0.0000 0.0000 0.0000
# 3 68.3790 40.8526 151.8915 0.0000 0.0000 0.0000
# 4 0.0000 0.0000 0.0000 26.5009 0.0000 0.0000
# 5 0.0000 0.0000 0.0000 0.0000 6.6443 0.0000
# 6 0.0000 0.0000 0.0000 0.0000 0.0000 49.2519
#
#
#
# Elastic Compliance Matrix: (Units=1/GPa)
#
#
# Indices 1 2 3 4 5 6 
#
# 1 0.006244 -0.002602 -0.002111 0.000000 0.000000 0.000000
# 2 -0.002602 0.009211 -0.001306 0.000000 0.000000 0.000000
# 3 -0.002111 -0.001306 0.007885 0.000000 0.000000 0.000000
# 4 0.000000 0.000000 0.000000 0.037735 0.000000 0.000000
# 5 0.000000 0.000000 0.000000 0.000000 0.150505 0.000000
# 6 0.000000 0.000000 0.000000 0.000000 0.000000 0.020304
#
#
# Mechanical properties :
#
#
# Convention : Reuss Voigt Hill
#
# Bulk Modulus (GPa) = 88.48396 95.12171 91.80284
# Shear Modulus (GPa) = 20.18675 37.76960 28.97818
#
# Velocity S-wave (km/s) = 2.90004 3.96682 3.47461
# Velocity P-wave (km/s) = 6.93383 7.78528 7.37186
#
# Compressibility (1/GPa) = 0.01130148
#
# Stress axis : x y z
#
# Youngs Moduli (GPa) = 160.16423 108.57077 126.82128
#
# Poissons Ratio (x) = 0.28253 0.26770
# Poissons Ratio (y) = 0.41679 0.16560
# Poissons Ratio (z) = 0.33808 0.14177
#
# Static dielectric constant tensor:
#      x y z
#    x 1.935100 0.000000 0.000000 
#    y 0.000000 1.960140 0.000000 
#    z 0.000000 0.000000 1.884650 
# 
# From -- ./inp_files/20357.got.cif
#   From: 2010.05.17/outbox.cif.g08.bks.cpg/sg24_11_cif.got.tgz:20357.got - 2010.06.04 00:33:39.
