data_PCOD9336473
_publ_section_title
;
Structure prediction by ZEFSAII (Michael W. Deem and Ramdas Pophale) SiO2 
 PCOD9336473
Probable space group: I 21 21 21
;
_chemical_formula_sum "Si O2"
_cell_formula_units_Z 56
_cell_length_a 14.718281
_cell_length_b 8.715560
_cell_length_c 17.432847
_cell_angle_alpha 90.000000
_cell_angle_beta 90.000000
_cell_angle_gamma 90.000000
_cell_volume 2236.251814
_symmetry_space_group_name_H-M "I 21 21 21"
_symmetry_group_IT_number 24
_symmetry_cell_setting 'orthorhombic'
loop_
_space_group_symop_operation_xyz
x,y,z
-x,1/2-y,z
x,-y,1/2-z
1/2-x,y,-z
1/2+x,1/2+y,1/2+z
1/2-x,-y,1/2+z
1/2+x,1/2-y,-z
-x,1/2+y,1/2-z
loop_
_atom_site_type_symbol
_atom_site_label
_atom_site_fract_x
_atom_site_fract_y
_atom_site_fract_z
Si Si1 0.473061 0.597787 0.564085
Si Si2 0.005118 0.432079 0.666256
Si Si3 0.194736 0.609401 0.648043
Si Si4 0.818987 0.537781 0.657688
Si Si5 0.125177 0.665940 0.279570
Si Si6 0.876882 0.609995 0.147355
Si Si7 0.676472 0.891690 0.950583
O O1 0.500000 0.750000 0.518535
O O2 0.414420 0.671039 0.634828
O O3 0.549170 0.493126 0.604317
O O4 0.407313 0.487044 0.515930
O O5 0.987507 0.500000 0.750000
O O6 0.104156 0.507402 0.653258
O O7 0.000000 0.250000 0.669904
O O8 0.911601 0.469600 0.621508
O O9 0.172664 0.785477 0.632031
O O10 0.265060 0.645013 0.719099
O O11 0.258817 0.516301 0.590201
O O12 0.816620 0.500000 0.750000
O O13 0.720574 0.470754 0.636267
O O14 0.090850 0.500000 0.250000
O O15 0.103992 0.823339 0.233772
O O16 0.869028 0.775456 0.107225
O O17 0.750000 0.801592 0.000000
#
# Coordination Sequence:
#
# PCOD9336473 Si02
#       7
#     8   8   8   8   8   8   8
#     4  11  26  41  68 107 141 178 217 274 352 424
#     4  11  22  34  57  88 130 174 218 262 323 394
#     4  11  21  41  62  93 134 173 224 274 337 403
#     4  11  22  36  61 101 138 175 204 264 342 422
#     4  11  22  33  64 104 143 176 202 265 347 423
#     4  12  23  42  67 103 143 171 225 270 349 422
#     4  11  26  47  67  89 127 183 238 287 327 382
#
# _framework density 25.041900999999999
#
# number of rings (size 3 to 8) (size 9 to 14) (size 15 to 20)
#    0.000    0.857    4.286    5.571    2.000    0.000 
#    0.000    8.571    0.000    0.000    0.000    0.000 
#    0.000    0.000    0.000    0.000    0.000    0.000 
#
# Total GULP energy -156157.553250 kJ/mol
# GULP energy per Si atom -5577.055473 kJ/mol
# Density = 2.498490 g / cm^3
# Si number density = 25.041901 Si / 1000 Ang^3
#
#
#
# Elastic Constant Matrix: (Units=GPa)
#
#
# Indices 1 2 3 4 5 6 
#
# 1 204.7030 75.5167 8.4074 0.0000 0.0000 0.0000
# 2 75.5167 181.4929 0.5043 0.0000 0.0000 0.0000
# 3 8.4074 0.5043 23.7674 0.0000 0.0000 0.0000
# 4 0.0000 0.0000 0.0000 -2.5492 0.0000 0.0000
# 5 0.0000 0.0000 0.0000 0.0000 22.1843 0.0000
# 6 0.0000 0.0000 0.0000 0.0000 0.0000 62.1431
#
#
#
# Elastic Compliance Matrix: (Units=1/GPa)
#
#
# Indices 1 2 3 4 5 6 
#
# 1 0.005867 -0.002435 -0.002024 0.000000 0.000000 0.000000
# 2 -0.002435 0.006521 0.000723 0.000000 0.000000 0.000000
# 3 -0.002024 0.000723 0.042775 0.000000 0.000000 0.000000
# 4 0.000000 0.000000 0.000000 -0.392278 0.000000 0.000000
# 5 0.000000 0.000000 0.000000 0.000000 0.045077 0.000000
# 6 0.000000 0.000000 0.000000 0.000000 0.000000 0.016092
#
#
# Mechanical properties :
#
#
# Convention : Reuss Voigt Hill
#
# Bulk Modulus (GPa) = 20.96829 64.31334 42.64082
# Shear Modulus (GPa) = -19.79588 38.05798 9.13105
#
# Velocity S-wave (km/s) = -2.81465 3.90265 1.91160
# Velocity P-wave (km/s) = 1.47362 6.78570 4.68370
#
# Compressibility (1/GPa) = 0.04769106
#
# Stress axis : x y z
#
# Youngs Moduli (GPa) = 170.45395 153.34613 23.37818
#
# Poissons Ratio (x) = 0.37346 0.04731
# Poissons Ratio (y) = 0.41513 -0.01691
# Poissons Ratio (z) = 0.34493 -0.11089
#
# Static dielectric constant tensor:
#      x y z
#    x 2.098460 0.000000 0.000000 
#    y 0.000000 2.032060 0.000000 
#    z 0.000000 0.000000 2.085040 
# 
# From -- ./inp_files/33749.got.cif
#   From: 2010.05.17/outbox.cif.g08.bks.cpg/sg24_17_cif.got.tgz:33749.got - 2010.06.04 00:33:39.
