data_PCOD9336927
_publ_section_title
;
Structure prediction by ZEFSAII (Michael W. Deem and Ramdas Pophale) SiO2 
 PCOD9336927
Probable space group: I 21 21 21
;
_chemical_formula_sum "Si O2"
_cell_formula_units_Z 32
_cell_length_a 5.224382
_cell_length_b 11.812837
_cell_length_c 20.261486
_cell_angle_alpha 90.000000
_cell_angle_beta 90.000000
_cell_angle_gamma 90.000000
_cell_volume 1250.433009
_symmetry_space_group_name_H-M "I 21 21 21"
_symmetry_group_IT_number 24
_symmetry_cell_setting 'orthorhombic'
loop_
_space_group_symop_operation_xyz
x,y,z
-x,1/2-y,z
x,-y,1/2-z
1/2-x,y,-z
1/2+x,1/2+y,1/2+z
1/2-x,-y,1/2+z
1/2+x,1/2-y,-z
-x,1/2+y,1/2-z
loop_
_atom_site_type_symbol
_atom_site_label
_atom_site_fract_x
_atom_site_fract_y
_atom_site_fract_z
Si Si1 0.500000 0.750000 0.116294
Si Si2 0.250000 0.624869 0.000000
Si Si3 0.743260 0.823245 0.657609
Si Si4 0.610290 0.513886 0.179057
Si Si5 0.074058 0.925219 0.446705
O O1 0.577950 0.644734 0.161032
O O2 0.295251 0.700087 0.064375
O O3 0.476808 0.538670 0.982714
O O4 0.500000 0.750000 0.684695
O O5 0.659455 0.854820 0.583169
O O6 0.000000 0.750000 0.662601
O O7 0.841808 0.944727 0.684002
O O8 0.739351 0.500000 0.250000
O O9 0.766337 0.459974 0.118396
O O10 0.250000 0.865386 0.500000
#
# Coordination Sequence:
#
# PCOD9336927 Si02
#       5
#     4   4   8   8   8
#     4  12  24  48  84 112 168 216 274 372 416 520
#     4  12  24  48  82 126 164 216 296 358 444 498
#     4  12  27  55  82 117 170 227 281 355 427 523
#     4  12  29  52  81 127 165 226 291 351 446 521
#     4  12  24  53  80 124 166 214 294 362 428 513
#
# _framework density 25.591134
#
# number of rings (size 3 to 8) (size 9 to 14) (size 15 to 20)
#    0.000    0.000    7.500    1.500    1.750    1.000 
#    6.750    2.500    0.000    0.000    0.000    0.000 
#    0.000    0.000    0.000    0.000    0.000    0.000 
#
# Total GULP energy -89572.159430 kJ/mol
# GULP energy per Si atom -5598.259964 kJ/mol
# Density = 2.553289 g / cm^3
# Si number density = 25.591134 Si / 1000 Ang^3
#
#
#
# Elastic Constant Matrix: (Units=GPa)
#
#
# Indices 1 2 3 4 5 6 
#
# 1 137.0464 33.7256 41.3291 0.0000 0.0000 0.0000
# 2 33.7256 139.9621 44.8219 0.0000 0.0000 0.0000
# 3 41.3291 44.8219 173.8096 0.0000 0.0000 0.0000
# 4 0.0000 0.0000 0.0000 -21.9321 0.0000 0.0000
# 5 0.0000 0.0000 0.0000 0.0000 27.8887 0.0000
# 6 0.0000 0.0000 0.0000 0.0000 0.0000 16.6736
#
#
#
# Elastic Compliance Matrix: (Units=1/GPa)
#
#
# Indices 1 2 3 4 5 6 
#
# 1 0.008125 -0.001460 -0.001556 0.000000 0.000000 0.000000
# 2 -0.001460 0.008050 -0.001729 0.000000 0.000000 0.000000
# 3 -0.001556 -0.001729 0.006569 0.000000 0.000000 0.000000
# 4 0.000000 0.000000 0.000000 -0.045595 0.000000 0.000000
# 5 0.000000 0.000000 0.000000 0.000000 0.035857 0.000000
# 6 0.000000 0.000000 0.000000 0.000000 0.000000 0.059975
#
#
# Mechanical properties :
#
#
# Convention : Reuss Voigt Hill
#
# Bulk Modulus (GPa) = 75.43674 76.73013 76.08343
# Shear Modulus (GPa) = 57.54521 26.58879 42.06700
#
# Velocity S-wave (km/s) = 4.74713 3.22683 4.05879
# Velocity P-wave (km/s) = 7.71937 6.62808 7.19444
#
# Compressibility (1/GPa) = 0.01325614
#
# Stress axis : x y z
#
# Youngs Moduli (GPa) = 123.07491 124.22074 152.22635
#
# Poissons Ratio (x) = 0.18132 0.23680
# Poissons Ratio (y) = 0.17965 0.26318
# Poissons Ratio (z) = 0.19146 0.21476
#
# Static dielectric constant tensor:
#      x y z
#    x 2.128180 0.000000 0.000000 
#    y 0.000000 2.090800 0.000000 
#    z 0.000000 0.000000 1.942350 
# 
# From -- ./inp_files/31913.got.cif
#   From: 2010.05.17/outbox.cif.g08.bks.cpg/sg24_16_cif.got.tgz:31913.got - 2010.06.04 00:33:39.
