data_PCOD9336791
_publ_section_title
;
Structure prediction by ZEFSAII (Michael W. Deem and Ramdas Pophale) SiO2 
 PCOD9336791
Probable space group: I 21 21 21
;
_chemical_formula_sum "Si O2"
_cell_formula_units_Z 28
_cell_length_a 5.096116
_cell_length_b 26.877290
_cell_length_c 9.654620
_cell_angle_alpha 90.000000
_cell_angle_beta 90.000000
_cell_angle_gamma 90.000000
_cell_volume 1322.391251
_symmetry_space_group_name_H-M "I 21 21 21"
_symmetry_group_IT_number 24
_symmetry_cell_setting 'orthorhombic'
loop_
_space_group_symop_operation_xyz
x,y,z
-x,1/2-y,z
x,-y,1/2-z
1/2-x,y,-z
1/2+x,1/2+y,1/2+z
1/2-x,-y,1/2+z
1/2+x,1/2-y,-z
-x,1/2+y,1/2-z
loop_
_atom_site_type_symbol
_atom_site_label
_atom_site_fract_x
_atom_site_fract_y
_atom_site_fract_z
Si Si1 0.323633 0.906684 0.161737
Si Si2 0.985417 0.926279 0.410735
Si Si3 0.001648 0.696261 0.899471
Si Si4 0.179902 0.500000 0.750000
O O1 0.072545 0.904183 0.263030
O O2 0.476177 0.854737 0.183737
O O3 0.497483 0.954073 0.205106
O O4 0.250000 0.910928 0.000000
O O5 0.250000 0.929057 0.500000
O O6 0.750000 0.902157 0.500000
O O7 0.871352 0.980081 0.369068
O O8 0.000000 0.750000 0.824654
O O9 0.250000 0.692754 0.000000
O O10 0.750000 0.697595 0.000000
#
# Coordination Sequence:
#
# PCOD9336791 Si02
#       4
#     8   8   8   4
#     4  11  27  42  71 103 137 182 235 281 341 414
#     4  12  28  45  61  94 141 186 222 281 342 406
#     4   9  20  40  66 101 136 166 218 294 355 393
#     4  12  28  42  68  96 138 184 236 274 336 414
#
# _framework density 21.173762
#
# number of rings (size 3 to 8) (size 9 to 14) (size 15 to 20)
#    0.000    1.143    2.857    0.857   16.000    0.000 
#    0.000    0.000    0.000    0.000    7.429    0.000 
#    0.000    0.000    0.000    0.000    0.000    0.000 
#
# Total GULP energy -78189.236585 kJ/mol
# GULP energy per Si atom -5584.945470 kJ/mol
# Density = 2.112557 g / cm^3
# Si number density = 21.173762 Si / 1000 Ang^3
#
#
#
# Elastic Constant Matrix: (Units=GPa)
#
#
# Indices 1 2 3 4 5 6 
#
# 1 162.8255 43.8912 59.1540 0.0000 0.0000 0.0000
# 2 43.8912 182.3567 29.1303 0.0000 0.0000 0.0000
# 3 59.1540 29.1303 129.4659 0.0000 0.0000 0.0000
# 4 0.0000 0.0000 0.0000 23.8235 0.0000 0.0000
# 5 0.0000 0.0000 0.0000 0.0000 19.4380 0.0000
# 6 0.0000 0.0000 0.0000 0.0000 0.0000 26.3313
#
#
#
# Elastic Compliance Matrix: (Units=1/GPa)
#
#
# Indices 1 2 3 4 5 6 
#
# 1 0.007664 -0.001333 -0.003202 0.000000 0.000000 0.000000
# 2 -0.001333 0.005920 -0.000723 0.000000 0.000000 0.000000
# 3 -0.003202 -0.000723 0.009350 0.000000 0.000000 0.000000
# 4 0.000000 0.000000 0.000000 0.041975 0.000000 0.000000
# 5 0.000000 0.000000 0.000000 0.000000 0.051446 0.000000
# 6 0.000000 0.000000 0.000000 0.000000 0.000000 0.037978
#
#
# Mechanical properties :
#
#
# Convention : Reuss Voigt Hill
#
# Bulk Modulus (GPa) = 80.52802 82.11102 81.31952
# Shear Modulus (GPa) = 29.58795 36.75007 33.16901
#
# Velocity S-wave (km/s) = 3.74222 4.17062 3.96222
# Velocity P-wave (km/s) = 7.53570 7.87756 7.70853
#
# Compressibility (1/GPa) = 0.01241804
#
# Stress axis : x y z
#
# Youngs Moduli (GPa) = 130.47791 168.91541 106.95599
#
# Poissons Ratio (x) = 0.22520 0.34245
# Poissons Ratio (y) = 0.17395 0.07732
# Poissons Ratio (z) = 0.41777 0.12211
#
# Static dielectric constant tensor:
#      x y z
#    x 1.813210 0.000000 0.000000 
#    y 0.000000 1.819320 0.000000 
#    z 0.000000 0.000000 1.814560 
# 
# From -- ./inp_files/8172.got.cif
#   From: 2010.05.17/outbox.cif.g08.bks.cpg/sg24_5_cif.got.tgz:8172.got - 2010.06.04 00:33:39.
