data_PCOD9336070
_publ_section_title
;
Structure prediction by ZEFSAII (Michael W. Deem and Ramdas Pophale) SiO2 
 PCOD9336070
Probable space group: I 21 21 21
;
_chemical_formula_sum "Si O2"
_cell_formula_units_Z 60
_cell_length_a 11.764610
_cell_length_b 13.682986
_cell_length_c 17.897688
_cell_angle_alpha 90.000000
_cell_angle_beta 90.000000
_cell_angle_gamma 90.000000
_cell_volume 2881.080217
_symmetry_space_group_name_H-M "I 21 21 21"
_symmetry_group_IT_number 24
_symmetry_cell_setting 'orthorhombic'
loop_
_space_group_symop_operation_xyz
x,y,z
-x,1/2-y,z
x,-y,1/2-z
1/2-x,y,-z
1/2+x,1/2+y,1/2+z
1/2-x,-y,1/2+z
1/2+x,1/2-y,-z
-x,1/2+y,1/2-z
loop_
_atom_site_type_symbol
_atom_site_label
_atom_site_fract_x
_atom_site_fract_y
_atom_site_fract_z
Si Si1 0.214809 0.118369 0.312276
Si Si2 0.778730 0.793283 0.075636
Si Si3 0.454899 0.361158 0.400797
Si Si4 0.658368 0.502590 0.064591
Si Si5 0.590651 0.867993 0.278304
Si Si6 0.211161 0.500000 0.250000
Si Si7 0.535548 0.142609 0.668669
Si Si8 0.352782 0.149617 0.168722
O O1 0.235136 0.223165 0.352722
O O2 0.294234 0.047881 0.358499
O O3 0.252139 0.124164 0.226855
O O4 0.084994 0.089675 0.328769
O O5 0.676243 0.870024 0.073621
O O6 0.904720 0.834456 0.089006
O O7 0.750000 0.735454 0.000000
O O8 0.500000 0.250000 0.416680
O O9 0.538501 0.439480 0.439776
O O10 0.439235 0.364573 0.310347
O O11 0.661866 0.386990 0.084311
O O12 0.750000 0.520937 0.000000
O O13 0.471982 0.903119 0.311550
O O14 0.621731 0.762497 0.312261
O O15 0.697952 0.936138 0.296187
O O16 0.129922 0.578524 0.210143
O O17 0.500000 0.250000 0.701006
#
# Coordination Sequence:
#
# PCOD9336070 Si02
#       8
#     8   8   8   8   8   4   8   8
#     4  11  21  39  58  91 125 175 219 270 338 415
#     4  11  22  38  60  90 133 172 208 273 350 424
#     4  12  20  37  61  95 137 168 229 289 361 409
#     4  12  26  38  59  95 138 182 225 276 348 435
#     4  11  19  39  68 102 121 159 230 309 354 385
#     4  12  22  38  66  94 132 166 226 296 340 404
#     4  10  24  39  56  92 134 172 218 267 339 409
#     4  11  22  40  67  96 130 170 227 292 346 417
#
# _framework density 20.825520999999998
#
# number of rings (size 3 to 8) (size 9 to 14) (size 15 to 20)
#    0.000    0.800    6.667    2.400    3.733    0.533 
#    0.000    0.000    0.000    4.000    0.000    0.000 
#    0.000    0.000    0.000    0.000    0.000    0.000 
#
# Total GULP energy -167096.707550 kJ/mol
# GULP energy per Si atom -5569.890252 kJ/mol
# Density = 2.077812 g / cm^3
# Si number density = 20.825521 Si / 1000 Ang^3
#
#
#
# Elastic Constant Matrix: (Units=GPa)
#
#
# Indices 1 2 3 4 5 6 
#
# 1 170.9976 42.1296 32.1866 0.0000 0.0000 0.0000
# 2 42.1296 93.0497 34.6268 0.0000 0.0000 0.0000
# 3 32.1866 34.6268 64.4479 0.0000 0.0000 0.0000
# 4 0.0000 0.0000 0.0000 8.2594 0.0000 0.0000
# 5 0.0000 0.0000 0.0000 0.0000 29.1237 0.0000
# 6 0.0000 0.0000 0.0000 0.0000 0.0000 34.0724
#
#
#
# Elastic Compliance Matrix: (Units=1/GPa)
#
#
# Indices 1 2 3 4 5 6 
#
# 1 0.006820 -0.002275 -0.002183 0.000000 0.000000 0.000000
# 2 -0.002275 0.014192 -0.006489 0.000000 0.000000 0.000000
# 3 -0.002183 -0.006489 0.020093 0.000000 0.000000 0.000000
# 4 0.000000 0.000000 0.000000 0.121074 0.000000 0.000000
# 5 0.000000 0.000000 0.000000 0.000000 0.034336 0.000000
# 6 0.000000 0.000000 0.000000 0.000000 0.000000 0.029349
#
#
# Mechanical properties :
#
#
# Convention : Reuss Voigt Hill
#
# Bulk Modulus (GPa) = 52.05668 60.70903 56.38286
# Shear Modulus (GPa) = 19.67253 28.92791 24.30022
#
# Velocity S-wave (km/s) = 3.07683 3.73105 3.41962
# Velocity P-wave (km/s) = 6.13786 6.91199 6.53639
#
# Compressibility (1/GPa) = 0.01920983
#
# Stress axis : x y z
#
# Youngs Moduli (GPa) = 146.63706 70.46361 49.76814
#
# Poissons Ratio (x) = 0.16031 0.10867
# Poissons Ratio (y) = 0.33362 0.32293
# Poissons Ratio (z) = 0.32017 0.45722
#
# Static dielectric constant tensor:
#      x y z
#    x 1.812370 0.000000 0.000000 
#    y 0.000000 1.959940 0.000000 
#    z 0.000000 0.000000 1.841960 
# 
# From -- ./inp_files/30355.got.cif
#   From: 2010.05.17/outbox.cif.g08.bks.cpg/sg24_16_cif.got.tgz:30355.got - 2010.06.04 00:33:39.
