data_PCOD9336377
_publ_section_title
;
Structure prediction by ZEFSAII (Michael W. Deem and Ramdas Pophale) SiO2 
 PCOD9336377
Probable space group: I 21 21 21
;
_chemical_formula_sum "Si O2"
_cell_formula_units_Z 48
_cell_length_a 12.802167
_cell_length_b 12.280251
_cell_length_c 16.166396
_cell_angle_alpha 90.000000
_cell_angle_beta 90.000000
_cell_angle_gamma 90.000000
_cell_volume 2541.580937
_symmetry_space_group_name_H-M "I 21 21 21"
_symmetry_group_IT_number 24
_symmetry_cell_setting 'orthorhombic'
loop_
_space_group_symop_operation_xyz
x,y,z
-x,1/2-y,z
x,-y,1/2-z
1/2-x,y,-z
1/2+x,1/2+y,1/2+z
1/2-x,-y,1/2+z
1/2+x,1/2-y,-z
-x,1/2+y,1/2-z
loop_
_atom_site_type_symbol
_atom_site_label
_atom_site_fract_x
_atom_site_fract_y
_atom_site_fract_z
Si Si1 0.421500 0.974499 0.848906
Si Si2 0.428890 0.643606 0.566893
Si Si3 0.000000 0.250000 0.312367
Si Si4 0.705334 0.192413 0.788330
Si Si5 0.486270 0.374443 0.117999
Si Si6 0.704911 0.571169 0.330649
Si Si7 0.350522 0.500000 0.250000
O O1 0.447089 0.848469 0.861306
O O2 0.428803 0.000000 0.750000
O O3 0.506923 0.043626 0.896300
O O4 0.305372 0.013892 0.871416
O O5 0.500000 0.750000 0.583414
O O6 0.322478 0.654030 0.618414
O O7 0.425889 0.634205 0.468460
O O8 0.906150 0.203387 0.256525
O O9 0.757994 0.310425 0.797711
O O10 0.774881 0.104663 0.739864
O O11 0.500000 0.250000 0.151495
O O12 0.605340 0.415801 0.110652
O O13 0.424580 0.456876 0.176814
O O14 0.675658 0.500000 0.250000
#
# Coordination Sequence:
#
# PCOD9336377 Si02
#       7
#     8   8   4   8   8   8   4
#     4  11  19  34  62  93 126 168 209 265 321 388
#     4  11  21  39  64  99 131 154 208 280 334 373
#     4  12  20  36  62  94 128 168 212 260 330 382
#     4  12  20  37  64  99 125 161 209 267 328 378
#     4  11  25  43  63  92 131 174 216 269 317 383
#     4  11  20  37  65  91 123 171 219 255 313 384
#     4  12  26  40  64  94 124 176 214 258 322 390
#
# _framework density 18.885881999999999
#
# number of rings (size 3 to 8) (size 9 to 14) (size 15 to 20)
#    0.000    0.667   10.000    1.000    0.000    1.333 
#    0.000    0.000    5.500    0.000    0.000    0.000 
#    0.000    0.000    0.000    0.000    0.000    0.000 
#
# Total GULP energy -133944.026630 kJ/mol
# GULP energy per Si atom -5581.001110 kJ/mol
# Density = 1.884290 g / cm^3
# Si number density = 18.885882 Si / 1000 Ang^3
#
#
#
# Elastic Constant Matrix: (Units=GPa)
#
#
# Indices 1 2 3 4 5 6 
#
# 1 99.2829 56.1842 21.3663 0.0000 0.0000 0.0000
# 2 56.1842 135.7001 35.6200 0.0000 0.0000 0.0000
# 3 21.3663 35.6200 50.1173 0.0000 0.0000 0.0000
# 4 0.0000 0.0000 0.0000 22.3585 0.0000 0.0000
# 5 0.0000 0.0000 0.0000 0.0000 -17.2292 0.0000
# 6 0.0000 0.0000 0.0000 0.0000 0.0000 33.0685
#
#
#
# Elastic Compliance Matrix: (Units=1/GPa)
#
#
# Indices 1 2 3 4 5 6 
#
# 1 0.013343 -0.004956 -0.002166 0.000000 0.000000 0.000000
# 2 -0.004956 0.010900 -0.005634 0.000000 0.000000 0.000000
# 3 -0.002166 -0.005634 0.024881 0.000000 0.000000 0.000000
# 4 0.000000 0.000000 0.000000 0.044726 0.000000 0.000000
# 5 0.000000 0.000000 0.000000 0.000000 -0.058041 0.000000
# 6 0.000000 0.000000 0.000000 0.000000 0.000000 0.030240
#
#
# Mechanical properties :
#
#
# Convention : Reuss Voigt Hill
#
# Bulk Modulus (GPa) = 42.35198 56.82680 49.58939
# Shear Modulus (GPa) = 50.28567 19.10153 34.69360
#
# Velocity S-wave (km/s) = 5.16564 3.18373 4.29069
# Velocity P-wave (km/s) = 7.61921 6.60831 7.13169
#
# Compressibility (1/GPa) = 0.02361165
#
# Stress axis : x y z
#
# Youngs Moduli (GPa) = 74.94631 91.74338 40.19119
#
# Poissons Ratio (x) = 0.45466 0.08706
# Poissons Ratio (y) = 0.37142 0.22644
# Poissons Ratio (z) = 0.16235 0.51690
#
# Static dielectric constant tensor:
#      x y z
#    x 1.688680 0.000000 0.000000 
#    y 0.000000 1.674700 0.000000 
#    z 0.000000 0.000000 1.656760 
# 
# From -- ./inp_files/19758.got.cif
#   From: 2010.05.17/outbox.cif.g08.bks.cpg/sg24_10_cif.got.tgz:19758.got - 2010.06.04 00:33:39.
