data_PCOD9336940
_publ_section_title
;
Structure prediction by ZEFSAII (Michael W. Deem and Ramdas Pophale) SiO2 
 PCOD9336940
Probable space group: I 21 21 21
;
_chemical_formula_sum "Si O2"
_cell_formula_units_Z 36
_cell_length_a 11.806357
_cell_length_b 5.937202
_cell_length_c 20.565992
_cell_angle_alpha 90.000000
_cell_angle_beta 90.000000
_cell_angle_gamma 90.000000
_cell_volume 1441.608714
_symmetry_space_group_name_H-M "I 21 21 21"
_symmetry_group_IT_number 24
_symmetry_cell_setting 'orthorhombic'
loop_
_space_group_symop_operation_xyz
x,y,z
-x,1/2-y,z
x,-y,1/2-z
1/2-x,y,-z
1/2+x,1/2+y,1/2+z
1/2-x,-y,1/2+z
1/2+x,1/2-y,-z
-x,1/2+y,1/2-z
loop_
_atom_site_type_symbol
_atom_site_label
_atom_site_fract_x
_atom_site_fract_y
_atom_site_fract_z
Si Si1 0.870532 0.687438 0.929590
Si Si2 0.374443 0.151403 0.186521
Si Si3 0.800578 0.029014 0.136023
Si Si4 0.123957 0.825707 0.475994
Si Si5 0.451311 0.500000 0.750000
O O1 0.848830 0.484039 0.879566
O O2 0.000000 0.750000 0.914904
O O3 0.779758 0.874506 0.909521
O O4 0.872371 0.588408 0.002992
O O5 0.500000 0.250000 0.184563
O O6 0.286009 0.350141 0.184701
O O7 0.361894 0.000000 0.250000
O O8 0.869526 0.211992 0.093982
O O9 0.885956 0.913218 0.185061
O O10 0.250000 0.751486 0.500000
O O11 0.000000 0.750000 0.504062
O O12 0.500000 0.250000 0.771218
#
# Coordination Sequence:
#
# PCOD9336940 Si02
#       5
#     8   8   8   8   4
#     4  12  25  48  81 115 164 214 271 357 434 521
#     4  12  25  45  77 120 160 208 271 348 426 525
#     4  12  28  52  81 117 163 226 279 356 441 531
#     4  12  27  52  79 119 165 216 285 350 433 524
#     4  12  32  58  86 120 170 230 296 372 432 538
#
# _framework density 24.972104000000002
#
# number of rings (size 3 to 8) (size 9 to 14) (size 15 to 20)
#    0.000    0.000    4.444    4.667    6.222    4.444 
#    0.000    1.111    0.000    0.000    0.000    0.000 
#    0.000    0.000    0.000    0.000    0.000    0.000 
#
# Total GULP energy -100372.481973 kJ/mol
# GULP energy per Si atom -5576.248999 kJ/mol
# Density = 2.491527 g / cm^3
# Si number density = 24.972104 Si / 1000 Ang^3
#
#
#
# Elastic Constant Matrix: (Units=GPa)
#
#
# Indices 1 2 3 4 5 6 
#
# 1 141.7732 48.5564 25.8608 0.0000 0.0000 0.0000
# 2 48.5564 115.6921 50.2474 0.0000 0.0000 0.0000
# 3 25.8608 50.2474 112.1435 0.0000 0.0000 0.0000
# 4 0.0000 0.0000 0.0000 35.8592 0.0000 0.0000
# 5 0.0000 0.0000 0.0000 0.0000 256.2517 0.0000
# 6 0.0000 0.0000 0.0000 0.0000 0.0000 44.6152
#
#
#
# Elastic Compliance Matrix: (Units=1/GPa)
#
#
# Indices 1 2 3 4 5 6 
#
# 1 0.008255 -0.003275 -0.000436 0.000000 0.000000 0.000000
# 2 -0.003275 0.012032 -0.004636 0.000000 0.000000 0.000000
# 3 -0.000436 -0.004636 0.011095 0.000000 0.000000 0.000000
# 4 0.000000 0.000000 0.000000 0.027887 0.000000 0.000000
# 5 0.000000 0.000000 0.000000 0.000000 0.003902 0.000000
# 6 0.000000 0.000000 0.000000 0.000000 0.000000 0.022414
#
#
# Mechanical properties :
#
#
# Convention : Reuss Voigt Hill
#
# Bulk Modulus (GPa) = 68.08593 68.77089 68.42841
# Shear Modulus (GPa) = 46.65314 83.67482 65.16398
#
# Velocity S-wave (km/s) = 4.32697 5.79483 5.11384
# Velocity P-wave (km/s) = 7.23101 8.50719 7.89493
#
# Compressibility (1/GPa) = 0.01468732
#
# Stress axis : x y z
#
# Youngs Moduli (GPa) = 121.14179 83.11460 90.13246
#
# Poissons Ratio (x) = 0.27221 0.03931
# Poissons Ratio (y) = 0.39676 0.41782
# Poissons Ratio (z) = 0.05283 0.38529
#
# Static dielectric constant tensor:
#      x y z
#    x 2.104100 0.000000 0.000000 
#    y 0.000000 1.643480 0.000000 
#    z 0.000000 0.000000 1.968680 
# 
# From -- ./inp_files/35413.got.cif
#   From: 2010.05.17/outbox.cif.g08.bks.cpg/sg24_18_cif.got.tgz:35413.got - 2010.06.04 00:33:39.
