data_PCOD9336100
_publ_section_title
;
Structure prediction by ZEFSAII (Michael W. Deem and Ramdas Pophale) SiO2 
 PCOD9336100
Probable space group: I 21 21 21
;
_chemical_formula_sum "Si O2"
_cell_formula_units_Z 36
_cell_length_a 28.485633
_cell_length_b 5.033785
_cell_length_c 10.996873
_cell_angle_alpha 90.000000
_cell_angle_beta 90.000000
_cell_angle_gamma 90.000000
_cell_volume 1576.847691
_symmetry_space_group_name_H-M "I 21 21 21"
_symmetry_group_IT_number 24
_symmetry_cell_setting 'orthorhombic'
loop_
_space_group_symop_operation_xyz
x,y,z
-x,1/2-y,z
x,-y,1/2-z
1/2-x,y,-z
1/2+x,1/2+y,1/2+z
1/2-x,-y,1/2+z
1/2+x,1/2-y,-z
-x,1/2+y,1/2-z
loop_
_atom_site_type_symbol
_atom_site_label
_atom_site_fract_x
_atom_site_fract_y
_atom_site_fract_z
Si Si1 0.305409 0.620523 0.506644
Si Si2 0.349232 0.500000 0.250000
Si Si3 0.355389 0.133101 0.614584
Si Si4 0.914962 0.500000 0.750000
Si Si5 0.528401 0.500000 0.750000
Si Si6 0.548062 0.411501 0.503109
O O1 0.250000 0.668125 0.500000
O O2 0.319675 0.534993 0.371478
O O3 0.320778 0.385808 0.600554
O O4 0.333243 0.889408 0.539486
O O5 0.382381 0.749513 0.229689
O O6 0.404209 0.235237 0.551817
O O7 0.362365 0.000000 0.750000
O O8 0.942765 0.547303 0.625532
O O9 0.500000 0.250000 0.705084
O O10 0.547484 0.606764 0.620933
O O11 0.500000 0.250000 0.480792
#
# Coordination Sequence:
#
# PCOD9336100 Si02
#       6
#     8   4   8   4   4   8
#     4  12  27  49  77 111 148 195 249 311 380 452
#     4  12  24  47  74 103 152 190 239 307 380 434
#     4  12  26  49  75 113 151 194 252 313 371 444
#     4  12  26  47  70 107 150 196 241 303 370 444
#     4  10  24  42  66  96 134 182 242 298 356 418
#     4  11  25  47  71 104 145 195 244 303 363 441
#
# _framework density 22.830356999999999
#
# number of rings (size 3 to 8) (size 9 to 14) (size 15 to 20)
#    0.000    0.444    5.556    1.333    3.111    8.889 
#    0.000    0.000    0.000    0.000    0.000    0.000 
#    0.000    0.000    0.000    0.000    0.000    0.000 
#
# Total GULP energy -100302.617467 kJ/mol
# GULP energy per Si atom -5572.367637 kJ/mol
# Density = 2.277839 g / cm^3
# Si number density = 22.830357 Si / 1000 Ang^3
#
#
#
# Elastic Constant Matrix: (Units=GPa)
#
#
# Indices 1 2 3 4 5 6 
#
# 1 144.2584 32.8203 43.0238 0.0000 0.0000 0.0000
# 2 32.8203 101.8884 2.2661 0.0000 0.0000 0.0000
# 3 43.0238 2.2661 186.9186 0.0000 0.0000 0.0000
# 4 0.0000 0.0000 0.0000 50.6182 0.0000 0.0000
# 5 0.0000 0.0000 0.0000 0.0000 17.0448 0.0000
# 6 0.0000 0.0000 0.0000 0.0000 0.0000 28.9081
#
#
#
# Elastic Compliance Matrix: (Units=1/GPa)
#
#
# Indices 1 2 3 4 5 6 
#
# 1 0.008057 -0.002555 -0.001824 0.000000 0.000000 0.000000
# 2 -0.002555 0.010627 0.000459 0.000000 0.000000 0.000000
# 3 -0.001824 0.000459 0.005764 0.000000 0.000000 0.000000
# 4 0.000000 0.000000 0.000000 0.019756 0.000000 0.000000
# 5 0.000000 0.000000 0.000000 0.000000 0.058669 0.000000
# 6 0.000000 0.000000 0.000000 0.000000 0.000000 0.034592
#
#
# Mechanical properties :
#
#
# Convention : Reuss Voigt Hill
#
# Bulk Modulus (GPa) = 60.20364 65.47621 62.83993
# Shear Modulus (GPa) = 33.14754 42.97789 38.06272
#
# Velocity S-wave (km/s) = 3.81452 4.34347 4.08756
# Velocity P-wave (km/s) = 6.76964 7.34139 7.06131
#
# Compressibility (1/GPa) = 0.01661029
#
# Stress axis : x y z
#
# Youngs Moduli (GPa) = 124.11392 94.09635 173.48787
#
# Poissons Ratio (x) = 0.24040 0.31637
# Poissons Ratio (y) = 0.31709 -0.07967
# Poissons Ratio (z) = 0.22633 -0.04321
#
# Static dielectric constant tensor:
#      x y z
#    x 1.977800 0.000000 0.000000 
#    y 0.000000 1.839410 0.000000 
#    z 0.000000 0.000000 1.940190 
# 
# From -- ./inp_files/22480.got.cif
#   From: 2010.05.17/outbox.cif.g08.bks.cpg/sg24_12_cif.got.tgz:22480.got - 2010.06.04 00:33:39.
