data_PCOD9336725
_publ_section_title
;
Structure prediction by ZEFSAII (Michael W. Deem and Ramdas Pophale) SiO2 
 PCOD9336725
Probable space group: I 21 21 21
;
_chemical_formula_sum "Si O2"
_cell_formula_units_Z 56
_cell_length_a 15.313018
_cell_length_b 15.469745
_cell_length_c 9.366522
_cell_angle_alpha 90.000000
_cell_angle_beta 90.000000
_cell_angle_gamma 90.000000
_cell_volume 2218.821194
_symmetry_space_group_name_H-M "I 21 21 21"
_symmetry_group_IT_number 24
_symmetry_cell_setting 'orthorhombic'
loop_
_space_group_symop_operation_xyz
x,y,z
-x,1/2-y,z
x,-y,1/2-z
1/2-x,y,-z
1/2+x,1/2+y,1/2+z
1/2-x,-y,1/2+z
1/2+x,1/2-y,-z
-x,1/2+y,1/2-z
loop_
_atom_site_type_symbol
_atom_site_label
_atom_site_fract_x
_atom_site_fract_y
_atom_site_fract_z
Si Si1 0.039138 0.340040 0.593685
Si Si2 0.182858 0.140607 0.298789
Si Si3 0.867350 0.565193 0.898264
Si Si4 0.319100 0.660186 0.874158
Si Si5 0.901903 0.187887 0.909756
Si Si6 0.773935 0.949845 0.635825
Si Si7 0.905491 0.624259 0.500980
O O1 0.039038 0.100762 0.648926
O O2 0.096287 0.372298 0.461645
O O3 0.090622 0.314880 0.737668
O O4 0.000000 0.250000 0.539914
O O5 0.139573 0.102652 0.441186
O O6 0.173171 0.244682 0.302898
O O7 0.008410 0.348895 0.979941
O O8 0.132154 0.109881 0.157790
O O9 0.782449 0.604736 0.818196
O O10 0.876407 0.461616 0.913967
O O11 0.291344 0.593920 0.749221
O O12 0.250000 0.679672 0.000000
O O13 0.829718 0.119717 0.947310
O O14 0.869083 0.283099 0.948209
O O15 0.750000 0.008218 0.500000
O O16 0.834613 0.000000 0.750000
#
# Coordination Sequence:
#
# PCOD9336725 Si02
#       7
#     8   8   8   8   8   8   8
#     4  12  23  48  79 113 152 211 267 321 406 487
#     4  11  24  50  71 115 165 209 272 335 414 495
#     4  11  26  47  75 116 156 214 267 341 412 495
#     4  12  23  48  85 111 162 213 267 339 407 494
#     4  11  27  51  76 113 158 213 270 336 416 491
#     4  12  29  51  79 119 151 205 269 341 413 487
#     4  11  26  49  75 114 157 218 268 338 416 497
#
# _framework density 25.238627000000001
#
# number of rings (size 3 to 8) (size 9 to 14) (size 15 to 20)
#    0.000    0.571    5.714    1.714    2.000    3.429 
#   23.143    0.000    0.000    0.000    0.000    0.000 
#    0.000    0.000    0.000    0.000    0.000    0.000 
#
# Total GULP energy -156485.248119 kJ/mol
# GULP energy per Si atom -5588.758861 kJ/mol
# Density = 2.518118 g / cm^3
# Si number density = 25.238627 Si / 1000 Ang^3
#
#
#
# Elastic Constant Matrix: (Units=GPa)
#
#
# Indices 1 2 3 4 5 6 
#
# 1 70.6774 12.5261 42.6804 0.0000 0.0000 0.0000
# 2 12.5261 111.4625 24.3320 0.0000 0.0000 0.0000
# 3 42.6804 24.3320 155.5682 0.0000 0.0000 0.0000
# 4 0.0000 0.0000 0.0000 32.4550 0.0000 0.0000
# 5 0.0000 0.0000 0.0000 0.0000 41.6141 0.0000
# 6 0.0000 0.0000 0.0000 0.0000 0.0000 27.1515
#
#
#
# Elastic Compliance Matrix: (Units=1/GPa)
#
#
# Indices 1 2 3 4 5 6 
#
# 1 0.017050 -0.000927 -0.004533 0.000000 0.000000 0.000000
# 2 -0.000927 0.009339 -0.001206 0.000000 0.000000 0.000000
# 3 -0.004533 -0.001206 0.007860 0.000000 0.000000 0.000000
# 4 0.000000 0.000000 0.000000 0.030812 0.000000 0.000000
# 5 0.000000 0.000000 0.000000 0.000000 0.024030 0.000000
# 6 0.000000 0.000000 0.000000 0.000000 0.000000 0.036830
#
#
# Mechanical properties :
#
#
# Convention : Reuss Voigt Hill
#
# Bulk Modulus (GPa) = 47.80596 55.19834 51.50215
# Shear Modulus (GPa) = 34.19345 37.45543 35.82444
#
# Velocity S-wave (km/s) = 3.68476 3.85652 3.77162
# Velocity P-wave (km/s) = 6.08983 6.46130 6.27831
#
# Compressibility (1/GPa) = 0.02091789
#
# Stress axis : x y z
#
# Youngs Moduli (GPa) = 58.65001 107.07633 127.22075
#
# Poissons Ratio (x) = 0.09922 0.57667
# Poissons Ratio (y) = 0.05434 0.15349
# Poissons Ratio (z) = 0.26585 0.12919
#
# Static dielectric constant tensor:
#      x y z
#    x 2.504220 0.000000 0.000000 
#    y 0.000000 2.136960 0.000000 
#    z 0.000000 0.000000 2.062280 
# 
# From -- ./inp_files/15246.got.cif
#   From: 2010.05.17/outbox.cif.g08.bks.cpg/sg24_8_cif.got.tgz:15246.got - 2010.06.04 00:33:39.
