data_PCOD9336632
_publ_section_title
;
Structure prediction by ZEFSAII (Michael W. Deem and Ramdas Pophale) SiO2 
 PCOD9336632
Probable space group: I 21 21 21
;
_chemical_formula_sum "Si O2"
_cell_formula_units_Z 64
_cell_length_a 14.914157
_cell_length_b 11.684361
_cell_length_c 16.871356
_cell_angle_alpha 90.000000
_cell_angle_beta 90.000000
_cell_angle_gamma 90.000000
_cell_volume 2940.042893
_symmetry_space_group_name_H-M "I 21 21 21"
_symmetry_group_IT_number 24
_symmetry_cell_setting 'orthorhombic'
loop_
_space_group_symop_operation_xyz
x,y,z
-x,1/2-y,z
x,-y,1/2-z
1/2-x,y,-z
1/2+x,1/2+y,1/2+z
1/2-x,-y,1/2+z
1/2+x,1/2-y,-z
-x,1/2+y,1/2-z
loop_
_atom_site_type_symbol
_atom_site_label
_atom_site_fract_x
_atom_site_fract_y
_atom_site_fract_z
Si Si1 0.578438 0.823507 0.162092
Si Si2 0.730634 0.192667 0.584425
Si Si3 0.914539 0.671564 0.175657
Si Si4 0.052991 0.082504 0.147566
Si Si5 0.801638 0.276584 0.074833
Si Si6 0.129263 0.224073 0.833054
Si Si7 0.025248 0.561580 0.607383
Si Si8 0.385256 0.464799 0.941289
O O1 0.500000 0.750000 0.120752
O O2 0.672188 0.834716 0.118127
O O3 0.601040 0.754624 0.243172
O O4 0.541013 0.952404 0.163523
O O5 0.750000 0.252526 0.500000
O O6 0.673728 0.263083 0.648057
O O7 0.673036 0.078527 0.567014
O O8 0.909756 0.545367 0.138583
O O9 0.927658 0.640673 0.267986
O O10 0.000000 0.750000 0.151381
O O11 0.102988 0.164020 0.086410
O O12 0.948216 0.062923 0.133900
O O13 0.734144 0.292721 0.149044
O O14 0.821416 0.144678 0.056841
O O15 0.750000 0.327474 0.000000
O O16 0.098473 0.339398 0.877583
O O17 0.068697 0.121967 0.869482
O O18 0.047317 0.526584 0.516679
#
# Coordination Sequence:
#
# PCOD9336632 Si02
#       8
#     8   8   8   8   8   8   8   8
#     4  12  26  44  70 105 143 196 240 299 368 437
#     4  12  26  46  76 110 147 194 250 303 373 450
#     4  11  24  50  71 104 147 189 244 306 372 449
#     4  11  26  43  75 104 142 195 240 308 377 436
#     4  12  23  40  68 107 142 180 244 299 373 439
#     4  11  24  42  68 101 144 193 234 309 362 447
#     4  11  23  44  70  98 143 189 244 296 369 431
#     4  12  23  45  73 107 144 190 246 315 365 439
#
# _framework density 21.76839
#
# number of rings (size 3 to 8) (size 9 to 14) (size 15 to 20)
#    0.000    0.500    5.000    4.125    1.750    3.000 
#    0.000    0.000    0.000    0.000    0.000    0.000 
#    0.000    0.000    0.000    0.000    0.000    0.000 
#
# Total GULP energy -178733.260492 kJ/mol
# GULP energy per Si atom -5585.414390 kJ/mol
# Density = 2.171884 g / cm^3
# Si number density = 21.768390 Si / 1000 Ang^3
#
#
#
# Elastic Constant Matrix: (Units=GPa)
#
#
# Indices 1 2 3 4 5 6 
#
# 1 112.6163 47.3190 32.1153 0.0000 0.0000 0.0000
# 2 47.3190 113.5765 28.8251 0.0000 0.0000 0.0000
# 3 32.1153 28.8251 76.9869 0.0000 0.0000 0.0000
# 4 0.0000 0.0000 0.0000 13.4872 0.0000 0.0000
# 5 0.0000 0.0000 0.0000 0.0000 31.1946 0.0000
# 6 0.0000 0.0000 0.0000 0.0000 0.0000 26.0992
#
#
#
# Elastic Compliance Matrix: (Units=1/GPa)
#
#
# Indices 1 2 3 4 5 6 
#
# 1 0.011481 -0.003942 -0.003313 0.000000 0.000000 0.000000
# 2 -0.003942 0.011083 -0.002505 0.000000 0.000000 0.000000
# 3 -0.003313 -0.002505 0.015309 0.000000 0.000000 0.000000
# 4 0.000000 0.000000 0.000000 0.074145 0.000000 0.000000
# 5 0.000000 0.000000 0.000000 0.000000 0.032057 0.000000
# 6 0.000000 0.000000 0.000000 0.000000 0.000000 0.038315
#
#
# Mechanical properties :
#
#
# Convention : Reuss Voigt Hill
#
# Bulk Modulus (GPa) = 54.49042 57.74429 56.11735
# Shear Modulus (GPa) = 24.03513 27.15088 25.59301
#
# Velocity S-wave (km/s) = 3.32645 3.53549 3.43256
# Velocity P-wave (km/s) = 6.31189 6.57651 6.44556
#
# Compressibility (1/GPa) = 0.01835185
#
# Stress axis : x y z
#
# Youngs Moduli (GPa) = 87.09971 90.22883 65.31992
#
# Poissons Ratio (x) = 0.35572 0.21642
# Poissons Ratio (y) = 0.34339 0.16363
# Poissons Ratio (z) = 0.28858 0.22603
#
# Static dielectric constant tensor:
#      x y z
#    x 1.845420 0.000000 0.000000 
#    y 0.000000 1.775690 0.000000 
#    z 0.000000 0.000000 1.882720 
# 
# From -- ./inp_files/30898.got.cif
#   From: 2010.05.17/outbox.cif.g08.bks.cpg/sg24_16_cif.got.tgz:30898.got - 2010.06.04 00:33:39.
