data_PCOD9336109
_publ_section_title
;
Structure prediction by ZEFSAII (Michael W. Deem and Ramdas Pophale) SiO2 
 PCOD9336109
Probable space group: I 21 21 21
;
_chemical_formula_sum "Si O2"
_cell_formula_units_Z 48
_cell_length_a 8.168699
_cell_length_b 29.442299
_cell_length_c 8.946315
_cell_angle_alpha 90.000000
_cell_angle_beta 90.000000
_cell_angle_gamma 90.000000
_cell_volume 2151.635980
_symmetry_space_group_name_H-M "I 21 21 21"
_symmetry_group_IT_number 24
_symmetry_cell_setting 'orthorhombic'
loop_
_space_group_symop_operation_xyz
x,y,z
-x,1/2-y,z
x,-y,1/2-z
1/2-x,y,-z
1/2+x,1/2+y,1/2+z
1/2-x,-y,1/2+z
1/2+x,1/2-y,-z
-x,1/2+y,1/2-z
loop_
_atom_site_type_symbol
_atom_site_label
_atom_site_fract_x
_atom_site_fract_y
_atom_site_fract_z
Si Si1 0.035000 0.952225 0.713244
Si Si2 0.092782 0.289774 0.589565
Si Si3 0.450019 0.368665 0.809402
Si Si4 0.250000 0.559001 0.500000
Si Si5 0.250000 0.888036 0.500000
Si Si6 0.819325 0.230337 0.158567
Si Si7 0.943163 0.382238 0.530126
O O1 0.877325 0.964889 0.611475
O O2 0.149264 0.919837 0.613686
O O3 0.997622 0.922788 0.861877
O O4 0.119370 0.000000 0.750000
O O5 0.250000 0.306886 0.500000
O O6 0.174914 0.261474 0.723705
O O7 0.000000 0.250000 0.500740
O O8 0.982928 0.334132 0.611420
O O9 0.342161 0.324024 0.830823
O O10 0.479192 0.379567 0.635540
O O11 0.359108 0.409545 0.891889
O O12 0.620882 0.361040 0.897999
O O13 0.000000 0.250000 0.181241
O O14 0.750000 0.244683 0.000000
O O15 0.750000 0.387137 0.500000
#
# Coordination Sequence:
#
# PCOD9336109 Si02
#       7
#     8   8   8   4   4   8   8
#     4  11  26  45  72 105 140 180 234 291 361 428
#     4  12  26  44  67 100 139 182 234 292 351 415
#     4  11  23  44  68  98 139 180 240 276 354 419
#     4  10  24  46  67  98 134 186 219 290 346 420
#     4  10  24  42  71  96 138 180 221 292 340 432
#     4  12  27  43  65  99 139 189 236 296 351 419
#     4  12  26  44  72 105 138 190 232 298 357 428
#
# _framework density 22.308606999999999
#
# number of rings (size 3 to 8) (size 9 to 14) (size 15 to 20)
#    0.000    0.667    4.167    2.500    7.000    1.333 
#    0.000    3.333    0.000    0.000    0.000    0.000 
#    0.000    0.000    0.000    0.000    0.000    0.000 
#
# Total GULP energy -134092.939197 kJ/mol
# GULP energy per Si atom -5587.205800 kJ/mol
# Density = 2.225783 g / cm^3
# Si number density = 22.308607 Si / 1000 Ang^3
#
#
#
# Elastic Constant Matrix: (Units=GPa)
#
#
# Indices 1 2 3 4 5 6 
#
# 1 79.7256 -5.2810 30.4720 0.0001 -0.0001 0.0000
# 2 -5.2810 74.1110 11.2532 0.0008 0.0000 0.0000
# 3 30.4720 11.2532 140.4080 0.0022 0.0002 -0.0004
# 4 0.0001 0.0008 0.0022 22.7677 0.0000 0.0000
# 5 -0.0001 0.0000 0.0002 0.0000 31.7765 0.0001
# 6 0.0000 0.0000 -0.0004 0.0000 0.0001 14.2692
#
#
#
# Elastic Compliance Matrix: (Units=1/GPa)
#
#
# Indices 1 2 3 4 5 6 
#
# 1 0.013832 0.001459 -0.003119 0.000000 0.000000 0.000000
# 2 0.001459 0.013813 -0.001424 0.000000 0.000000 0.000000
# 3 -0.003119 -0.001424 0.007913 -0.000001 0.000000 0.000000
# 4 0.000000 0.000000 -0.000001 0.043922 0.000000 0.000000
# 5 0.000000 0.000000 0.000000 0.000000 0.031470 0.000000
# 6 0.000000 0.000000 0.000000 0.000000 0.000000 0.070081
#
#
# Mechanical properties :
#
#
# Convention : Reuss Voigt Hill
#
# Bulk Modulus (GPa) = 34.02349 40.79257 37.40803
# Shear Modulus (GPa) = 25.38140 30.94938 28.16539
#
# Velocity S-wave (km/s) = 3.37670 3.72873 3.55707
# Velocity P-wave (km/s) = 5.52152 6.07150 5.80303
#
# Compressibility (1/GPa) = 0.02939146
#
# Stress axis : x y z
#
# Youngs Moduli (GPa) = 72.29766 72.39329 126.37334
#
# Poissons Ratio (x) = -0.10563 0.39413
# Poissons Ratio (y) = -0.10549 0.17993
# Poissons Ratio (z) = 0.22548 0.10307
#
# Static dielectric constant tensor:
#      x y z
#    x 1.938230 0.000000 0.000000 
#    y 0.000000 1.750520 0.000000 
#    z 0.000000 0.000000 1.888000 
# 
# From -- ./inp_files/9812.got.cif
#   From: 2010.05.17/outbox.cif.g08.bks.cpg/sg24_5_cif.got.tgz:9812.got - 2010.06.04 00:33:39.
