data_PCOD9336923
_publ_section_title
;
Structure prediction by ZEFSAII (Michael W. Deem and Ramdas Pophale) SiO2 
 PCOD9336923
Probable space group: I 21 21 21
;
_chemical_formula_sum "Si O2"
_cell_formula_units_Z 32
_cell_length_a 10.613864
_cell_length_b 7.870295
_cell_length_c 15.606607
_cell_angle_alpha 90.000000
_cell_angle_beta 90.000000
_cell_angle_gamma 90.000000
_cell_volume 1303.686067
_symmetry_space_group_name_H-M "I 21 21 21"
_symmetry_group_IT_number 24
_symmetry_cell_setting 'orthorhombic'
loop_
_space_group_symop_operation_xyz
x,y,z
-x,1/2-y,z
x,-y,1/2-z
1/2-x,y,-z
1/2+x,1/2+y,1/2+z
1/2-x,-y,1/2+z
1/2+x,1/2-y,-z
-x,1/2+y,1/2-z
loop_
_atom_site_type_symbol
_atom_site_label
_atom_site_fract_x
_atom_site_fract_y
_atom_site_fract_z
Si Si1 0.080960 0.445334 0.959711
Si Si2 0.000000 0.250000 0.414244
Si Si3 0.250000 0.150235 0.000000
Si Si4 0.358839 0.038671 0.346520
Si Si5 0.749492 0.115266 0.664989
O O1 0.124784 0.266115 0.999529
O O2 0.213663 0.499457 0.915154
O O3 0.987932 0.450585 0.876887
O O4 0.016441 0.585745 0.022316
O O5 0.120482 0.282583 0.353344
O O6 0.239225 0.033770 0.916125
O O7 0.356449 0.241287 0.343921
O O8 0.323476 0.000000 0.250000
O O9 0.746049 0.000000 0.750000
#
# Coordination Sequence:
#
# PCOD9336923 Si02
#       5
#     8   4   4   8   8
#     4  12  24  48  80 118 155 215 277 347 408 494
#     4  12  24  46  78 104 154 214 272 322 418 490
#     4  12  26  46  80 124 174 210 268 348 432 498
#     4  12  27  47  77 123 163 210 276 346 417 496
#     4  12  26  47  77 112 159 214 275 342 409 495
#
# _framework density 24.545786
#
# number of rings (size 3 to 8) (size 9 to 14) (size 15 to 20)
#    0.000    0.000    5.000    4.500    0.000    3.000 
#    0.000    2.500    0.000    0.000    0.000    0.000 
#    0.000    0.000    0.000    0.000    0.000    0.000 
#
# Total GULP energy -89323.059925 kJ/mol
# GULP energy per Si atom -5582.691245 kJ/mol
# Density = 2.448992 g / cm^3
# Si number density = 24.545786 Si / 1000 Ang^3
#
#
#
# Elastic Constant Matrix: (Units=GPa)
#
#
# Indices 1 2 3 4 5 6 
#
# 1 152.3575 40.5957 61.9646 0.0000 0.0000 0.0000
# 2 40.5957 156.8649 94.1011 0.0000 0.0000 0.0000
# 3 61.9646 94.1011 203.5415 0.0000 0.0000 0.0000
# 4 0.0000 0.0000 0.0000 65.3386 0.0000 0.0000
# 5 0.0000 0.0000 0.0000 0.0000 1.2708 0.0000
# 6 0.0000 0.0000 0.0000 0.0000 0.0000 -58.9714
#
#
#
# Elastic Compliance Matrix: (Units=1/GPa)
#
#
# Indices 1 2 3 4 5 6 
#
# 1 0.007562 -0.000797 -0.001934 0.000000 0.000000 0.000000
# 2 -0.000797 0.008905 -0.003875 0.000000 0.000000 0.000000
# 3 -0.001934 -0.003875 0.007293 0.000000 0.000000 0.000000
# 4 0.000000 0.000000 0.000000 0.015305 0.000000 0.000000
# 5 0.000000 0.000000 0.000000 0.000000 0.786890 0.000000
# 6 0.000000 0.000000 0.000000 0.000000 0.000000 -0.016957
#
#
# Mechanical properties :
#
#
# Convention : Reuss Voigt Hill
#
# Bulk Modulus (GPa) = 94.78545 100.67630 97.73087
# Shear Modulus (GPa) = 6.05528 22.60111 14.32819
#
# Velocity S-wave (km/s) = 1.57235 3.03772 2.41868
# Velocity P-wave (km/s) = 6.48043 7.30810 6.90668
#
# Compressibility (1/GPa) = 0.01055014
#
# Stress axis : x y z
#
# Youngs Moduli (GPa) = 132.23414 112.29068 137.11880
#
# Poissons Ratio (x) = 0.08950 0.26515
# Poissons Ratio (y) = 0.10540 0.53127
# Poissons Ratio (z) = 0.25570 0.43507
#
# Static dielectric constant tensor:
#      x y z
#    x 2.133850 0.000000 0.000000 
#    y 0.000000 2.955660 0.000000 
#    z 0.000000 0.000000 3.054600 
# 
# From -- ./inp_files/18042.got.cif
#   From: 2010.05.17/outbox.cif.g08.bks.cpg/sg24_10_cif.got.tgz:18042.got - 2010.06.04 00:33:39.
