data_PCOD9336369
_publ_section_title
;
Structure prediction by ZEFSAII (Michael W. Deem and Ramdas Pophale) SiO2 
 PCOD9336369
Probable space group: I 21 21 21
;
_chemical_formula_sum "Si O2"
_cell_formula_units_Z 48
_cell_length_a 20.166449
_cell_length_b 17.606871
_cell_length_c 8.456015
_cell_angle_alpha 90.000000
_cell_angle_beta 90.000000
_cell_angle_gamma 90.000000
_cell_volume 3002.460893
_symmetry_space_group_name_H-M "I 21 21 21"
_symmetry_group_IT_number 24
_symmetry_cell_setting 'orthorhombic'
loop_
_space_group_symop_operation_xyz
x,y,z
-x,1/2-y,z
x,-y,1/2-z
1/2-x,y,-z
1/2+x,1/2+y,1/2+z
1/2-x,-y,1/2+z
1/2+x,1/2-y,-z
-x,1/2+y,1/2-z
loop_
_atom_site_type_symbol
_atom_site_label
_atom_site_fract_x
_atom_site_fract_y
_atom_site_fract_z
Si Si1 0.177373 0.375203 0.426408
Si Si2 0.011644 0.928173 0.662012
Si Si3 0.180556 0.681415 0.431117
Si Si4 0.128724 0.472508 0.929646
Si Si5 0.440792 0.699485 0.123029
Si Si6 0.928140 0.284087 0.946247
O O1 0.250000 0.363039 0.500000
O O2 0.181999 0.350974 0.245141
O O3 0.157151 0.463170 0.455306
O O4 0.118979 0.327935 0.513990
O O5 0.950548 0.960222 0.558274
O O6 0.975347 0.873128 0.791243
O O7 0.061236 0.873846 0.568173
O O8 0.042609 0.000000 0.750000
O O9 0.250000 0.708881 0.500000
O O10 0.159881 0.609346 0.538888
O O11 0.127254 0.748399 0.444617
O O12 0.142277 0.500000 0.750000
O O13 0.500000 0.750000 0.046898
O O14 0.415118 0.750581 0.269869
O O15 0.000000 0.250000 0.991768
#
# Coordination Sequence:
#
# PCOD9336369 Si02
#       6
#     8   8   8   8   8   8
#     4  12  23  33  49  76 108 145 177 215 262 311
#     4   9  15  30  60  74 102 130 180 208 258 311
#     4  12  23  34  49  75 109 143 179 218 260 315
#     4  11  18  34  52  72 107 141 176 207 258 319
#     4   9  17  33  52  74 101 136 174 211 255 311
#     4   9  17  33  54  75 101 139 175 213 257 314
#
# _framework density 15.986886999999999
#
# number of rings (size 3 to 8) (size 9 to 14) (size 15 to 20)
#    0.000    2.000    6.667    3.000    0.000    0.667 
#    0.000    0.000    0.000    0.000    0.000    9.333 
#    0.000    0.000    0.000    0.000    0.000    0.000 
#
# Total GULP energy -133759.579436 kJ/mol
# GULP energy per Si atom -5573.315810 kJ/mol
# Density = 1.595050 g / cm^3
# Si number density = 15.986887 Si / 1000 Ang^3
#
#
#
# Elastic Constant Matrix: (Units=GPa)
#
#
# Indices 1 2 3 4 5 6 
#
# 1 91.7912 46.2190 32.4947 0.0000 0.0000 0.0000
# 2 46.2190 80.6417 26.0000 0.0000 0.0000 0.0000
# 3 32.4947 26.0000 59.6960 0.0000 0.0000 0.0000
# 4 0.0000 0.0000 0.0000 22.8163 0.0000 0.0000
# 5 0.0000 0.0000 0.0000 0.0000 22.9958 0.0000
# 6 0.0000 0.0000 0.0000 0.0000 0.0000 22.7162
#
#
#
# Elastic Compliance Matrix: (Units=1/GPa)
#
#
# Indices 1 2 3 4 5 6 
#
# 1 0.016872 -0.007805 -0.005785 0.000000 0.000000 0.000000
# 2 -0.007805 0.018037 -0.003607 0.000000 0.000000 0.000000
# 3 -0.005785 -0.003607 0.021471 0.000000 0.000000 0.000000
# 4 0.000000 0.000000 0.000000 0.043828 0.000000 0.000000
# 5 0.000000 0.000000 0.000000 0.000000 0.043486 0.000000
# 6 0.000000 0.000000 0.000000 0.000000 0.000000 0.044021
#
#
# Mechanical properties :
#
#
# Convention : Reuss Voigt Hill
#
# Bulk Modulus (GPa) = 45.48230 49.06179 47.27205
# Shear Modulus (GPa) = 21.79226 22.20001 21.99613
#
# Velocity S-wave (km/s) = 3.69607 3.73049 3.71332
# Velocity P-wave (km/s) = 6.83565 7.02216 6.92953
#
# Compressibility (1/GPa) = 0.02198657
#
# Stress axis : x y z
#
# Youngs Moduli (GPa) = 59.26939 55.44179 46.57341
#
# Poissons Ratio (x) = 0.43272 0.26941
# Poissons Ratio (y) = 0.46260 0.16800
# Poissons Ratio (z) = 0.34286 0.19999
#
# Static dielectric constant tensor:
#      x y z
#    x 1.552370 0.000000 0.000000 
#    y 0.000000 1.552920 0.000000 
#    z 0.000000 0.000000 1.549540 
# 
# From -- ./inp_files/14487.got.cif
#   From: 2010.05.17/outbox.cif.g08.bks.cpg/sg24_8_cif.got.tgz:14487.got - 2010.06.04 00:33:39.
