data_PCOD9336678
_publ_section_title
;
Structure prediction by ZEFSAII (Michael W. Deem and Ramdas Pophale) SiO2 
 PCOD9336678
Probable space group: I 21 21 21
;
_chemical_formula_sum "Si O2"
_cell_formula_units_Z 20
_cell_length_a 4.857706
_cell_length_b 31.968025
_cell_length_c 5.475933
_cell_angle_alpha 90.000000
_cell_angle_beta 90.000000
_cell_angle_gamma 90.000000
_cell_volume 850.364573
_symmetry_space_group_name_H-M "I 21 21 21"
_symmetry_group_IT_number 24
_symmetry_cell_setting 'orthorhombic'
loop_
_space_group_symop_operation_xyz
x,y,z
-x,1/2-y,z
x,-y,1/2-z
1/2-x,y,-z
1/2+x,1/2+y,1/2+z
1/2-x,-y,1/2+z
1/2+x,1/2-y,-z
-x,1/2+y,1/2-z
loop_
_atom_site_type_symbol
_atom_site_label
_atom_site_fract_x
_atom_site_fract_y
_atom_site_fract_z
Si Si1 0.250000 0.223007 0.000000
Si Si2 0.750000 0.579788 0.500000
Si Si3 0.750000 0.023443 0.000000
Si Si4 0.993137 0.650165 0.821586
O O1 0.500000 0.250000 0.885036
O O2 0.084632 0.192991 0.815436
O O3 0.515070 0.549141 0.604256
O O4 0.959043 0.612057 0.635985
O O5 0.847678 0.000000 0.750000
O O6 0.750000 0.640070 0.000000
O O7 0.250000 0.653693 0.000000
#
# Coordination Sequence:
#
# PCOD9336678 Si02
#       4
#     4   4   4   8
#     4  11  24  43  66 102 150 188 246 312 372 447
#     4  11  26  46  72 105 148 194 246 315 364 462
#     4  12  28  47  74 111 154 200 254 313 392 455
#     4  11  24  43  72 103 140 195 249 300 375 444
#
# _framework density 23.519327000000001
#
# number of rings (size 3 to 8) (size 9 to 14) (size 15 to 20)
#    0.000    0.800    0.000    6.000    8.400    9.600 
#    0.000    0.000    0.000    0.000    0.000    0.000 
#    0.000    0.000    0.000    0.000    0.000    0.000 
#
# Total GULP energy -55686.636837 kJ/mol
# GULP energy per Si atom -5568.663684 kJ/mol
# Density = 2.346580 g / cm^3
# Si number density = 23.519327 Si / 1000 Ang^3
#
#
#
# Elastic Constant Matrix: (Units=GPa)
#
#
# Indices 1 2 3 4 5 6 
#
# 1 183.3870 49.2354 32.4728 0.0000 0.0000 0.0002
# 2 49.2354 95.5180 40.7197 -0.0009 -0.0001 0.0005
# 3 32.4728 40.7197 93.3174 0.0001 0.0001 -0.0010
# 4 0.0000 -0.0009 0.0001 -113.4934 0.0000 0.0006
# 5 0.0000 -0.0001 0.0001 0.0000 57.4966 -0.0001
# 6 0.0002 0.0005 -0.0010 0.0006 -0.0001 79.9842
#
#
#
# Elastic Compliance Matrix: (Units=1/GPa)
#
#
# Indices 1 2 3 4 5 6 
#
# 1 0.006399 -0.002886 -0.000967 0.000000 0.000000 0.000000
# 2 -0.002886 0.014163 -0.005176 0.000000 0.000000 0.000000
# 3 -0.000967 -0.005176 0.013311 0.000000 0.000000 0.000000
# 4 0.000000 0.000000 0.000000 -0.008811 0.000000 0.000000
# 5 0.000000 0.000000 0.000000 0.000000 0.017392 0.000000
# 6 0.000000 0.000000 0.000000 0.000000 0.000000 0.012502
#
#
# Mechanical properties :
#
#
# Convention : Reuss Voigt Hill
#
# Bulk Modulus (GPa) = 63.23153 68.56427 65.89790
# Shear Modulus (GPa) = 63.86659 21.45043 42.65851
#
# Velocity S-wave (km/s) = 5.21669 3.02327 4.26345
# Velocity P-wave (km/s) = 7.95163 6.43447 7.23294
#
# Compressibility (1/GPa) = 0.01581489
#
# Stress axis : x y z
#
# Youngs Moduli (GPa) = 156.27220 70.60443 75.12383
#
# Poissons Ratio (x) = 0.20377 0.07268
# Poissons Ratio (y) = 0.45101 0.38884
# Poissons Ratio (z) = 0.15118 0.36545
#
# Static dielectric constant tensor:
#      x y z
#    x 1.865340 0.000000 0.000000 
#    y 0.000000 2.128450 0.000000 
#    z 0.000000 0.000000 1.813250 
# 
# From -- ./inp_files/439.got.cif
#   From: 2010.05.17/outbox.cif.g08.bks.cpg/sg24_1_cif.got.tgz:439.got - 2010.06.04 00:33:39.
