data_PCOD9336890
_publ_section_title
;
Structure prediction by ZEFSAII (Michael W. Deem and Ramdas Pophale) SiO2 
 PCOD9336890
Probable space group: I 21 21 21
;
_chemical_formula_sum "Si O2"
_cell_formula_units_Z 24
_cell_length_a 9.500209
_cell_length_b 15.746451
_cell_length_c 7.175154
_cell_angle_alpha 90.000000
_cell_angle_beta 90.000000
_cell_angle_gamma 90.000000
_cell_volume 1073.364117
_symmetry_space_group_name_H-M "I 21 21 21"
_symmetry_group_IT_number 24
_symmetry_cell_setting 'orthorhombic'
loop_
_space_group_symop_operation_xyz
x,y,z
-x,1/2-y,z
x,-y,1/2-z
1/2-x,y,-z
1/2+x,1/2+y,1/2+z
1/2-x,-y,1/2+z
1/2+x,1/2-y,-z
-x,1/2+y,1/2-z
loop_
_atom_site_type_symbol
_atom_site_label
_atom_site_fract_x
_atom_site_fract_y
_atom_site_fract_z
Si Si1 0.250000 0.193589 0.000000
Si Si2 0.907745 0.930548 0.082108
Si Si3 0.337883 0.081855 0.328847
Si Si4 0.500000 0.250000 0.750622
O O1 0.341923 0.141653 0.151244
O O2 0.137301 0.241695 0.122130
O O3 0.965082 0.837087 0.141929
O O4 0.912059 0.000000 0.250000
O O5 0.750000 0.925867 0.000000
O O6 0.018260 0.951649 0.918316
O O7 0.250000 0.120676 0.500000
O O8 0.254946 0.000000 0.250000
#
# Coordination Sequence:
#
# PCOD9336890 Si02
#       4
#     4   8   8   4
#     4  12  28  46  76 110 154 202 262 322 396 464
#     4  12  29  51  79 117 162 209 264 325 397 474
#     4  12  23  47  77 110 147 193 259 323 388 463
#     4  12  30  48  78 116 154 214 260 326 400 466
#
# _framework density 22.359605999999999
#
# number of rings (size 3 to 8) (size 9 to 14) (size 15 to 20)
#    0.000    0.000    5.000    4.000   11.667    0.000 
#    0.000    0.000    0.000    0.000    0.000    0.000 
#    0.000    0.000    0.000    0.000    0.000    0.000 
#
# Total GULP energy -67000.799717 kJ/mol
# GULP energy per Si atom -5583.399976 kJ/mol
# Density = 2.230871 g / cm^3
# Si number density = 22.359606 Si / 1000 Ang^3
#
#
#
# Elastic Constant Matrix: (Units=GPa)
#
#
# Indices 1 2 3 4 5 6 
#
# 1 166.8605 25.1851 55.6823 -0.0001 0.0000 -0.0001
# 2 25.1851 117.6326 63.8166 0.0000 0.0000 0.0001
# 3 55.6823 63.8166 153.6936 0.0005 -0.0001 0.0003
# 4 -0.0001 0.0000 0.0005 14.4299 0.0000 0.0003
# 5 0.0000 0.0000 -0.0001 0.0000 49.4799 0.0000
# 6 -0.0001 0.0001 0.0003 0.0003 0.0000 -8.4511
#
#
#
# Elastic Compliance Matrix: (Units=1/GPa)
#
#
# Indices 1 2 3 4 5 6 
#
# 1 0.006819 -0.000155 -0.002406 0.000000 0.000000 0.000000
# 2 -0.000155 0.010976 -0.004502 0.000000 0.000000 0.000000
# 3 -0.002406 -0.004502 0.009247 0.000000 0.000000 0.000000
# 4 0.000000 0.000000 0.000000 0.069301 0.000000 0.000002
# 5 0.000000 0.000000 0.000000 0.000000 0.020210 0.000000
# 6 0.000000 0.000000 0.000000 0.000002 0.000000 -0.118328
#
#
# Mechanical properties :
#
#
# Convention : Reuss Voigt Hill
#
# Bulk Modulus (GPa) = 77.41140 80.83941 79.12540
# Shear Modulus (GPa) = 300.16506 30.65858 165.41182
#
# Velocity S-wave (km/s) = 11.59896 3.70693 8.61038
# Velocity P-wave (km/s) = 14.63138 7.38610 11.58947
#
# Compressibility (1/GPa) = 0.01291799
#
# Stress axis : x y z
#
# Youngs Moduli (GPa) = 146.64031 91.10563 108.13789
#
# Poissons Ratio (x) = 0.01408 0.26023
# Poissons Ratio (y) = 0.02266 0.48679
# Poissons Ratio (z) = 0.35289 0.41012
#
# Static dielectric constant tensor:
#      x y z
#    x 1.846430 0.000000 0.000000 
#    y 0.000000 2.025900 0.000000 
#    z 0.000000 0.000000 1.970430 
# 
# From -- ./inp_files/1710.got.cif
#   From: 2010.05.17/outbox.cif.g08.bks.cpg/sg24_1_cif.got.tgz:1710.got - 2010.06.04 00:33:39.
