data_PCOD9336737
_publ_section_title
;
Structure prediction by ZEFSAII (Michael W. Deem and Ramdas Pophale) SiO2 
 PCOD9336737
Probable space group: I 21 21 21
;
_chemical_formula_sum "Si O2"
_cell_formula_units_Z 40
_cell_length_a 18.717275
_cell_length_b 8.053129
_cell_length_c 11.665371
_cell_angle_alpha 90.000000
_cell_angle_beta 90.000000
_cell_angle_gamma 90.000000
_cell_volume 1758.352052
_symmetry_space_group_name_H-M "I 21 21 21"
_symmetry_group_IT_number 24
_symmetry_cell_setting 'orthorhombic'
loop_
_space_group_symop_operation_xyz
x,y,z
-x,1/2-y,z
x,-y,1/2-z
1/2-x,y,-z
1/2+x,1/2+y,1/2+z
1/2-x,-y,1/2+z
1/2+x,1/2-y,-z
-x,1/2+y,1/2-z
loop_
_atom_site_type_symbol
_atom_site_label
_atom_site_fract_x
_atom_site_fract_y
_atom_site_fract_z
Si Si1 0.073255 0.351696 0.341230
Si Si2 0.575305 0.287840 0.423089
Si Si3 0.654438 0.189257 0.213996
Si Si4 0.691922 0.317754 0.795552
Si Si5 0.424517 0.835063 0.503065
O O1 0.067273 0.500000 0.250000
O O2 0.081717 0.355414 0.479461
O O3 0.145914 0.262686 0.305187
O O4 0.000000 0.250000 0.324799
O O5 0.500000 0.250000 0.361651
O O6 0.637214 0.289738 0.330280
O O7 0.569187 0.467385 0.482400
O O8 0.736060 0.219501 0.178201
O O9 0.603228 0.250249 0.113084
O O10 0.641763 0.000000 0.250000
O O11 0.710743 0.500000 0.750000
O O12 0.636424 0.316315 0.900818
O O13 0.500000 0.750000 0.536444
#
# Coordination Sequence:
#
# PCOD9336737 Si02
#       5
#     8   8   8   8   8
#     4  11  25  42  71 107 148 190 242 302 365 433
#     4  11  25  47  74 111 142 195 246 306 370 436
#     4  12  28  49  72 105 150 197 247 304 372 445
#     4  12  25  47  72 108 145 193 241 300 375 437
#     4  12  26  48  78 107 147 192 249 308 366 442
#
# _framework density 22.748574000000001
#
# number of rings (size 3 to 8) (size 9 to 14) (size 15 to 20)
#    0.000    0.400    2.000    6.000   11.200    0.800 
#    3.600    0.000    0.000    0.000    0.000    0.000 
#    0.000    0.000    0.000    0.000    0.000    0.000 
#
# Total GULP energy -111881.802808 kJ/mol
# GULP energy per Si atom -5594.090140 kJ/mol
# Density = 2.269680 g / cm^3
# Si number density = 22.748574 Si / 1000 Ang^3
#
#
#
# Elastic Constant Matrix: (Units=GPa)
#
#
# Indices 1 2 3 4 5 6 
#
# 1 104.4352 8.9292 39.3021 0.0000 0.0000 0.0000
# 2 8.9292 68.3343 34.0911 0.0000 0.0000 0.0000
# 3 39.3021 34.0911 119.0340 0.0000 0.0000 0.0000
# 4 0.0000 0.0000 0.0000 32.0286 0.0000 0.0000
# 5 0.0000 0.0000 0.0000 0.0000 44.7536 0.0000
# 6 0.0000 0.0000 0.0000 0.0000 0.0000 36.9602
#
#
#
# Elastic Compliance Matrix: (Units=1/GPa)
#
#
# Indices 1 2 3 4 5 6 
#
# 1 0.010945 0.000435 -0.003738 0.000000 0.000000 0.000000
# 2 0.000435 0.017091 -0.005038 0.000000 0.000000 0.000000
# 3 -0.003738 -0.005038 0.011078 0.000000 0.000000 0.000000
# 4 0.000000 0.000000 0.000000 0.031222 0.000000 0.000000
# 5 0.000000 0.000000 0.000000 0.000000 0.022345 0.000000
# 6 0.000000 0.000000 0.000000 0.000000 0.000000 0.027056
#
#
# Mechanical properties :
#
#
# Convention : Reuss Voigt Hill
#
# Bulk Modulus (GPa) = 44.58255 50.71648 47.64951
# Shear Modulus (GPa) = 34.74709 36.71389 35.73049
#
# Velocity S-wave (km/s) = 3.91249 4.02169 3.96747
# Velocity P-wave (km/s) = 6.32855 6.62632 6.47915
#
# Compressibility (1/GPa) = 0.02243030
#
# Stress axis : x y z
#
# Youngs Moduli (GPa) = 91.36614 58.51150 90.26732
#
# Poissons Ratio (x) = -0.02544 0.33745
# Poissons Ratio (y) = -0.03973 0.45479
# Poissons Ratio (z) = 0.34155 0.29480
#
# Static dielectric constant tensor:
#      x y z
#    x 1.786750 0.000000 0.000000 
#    y 0.000000 1.882380 0.000000 
#    z 0.000000 0.000000 1.853150 
# 
# From -- ./inp_files/21338.got.cif
#   From: 2010.05.17/outbox.cif.g08.bks.cpg/sg24_11_cif.got.tgz:21338.got - 2010.06.04 00:33:39.
