data_PCOD9336495
_publ_section_title
;
Structure prediction by ZEFSAII (Michael W. Deem and Ramdas Pophale) SiO2 
 PCOD9336495
Probable space group: I 21 21 21
;
_chemical_formula_sum "Si O2"
_cell_formula_units_Z 40
_cell_length_a 13.019886
_cell_length_b 17.151623
_cell_length_c 8.041069
_cell_angle_alpha 90.000000
_cell_angle_beta 90.000000
_cell_angle_gamma 90.000000
_cell_volume 1795.668617
_symmetry_space_group_name_H-M "I 21 21 21"
_symmetry_group_IT_number 24
_symmetry_cell_setting 'orthorhombic'
loop_
_space_group_symop_operation_xyz
x,y,z
-x,1/2-y,z
x,-y,1/2-z
1/2-x,y,-z
1/2+x,1/2+y,1/2+z
1/2-x,-y,1/2+z
1/2+x,1/2-y,-z
-x,1/2+y,1/2-z
loop_
_atom_site_type_symbol
_atom_site_label
_atom_site_fract_x
_atom_site_fract_y
_atom_site_fract_z
Si Si1 0.250000 0.379846 0.000000
Si Si2 0.696182 0.744323 0.819717
Si Si3 0.403399 0.691902 0.328694
Si Si4 0.435763 0.381176 0.530405
Si Si5 0.660264 0.576322 0.863214
Si Si6 0.188963 0.500000 0.250000
O O1 0.369258 0.348186 0.999593
O O2 0.254717 0.435025 0.160430
O O3 0.787716 0.774053 0.702595
O O4 0.605465 0.805122 0.865603
O O5 0.672349 0.657146 0.760796
O O6 0.750000 0.734880 0.000000
O O7 0.500000 0.750000 0.344658
O O8 0.422639 0.641950 0.162483
O O9 0.553164 0.405379 0.548302
O O10 0.373677 0.453602 0.607968
O O11 0.655829 0.500000 0.750000
O O12 0.750000 0.566962 0.000000
#
# Coordination Sequence:
#
# PCOD9336495 Si02
#       6
#     4   8   8   8   8   4
#     4  12  26  46  68 106 148 178 238 308 368 438
#     4   9  19  40  71  95 128 179 234 285 343 426
#     4  11  23  45  71 104 136 189 237 299 369 437
#     4  11  21  44  73 102 134 184 252 293 357 430
#     4  11  23  43  64 101 144 190 233 290 360 440
#     4  12  24  44  70 106 142 184 236 306 372 416
#
# _framework density 22.275825000000001
#
# number of rings (size 3 to 8) (size 9 to 14) (size 15 to 20)
#    0.000    1.200    3.000    5.400    1.400    0.000 
#   12.600    0.000    0.000    0.000    0.000    0.000 
#    0.000    0.000    0.000    0.000    0.000    0.000 
#
# Total GULP energy -111396.948761 kJ/mol
# GULP energy per Si atom -5569.847438 kJ/mol
# Density = 2.222512 g / cm^3
# Si number density = 22.275825 Si / 1000 Ang^3
#
#
#
# Elastic Constant Matrix: (Units=GPa)
#
#
# Indices 1 2 3 4 5 6 
#
# 1 170.5545 70.8443 45.3253 0.0000 0.0000 0.0000
# 2 70.8443 141.8663 27.9575 0.0000 0.0000 0.0000
# 3 45.3253 27.9575 63.7110 0.0000 0.0000 0.0000
# 4 0.0000 0.0000 0.0000 -55.9969 0.0000 0.0000
# 5 0.0000 0.0000 0.0000 0.0000 25.3741 0.0000
# 6 0.0000 0.0000 0.0000 0.0000 0.0000 -186.6245
#
#
#
# Elastic Compliance Matrix: (Units=1/GPa)
#
#
# Indices 1 2 3 4 5 6 
#
# 1 0.008455 -0.003324 -0.004556 0.000000 0.000000 0.000000
# 2 -0.003324 0.009023 -0.001595 0.000000 0.000000 0.000000
# 3 -0.004556 -0.001595 0.019637 0.000000 0.000000 0.000000
# 4 0.000000 0.000000 0.000000 -0.017858 0.000000 0.000000
# 5 0.000000 0.000000 0.000000 0.000000 0.039410 0.000000
# 6 0.000000 0.000000 0.000000 0.000000 0.000000 -0.005358
#
#
# Mechanical properties :
#
#
# Convention : Reuss Voigt Hill
#
# Bulk Modulus (GPa) = 55.05116 73.82067 64.43591
# Shear Modulus (GPa) = 63.84553 -27.98250 17.93151
#
# Velocity S-wave (km/s) = 5.35944 -3.54811 2.84029
# Velocity P-wave (km/s) = 7.94136 4.05288 6.30440
#
# Compressibility (1/GPa) = 0.01816492
#
# Stress axis : x y z
#
# Youngs Moduli (GPa) = 118.27495 110.82562 50.92423
#
# Poissons Ratio (x) = 0.36841 0.23202
# Poissons Ratio (y) = 0.39318 0.08120
# Poissons Ratio (z) = 0.53889 0.17672
#
# Static dielectric constant tensor:
#      x y z
#    x 2.047520 0.000000 0.000000 
#    y 0.000000 2.407880 0.000000 
#    z 0.000000 0.000000 2.543000 
# 
# From -- ./inp_files/10786.got.cif
#   From: 2010.05.17/outbox.cif.g08.bks.cpg/sg24_6_cif.got.tgz:10786.got - 2010.06.04 00:33:39.
