data_PCOD9336675
_publ_section_title
;
Structure prediction by ZEFSAII (Michael W. Deem and Ramdas Pophale) SiO2 
 PCOD9336675
Probable space group: I 21 21 21
;
_chemical_formula_sum "Si O2"
_cell_formula_units_Z 36
_cell_length_a 6.646178
_cell_length_b 10.084191
_cell_length_c 24.315935
_cell_angle_alpha 90.000000
_cell_angle_beta 90.000000
_cell_angle_gamma 90.000000
_cell_volume 1629.686264
_symmetry_space_group_name_H-M "I 21 21 21"
_symmetry_group_IT_number 24
_symmetry_cell_setting 'orthorhombic'
loop_
_space_group_symop_operation_xyz
x,y,z
-x,1/2-y,z
x,-y,1/2-z
1/2-x,y,-z
1/2+x,1/2+y,1/2+z
1/2-x,-y,1/2+z
1/2+x,1/2-y,-z
-x,1/2+y,1/2-z
loop_
_atom_site_type_symbol
_atom_site_label
_atom_site_fract_x
_atom_site_fract_y
_atom_site_fract_z
Si Si1 0.000000 0.750000 0.261919
Si Si2 0.083084 0.609905 0.541943
Si Si3 0.194608 0.329956 0.670782
Si Si4 0.750000 0.426941 0.500000
Si Si5 0.663217 0.130799 0.169782
Si Si6 0.000000 0.250000 0.417727
O O1 0.812526 0.747165 0.218550
O O2 0.886042 0.846548 0.304876
O O3 0.250000 0.559881 0.500000
O O4 0.162228 0.630548 0.603509
O O5 0.000000 0.750000 0.520634
O O6 0.896488 0.512800 0.538081
O O7 0.121372 0.477925 0.686724
O O8 0.353560 0.335310 0.621333
O O9 0.000000 0.250000 0.653168
O O10 0.626703 0.341040 0.542534
O O11 0.500000 0.250000 0.184835
#
# Coordination Sequence:
#
# PCOD9336675 Si02
#       6
#     4   8   8   4   8   4
#     4  11  26  44  70 104 142 190 241 304 378 450
#     4  11  24  42  69 103 146 191 242 309 372 442
#     4  11  25  49  73 103 145 195 250 312 380 446
#     4  12  26  44  68 106 148 202 250 300 376 458
#     4  11  26  43  72 108 144 191 247 315 373 450
#     4  11  28  42  74 102 148 200 245 308 362 464
#
# _framework density 22.090142
#
# number of rings (size 3 to 8) (size 9 to 14) (size 15 to 20)
#    0.000    0.889    1.111    4.000    7.778    8.889 
#    0.000    0.000    0.000    0.000    0.000    0.000 
#    0.000    0.000    0.000    0.000    0.000    0.000 
#
# Total GULP energy -100336.151335 kJ/mol
# GULP energy per Si atom -5574.230630 kJ/mol
# Density = 2.203986 g / cm^3
# Si number density = 22.090142 Si / 1000 Ang^3
#
#
#
# Elastic Constant Matrix: (Units=GPa)
#
#
# Indices 1 2 3 4 5 6 
#
# 1 107.9818 60.4077 46.7558 0.0000 0.0000 0.0000
# 2 60.4077 127.6502 8.9429 0.0000 0.0000 0.0000
# 3 46.7558 8.9429 117.2283 0.0000 0.0000 0.0000
# 4 0.0000 0.0000 0.0000 16.0442 0.0000 0.0000
# 5 0.0000 0.0000 0.0000 0.0000 13.2087 0.0000
# 6 0.0000 0.0000 0.0000 0.0000 0.0000 49.7219
#
#
#
# Elastic Compliance Matrix: (Units=1/GPa)
#
#
# Indices 1 2 3 4 5 6 
#
# 1 0.015653 -0.007007 -0.005708 0.000000 0.000000 0.000000
# 2 -0.007007 0.011013 0.001955 0.000000 0.000000 0.000000
# 3 -0.005708 0.001955 0.010658 0.000000 0.000000 0.000000
# 4 0.000000 0.000000 0.000000 0.062328 0.000000 0.000000
# 5 0.000000 0.000000 0.000000 0.000000 0.075707 0.000000
# 6 0.000000 0.000000 0.000000 0.000000 0.000000 0.020112
#
#
# Mechanical properties :
#
#
# Convention : Reuss Voigt Hill
#
# Bulk Modulus (GPa) = 63.28477 65.00810 64.14643
# Shear Modulus (GPa) = 22.49619 31.57857 27.03738
#
# Velocity S-wave (km/s) = 3.19467 3.78502 3.50230
# Velocity P-wave (km/s) = 6.50527 6.97096 6.74213
#
# Compressibility (1/GPa) = 0.01580159
#
# Stress axis : x y z
#
# Youngs Moduli (GPa) = 63.88715 90.80148 93.82623
#
# Poissons Ratio (x) = 0.63628 0.53560
# Poissons Ratio (y) = 0.44768 -0.18340
# Poissons Ratio (z) = 0.36469 -0.17749
#
# Static dielectric constant tensor:
#      x y z
#    x 1.766040 0.000000 0.000000 
#    y 0.000000 1.839580 0.000000 
#    z 0.000000 0.000000 1.831460 
# 
# From -- ./inp_files/34567.got.cif
#   From: 2010.05.17/outbox.cif.g08.bks.cpg/sg24_18_cif.got.tgz:34567.got - 2010.06.04 00:33:39.
