data_PCOD9336136
_publ_section_title
;
Structure prediction by ZEFSAII (Michael W. Deem and Ramdas Pophale) SiO2 
 PCOD9336136
Probable space group: I 21 21 21
;
_chemical_formula_sum "Si O2"
_cell_formula_units_Z 28
_cell_length_a 11.800389
_cell_length_b 9.249154
_cell_length_c 11.932094
_cell_angle_alpha 90.000000
_cell_angle_beta 90.000000
_cell_angle_gamma 90.000000
_cell_volume 1302.311875
_symmetry_space_group_name_H-M "I 21 21 21"
_symmetry_group_IT_number 24
_symmetry_cell_setting 'orthorhombic'
loop_
_space_group_symop_operation_xyz
x,y,z
-x,1/2-y,z
x,-y,1/2-z
1/2-x,y,-z
1/2+x,1/2+y,1/2+z
1/2-x,-y,1/2+z
1/2+x,1/2-y,-z
-x,1/2+y,1/2-z
loop_
_atom_site_type_symbol
_atom_site_label
_atom_site_fract_x
_atom_site_fract_y
_atom_site_fract_z
Si Si1 0.112614 0.826323 0.259939
Si Si2 0.025836 0.970639 0.873365
Si Si3 0.314114 0.273485 0.393833
Si Si4 0.500000 0.750000 0.522227
O O1 0.223548 0.767178 0.199992
O O2 0.102917 0.776231 0.389786
O O3 0.000000 0.750000 0.207808
O O4 0.104738 0.000000 0.250000
O O5 0.912216 0.879021 0.853312
O O6 0.118897 0.870570 0.933776
O O7 0.074359 0.000000 0.750000
O O8 0.995886 0.110704 0.944060
O O9 0.250000 0.338247 0.500000
#
# Coordination Sequence:
#
# PCOD9336136 Si02
#       4
#     8   8   8   4
#     4  10  24  43  75  99 138 182 252 285 343 416
#     4  11  25  45  65 101 137 177 223 295 361 411
#     4  11  25  42  70  94 139 180 226 286 356 412
#     4  10  24  44  74 100 136 186 246 286 346 434
#
# _framework density 21.500226999999999
#
# number of rings (size 3 to 8) (size 9 to 14) (size 15 to 20)
#    0.857    0.571    0.000    4.286    8.000    3.429 
#    0.000    7.143    0.000    0.000    0.000    0.000 
#    0.000    0.000    0.000    0.000    0.000    0.000 
#
# Total GULP energy -78198.564079 kJ/mol
# GULP energy per Si atom -5585.611720 kJ/mol
# Density = 2.145129 g / cm^3
# Si number density = 21.500227 Si / 1000 Ang^3
#
#
#
# Elastic Constant Matrix: (Units=GPa)
#
#
# Indices 1 2 3 4 5 6 
#
# 1 114.4785 39.6306 20.5474 0.0000 0.0000 0.0000
# 2 39.6306 92.2742 27.1347 0.0000 0.0000 0.0000
# 3 20.5474 27.1347 85.5484 0.0000 0.0000 0.0000
# 4 0.0000 0.0000 0.0000 12.5031 0.0000 0.0000
# 5 0.0000 0.0000 0.0000 0.0000 30.7253 0.0000
# 6 0.0000 0.0000 0.0000 0.0000 0.0000 12.4266
#
#
#
# Elastic Compliance Matrix: (Units=1/GPa)
#
#
# Indices 1 2 3 4 5 6 
#
# 1 0.010369 -0.004104 -0.001189 0.000000 0.000000 0.000000
# 2 -0.004104 0.013576 -0.003321 0.000000 0.000000 0.000000
# 3 -0.001189 -0.003321 0.013028 0.000000 0.000000 0.000000
# 4 0.000000 0.000000 0.000000 0.079980 0.000000 0.000000
# 5 0.000000 0.000000 0.000000 0.000000 0.032546 0.000000
# 6 0.000000 0.000000 0.000000 0.000000 0.000000 0.080472
#
#
# Mechanical properties :
#
#
# Convention : Reuss Voigt Hill
#
# Bulk Modulus (GPa) = 50.64022 51.88073 51.26047
# Shear Modulus (GPa) = 19.70197 24.79690 22.24944
#
# Velocity S-wave (km/s) = 3.03043 3.39976 3.22039
# Velocity P-wave (km/s) = 5.98742 6.29236 6.14178
#
# Compressibility (1/GPa) = 0.01974715
#
# Stress axis : x y z
#
# Youngs Moduli (GPa) = 96.43805 73.65789 76.75739
#
# Poissons Ratio (x) = 0.30228 0.09125
# Poissons Ratio (y) = 0.39577 0.25487
# Poissons Ratio (z) = 0.11465 0.24458
#
# Static dielectric constant tensor:
#      x y z
#    x 1.776290 0.000000 0.000000 
#    y 0.000000 1.757190 0.000000 
#    z 0.000000 0.000000 1.807910 
# 
# From -- ./inp_files/11857.got.cif
#   From: 2010.05.17/outbox.cif.g08.bks.cpg/sg24_6_cif.got.tgz:11857.got - 2010.06.04 00:33:39.
