data_PCOD9336623
_publ_section_title
;
Structure prediction by ZEFSAII (Michael W. Deem and Ramdas Pophale) SiO2 
 PCOD9336623
Probable space group: I 21 21 21
;
_chemical_formula_sum "Si O2"
_cell_formula_units_Z 56
_cell_length_a 12.676168
_cell_length_b 29.746380
_cell_length_c 6.986196
_cell_angle_alpha 90.000000
_cell_angle_beta 90.000000
_cell_angle_gamma 90.000000
_cell_volume 2634.285696
_symmetry_space_group_name_H-M "I 21 21 21"
_symmetry_group_IT_number 24
_symmetry_cell_setting 'orthorhombic'
loop_
_space_group_symop_operation_xyz
x,y,z
-x,1/2-y,z
x,-y,1/2-z
1/2-x,y,-z
1/2+x,1/2+y,1/2+z
1/2-x,-y,1/2+z
1/2+x,1/2-y,-z
-x,1/2+y,1/2-z
loop_
_atom_site_type_symbol
_atom_site_label
_atom_site_fract_x
_atom_site_fract_y
_atom_site_fract_z
Si Si1 0.172685 0.151180 0.183703
Si Si2 0.968637 0.548893 0.850027
Si Si3 0.750000 0.419513 0.500000
Si Si4 0.908342 0.779933 0.530361
Si Si5 0.520213 0.129459 0.070737
Si Si6 0.844669 0.040549 0.364077
Si Si7 0.750000 0.091918 0.000000
Si Si8 0.272751 0.251553 0.715693
O O1 0.214972 0.113935 0.329803
O O2 0.177510 0.201551 0.271489
O O3 0.250000 0.151751 0.000000
O O4 0.056564 0.137068 0.110120
O O5 0.987567 0.500000 0.750000
O O6 0.852383 0.551283 0.942556
O O7 0.973649 0.589691 0.698124
O O8 0.062394 0.559324 0.002295
O O9 0.962790 0.820080 0.646516
O O10 0.837571 0.788190 0.341056
O O11 0.000000 0.750000 0.449087
O O12 0.837074 0.750645 0.670646
O O13 0.641414 0.117241 0.035799
O O14 0.750000 0.023925 0.500000
O O15 0.898066 0.000000 0.250000
O O16 0.782616 0.067463 0.198979
O O17 0.250000 0.264727 0.500000
#
# Coordination Sequence:
#
# PCOD9336623 Si02
#       8
#     8   8   4   8   8   8   4   8
#     4  12  22  45  77 104 149 199 248 303 386 453
#     4  12  28  50  77 111 150 205 261 317 394 459
#     4  12  28  46  78 112 143 197 260 316 378 464
#     4  11  23  44  69 101 144 192 240 300 370 437
#     4  12  25  47  73 106 153 199 247 318 378 449
#     4  12  23  45  74 104 144 194 246 307 384 451
#     4  12  24  42  70 104 147 193 244 310 372 446
#     4  11  23  43  71 108 148 193 246 299 367 460
#
# _framework density 21.258133000000001
#
# number of rings (size 3 to 8) (size 9 to 14) (size 15 to 20)
#    0.000    0.286    7.143    3.000    0.000    2.286 
#    7.714    0.000    0.000    0.000    0.000    0.000 
#    0.000    0.000    0.000    0.000    0.000    0.000 
#
# Total GULP energy -156091.115776 kJ/mol
# GULP energy per Si atom -5574.682706 kJ/mol
# Density = 2.120975 g / cm^3
# Si number density = 21.258133 Si / 1000 Ang^3
#
#
#
# Elastic Constant Matrix: (Units=GPa)
#
#
# Indices 1 2 3 4 5 6 
#
# 1 134.2897 22.4254 31.8980 0.0021 -0.0001 0.0024
# 2 22.4254 83.5831 31.5520 -0.0013 -0.0010 -0.0012
# 3 31.8980 31.5520 92.2721 0.0097 0.0003 0.0074
# 4 0.0021 -0.0013 0.0097 26.4354 -0.0056 -0.0023
# 5 -0.0001 -0.0010 0.0003 -0.0056 23.9053 -0.0031
# 6 0.0024 -0.0012 0.0074 -0.0023 -0.0031 40.0645
#
#
#
# Elastic Compliance Matrix: (Units=1/GPa)
#
#
# Indices 1 2 3 4 5 6 
#
# 1 0.008235 -0.001303 -0.002401 0.000000 0.000000 0.000000
# 2 -0.001303 0.013944 -0.004318 0.000002 0.000001 0.000001
# 3 -0.002401 -0.004318 0.013144 -0.000005 0.000000 -0.000002
# 4 0.000000 0.000002 -0.000005 0.037828 0.000009 0.000002
# 5 0.000000 0.000001 0.000000 0.000009 0.041832 0.000003
# 6 0.000000 0.000001 -0.000002 0.000002 0.000003 0.024960
#
#
# Mechanical properties :
#
#
# Convention : Reuss Voigt Hill
#
# Bulk Modulus (GPa) = 51.87019 53.54395 52.70707
# Shear Modulus (GPa) = 30.78613 33.03236 31.90924
#
# Velocity S-wave (km/s) = 3.80966 3.94619 3.87852
# Velocity P-wave (km/s) = 6.61849 6.78273 6.70111
#
# Compressibility (1/GPa) = 0.01927890
#
# Stress axis : x y z
#
# Youngs Moduli (GPa) = 121.44022 71.71777 76.08083
#
# Poissons Ratio (x) = 0.09344 0.18268
# Poissons Ratio (y) = 0.15823 0.32848
# Poissons Ratio (z) = 0.29159 0.30964
#
# Static dielectric constant tensor:
#      x y z
#    x 1.762430 0.000010 0.000010 
#    y 0.000010 1.858090 0.000000 
#    z 0.000010 0.000000 1.731610 
# 
# From -- ./inp_files/4005.got.cif
#   From: 2010.05.17/outbox.cif.g08.bks.cpg/sg24_3_cif.got.tgz:4005.got - 2010.06.04 00:33:39.
