data_PCOD9336956
_publ_section_title
;
Structure prediction by ZEFSAII (Michael W. Deem and Ramdas Pophale) SiO2 
 PCOD9336956
Probable space group: I 21 21 21
;
_chemical_formula_sum "Si O2"
_cell_formula_units_Z 40
_cell_length_a 6.114052
_cell_length_b 24.134707
_cell_length_c 11.810767
_cell_angle_alpha 90.000000
_cell_angle_beta 90.000000
_cell_angle_gamma 90.000000
_cell_volume 1742.806860
_symmetry_space_group_name_H-M "I 21 21 21"
_symmetry_group_IT_number 24
_symmetry_cell_setting 'orthorhombic'
loop_
_space_group_symop_operation_xyz
x,y,z
-x,1/2-y,z
x,-y,1/2-z
1/2-x,y,-z
1/2+x,1/2+y,1/2+z
1/2-x,-y,1/2+z
1/2+x,1/2-y,-z
-x,1/2+y,1/2-z
loop_
_atom_site_type_symbol
_atom_site_label
_atom_site_fract_x
_atom_site_fract_y
_atom_site_fract_z
Si Si1 0.000000 0.750000 0.386823
Si Si2 0.750000 0.847334 0.500000
Si Si3 0.924489 0.049613 0.417988
Si Si4 0.889619 0.097847 0.774457
Si Si5 0.750000 0.363731 0.500000
Si Si6 0.235143 0.000000 0.750000
Si Si7 0.339038 0.204690 0.295874
O O1 0.937925 0.803278 0.462385
O O2 0.802241 0.731944 0.303711
O O3 0.789555 0.887419 0.605047
O O4 0.750000 0.020308 0.500000
O O5 0.794270 0.078663 0.314758
O O6 0.043593 0.094825 0.498417
O O7 0.109483 0.013485 0.356888
O O8 0.006883 0.155185 0.744341
O O9 0.077110 0.051382 0.775490
O O10 0.797257 0.324560 0.393800
O O11 0.500000 0.250000 0.347304
#
# Coordination Sequence:
#
# PCOD9336956 Si02
#       7
#     4   4   8   8   4   4   8
#     4  12  26  50  76 114 160 200 256 324 386 488
#     4  12  26  50  80 112 156 206 256 320 390 476
#     4  12  25  53  79 110 158 205 267 333 392 466
#     4  12  27  54  76 116 154 211 263 322 396 472
#     4  12  26  44  80 110 158 206 258 330 382 472
#     4  12  28  54  78 118 156 210 270 330 400 468
#     4  12  26  46  76 117 154 205 257 314 401 467
#
# _framework density 22.951481000000001
#
# number of rings (size 3 to 8) (size 9 to 14) (size 15 to 20)
#    0.000    0.000    6.000    3.000    1.400    0.000 
#   18.000    0.000    0.000    0.000    0.000    0.000 
#    0.000    0.000    0.000    0.000    0.000    0.000 
#
# Total GULP energy -111922.008256 kJ/mol
# GULP energy per Si atom -5596.100413 kJ/mol
# Density = 2.289924 g / cm^3
# Si number density = 22.951481 Si / 1000 Ang^3
#
#
#
# Elastic Constant Matrix: (Units=GPa)
#
#
# Indices 1 2 3 4 5 6 
#
# 1 96.2936 47.5548 31.4505 0.0000 0.0000 0.0000
# 2 47.5548 118.9740 28.6682 0.0000 0.0000 0.0000
# 3 31.4505 28.6682 110.8301 0.0000 -0.0001 0.0000
# 4 0.0000 0.0000 0.0000 4.3641 0.0000 0.0000
# 5 0.0000 0.0000 -0.0001 0.0000 9.0359 0.0000
# 6 0.0000 0.0000 0.0000 0.0000 0.0000 31.6736
#
#
#
# Elastic Compliance Matrix: (Units=1/GPa)
#
#
# Indices 1 2 3 4 5 6 
#
# 1 0.013617 -0.004811 -0.002619 0.000000 0.000000 0.000000
# 2 -0.004811 0.010664 -0.001393 0.000000 0.000000 0.000000
# 3 -0.002619 -0.001393 0.010126 0.000000 0.000000 0.000000
# 4 0.000000 0.000000 0.000000 0.229142 0.000000 0.000000
# 5 0.000000 0.000000 0.000000 0.000000 0.110670 0.000000
# 6 0.000000 0.000000 0.000000 0.000000 0.000000 0.031572
#
#
# Mechanical properties :
#
#
# Convention : Reuss Voigt Hill
#
# Bulk Modulus (GPa) = 59.66888 60.16051 59.91469
# Shear Modulus (GPa) = 11.65432 23.57632 17.61532
#
# Velocity S-wave (km/s) = 2.25584 3.20851 2.77339
# Velocity P-wave (km/s) = 5.73057 6.32416 6.03467
#
# Compressibility (1/GPa) = 0.01675916
#
# Stress axis : x y z
#
# Youngs Moduli (GPa) = 73.43974 93.77286 98.75087
#
# Poissons Ratio (x) = 0.45119 0.25867
# Poissons Ratio (y) = 0.35335 0.13757
# Poissons Ratio (z) = 0.19237 0.13063
#
# Static dielectric constant tensor:
#      x y z
#    x 1.903140 0.000000 0.000000 
#    y 0.000000 1.981460 0.000000 
#    z 0.000000 0.000000 1.943820 
# 
# From -- ./inp_files/17664.got.cif
#   From: 2010.05.17/outbox.cif.g08.bks.cpg/sg24_9_cif.got.tgz:17664.got - 2010.06.04 00:33:39.
