data_PCOD9336488
_publ_section_title
;
Structure prediction by ZEFSAII (Michael W. Deem and Ramdas Pophale) SiO2 
 PCOD9336488
Probable space group: I 21 21 21
;
_chemical_formula_sum "Si O2"
_cell_formula_units_Z 28
_cell_length_a 4.988595
_cell_length_b 35.047579
_cell_length_c 7.366474
_cell_angle_alpha 90.000000
_cell_angle_beta 90.000000
_cell_angle_gamma 90.000000
_cell_volume 1287.940888
_symmetry_space_group_name_H-M "I 21 21 21"
_symmetry_group_IT_number 24
_symmetry_cell_setting 'orthorhombic'
loop_
_space_group_symop_operation_xyz
x,y,z
-x,1/2-y,z
x,-y,1/2-z
1/2-x,y,-z
1/2+x,1/2+y,1/2+z
1/2-x,-y,1/2+z
1/2+x,1/2-y,-z
-x,1/2+y,1/2-z
loop_
_atom_site_type_symbol
_atom_site_label
_atom_site_fract_x
_atom_site_fract_y
_atom_site_fract_z
Si Si1 0.666220 0.884306 0.210874
Si Si2 0.750000 0.274819 0.500000
Si Si3 0.342545 0.165449 0.804168
Si Si4 0.999448 0.464090 0.628544
O O1 0.398458 0.860444 0.232288
O O2 0.598233 0.928350 0.249955
O O3 0.901494 0.862309 0.315191
O O4 0.750000 0.884203 0.000000
O O5 0.500000 0.250000 0.429224
O O6 0.626264 0.300968 0.659128
O O7 0.250000 0.180188 0.000000
O O8 0.919925 0.500000 0.750000
O O9 0.250000 0.474654 0.500000
O O10 0.750000 0.452291 0.500000
#
# Coordination Sequence:
#
# PCOD9336488 Si02
#       4
#     8   4   8   8
#     4  11  21  43  67  93 135 185 227 281 345 407
#     4  12  26  46  72 100 142 182 216 288 358 406
#     4  12  25  43  71 104 132 177 234 280 334 418
#     4  11  24  41  64  96 137 183 229 286 348 403
#
# _framework density 21.740127000000001
#
# number of rings (size 3 to 8) (size 9 to 14) (size 15 to 20)
#    0.000    0.571    2.857    6.857    0.000    4.571 
#    0.000    0.000    0.000    0.000    0.000    0.000 
#    0.000    0.000    0.000    0.000    0.000    0.000 
#
# Total GULP energy -78329.149056 kJ/mol
# GULP energy per Si atom -5594.939218 kJ/mol
# Density = 2.169065 g / cm^3
# Si number density = 21.740127 Si / 1000 Ang^3
#
#
#
# Elastic Constant Matrix: (Units=GPa)
#
#
# Indices 1 2 3 4 5 6 
#
# 1 138.2986 31.5378 -1.0525 0.0000 0.0000 0.0000
# 2 31.5378 101.2074 30.3903 0.0000 0.0000 0.0001
# 3 -1.0525 30.3903 66.3580 -0.0001 -0.0001 0.0004
# 4 0.0000 0.0000 -0.0001 32.3885 0.0000 -0.0001
# 5 0.0000 0.0000 -0.0001 0.0000 37.5568 -0.0001
# 6 0.0000 0.0001 0.0004 -0.0001 -0.0001 20.2402
#
#
#
# Elastic Compliance Matrix: (Units=1/GPa)
#
#
# Indices 1 2 3 4 5 6 
#
# 1 0.007903 -0.002899 0.001453 0.000000 0.000000 0.000000
# 2 -0.002899 0.012520 -0.005780 0.000000 0.000000 0.000000
# 3 0.001453 -0.005780 0.017740 0.000000 0.000000 0.000000
# 4 0.000000 0.000000 0.000000 0.030875 0.000000 0.000000
# 5 0.000000 0.000000 0.000000 0.000000 0.026626 0.000000
# 6 0.000000 0.000000 0.000000 0.000000 0.000000 0.049407
#
#
# Mechanical properties :
#
#
# Convention : Reuss Voigt Hill
#
# Bulk Modulus (GPa) = 42.17454 47.51282 44.84368
# Shear Modulus (GPa) = 29.86411 34.36966 32.11688
#
# Velocity S-wave (km/s) = 3.71035 3.98041 3.84775
# Velocity P-wave (km/s) = 6.14793 6.55951 6.35705
#
# Compressibility (1/GPa) = 0.02371099
#
# Stress axis : x y z
#
# Youngs Moduli (GPa) = 126.53636 79.87510 56.37060
#
# Poissons Ratio (x) = 0.23155 -0.08191
# Poissons Ratio (y) = 0.36682 0.32580
# Poissons Ratio (z) = -0.18386 0.46165
#
# Static dielectric constant tensor:
#      x y z
#    x 1.709920 0.000000 0.000000 
#    y 0.000000 1.799380 0.000000 
#    z 0.000000 0.000000 1.798760 
# 
# From -- ./inp_files/8166.got.cif
#   From: 2010.05.17/outbox.cif.g08.bks.cpg/sg24_5_cif.got.tgz:8166.got - 2010.06.04 00:33:39.
