data_PCOD9336019
_publ_section_title
;
Structure prediction by ZEFSAII (Michael W. Deem and Ramdas Pophale) SiO2 
 PCOD9336019
Probable space group: I 21 21 21
;
_chemical_formula_sum "Si O2"
_cell_formula_units_Z 24
_cell_length_a 12.908329
_cell_length_b 5.455543
_cell_length_c 12.968985
_cell_angle_alpha 90.000000
_cell_angle_beta 90.000000
_cell_angle_gamma 90.000000
_cell_volume 913.301134
_symmetry_space_group_name_H-M "I 21 21 21"
_symmetry_group_IT_number 24
_symmetry_cell_setting 'orthorhombic'
loop_
_space_group_symop_operation_xyz
x,y,z
-x,1/2-y,z
x,-y,1/2-z
1/2-x,y,-z
1/2+x,1/2+y,1/2+z
1/2-x,-y,1/2+z
1/2+x,1/2-y,-z
-x,1/2+y,1/2-z
loop_
_atom_site_type_symbol
_atom_site_label
_atom_site_fract_x
_atom_site_fract_y
_atom_site_fract_z
Si Si1 0.604683 0.000000 0.366004
Si Si2 0.536883 0.500000 0.930589
Si Si3 0.763385 0.500000 0.867886
O O1 0.522771 1.000000 0.458703
O O2 0.673454 0.754912 0.375230
O O3 0.557935 0.000000 0.250000
O O4 0.673454 0.245087 0.375230
O O5 0.500000 0.250000 0.878841
O O6 0.660417 0.500000 0.936827
O O7 0.500000 0.750000 0.878842
O O8 0.722641 0.500000 0.750000
#
# Coordination Sequence:
#
# PCOD9336019 Si02
#       3
#     8   8   8
#     4  10  23  45  70  96 132 179 226 273 332 403
#     4  12  26  40  68 104 136 170 224 284 336 392
#     4  10  23  45  70  96 132 179 226 273 332 403
#
# _framework density 26.278297999999999
#
# number of rings (size 3 to 8) (size 9 to 14) (size 15 to 20)
#    0.000    1.333    0.000    4.000    0.000   10.667 
#    0.000    0.000    0.000    4.000    0.000    0.000 
#    0.000    0.000    0.000    0.000    0.000    0.000 
#
# Total GULP energy -67310.195817 kJ/mol
# GULP energy per Si atom -5609.182985 kJ/mol
# Density = 2.621849 g / cm^3
# Si number density = 26.278298 Si / 1000 Ang^3
#
#
#
# Elastic Constant Matrix: (Units=GPa)
#
#
# Indices 1 2 3 4 5 6 
#
# 1 179.3482 95.0912 29.0836 0.0000 0.0000 0.0000
# 2 95.0912 297.0850 37.6337 0.0000 0.0000 0.0000
# 3 29.0836 37.6337 142.8632 0.0000 0.0000 0.0000
# 4 0.0000 0.0000 0.0000 6.3254 0.0000 0.0000
# 5 0.0000 0.0000 0.0000 0.0000 29.8545 0.0000
# 6 0.0000 0.0000 0.0000 0.0000 0.0000 50.7270
#
#
#
# Elastic Compliance Matrix: (Units=1/GPa)
#
#
# Indices 1 2 3 4 5 6 
#
# 1 0.006812 -0.002074 -0.000840 0.000000 0.000000 0.000000
# 2 -0.002074 0.004114 -0.000661 0.000000 0.000000 0.000000
# 3 -0.000840 -0.000661 0.007345 0.000000 0.000000 0.000000
# 4 0.000000 0.000000 0.000000 0.158093 0.000000 0.000000
# 5 0.000000 0.000000 0.000000 0.000000 0.033496 0.000000
# 6 0.000000 0.000000 0.000000 0.000000 0.000000 0.019713
#
#
# Mechanical properties :
#
#
# Convention : Reuss Voigt Hill
#
# Bulk Modulus (GPa) = 89.93660 104.76814 97.35237
# Shear Modulus (GPa) = 20.79608 47.88058 34.33833
#
# Velocity S-wave (km/s) = 2.81620 4.27319 3.61878
# Velocity P-wave (km/s) = 6.69877 8.01886 7.38836
#
# Compressibility (1/GPa) = 0.01111894
#
# Stress axis : x y z
#
# Youngs Moduli (GPa) = 146.80923 243.09540 136.14647
#
# Poissons Ratio (x) = 0.50413 0.11442
# Poissons Ratio (y) = 0.30445 0.09005
# Poissons Ratio (z) = 0.12338 0.16080
#
# Static dielectric constant tensor:
#      x y z
#    x 2.007460 0.000000 0.000000 
#    y 0.000000 2.045290 0.000000 
#    z 0.000000 0.000000 2.128720 
# 
# From -- ./inp_files/1681.got.cif
#   From: 2010.05.17/outbox.cif.g08.bks.cpg/sg24_1_cif.got.tgz:1681.got - 2010.06.04 00:33:39.
