data_PCOD9336164
_publ_section_title
;
Structure prediction by ZEFSAII (Michael W. Deem and Ramdas Pophale) SiO2 
 PCOD9336164
Probable space group: I 21 21 21
;
_chemical_formula_sum "Si O2"
_cell_formula_units_Z 40
_cell_length_a 15.771532
_cell_length_b 5.064396
_cell_length_c 20.746452
_cell_angle_alpha 90.000000
_cell_angle_beta 90.000000
_cell_angle_gamma 90.000000
_cell_volume 1657.087244
_symmetry_space_group_name_H-M "I 21 21 21"
_symmetry_group_IT_number 24
_symmetry_cell_setting 'orthorhombic'
loop_
_space_group_symop_operation_xyz
x,y,z
-x,1/2-y,z
x,-y,1/2-z
1/2-x,y,-z
1/2+x,1/2+y,1/2+z
1/2-x,-y,1/2+z
1/2+x,1/2-y,-z
-x,1/2+y,1/2-z
loop_
_atom_site_type_symbol
_atom_site_label
_atom_site_fract_x
_atom_site_fract_y
_atom_site_fract_z
Si Si1 0.670768 0.876089 0.124263
Si Si2 0.091449 0.671894 0.410839
Si Si3 0.172594 0.934125 0.180445
Si Si4 0.662608 0.604788 0.462944
Si Si5 0.000000 0.750000 0.141839
Si Si6 0.559377 0.000000 0.250000
O O1 0.761710 0.759607 0.145788
O O2 0.633110 0.641246 0.079651
O O3 0.677177 0.139581 0.081774
O O4 0.616367 0.933465 0.187801
O O5 0.101926 0.796813 0.480068
O O6 0.070673 0.364886 0.410393
O O7 0.000000 0.750000 0.379910
O O8 0.158073 0.804994 0.363099
O O9 0.077147 0.825701 0.190037
O O10 0.209796 0.000000 0.250000
O O11 0.750000 0.531545 0.500000
O O12 0.500000 0.250000 0.235390
#
# Coordination Sequence:
#
# PCOD9336164 Si02
#       6
#     8   8   8   8   4   4
#     4  12  29  48  84 114 154 215 267 333 408 480
#     4  10  24  44  70 109 154 202 252 318 390 474
#     4  11  26  44  74 111 155 204 258 314 392 476
#     4  12  25  46  77 117 158 205 263 325 394 480
#     4  10  24  44  72 112 156 208 244 328 384 484
#     4  12  30  58  84 118 160 208 282 360 410 476
#
# _framework density 24.138741
#
# number of rings (size 3 to 8) (size 9 to 14) (size 15 to 20)
#    0.000    0.800    2.000    3.000   14.000    2.400 
#    0.000    0.000    0.000    0.000    0.000    0.000 
#    0.000    0.000    0.000    0.000    0.000    0.000 
#
# Total GULP energy -111567.022478 kJ/mol
# GULP energy per Si atom -5578.351124 kJ/mol
# Density = 2.408380 g / cm^3
# Si number density = 24.138741 Si / 1000 Ang^3
#
#
#
# Elastic Constant Matrix: (Units=GPa)
#
#
# Indices 1 2 3 4 5 6 
#
# 1 94.7039 38.5829 35.4862 0.0000 0.0000 0.0000
# 2 38.5829 100.9603 64.3960 0.0000 0.0000 0.0000
# 3 35.4862 64.3960 161.9235 0.0000 0.0000 0.0000
# 4 0.0000 0.0000 0.0000 36.4394 0.0000 0.0000
# 5 0.0000 0.0000 0.0000 0.0000 -18.7561 0.0000
# 6 0.0000 0.0000 0.0000 0.0000 0.0000 33.9783
#
#
#
# Elastic Compliance Matrix: (Units=1/GPa)
#
#
# Indices 1 2 3 4 5 6 
#
# 1 0.012661 -0.004112 -0.001140 0.000000 0.000000 0.000000
# 2 -0.004112 0.014607 -0.004908 0.000000 0.000000 0.000000
# 3 -0.001140 -0.004908 0.008377 0.000000 0.000000 0.000000
# 4 0.000000 0.000000 0.000000 0.027443 0.000000 0.000000
# 5 0.000000 0.000000 0.000000 0.000000 -0.053316 0.000000
# 6 0.000000 0.000000 0.000000 0.000000 0.000000 0.029431
#
#
# Mechanical properties :
#
#
# Convention : Reuss Voigt Hill
#
# Bulk Modulus (GPa) = 65.24471 70.50199 67.87335
# Shear Modulus (GPa) = 77.36311 24.94049 51.15180
#
# Velocity S-wave (km/s) = 5.66736 3.21785 4.60834
# Velocity P-wave (km/s) = 8.36140 6.56327 7.51630
#
# Compressibility (1/GPa) = 0.01532691
#
# Stress axis : x y z
#
# Youngs Moduli (GPa) = 78.98016 68.46195 119.37001
#
# Poissons Ratio (x) = 0.28150 0.13603
# Poissons Ratio (y) = 0.32475 0.58585
# Poissons Ratio (z) = 0.09000 0.33600
#
# Static dielectric constant tensor:
#      x y z
#    x 1.944530 0.000000 0.000000 
#    y 0.000000 1.555990 0.000000 
#    z 0.000000 0.000000 1.936550 
# 
# From -- ./inp_files/31010.got.cif
#   From: 2010.05.17/outbox.cif.g08.bks.cpg/sg24_16_cif.got.tgz:31010.got - 2010.06.04 00:33:39.
