data_PCOD9336343
_publ_section_title
;
Structure prediction by ZEFSAII (Michael W. Deem and Ramdas Pophale) SiO2 
 PCOD9336343
Probable space group: I 21 21 21
;
_chemical_formula_sum "Si O2"
_cell_formula_units_Z 32
_cell_length_a 9.720836
_cell_length_b 6.910024
_cell_length_c 17.793287
_cell_angle_alpha 90.000000
_cell_angle_beta 90.000000
_cell_angle_gamma 90.000000
_cell_volume 1195.196619
_symmetry_space_group_name_H-M "I 21 21 21"
_symmetry_group_IT_number 24
_symmetry_cell_setting 'orthorhombic'
loop_
_space_group_symop_operation_xyz
x,y,z
-x,1/2-y,z
x,-y,1/2-z
1/2-x,y,-z
1/2+x,1/2+y,1/2+z
1/2-x,-y,1/2+z
1/2+x,1/2-y,-z
-x,1/2+y,1/2-z
loop_
_atom_site_type_symbol
_atom_site_label
_atom_site_fract_x
_atom_site_fract_y
_atom_site_fract_z
Si Si1 0.144021 0.739587 0.114689
Si Si2 0.628218 0.480719 0.169667
Si Si3 0.406522 0.924790 0.494836
Si Si4 0.647979 0.859483 0.677346
O O1 0.168758 0.512726 0.108869
O O2 0.000000 0.750000 0.159190
O O3 0.269800 0.839143 0.156357
O O4 0.108957 0.878453 0.043757
O O5 0.554049 0.500000 0.250000
O O6 0.548976 0.468283 0.091071
O O7 0.731854 0.298735 0.174981
O O8 0.500000 0.750000 0.521437
O O9 0.250000 0.852757 0.500000
O O10 0.500000 0.750000 0.676292
O O11 0.660288 0.000000 0.750000
#
# Coordination Sequence:
#
# PCOD9336343 Si02
#       4
#     8   8   8   8
#     4  11  23  41  69 103 148 190 246 310 375 422
#     4  11  23  45  71 104 151 194 252 303 368 454
#     4  10  26  51  74 110 151 200 252 310 369 448
#     4  12  22  38  67 110 149 194 244 312 379 442
#
# _framework density 26.773838000000001
#
# number of rings (size 3 to 8) (size 9 to 14) (size 15 to 20)
#    0.000    1.000    5.000    1.500    7.000    0.000 
#   13.500    2.500    0.000    0.000    0.000    0.000 
#    0.000    0.000    0.000    0.000    0.000    0.000 
#
# Total GULP energy -89482.341419 kJ/mol
# GULP energy per Si atom -5592.646339 kJ/mol
# Density = 2.671290 g / cm^3
# Si number density = 26.773838 Si / 1000 Ang^3
#
#
#
# Elastic Constant Matrix: (Units=GPa)
#
#
# Indices 1 2 3 4 5 6 
#
# 1 49.0397 39.2084 -10.0849 0.0000 0.0000 0.0000
# 2 39.2084 221.0887 65.3725 0.0000 0.0000 0.0000
# 3 -10.0849 65.3725 219.2916 0.0000 0.0000 0.0000
# 4 0.0000 0.0000 0.0000 91.7707 0.0000 0.0000
# 5 0.0000 0.0000 0.0000 0.0000 -3.6818 0.0000
# 6 0.0000 0.0000 0.0000 0.0000 0.0000 39.0533
#
#
#
# Elastic Compliance Matrix: (Units=1/GPa)
#
#
# Indices 1 2 3 4 5 6 
#
# 1 0.025166 -0.005270 0.002728 0.000000 0.000000 0.000000
# 2 -0.005270 0.006064 -0.002050 0.000000 0.000000 0.000000
# 3 0.002728 -0.002050 0.005297 0.000000 0.000000 0.000000
# 4 0.000000 0.000000 0.000000 0.010897 0.000000 0.000000
# 5 0.000000 0.000000 0.000000 0.000000 -0.271606 0.000000
# 6 0.000000 0.000000 0.000000 0.000000 0.000000 0.025606
#
#
# Mechanical properties :
#
#
# Convention : Reuss Voigt Hill
#
# Bulk Modulus (GPa) = 36.57160 75.37911 55.97535
# Shear Modulus (GPa) = -27.73469 51.75670 12.01100
#
# Velocity S-wave (km/s) = -3.22201 4.40148 2.12034
# Velocity P-wave (km/s) = 0.39079 7.35159 5.19101
#
# Compressibility (1/GPa) = 0.02734362
#
# Stress axis : x y z
#
# Youngs Moduli (GPa) = 39.73622 164.91401 188.79570
#
# Poissons Ratio (x) = 0.86905 -0.51509
# Poissons Ratio (y) = 0.20940 0.38703
# Poissons Ratio (z) = -0.10841 0.33807
#
# Static dielectric constant tensor:
#      x y z
#    x 2.089730 0.000000 0.000000 
#    y 0.000000 2.081830 0.000000 
#    z 0.000000 0.000000 2.334650 
# 
# From -- ./inp_files/33139.got.cif
#   From: 2010.05.17/outbox.cif.g08.bks.cpg/sg24_17_cif.got.tgz:33139.got - 2010.06.04 00:33:39.
