data_PCOD9336061
_publ_section_title
;
Structure prediction by ZEFSAII (Michael W. Deem and Ramdas Pophale) SiO2 
 PCOD9336061
Probable space group: I 21 21 21
;
_chemical_formula_sum "Si O2"
_cell_formula_units_Z 40
_cell_length_a 25.958574
_cell_length_b 7.452137
_cell_length_c 9.991155
_cell_angle_alpha 90.000000
_cell_angle_beta 90.000000
_cell_angle_gamma 90.000000
_cell_volume 1932.757460
_symmetry_space_group_name_H-M "I 21 21 21"
_symmetry_group_IT_number 24
_symmetry_cell_setting 'orthorhombic'
loop_
_space_group_symop_operation_xyz
x,y,z
-x,1/2-y,z
x,-y,1/2-z
1/2-x,y,-z
1/2+x,1/2+y,1/2+z
1/2-x,-y,1/2+z
1/2+x,1/2-y,-z
-x,1/2+y,1/2-z
loop_
_atom_site_type_symbol
_atom_site_label
_atom_site_fract_x
_atom_site_fract_y
_atom_site_fract_z
Si Si1 0.939324 0.711422 0.219083
Si Si2 0.057766 0.712035 0.741086
Si Si3 0.629535 0.665398 0.029535
Si Si4 0.700306 0.984608 0.089747
Si Si5 0.614303 0.259733 0.986101
O O1 0.935802 0.500000 0.250000
O O2 0.908899 0.797472 0.343746
O O3 0.000000 0.750000 0.210550
O O4 0.908395 0.747252 0.083300
O O5 0.067805 0.500000 0.750000
O O6 0.097965 0.816234 0.833041
O O7 0.066498 0.769247 0.588642
O O8 0.000000 0.750000 0.786169
O O9 0.638543 0.459572 0.987864
O O10 0.679568 0.786936 0.050486
O O11 0.655184 0.121605 0.046462
O O12 0.709070 0.000000 0.250000
O O13 0.750000 0.025183 0.000000
#
# Coordination Sequence:
#
# PCOD9336061 Si02
#       5
#     8   8   8   8   8
#     4  10  24  38  62 101 136 184 223 259 330 395
#     4  12  22  38  64 100 133 180 222 265 333 406
#     4  11  23  44  66  96 138 173 220 281 329 401
#     4  12  28  48  72 102 126 178 232 284 353 396
#     4  11  23  44  66  96 138 173 220 281 329 401
#
# _framework density 20.695822
#
# number of rings (size 3 to 8) (size 9 to 14) (size 15 to 20)
#    0.000    0.800    4.000    3.000    5.600    4.000 
#    0.000    0.000    0.000    0.000    0.000    0.000 
#    0.000    0.000    0.000    0.000    0.000    0.000 
#
# Total GULP energy -111820.445659 kJ/mol
# GULP energy per Si atom -5591.022283 kJ/mol
# Density = 2.064872 g / cm^3
# Si number density = 20.695822 Si / 1000 Ang^3
#
#
#
# Elastic Constant Matrix: (Units=GPa)
#
#
# Indices 1 2 3 4 5 6 
#
# 1 77.3266 4.2575 28.1516 0.0000 0.0000 0.0000
# 2 4.2575 78.6645 7.5852 0.0000 0.0000 0.0000
# 3 28.1516 7.5852 134.1043 0.0000 0.0000 0.0000
# 4 0.0000 0.0000 0.0000 21.6695 0.0000 0.0000
# 5 0.0000 0.0000 0.0000 0.0000 30.5109 0.0000
# 6 0.0000 0.0000 0.0000 0.0000 0.0000 21.2722
#
#
#
# Elastic Compliance Matrix: (Units=1/GPa)
#
#
# Indices 1 2 3 4 5 6 
#
# 1 0.014020 -0.000478 -0.002916 0.000000 0.000000 0.000000
# 2 -0.000478 0.012798 -0.000624 0.000000 0.000000 0.000000
# 3 -0.002916 -0.000624 0.008104 0.000000 0.000000 0.000000
# 4 0.000000 0.000000 0.000000 0.046148 0.000000 0.000000
# 5 0.000000 0.000000 0.000000 0.000000 0.032775 0.000000
# 6 0.000000 0.000000 0.000000 0.000000 0.000000 0.047010
#
#
# Mechanical properties :
#
#
# Convention : Reuss Voigt Hill
#
# Bulk Modulus (GPa) = 37.19149 41.12045 39.15597
# Shear Modulus (GPa) = 28.11318 31.36394 29.73856
#
# Velocity S-wave (km/s) = 3.68964 3.89713 3.79481
# Velocity P-wave (km/s) = 6.01339 6.33737 6.17750
#
# Compressibility (1/GPa) = 0.02688787
#
# Stress axis : x y z
#
# Youngs Moduli (GPa) = 71.32617 78.13600 123.39100
#
# Poissons Ratio (x) = 0.03732 0.35982
# Poissons Ratio (y) = 0.03407 0.07695
# Poissons Ratio (z) = 0.20800 0.04873
#
# Static dielectric constant tensor:
#      x y z
#    x 1.684100 0.000000 0.000000 
#    y 0.000000 1.787670 0.000000 
#    z 0.000000 0.000000 1.761190 
# 
# From -- ./inp_files/9494.got.cif
#   From: 2010.05.17/outbox.cif.g08.bks.cpg/sg24_5_cif.got.tgz:9494.got - 2010.06.04 00:33:39.
