data_PCOD9336604
_publ_section_title
;
Structure prediction by ZEFSAII (Michael W. Deem and Ramdas Pophale) SiO2 
 PCOD9336604
Probable space group: I 21 21 21
;
_chemical_formula_sum "Si O2"
_cell_formula_units_Z 40
_cell_length_a 11.444008
_cell_length_b 17.643255
_cell_length_c 8.676607
_cell_angle_alpha 90.000000
_cell_angle_beta 90.000000
_cell_angle_gamma 90.000000
_cell_volume 1751.889827
_symmetry_space_group_name_H-M "I 21 21 21"
_symmetry_group_IT_number 24
_symmetry_cell_setting 'orthorhombic'
loop_
_space_group_symop_operation_xyz
x,y,z
-x,1/2-y,z
x,-y,1/2-z
1/2-x,y,-z
1/2+x,1/2+y,1/2+z
1/2-x,-y,1/2+z
1/2+x,1/2-y,-z
-x,1/2+y,1/2-z
loop_
_atom_site_type_symbol
_atom_site_label
_atom_site_fract_x
_atom_site_fract_y
_atom_site_fract_z
Si Si1 0.579408 0.676359 0.626572
Si Si2 0.378539 0.710520 0.031840
Si Si3 0.150675 0.193570 0.784410
Si Si4 0.369128 0.952919 0.093649
Si Si5 0.558028 0.065335 0.650238
O O1 0.500000 0.750000 0.647359
O O2 0.591226 0.667000 0.442533
O O3 0.710978 0.689889 0.684360
O O4 0.523268 0.609593 0.726450
O O5 0.500000 0.750000 0.977942
O O6 0.381415 0.723158 0.217763
O O7 0.250000 0.745548 0.000000
O O8 0.374580 0.630304 0.944343
O O9 0.119715 0.133798 0.650484
O O10 0.366926 0.000000 0.250000
O O11 0.250000 0.964102 0.000000
O O12 0.474544 0.970919 0.979350
O O13 0.621228 0.000000 0.750000
#
# Coordination Sequence:
#
# PCOD9336604 Si02
#       5
#     8   8   8   8   8
#     4  11  24  41  69 104 141 181 252 310 375 441
#     4  12  24  46  79 109 143 198 252 310 376 446
#     4  11  23  41  68 104 137 189 242 309 372 444
#     4  12  24  39  66 102 147 193 244 304 380 447
#     4  12  25  44  68 101 146 198 244 304 376 452
#
# _framework density 22.832484999999998
#
# number of rings (size 3 to 8) (size 9 to 14) (size 15 to 20)
#    0.000    0.400    4.000    6.000    2.800    0.000 
#    0.000    1.000    4.400    0.000    0.000    0.000 
#    0.000    0.000    0.000    0.000    0.000    0.000 
#
# Total GULP energy -111703.179523 kJ/mol
# GULP energy per Si atom -5585.158976 kJ/mol
# Density = 2.278052 g / cm^3
# Si number density = 22.832485 Si / 1000 Ang^3
#
#
#
# Elastic Constant Matrix: (Units=GPa)
#
#
# Indices 1 2 3 4 5 6 
#
# 1 77.4444 19.7046 30.0104 0.0000 0.0000 0.0000
# 2 19.7046 102.5503 61.6912 0.0000 0.0000 0.0000
# 3 30.0104 61.6912 158.0461 0.0001 -0.0001 -0.0001
# 4 0.0000 0.0000 0.0001 91.3690 0.0000 0.0000
# 5 0.0000 0.0000 -0.0001 0.0000 17.6057 0.0000
# 6 0.0000 0.0000 -0.0001 0.0000 0.0000 15.7538
#
#
#
# Elastic Compliance Matrix: (Units=1/GPa)
#
#
# Indices 1 2 3 4 5 6 
#
# 1 0.014098 -0.001436 -0.002117 0.000000 0.000000 0.000000
# 2 -0.001436 0.012890 -0.004759 0.000000 0.000000 0.000000
# 3 -0.002117 -0.004759 0.008587 0.000000 0.000000 0.000000
# 4 0.000000 0.000000 0.000000 0.010945 0.000000 0.000000
# 5 0.000000 0.000000 0.000000 0.000000 0.056800 0.000000
# 6 0.000000 0.000000 0.000000 0.000000 0.000000 0.063477
#
#
# Mechanical properties :
#
#
# Convention : Reuss Voigt Hill
#
# Bulk Modulus (GPa) = 52.76326 62.31703 57.54015
# Shear Modulus (GPa) = 26.35253 40.05468 33.20360
#
# Velocity S-wave (km/s) = 3.40099 4.19296 3.81757
# Velocity P-wave (km/s) = 6.21139 7.12697 6.68487
#
# Compressibility (1/GPa) = 0.01895258
#
# Stress axis : x y z
#
# Youngs Moduli (GPa) = 70.93228 77.58006 116.45896
#
# Poissons Ratio (x) = 0.11137 0.24650
# Poissons Ratio (y) = 0.10183 0.55421
# Poissons Ratio (z) = 0.15014 0.36919
#
# Static dielectric constant tensor:
#      x y z
#    x 1.845620 0.000000 0.000000 
#    y 0.000000 1.972710 0.000000 
#    z 0.000000 0.000000 1.890470 
# 
# From -- ./inp_files/10694.got.cif
#   From: 2010.05.17/outbox.cif.g08.bks.cpg/sg24_6_cif.got.tgz:10694.got - 2010.06.04 00:33:39.
