data_PCOD9336608
_publ_section_title
;
Structure prediction by ZEFSAII (Michael W. Deem and Ramdas Pophale) SiO2 
 PCOD9336608
Probable space group: I 21 21 21
;
_chemical_formula_sum "Si O2"
_cell_formula_units_Z 40
_cell_length_a 13.683277
_cell_length_b 16.453700
_cell_length_c 7.271876
_cell_angle_alpha 90.000000
_cell_angle_beta 90.000000
_cell_angle_gamma 90.000000
_cell_volume 1637.194051
_symmetry_space_group_name_H-M "I 21 21 21"
_symmetry_group_IT_number 24
_symmetry_cell_setting 'orthorhombic'
loop_
_space_group_symop_operation_xyz
x,y,z
-x,1/2-y,z
x,-y,1/2-z
1/2-x,y,-z
1/2+x,1/2+y,1/2+z
1/2-x,-y,1/2+z
1/2+x,1/2-y,-z
-x,1/2+y,1/2-z
loop_
_atom_site_type_symbol
_atom_site_label
_atom_site_fract_x
_atom_site_fract_y
_atom_site_fract_z
Si Si1 0.703425 0.720621 0.672949
Si Si2 0.538600 0.089605 0.231612
Si Si3 0.680270 0.412911 0.328644
Si Si4 0.150097 0.642617 0.042129
Si Si5 0.524621 0.409374 0.809563
O O1 0.750000 0.770340 0.500000
O O2 0.792783 0.657963 0.691309
O O3 0.684894 0.779678 0.843232
O O4 0.608258 0.660482 0.686389
O O5 0.516120 0.097308 0.017388
O O6 0.601413 0.155159 0.341913
O O7 0.435868 0.086752 0.343859
O O8 0.584609 0.000000 0.250000
O O9 0.706717 0.500000 0.250000
O O10 0.750000 0.398433 0.500000
O O11 0.065876 0.605446 0.171311
O O12 0.250000 0.594110 0.000000
O O13 0.562416 0.500000 0.750000
#
# Coordination Sequence:
#
# PCOD9336608 Si02
#       5
#     8   8   8   8   8
#     4  12  26  47  73 119 161 206 255 327 412 493
#     4  11  25  50  79 111 151 209 265 336 398 471
#     4  11  23  41  75 113 156 201 259 326 408 490
#     4  12  30  51  75 110 156 213 268 326 394 478
#     4  12  26  53  83 117 159 204 274 336 402 480
#
# _framework density 24.432044000000001
#
# number of rings (size 3 to 8) (size 9 to 14) (size 15 to 20)
#    0.000    0.400    4.000    3.600    8.400    2.400 
#    0.000    0.000    0.000    0.000    0.000    0.000 
#    0.000    0.000    0.000    0.000    0.000    0.000 
#
# Total GULP energy -111642.085159 kJ/mol
# GULP energy per Si atom -5582.104258 kJ/mol
# Density = 2.437644 g / cm^3
# Si number density = 24.432044 Si / 1000 Ang^3
#
#
#
# Elastic Constant Matrix: (Units=GPa)
#
#
# Indices 1 2 3 4 5 6 
#
# 1 140.2750 38.9578 75.4992 0.0000 0.0000 0.0000
# 2 38.9578 65.1584 31.7903 0.0000 0.0000 0.0000
# 3 75.4992 31.7903 172.4875 0.0000 0.0000 0.0000
# 4 0.0000 0.0000 0.0000 32.8867 0.0000 0.0000
# 5 0.0000 0.0000 0.0000 0.0000 -18.9032 0.0000
# 6 0.0000 0.0000 0.0000 0.0000 0.0000 -2.5519
#
#
#
# Elastic Compliance Matrix: (Units=1/GPa)
#
#
# Indices 1 2 3 4 5 6 
#
# 1 0.010346 -0.004369 -0.003723 0.000000 0.000000 0.000000
# 2 -0.004369 0.018709 -0.001536 0.000000 0.000000 0.000000
# 3 -0.003723 -0.001536 0.007710 0.000000 0.000000 0.000000
# 4 0.000000 0.000000 0.000000 0.030407 0.000000 0.000000
# 5 0.000000 0.000000 0.000000 0.000000 -0.052901 0.000000
# 6 0.000000 0.000000 0.000000 0.000000 0.000000 -0.391862
#
#
# Mechanical properties :
#
#
# Convention : Reuss Voigt Hill
#
# Bulk Modulus (GPa) = 57.11440 74.49063 65.80252
# Shear Modulus (GPa) = -14.18450 17.73123 1.77337
#
# Velocity S-wave (km/s) = -2.41212 2.69687 0.85288
# Velocity P-wave (km/s) = 3.95852 6.34449 5.28784
#
# Compressibility (1/GPa) = 0.01750872
#
# Stress axis : x y z
#
# Youngs Moduli (GPa) = 96.65241 53.45055 129.69664
#
# Poissons Ratio (x) = 0.23355 0.48291
# Poissons Ratio (y) = 0.42231 0.19916
# Poissons Ratio (z) = 0.35987 0.08208
#
# Static dielectric constant tensor:
#      x y z
#    x 1.950820 0.000000 0.000000 
#    y 0.000000 3.298890 0.000000 
#    z 0.000000 0.000000 2.242460 
# 
# From -- ./inp_files/11005.got.cif
#   From: 2010.05.17/outbox.cif.g08.bks.cpg/sg24_6_cif.got.tgz:11005.got - 2010.06.04 00:33:39.
