data_PCOD9336958
_publ_section_title
;
Structure prediction by ZEFSAII (Michael W. Deem and Ramdas Pophale) SiO2 
 PCOD9336958
Probable space group: I 21 21 21
;
_chemical_formula_sum "Si O2"
_cell_formula_units_Z 32
_cell_length_a 8.218695
_cell_length_b 5.420568
_cell_length_c 28.433311
_cell_angle_alpha 90.000000
_cell_angle_beta 90.000000
_cell_angle_gamma 90.000000
_cell_volume 1266.703866
_symmetry_space_group_name_H-M "I 21 21 21"
_symmetry_group_IT_number 24
_symmetry_cell_setting 'orthorhombic'
loop_
_space_group_symop_operation_xyz
x,y,z
-x,1/2-y,z
x,-y,1/2-z
1/2-x,y,-z
1/2+x,1/2+y,1/2+z
1/2-x,-y,1/2+z
1/2+x,1/2-y,-z
-x,1/2+y,1/2-z
loop_
_atom_site_type_symbol
_atom_site_label
_atom_site_fract_x
_atom_site_fract_y
_atom_site_fract_z
Si Si1 0.000000 0.750000 0.550048
Si Si2 0.750000 0.387157 0.500000
Si Si3 0.500000 0.750000 0.831664
Si Si4 0.268408 0.403046 0.592164
Si Si5 0.500000 0.250000 0.207009
Si Si6 0.000000 0.250000 0.650096
Si Si7 0.791351 0.500000 0.250000
O O1 0.899481 0.555223 0.518288
O O2 0.142795 0.622224 0.580575
O O3 0.688350 0.213659 0.542291
O O4 0.407343 0.568343 0.868716
O O5 0.607355 0.589540 0.795112
O O6 0.154364 0.202368 0.617604
O O7 0.476761 0.501801 0.178789
O O8 0.666068 0.286336 0.235520
#
# Coordination Sequence:
#
# PCOD9336958 Si02
#       7
#     4   4   4   8   4   4   4
#     4  12  27  52  90 122 174 237 285 364 455 552
#     4  12  28  50  86 128 170 226 294 362 450 552
#     4  12  32  53  81 135 183 225 299 392 438 532
#     4  12  28  54  81 124 182 226 296 363 457 536
#     4  12  28  54  92 115 165 242 296 352 446 540
#     4  12  25  53  87 124 160 242 288 350 441 546
#     4  12  30  56  86 128 182 236 306 372 454 530
#
# _framework density 25.262414
#
# number of rings (size 3 to 8) (size 9 to 14) (size 15 to 20)
#    0.000    0.000    5.000    2.250   10.500    0.000 
#    0.000    0.000    0.000    0.000    0.000    0.000 
#    0.000    0.000    0.000    0.000    0.000    0.000 
#
# Total GULP energy -89567.392080 kJ/mol
# GULP energy per Si atom -5597.962005 kJ/mol
# Density = 2.520492 g / cm^3
# Si number density = 25.262414 Si / 1000 Ang^3
#
#
#
# Elastic Constant Matrix: (Units=GPa)
#
#
# Indices 1 2 3 4 5 6 
#
# 1 151.5645 63.2867 109.1625 0.0000 0.0000 0.0000
# 2 63.2867 148.7445 96.8052 0.0000 0.0001 0.0000
# 3 109.1625 96.8052 232.9456 0.0000 0.0001 0.0000
# 4 0.0000 0.0000 0.0000 29.8042 0.0001 0.0000
# 5 0.0000 0.0001 0.0001 0.0001 1515.2520 0.0000
# 6 0.0000 0.0000 0.0000 0.0000 0.0000 42.1778
#
#
#
# Elastic Compliance Matrix: (Units=1/GPa)
#
#
# Indices 1 2 3 4 5 6 
#
# 1 0.010262 -0.001695 -0.004105 0.000000 0.000000 0.000000
# 2 -0.001695 0.009495 -0.003152 0.000000 0.000000 0.000000
# 3 -0.004105 -0.003152 0.007526 0.000000 0.000000 0.000000
# 4 0.000000 0.000000 0.000000 0.033552 0.000000 0.000000
# 5 0.000000 0.000000 0.000000 0.000000 0.000660 0.000000
# 6 0.000000 0.000000 0.000000 0.000000 0.000000 0.023709
#
#
# Mechanical properties :
#
#
# Convention : Reuss Voigt Hill
#
# Bulk Modulus (GPa) = 106.59911 119.08482 112.84196
# Shear Modulus (GPa) = 47.06611 335.04683 191.05647
#
# Velocity S-wave (km/s) = 4.32103 11.52886 8.70591
# Velocity P-wave (km/s) = 8.19655 14.98202 12.07568
#
# Compressibility (1/GPa) = 0.00938094
#
# Stress axis : x y z
#
# Youngs Moduli (GPa) = 97.44906 105.31630 132.87155
#
# Poissons Ratio (x) = 0.17849 0.54538
# Poissons Ratio (y) = 0.16516 0.41877
# Poissons Ratio (z) = 0.39998 0.33193
#
# Static dielectric constant tensor:
#      x y z
#    x 2.103120 0.000000 0.000000 
#    y 0.000000 1.809050 0.000000 
#    z 0.000000 0.000000 2.066530 
# 
# From -- ./inp_files/1254.got.cif
#   From: 2010.05.17/outbox.cif.g08.bks.cpg/sg24_1_cif.got.tgz:1254.got - 2010.06.04 00:33:39.
