data_PCOD9336606
_publ_section_title
;
Structure prediction by ZEFSAII (Michael W. Deem and Ramdas Pophale) SiO2 
 PCOD9336606
Probable space group: I 21 21 21
;
_chemical_formula_sum "Si O2"
_cell_formula_units_Z 36
_cell_length_a 14.526400
_cell_length_b 20.267094
_cell_length_c 5.665054
_cell_angle_alpha 90.000000
_cell_angle_beta 90.000000
_cell_angle_gamma 90.000000
_cell_volume 1667.836732
_symmetry_space_group_name_H-M "I 21 21 21"
_symmetry_group_IT_number 24
_symmetry_cell_setting 'orthorhombic'
loop_
_space_group_symop_operation_xyz
x,y,z
-x,1/2-y,z
x,-y,1/2-z
1/2-x,y,-z
1/2+x,1/2+y,1/2+z
1/2-x,-y,1/2+z
1/2+x,1/2-y,-z
-x,1/2+y,1/2-z
loop_
_atom_site_type_symbol
_atom_site_label
_atom_site_fract_x
_atom_site_fract_y
_atom_site_fract_z
Si Si1 0.500000 0.250000 0.264348
Si Si2 0.354701 0.292843 0.592207
Si Si3 0.642417 0.475676 0.996313
Si Si4 0.806798 0.927599 0.253436
Si Si5 0.853844 0.319023 0.060899
O O1 0.434578 0.300292 0.403420
O O2 0.571945 0.291090 0.115493
O O3 0.250000 0.289771 0.500000
O O4 0.360184 0.357868 0.754967
O O5 0.374216 0.220511 0.699993
O O6 0.599485 0.500000 0.750000
O O7 0.603730 0.500000 0.250000
O O8 0.750000 0.499576 0.000000
O O9 0.643743 0.397172 0.962510
O O10 0.750000 0.926721 0.500000
O O11 0.854111 0.000000 0.250000
O O12 0.750000 0.926185 0.000000
O O13 0.750000 0.297290 0.000000
#
# Coordination Sequence:
#
# PCOD9336606 Si02
#       5
#     4   8   8   8   8
#     4  12  26  42  68 104 138 178 232 290 336 410
#     4  11  23  41  71 100 138 181 232 283 345 409
#     4   9  20  37  66  99 132 176 227 277 342 410
#     4   9  19  37  67 101 134 178 228 278 342 410
#     4  11  23  42  71  99 138 181 230 284 347 408
#
# _framework density 21.584848000000001
#
# number of rings (size 3 to 8) (size 9 to 14) (size 15 to 20)
#    0.000    1.778    2.222    1.333    6.222    0.889 
#    0.000    0.000    9.778    0.000    0.000    0.000 
#    0.000    0.000    0.000    0.000    0.000    0.000 
#
# Total GULP energy -100216.333764 kJ/mol
# GULP energy per Si atom -5567.574098 kJ/mol
# Density = 2.153572 g / cm^3
# Si number density = 21.584848 Si / 1000 Ang^3
#
#
#
# Elastic Constant Matrix: (Units=GPa)
#
#
# Indices 1 2 3 4 5 6 
#
# 1 101.4236 21.9394 37.8897 0.0000 0.0000 0.0000
# 2 21.9394 89.6209 41.5405 0.0000 0.0000 0.0000
# 3 37.8897 41.5405 128.1643 0.0000 0.0000 0.0000
# 4 0.0000 0.0000 0.0000 79.5738 0.0000 0.0000
# 5 0.0000 0.0000 0.0000 0.0000 43.5917 0.0000
# 6 0.0000 0.0000 0.0000 0.0000 0.0000 -66.5766
#
#
#
# Elastic Compliance Matrix: (Units=1/GPa)
#
#
# Indices 1 2 3 4 5 6 
#
# 1 0.011236 -0.001425 -0.002860 0.000000 0.000000 0.000000
# 2 -0.001425 0.013312 -0.003893 0.000000 0.000000 0.000000
# 3 -0.002860 -0.003893 0.009910 0.000000 0.000000 0.000000
# 4 0.000000 0.000000 0.000000 0.012567 0.000000 0.000000
# 5 0.000000 0.000000 0.000000 0.000000 0.022940 0.000000
# 6 0.000000 0.000000 0.000000 0.000000 0.000000 -0.015020
#
#
# Mechanical properties :
#
#
# Convention : Reuss Voigt Hill
#
# Bulk Modulus (GPa) = 55.24483 57.99423 56.61953
# Shear Modulus (GPa) = 64.65405 25.84040 45.24722
#
# Velocity S-wave (km/s) = 5.47891 3.46375 4.58345
# Velocity P-wave (km/s) = 8.10398 6.55157 7.36877
#
# Compressibility (1/GPa) = 0.01810124
#
# Stress axis : x y z
#
# Youngs Moduli (GPa) = 88.99712 75.12288 100.90972
#
# Poissons Ratio (x) = 0.10705 0.28860
# Poissons Ratio (y) = 0.12683 0.39286
# Poissons Ratio (z) = 0.25453 0.29247
#
# Static dielectric constant tensor:
#      x y z
#    x 1.757340 0.000000 0.000000 
#    y 0.000000 1.433040 0.000000 
#    z 0.000000 0.000000 1.912110 
# 
# From -- ./inp_files/4640.got.cif
#   From: 2010.05.17/outbox.cif.g08.bks.cpg/sg24_3_cif.got.tgz:4640.got - 2010.06.04 00:33:39.
