data_PCOD9336171
_publ_section_title
;
Structure prediction by ZEFSAII (Michael W. Deem and Ramdas Pophale) SiO2 
 PCOD9336171
Probable space group: I 21 21 21
;
_chemical_formula_sum "Si O2"
_cell_formula_units_Z 24
_cell_length_a 21.985873
_cell_length_b 4.797390
_cell_length_c 8.321741
_cell_angle_alpha 90.000000
_cell_angle_beta 90.000000
_cell_angle_gamma 90.000000
_cell_volume 877.734028
_symmetry_space_group_name_H-M "I 21 21 21"
_symmetry_group_IT_number 24
_symmetry_cell_setting 'orthorhombic'
loop_
_space_group_symop_operation_xyz
x,y,z
-x,1/2-y,z
x,-y,1/2-z
1/2-x,y,-z
1/2+x,1/2+y,1/2+z
1/2-x,-y,1/2+z
1/2+x,1/2-y,-z
-x,1/2+y,1/2-z
loop_
_atom_site_type_symbol
_atom_site_label
_atom_site_fract_x
_atom_site_fract_y
_atom_site_fract_z
Si Si1 0.833444 0.511131 0.575008
Si Si2 0.570667 0.155911 0.587602
Si Si3 0.250000 0.525384 0.000000
Si Si4 0.454416 0.500000 0.250000
O O1 0.865365 0.500000 0.750000
O O2 0.880817 0.397165 0.445126
O O3 0.781488 0.266895 0.611558
O O4 0.803437 0.792038 0.505442
O O5 0.500000 0.250000 0.603826
O O6 0.586146 0.000000 0.750000
O O7 0.576774 0.977830 0.422994
O O8 0.500000 0.750000 0.232212
#
# Coordination Sequence:
#
# PCOD9336171 Si02
#       4
#     8   8   4   4
#     4  11  26  49  84 119 164 219 274 344 421 492
#     4  11  27  48  81 124 174 213 283 333 421 488
#     4  10  26  50  78 118 158 210 284 338 410 494
#     4  10  24  44  74 108 164 220 264 330 402 480
#
# _framework density 27.343136999999999
#
# number of rings (size 3 to 8) (size 9 to 14) (size 15 to 20)
#    0.000    1.333    0.000    2.000   14.000    8.000 
#    0.000    1.667    0.000    0.000    0.000    0.000 
#    0.000    0.000    0.000    0.000    0.000    0.000 
#
# Total GULP energy -66949.161746 kJ/mol
# GULP energy per Si atom -5579.096812 kJ/mol
# Density = 2.728090 g / cm^3
# Si number density = 27.343137 Si / 1000 Ang^3
#
#
#
# Elastic Constant Matrix: (Units=GPa)
#
#
# Indices 1 2 3 4 5 6 
#
# 1 127.3830 36.4018 49.7426 0.0000 0.0000 0.0000
# 2 36.4018 164.7753 58.5541 0.0000 0.0000 0.0000
# 3 49.7426 58.5541 209.4216 0.0000 0.0000 0.0000
# 4 0.0000 0.0000 0.0000 52.4471 0.0000 0.0000
# 5 0.0000 0.0000 0.0000 0.0000 41.6151 0.0000
# 6 0.0000 0.0000 0.0000 0.0000 0.0000 49.3514
#
#
#
# Elastic Compliance Matrix: (Units=1/GPa)
#
#
# Indices 1 2 3 4 5 6 
#
# 1 0.008916 -0.001351 -0.001740 0.000000 0.000000 0.000000
# 2 -0.001351 0.006943 -0.001620 0.000000 0.000000 0.000000
# 3 -0.001740 -0.001620 0.005641 0.000000 0.000000 0.000000
# 4 0.000000 0.000000 0.000000 0.019067 0.000000 0.000000
# 5 0.000000 0.000000 0.000000 0.000000 0.024030 0.000000
# 6 0.000000 0.000000 0.000000 0.000000 0.000000 0.020263
#
#
# Mechanical properties :
#
#
# Convention : Reuss Voigt Hill
#
# Bulk Modulus (GPa) = 82.80015 87.88631 85.34323
# Shear Modulus (GPa) = 50.86006 52.47481 51.66744
#
# Velocity S-wave (km/s) = 4.31753 4.38553 4.35166
# Velocity P-wave (km/s) = 7.42983 7.60629 7.51858
#
# Compressibility (1/GPa) = 0.01207727
#
# Stress axis : x y z
#
# Youngs Moduli (GPa) = 112.15854 144.02550 177.26201
#
# Poissons Ratio (x) = 0.19464 0.30842
# Poissons Ratio (y) = 0.15157 0.28722
# Poissons Ratio (z) = 0.19514 0.23337
#
# Static dielectric constant tensor:
#      x y z
#    x 2.253280 0.000000 0.000000 
#    y 0.000000 1.957210 0.000000 
#    z 0.000000 0.000000 2.244050 
# 
# From -- ./inp_files/15542.got.cif
#   From: 2010.05.17/outbox.cif.g08.bks.cpg/sg24_8_cif.got.tgz:15542.got - 2010.06.04 00:33:39.
