data_PCOD9336793
_publ_section_title
;
Structure prediction by ZEFSAII (Michael W. Deem and Ramdas Pophale) SiO2 
 PCOD9336793
Probable space group: I 21 21 21
;
_chemical_formula_sum "Si O2"
_cell_formula_units_Z 24
_cell_length_a 7.855205
_cell_length_b 9.115006
_cell_length_c 13.258652
_cell_angle_alpha 90.000000
_cell_angle_beta 90.000000
_cell_angle_gamma 90.000000
_cell_volume 949.322675
_symmetry_space_group_name_H-M "I 21 21 21"
_symmetry_group_IT_number 24
_symmetry_cell_setting 'orthorhombic'
loop_
_space_group_symop_operation_xyz
x,y,z
-x,1/2-y,z
x,-y,1/2-z
1/2-x,y,-z
1/2+x,1/2+y,1/2+z
1/2-x,-y,1/2+z
1/2+x,1/2-y,-z
-x,1/2+y,1/2-z
loop_
_atom_site_type_symbol
_atom_site_label
_atom_site_fract_x
_atom_site_fract_y
_atom_site_fract_z
Si Si1 0.000000 0.250000 0.999868
Si Si2 0.831811 0.002142 0.635221
Si Si3 0.079157 0.007538 0.135758
Si Si4 0.750000 0.262215 0.500000
O O1 0.084103 0.372819 0.929087
O O2 0.880098 0.343066 0.076596
O O3 0.626422 0.990159 0.639613
O O4 0.854279 0.151974 0.572938
O O5 0.895692 0.000000 0.750000
O O6 0.143572 0.000000 0.250000
O O7 0.147302 0.869539 0.074127
#
# Coordination Sequence:
#
# PCOD9336793 Si02
#       4
#     4   8   8   4
#     4  12  26  46  76 112 150 194 254 318 368 448
#     4  11  27  49  77 109 154 201 255 312 382 454
#     4  11  28  47  79 109 150 205 256 307 386 457
#     4  12  26  46  78 112 146 196 260 316 366 456
#
# _framework density 25.281182999999999
#
# number of rings (size 3 to 8) (size 9 to 14) (size 15 to 20)
#    0.000    0.667    3.333    1.000   14.000    2.667 
#    0.000    0.000    0.000    0.000    0.000    0.000 
#    0.000    0.000    0.000    0.000    0.000    0.000 
#
# Total GULP energy -67267.395803 kJ/mol
# GULP energy per Si atom -5605.616317 kJ/mol
# Density = 2.522364 g / cm^3
# Si number density = 25.281183 Si / 1000 Ang^3
#
#
#
# Elastic Constant Matrix: (Units=GPa)
#
#
# Indices 1 2 3 4 5 6 
#
# 1 61.4320 56.3721 48.3802 0.0000 0.0000 0.0000
# 2 56.3721 273.0419 149.3483 0.0000 0.0000 0.0000
# 3 48.3802 149.3483 310.9331 0.0000 0.0000 0.0000
# 4 0.0000 0.0000 0.0000 20.8944 0.0000 0.0000
# 5 0.0000 0.0000 0.0000 0.0000 35.8997 0.0000
# 6 0.0000 0.0000 0.0000 0.0000 0.0000 62.2309
#
#
#
# Elastic Compliance Matrix: (Units=1/GPa)
#
#
# Indices 1 2 3 4 5 6 
#
# 1 0.020640 -0.003397 -0.001580 0.000000 0.000000 0.000000
# 2 -0.003397 0.005527 -0.002126 0.000000 0.000000 0.000000
# 3 -0.001580 -0.002126 0.004483 0.000000 0.000000 0.000000
# 4 0.000000 0.000000 0.000000 0.047860 0.000000 0.000000
# 5 0.000000 0.000000 0.000000 0.000000 0.027855 0.000000
# 6 0.000000 0.000000 0.000000 0.000000 0.000000 0.016069
#
#
# Mechanical properties :
#
#
# Convention : Reuss Voigt Hill
#
# Bulk Modulus (GPa) = 60.81388 128.17868 94.49628
# Shear Modulus (GPa) = 35.18135 49.89210 42.53672
#
# Velocity S-wave (km/s) = 3.73447 4.44721 4.10633
# Velocity P-wave (km/s) = 6.53469 8.78530 7.74221
#
# Compressibility (1/GPa) = 0.01644361
#
# Stress axis : x y z
#
# Youngs Moduli (GPa) = 48.45050 180.93962 223.06011
#
# Poissons Ratio (x) = 0.61468 0.35237
# Poissons Ratio (y) = 0.16459 0.47423
# Poissons Ratio (z) = 0.07654 0.38468
#
# Static dielectric constant tensor:
#      x y z
#    x 2.157130 0.000000 0.000000 
#    y 0.000000 1.932650 0.000000 
#    z 0.000000 0.000000 1.978200 
# 
# From -- ./inp_files/11752.got.cif
#   From: 2010.05.17/outbox.cif.g08.bks.cpg/sg24_6_cif.got.tgz:11752.got - 2010.06.04 00:33:39.
