data_PCOD9336376
_publ_section_title
;
Structure prediction by ZEFSAII (Michael W. Deem and Ramdas Pophale) SiO2 
 PCOD9336376
Probable space group: I 21 21 21
;
_chemical_formula_sum "Si O2"
_cell_formula_units_Z 44
_cell_length_a 10.926705
_cell_length_b 16.967676
_cell_length_c 11.928205
_cell_angle_alpha 90.000000
_cell_angle_beta 90.000000
_cell_angle_gamma 90.000000
_cell_volume 2211.498633
_symmetry_space_group_name_H-M "I 21 21 21"
_symmetry_group_IT_number 24
_symmetry_cell_setting 'orthorhombic'
loop_
_space_group_symop_operation_xyz
x,y,z
-x,1/2-y,z
x,-y,1/2-z
1/2-x,y,-z
1/2+x,1/2+y,1/2+z
1/2-x,-y,1/2+z
1/2+x,1/2-y,-z
-x,1/2+y,1/2-z
loop_
_atom_site_type_symbol
_atom_site_label
_atom_site_fract_x
_atom_site_fract_y
_atom_site_fract_z
Si Si1 0.950028 0.032056 0.482520
Si Si2 0.867181 0.346946 0.386497
Si Si3 0.500000 0.250000 0.797144
Si Si4 0.657823 0.880093 0.601232
Si Si5 0.776936 0.092880 0.664103
Si Si6 0.135270 0.766175 0.881759
O O1 0.897811 0.051221 0.608209
O O2 0.840676 0.069391 0.408542
O O3 0.073809 0.075625 0.443157
O O4 0.944390 0.941518 0.443967
O O5 0.944577 0.317818 0.281937
O O6 0.724523 0.339249 0.350277
O O7 0.879752 0.282563 0.485933
O O8 0.600938 0.203471 0.866856
O O9 0.750000 0.871866 0.500000
O O10 0.734270 0.915703 0.706911
O O11 0.796632 0.185759 0.646076
O O12 0.000000 0.750000 0.834113
#
# Coordination Sequence:
#
# PCOD9336376 Si02
#       6
#     8   8   4   8   8   8
#     4  11  21  36  66 100 123 156 215 281 332 373
#     4  11  19  34  62 100 130 153 206 275 335 378
#     4  12  22  40  62  88 128 178 218 260 314 400
#     4  12  26  41  63  94 130 179 225 265 314 403
#     4  11  20  36  62  97 128 161 212 274 327 374
#     4  11  20  33  60 103 133 154 198 273 343 379
#
# _framework density 19.89601
#
# number of rings (size 3 to 8) (size 9 to 14) (size 15 to 20)
#    0.000    0.727    8.182    2.727    0.000    0.000 
#    1.636    0.000    4.000    0.000   18.909    0.000 
#    0.000    0.000    0.000    0.000    0.000    0.000 
#
# Total GULP energy -122533.222398 kJ/mol
# GULP energy per Si atom -5569.691927 kJ/mol
# Density = 1.985073 g / cm^3
# Si number density = 19.896010 Si / 1000 Ang^3
#
#
#
# Elastic Constant Matrix: (Units=GPa)
#
#
# Indices 1 2 3 4 5 6 
#
# 1 59.7348 16.0788 6.9047 0.0002 -0.0001 0.0000
# 2 16.0788 73.8359 19.5904 0.0004 -0.0001 -0.0001
# 3 6.9047 19.5904 95.3127 0.0006 -0.0001 -0.0001
# 4 0.0002 0.0004 0.0006 20.7650 -0.0001 -0.0001
# 5 -0.0001 -0.0001 -0.0001 -0.0001 12.6552 0.0000
# 6 0.0000 -0.0001 -0.0001 -0.0001 0.0000 41.0511
#
#
#
# Elastic Compliance Matrix: (Units=1/GPa)
#
#
# Indices 1 2 3 4 5 6 
#
# 1 0.017807 -0.003739 -0.000521 0.000000 0.000000 0.000000
# 2 -0.003739 0.015110 -0.002835 0.000000 0.000000 0.000000
# 3 -0.000521 -0.002835 0.011112 0.000000 0.000000 0.000000
# 4 0.000000 0.000000 0.000000 0.048158 0.000000 0.000000
# 5 0.000000 0.000000 0.000000 0.000000 0.079019 0.000000
# 6 0.000000 0.000000 0.000000 0.000000 0.000000 0.024360
#
#
# Mechanical properties :
#
#
# Convention : Reuss Voigt Hill
#
# Bulk Modulus (GPa) = 33.51392 34.89234 34.20313
# Shear Modulus (GPa) = 22.75789 27.31489 25.03639
#
# Velocity S-wave (km/s) = 3.38574 3.70926 3.55119
# Velocity P-wave (km/s) = 5.67146 5.99335 5.83463
#
# Compressibility (1/GPa) = 0.02983835
#
# Stress axis : x y z
#
# Youngs Moduli (GPa) = 56.15616 66.18134 89.99106
#
# Poissons Ratio (x) = 0.24748 0.04692
# Poissons Ratio (y) = 0.20999 0.25511
# Poissons Ratio (z) = 0.02928 0.18761
#
# Static dielectric constant tensor:
#      x y z
#    x 1.808930 0.000000 0.000000 
#    y 0.000000 1.741000 0.000000 
#    z 0.000000 0.000000 1.726440 
# 
# From -- ./inp_files/19629.got.cif
#   From: 2010.05.17/outbox.cif.g08.bks.cpg/sg24_10_cif.got.tgz:19629.got - 2010.06.04 00:33:39.
