data_PCOD9336931
_publ_section_title
;
Structure prediction by ZEFSAII (Michael W. Deem and Ramdas Pophale) SiO2 
 PCOD9336931
Probable space group: I 21 21 21
;
_chemical_formula_sum "Si O2"
_cell_formula_units_Z 24
_cell_length_a 15.358420
_cell_length_b 7.507507
_cell_length_c 8.919908
_cell_angle_alpha 90.000000
_cell_angle_beta 90.000000
_cell_angle_gamma 90.000000
_cell_volume 1028.496127
_symmetry_space_group_name_H-M "I 21 21 21"
_symmetry_group_IT_number 24
_symmetry_cell_setting 'orthorhombic'
loop_
_space_group_symop_operation_xyz
x,y,z
-x,1/2-y,z
x,-y,1/2-z
1/2-x,y,-z
1/2+x,1/2+y,1/2+z
1/2-x,-y,1/2+z
1/2+x,1/2-y,-z
-x,1/2+y,1/2-z
loop_
_atom_site_type_symbol
_atom_site_label
_atom_site_fract_x
_atom_site_fract_y
_atom_site_fract_z
Si Si1 0.198970 0.160849 0.659536
Si Si2 0.420225 0.500000 0.250000
Si Si3 0.177805 0.657358 0.370309
Si Si4 0.000000 0.750000 0.518663
O O1 0.250000 0.139939 0.500000
O O2 0.138170 0.339512 0.676922
O O3 0.275395 0.194971 0.775689
O O4 0.152316 0.000000 0.750000
O O5 0.480145 0.581461 0.377691
O O6 0.161194 0.500000 0.250000
O O7 0.250000 0.607662 0.500000
O O8 0.089251 0.745030 0.427565
#
# Coordination Sequence:
#
# PCOD9336931 Si02
#       4
#     8   4   8   4
#     4  12  27  49  87 118 159 217 276 336 414 487
#     4  12  28  50  80 118 170 210 270 350 400 498
#     4  12  24  50  83 118 163 216 272 338 408 484
#     4  12  28  46  82 120 162 216 272 334 420 472
#
# _framework density 23.335042999999999
#
# number of rings (size 3 to 8) (size 9 to 14) (size 15 to 20)
#    0.000    0.000    5.000    4.000    2.333    1.333 
#    0.000    3.333    0.000    0.000    0.000    0.000 
#    0.000    0.000    0.000    0.000    0.000    0.000 
#
# Total GULP energy -66898.198943 kJ/mol
# GULP energy per Si atom -5574.849912 kJ/mol
# Density = 2.328193 g / cm^3
# Si number density = 23.335043 Si / 1000 Ang^3
#
#
#
# Elastic Constant Matrix: (Units=GPa)
#
#
# Indices 1 2 3 4 5 6 
#
# 1 224.3536 74.9779 100.7499 0.0000 0.0000 0.0000
# 2 74.9779 157.8431 65.0091 0.0000 0.0000 0.0000
# 3 100.7499 65.0091 174.0972 0.0000 0.0000 0.0000
# 4 0.0000 0.0000 0.0000 31.5769 0.0000 0.0000
# 5 0.0000 0.0000 0.0000 0.0000 4465.5143 0.0000
# 6 0.0000 0.0000 0.0000 0.0000 0.0000 22.7131
#
#
#
# Elastic Compliance Matrix: (Units=1/GPa)
#
#
# Indices 1 2 3 4 5 6 
#
# 1 0.006427 -0.001797 -0.003048 0.000000 0.000000 0.000000
# 2 -0.001797 0.007990 -0.001943 0.000000 0.000000 0.000000
# 3 -0.003048 -0.001943 0.008233 0.000000 0.000000 0.000000
# 4 0.000000 0.000000 0.000000 0.031669 0.000000 0.000000
# 5 0.000000 0.000000 0.000000 0.000000 0.000224 0.000000
# 6 0.000000 0.000000 0.000000 0.000000 0.000000 0.044027
#
#
# Mechanical properties :
#
#
# Convention : Reuss Voigt Hill
#
# Bulk Modulus (GPa) = 110.22368 115.30752 112.76560
# Shear Modulus (GPa) = 43.41377 924.99801 484.20589
#
# Velocity S-wave (km/s) = 4.31798 19.93136 14.42054
# Velocity P-wave (km/s) = 8.49692 24.06658 18.04713
#
# Compressibility (1/GPa) = 0.00907246
#
# Stress axis : x y z
#
# Youngs Moduli (GPa) = 155.60148 125.16382 121.45741
#
# Poissons Ratio (x) = 0.22498 0.37019
# Poissons Ratio (y) = 0.27969 0.23601
# Poissons Ratio (z) = 0.47426 0.24321
#
# Static dielectric constant tensor:
#      x y z
#    x 0.000000 0.000000 0.000000 
#    y 0.000000 0.000000 0.000000 
#    z 0.000000 0.000000 0.000000 
# 
# From -- ./inp_files/11778.got.cif
#   From: 2010.05.17/outbox.cif.g08.bks.cpg/sg24_6_cif.got.tgz:11778.got - 2010.06.04 00:33:39.
