data_PCOD9336228
_publ_section_title
;
Structure prediction by ZEFSAII (Michael W. Deem and Ramdas Pophale) SiO2 
 PCOD9336228
Probable space group: I 21 21 21
;
_chemical_formula_sum "Si O2"
_cell_formula_units_Z 28
_cell_length_a 7.273181
_cell_length_b 12.708583
_cell_length_c 11.386231
_cell_angle_alpha 90.000000
_cell_angle_beta 90.000000
_cell_angle_gamma 90.000000
_cell_volume 1052.450105
_symmetry_space_group_name_H-M "I 21 21 21"
_symmetry_group_IT_number 24
_symmetry_cell_setting 'orthorhombic'
loop_
_space_group_symop_operation_xyz
x,y,z
-x,1/2-y,z
x,-y,1/2-z
1/2-x,y,-z
1/2+x,1/2+y,1/2+z
1/2-x,-y,1/2+z
1/2+x,1/2-y,-z
-x,1/2+y,1/2-z
loop_
_atom_site_type_symbol
_atom_site_label
_atom_site_fract_x
_atom_site_fract_y
_atom_site_fract_z
Si Si1 0.284536 0.226195 0.763665
Si Si2 0.617352 0.500000 0.250000
Si Si3 0.250000 0.349070 0.000000
Si Si4 0.533166 0.479476 0.497369
Si Si5 0.000000 0.250000 0.555158
O O1 0.500000 0.250000 0.761167
O O2 0.208002 0.277950 0.885315
O O3 0.171065 0.258959 0.646521
O O4 0.242971 0.101763 0.765781
O O5 0.487400 0.485080 0.359840
O O6 0.089668 0.427716 0.046387
O O7 0.750000 0.501029 0.500000
O O8 0.508615 0.356195 0.522036
#
# Coordination Sequence:
#
# PCOD9336228 Si02
#       5
#     8   4   4   8   4
#     4  11  25  43  74 104 145 197 248 307 378 448
#     4  10  24  48  66 102 158 180 230 328 374 418
#     4  12  26  40  76 112 138 192 270 296 370 458
#     4  11  25  45  72 105 149 196 248 315 375 446
#     4  10  26  48  68 102 156 192 248 312 386 438
#
# _framework density 26.604588
#
# number of rings (size 3 to 8) (size 9 to 14) (size 15 to 20)
#    0.000    1.143    0.000    5.143   10.000    6.857 
#    2.571    1.429    0.000    0.000    0.000    0.000 
#    0.000    0.000    0.000    0.000    0.000    0.000 
#
# Total GULP energy -78408.340818 kJ/mol
# GULP energy per Si atom -5600.595773 kJ/mol
# Density = 2.654404 g / cm^3
# Si number density = 26.604588 Si / 1000 Ang^3
#
#
#
# Elastic Constant Matrix: (Units=GPa)
#
#
# Indices 1 2 3 4 5 6 
#
# 1 161.3467 70.4900 1.4652 0.0000 0.0000 0.0000
# 2 70.4900 208.2251 36.6618 0.0000 0.0000 0.0000
# 3 1.4652 36.6618 78.1719 0.0001 0.0000 0.0000
# 4 0.0000 0.0000 0.0001 37.1401 0.0000 0.0000
# 5 0.0000 0.0000 0.0000 0.0000 40.7590 0.0000
# 6 0.0000 0.0000 0.0000 0.0000 0.0000 39.4077
#
#
#
# Elastic Compliance Matrix: (Units=1/GPa)
#
#
# Indices 1 2 3 4 5 6 
#
# 1 0.007363 -0.002690 0.001124 0.000000 0.000000 0.000000
# 2 -0.002690 0.006218 -0.002866 0.000000 0.000000 0.000000
# 3 0.001124 -0.002866 0.014115 0.000000 0.000000 0.000000
# 4 0.000000 0.000000 0.000000 0.026925 0.000000 0.000000
# 5 0.000000 0.000000 0.000000 0.000000 0.024534 0.000000
# 6 0.000000 0.000000 0.000000 0.000000 0.000000 0.025376
#
#
# Mechanical properties :
#
#
# Convention : Reuss Voigt Hill
#
# Bulk Modulus (GPa) = 53.10272 73.88640 63.49456
# Shear Modulus (GPa) = 41.78043 46.06980 43.92511
#
# Velocity S-wave (km/s) = 3.96715 4.16582 4.06770
# Velocity P-wave (km/s) = 6.40217 7.13941 6.78081
#
# Compressibility (1/GPa) = 0.01883143
#
# Stress axis : x y z
#
# Youngs Moduli (GPa) = 135.81330 160.82744 70.84548
#
# Poissons Ratio (x) = 0.43270 -0.07962
# Poissons Ratio (y) = 0.36540 0.20302
# Poissons Ratio (z) = -0.15263 0.46088
#
# Static dielectric constant tensor:
#      x y z
#    x 2.118660 0.000000 0.000000 
#    y 0.000000 2.139570 0.000000 
#    z 0.000000 0.000000 2.181240 
# 
# From -- ./inp_files/24293.got.cif
#   From: 2010.05.17/outbox.cif.g08.bks.cpg/sg24_13_cif.got.tgz:24293.got - 2010.06.04 00:33:39.
