data_PCOD9336628
_publ_section_title
;
Structure prediction by ZEFSAII (Michael W. Deem and Ramdas Pophale) SiO2 
 PCOD9336628
Probable space group: I 21 21 21
;
_chemical_formula_sum "Si O2"
_cell_formula_units_Z 40
_cell_length_a 16.611563
_cell_length_b 8.777234
_cell_length_c 12.224241
_cell_angle_alpha 90.000000
_cell_angle_beta 90.000000
_cell_angle_gamma 90.000000
_cell_volume 1782.338046
_symmetry_space_group_name_H-M "I 21 21 21"
_symmetry_group_IT_number 24
_symmetry_cell_setting 'orthorhombic'
loop_
_space_group_symop_operation_xyz
x,y,z
-x,1/2-y,z
x,-y,1/2-z
1/2-x,y,-z
1/2+x,1/2+y,1/2+z
1/2-x,-y,1/2+z
1/2+x,1/2-y,-z
-x,1/2+y,1/2-z
loop_
_atom_site_type_symbol
_atom_site_label
_atom_site_fract_x
_atom_site_fract_y
_atom_site_fract_z
Si Si1 0.584373 0.659732 0.306278
Si Si2 0.000000 0.250000 0.376733
Si Si3 0.101998 0.000000 0.250000
Si Si4 0.596920 0.280293 0.938112
Si Si5 0.857735 0.067940 0.444066
Si Si6 0.212802 0.648207 0.820891
O O1 0.500000 0.750000 0.293909
O O2 0.568251 0.500000 0.250000
O O3 0.603613 0.663099 0.436162
O O4 0.661608 0.724964 0.240384
O O5 0.049624 0.132689 0.304354
O O6 0.054683 0.360854 0.446682
O O7 0.135789 0.095359 0.145131
O O8 0.500000 0.250000 0.919592
O O9 0.638568 0.113771 0.926563
O O10 0.807856 0.154574 0.348412
O O11 0.821815 0.110201 0.560341
O O12 0.199934 0.500000 0.750000
#
# Coordination Sequence:
#
# PCOD9336628 Si02
#       6
#     8   4   4   8   8   8
#     4  11  26  45  78 113 150 196 256 316 382 456
#     4  12  24  44  72 102 144 184 252 300 362 454
#     4  12  24  38  66 108 138 192 246 306 368 422
#     4  11  23  44  67 110 149 193 248 310 372 447
#     4  11  26  45  74 107 146 195 249 307 379 453
#     4  11  25  47  73 104 147 200 241 305 382 445
#
# _framework density 22.442430999999999
#
# number of rings (size 3 to 8) (size 9 to 14) (size 15 to 20)
#    0.000    0.800    5.000    0.600   11.200    0.000 
#    1.800    0.000    0.000    0.000    0.000    0.000 
#    0.000    0.000    0.000    0.000    0.000    0.000 
#
# Total GULP energy -111650.018763 kJ/mol
# GULP energy per Si atom -5582.500938 kJ/mol
# Density = 2.239135 g / cm^3
# Si number density = 22.442431 Si / 1000 Ang^3
#
#
#
# Elastic Constant Matrix: (Units=GPa)
#
#
# Indices 1 2 3 4 5 6 
#
# 1 48.0499 41.3201 48.0512 0.0000 0.0000 0.0000
# 2 41.3201 116.3982 64.4707 0.0000 0.0000 0.0000
# 3 48.0512 64.4707 152.7538 0.0000 0.0000 0.0000
# 4 0.0000 0.0000 0.0000 23.8007 0.0000 0.0000
# 5 0.0000 0.0000 0.0000 0.0000 67.1233 0.0000
# 6 0.0000 0.0000 0.0000 0.0000 0.0000 39.4148
#
#
#
# Elastic Compliance Matrix: (Units=1/GPa)
#
#
# Indices 1 2 3 4 5 6 
#
# 1 0.035751 -0.008434 -0.007687 0.000000 0.000000 0.000000
# 2 -0.008434 0.013202 -0.002919 0.000000 0.000000 0.000000
# 3 -0.007687 -0.002919 0.010196 0.000000 0.000000 0.000000
# 4 0.000000 0.000000 0.000000 0.042016 0.000000 0.000000
# 5 0.000000 0.000000 0.000000 0.000000 0.014898 0.000000
# 6 0.000000 0.000000 0.000000 0.000000 0.000000 0.025371
#
#
# Mechanical properties :
#
#
# Convention : Reuss Voigt Hill
#
# Bulk Modulus (GPa) = 47.45925 69.43175 58.44550
# Shear Modulus (GPa) = 26.80446 36.95841 31.88143
#
# Velocity S-wave (km/s) = 3.45971 4.06249 3.77316
# Velocity P-wave (km/s) = 6.09528 7.28080 6.71426
#
# Compressibility (1/GPa) = 0.02107071
#
# Stress axis : x y z
#
# Youngs Moduli (GPa) = 27.97120 75.74704 98.07413
#
# Poissons Ratio (x) = 0.63884 0.75385
# Poissons Ratio (y) = 0.23590 0.28627
# Poissons Ratio (z) = 0.21500 0.22110
#
# Static dielectric constant tensor:
#      x y z
#    x 2.563660 0.000000 0.000000 
#    y 0.000000 1.772450 0.000000 
#    z 0.000000 0.000000 1.544370 
# 
# From -- ./inp_files/13876.got.cif
#   From: 2010.05.17/outbox.cif.g08.bks.cpg/sg24_7_cif.got.tgz:13876.got - 2010.06.04 00:33:39.
