data_PCOD9336524
_publ_section_title
;
Structure prediction by ZEFSAII (Michael W. Deem and Ramdas Pophale) SiO2 
 PCOD9336524
Probable space group: I 21 21 21
;
_chemical_formula_sum "Si O2"
_cell_formula_units_Z 60
_cell_length_a 18.330183
_cell_length_b 18.588522
_cell_length_c 8.046721
_cell_angle_alpha 90.000000
_cell_angle_beta 90.000000
_cell_angle_gamma 90.000000
_cell_volume 2741.767373
_symmetry_space_group_name_H-M "I 21 21 21"
_symmetry_group_IT_number 24
_symmetry_cell_setting 'orthorhombic'
loop_
_space_group_symop_operation_xyz
x,y,z
-x,1/2-y,z
x,-y,1/2-z
1/2-x,y,-z
1/2+x,1/2+y,1/2+z
1/2-x,-y,1/2+z
1/2+x,1/2-y,-z
-x,1/2+y,1/2-z
loop_
_atom_site_type_symbol
_atom_site_label
_atom_site_fract_x
_atom_site_fract_y
_atom_site_fract_z
Si Si1 0.250000 0.630149 0.000000
Si Si2 0.038474 0.104193 0.105153
Si Si3 0.355164 0.780172 0.739603
Si Si4 0.354688 0.508719 0.053658
Si Si5 0.696303 0.238507 0.216818
Si Si6 0.930353 0.695866 0.910026
Si Si7 0.878337 0.144049 0.060955
Si Si8 0.480686 0.048252 0.515884
O O1 0.313946 0.573697 0.964468
O O2 0.280567 0.681111 0.142716
O O3 0.097886 0.166805 0.122823
O O4 0.017181 0.080470 0.295531
O O5 0.061452 0.028143 0.023467
O O6 0.964239 0.133874 0.021722
O O7 0.269133 0.786372 0.704086
O O8 0.380742 0.798458 0.924375
O O9 0.376095 0.696045 0.719102
O O10 0.334064 0.500000 0.250000
O O11 0.344890 0.435078 0.951655
O O12 0.439358 0.527580 0.044043
O O13 0.624651 0.281690 0.267100
O O14 0.669977 0.191304 0.063336
O O15 0.000000 0.750000 0.919482
O O16 0.953709 0.613063 0.901895
#
# Coordination Sequence:
#
# PCOD9336524 Si02
#       8
#     4   8   8   8   8   8   8   8
#     4  12  24  40  60  92 138 178 208 254 330 408
#     4   9  20  41  69  96 123 168 222 276 322 398
#     4  11  22  41  66  94 130 170 220 270 329 396
#     4  11  24  41  61  92 134 169 214 266 322 396
#     4  12  25  42  63  97 135 170 222 272 324 395
#     4  11  22  39  68  97 129 175 220 267 323 395
#     4  11  24  41  62  94 130 173 216 268 330 382
#     4   9  20  41  67  96 123 168 225 271 327 389
#
# _framework density 21.883693999999998
#
# number of rings (size 3 to 8) (size 9 to 14) (size 15 to 20)
#    0.000    1.333    2.667    3.200    3.733    1.067 
#    4.800    0.000    0.000   12.800    0.000    0.000 
#    0.000    0.000    0.000    0.000    0.000    0.000 
#
# Total GULP energy -167595.893748 kJ/mol
# GULP energy per Si atom -5586.529792 kJ/mol
# Density = 2.183389 g / cm^3
# Si number density = 21.883694 Si / 1000 Ang^3
#
#
#
# Elastic Constant Matrix: (Units=GPa)
#
#
# Indices 1 2 3 4 5 6 
#
# 1 120.1927 50.6899 14.6571 0.0000 0.0000 0.0000
# 2 50.6899 120.1003 15.7208 0.0000 0.0000 0.0000
# 3 14.6571 15.7208 36.6273 0.0000 0.0000 0.0000
# 4 0.0000 0.0000 0.0000 18.6521 0.0000 0.0000
# 5 0.0000 0.0000 0.0000 0.0000 29.1949 0.0000
# 6 0.0000 0.0000 0.0000 0.0000 0.0000 36.1047
#
#
#
# Elastic Compliance Matrix: (Units=1/GPa)
#
#
# Indices 1 2 3 4 5 6 
#
# 1 0.010316 -0.004041 -0.002394 0.000000 0.000000 0.000000
# 2 -0.004041 0.010405 -0.002849 0.000000 0.000000 0.000000
# 3 -0.002394 -0.002849 0.029483 0.000000 0.000000 0.000000
# 4 0.000000 0.000000 0.000000 0.053613 0.000000 0.000000
# 5 0.000000 0.000000 0.000000 0.000000 0.034253 0.000000
# 6 0.000000 0.000000 0.000000 0.000000 0.000000 0.027697
#
#
# Mechanical properties :
#
#
# Convention : Reuss Voigt Hill
#
# Bulk Modulus (GPa) = 31.60884 48.78398 40.19641
# Shear Modulus (GPa) = 25.65700 29.84718 27.75209
#
# Velocity S-wave (km/s) = 3.42778 3.69711 3.56499
# Velocity P-wave (km/s) = 5.49014 6.36911 5.94589
#
# Compressibility (1/GPa) = 0.03163672
#
# Stress axis : x y z
#
# Youngs Moduli (GPa) = 96.93686 96.11052 33.91816
#
# Poissons Ratio (x) = 0.38835 0.08120
# Poissons Ratio (y) = 0.39169 0.09663
# Poissons Ratio (z) = 0.23205 0.27380
#
# Static dielectric constant tensor:
#      x y z
#    x 1.806620 0.000000 0.000000 
#    y 0.000000 1.788990 0.000000 
#    z 0.000000 0.000000 1.921720 
# 
# From -- ./inp_files/14447.got.cif
#   From: 2010.05.17/outbox.cif.g08.bks.cpg/sg24_8_cif.got.tgz:14447.got - 2010.06.04 00:33:39.
