data_PCOD9336938
_publ_section_title
;
Structure prediction by ZEFSAII (Michael W. Deem and Ramdas Pophale) SiO2 
 PCOD9336938
Probable space group: I 21 21 21
;
_chemical_formula_sum "Si O2"
_cell_formula_units_Z 32
_cell_length_a 5.858272
_cell_length_b 24.816841
_cell_length_c 8.551818
_cell_angle_alpha 90.000000
_cell_angle_beta 90.000000
_cell_angle_gamma 90.000000
_cell_volume 1243.295838
_symmetry_space_group_name_H-M "I 21 21 21"
_symmetry_group_IT_number 24
_symmetry_cell_setting 'orthorhombic'
loop_
_space_group_symop_operation_xyz
x,y,z
-x,1/2-y,z
x,-y,1/2-z
1/2-x,y,-z
1/2+x,1/2+y,1/2+z
1/2-x,-y,1/2+z
1/2+x,1/2-y,-z
-x,1/2+y,1/2-z
loop_
_atom_site_type_symbol
_atom_site_label
_atom_site_fract_x
_atom_site_fract_y
_atom_site_fract_z
Si Si1 0.622402 0.892250 0.852369
Si Si2 0.750000 0.276424 0.500000
Si Si3 0.250000 0.031451 0.500000
Si Si4 0.052377 0.562405 0.629365
Si Si5 0.226726 0.166259 0.168138
O O1 0.806036 0.933721 0.787871
O O2 0.529205 0.853382 0.716225
O O3 0.750000 0.865082 0.000000
O O4 0.407909 0.928248 0.902340
O O5 0.500000 0.250000 0.529528
O O6 0.704412 0.307006 0.333711
O O7 0.401052 0.988910 0.406107
O O8 0.250000 0.564815 0.500000
O O9 0.890164 0.614811 0.637369
O O10 0.250000 0.196548 0.000000
#
# Coordination Sequence:
#
# PCOD9336938 Si02
#       5
#     8   4   4   8   8
#     4  12  27  45  73 108 166 220 277 340 396 471
#     4  12  33  58  94 132 164 200 268 350 437 536
#     4  12  27  44  66 114 162 220 284 328 393 458
#     4  12  25  45  71 108 155 221 276 338 389 477
#     4  12  27  54  84 118 162 213 270 332 423 504
#
# _framework density 25.738042
#
# number of rings (size 3 to 8) (size 9 to 14) (size 15 to 20)
#    0.000    0.000    3.750    4.500    5.250   16.000 
#    0.000    0.000    0.000    0.000    0.000    0.000 
#    0.000    0.000    0.000    0.000    0.000    0.000 
#
# Total GULP energy -89458.701605 kJ/mol
# GULP energy per Si atom -5591.168850 kJ/mol
# Density = 2.567946 g / cm^3
# Si number density = 25.738042 Si / 1000 Ang^3
#
#
#
# Elastic Constant Matrix: (Units=GPa)
#
#
# Indices 1 2 3 4 5 6 
#
# 1 144.2001 35.1034 65.2838 0.0000 0.0000 0.0000
# 2 35.1034 46.0117 43.4646 0.0005 0.0000 0.0006
# 3 65.2838 43.4646 216.3977 0.0007 0.0000 0.0008
# 4 0.0000 0.0005 0.0007 33.3835 0.0000 0.0006
# 5 0.0000 0.0000 0.0000 0.0000 78.3075 0.0000
# 6 0.0000 0.0006 0.0008 0.0006 0.0000 125.4627
#
#
#
# Elastic Compliance Matrix: (Units=1/GPa)
#
#
# Indices 1 2 3 4 5 6 
#
# 1 0.008966 -0.005289 -0.001643 0.000000 0.000000 0.000000
# 2 -0.005289 0.029942 -0.004419 0.000000 0.000000 0.000000
# 3 -0.001643 -0.004419 0.006004 0.000000 0.000000 0.000000
# 4 0.000000 0.000000 0.000000 0.029955 0.000000 0.000000
# 5 0.000000 0.000000 0.000000 0.000000 0.012770 0.000000
# 6 0.000000 0.000000 0.000000 0.000000 0.000000 0.007970
#
#
# Mechanical properties :
#
#
# Convention : Reuss Voigt Hill
#
# Bulk Modulus (GPa) = 45.01903 77.14589 61.08246
# Shear Modulus (GPa) = 39.77347 64.94793 52.36070
#
# Velocity S-wave (km/s) = 3.93532 5.02882 4.51529
# Velocity P-wave (km/s) = 6.17885 7.98481 7.13917
#
# Compressibility (1/GPa) = 0.02221283
#
# Stress axis : x y z
#
# Youngs Moduli (GPa) = 111.53357 33.39747 166.55078
#
# Poissons Ratio (x) = 0.17663 0.27358
# Poissons Ratio (y) = 0.58986 0.73592
# Poissons Ratio (z) = 0.18321 0.14757
#
# Static dielectric constant tensor:
#      x y z
#    x 2.089040 0.000000 0.000000 
#    y 0.000000 2.039570 0.000000 
#    z 0.000000 0.000000 1.402730 
# 
# From -- ./inp_files/8299.got.cif
#   From: 2010.05.17/outbox.cif.g08.bks.cpg/sg24_5_cif.got.tgz:8299.got - 2010.06.04 00:33:39.
