data_PCOD9336988
_publ_section_title
;
Structure prediction by ZEFSAII (Michael W. Deem and Ramdas Pophale) SiO2 
 PCOD9336988
Probable space group: I 21 21 21
;
_chemical_formula_sum "Si O2"
_cell_formula_units_Z 20
_cell_length_a 9.595506
_cell_length_b 7.084676
_cell_length_c 14.692896
_cell_angle_alpha 90.000000
_cell_angle_beta 90.000000
_cell_angle_gamma 90.000000
_cell_volume 998.838513
_symmetry_space_group_name_H-M "I 21 21 21"
_symmetry_group_IT_number 24
_symmetry_cell_setting 'orthorhombic'
loop_
_space_group_symop_operation_xyz
x,y,z
-x,1/2-y,z
x,-y,1/2-z
1/2-x,y,-z
1/2+x,1/2+y,1/2+z
1/2-x,-y,1/2+z
1/2+x,1/2-y,-z
-x,1/2+y,1/2-z
loop_
_atom_site_type_symbol
_atom_site_label
_atom_site_fract_x
_atom_site_fract_y
_atom_site_fract_z
Si Si1 0.343847 0.670461 0.678664
Si Si2 0.500000 0.250000 0.398880
Si Si3 0.750000 0.954450 0.000000
Si Si4 0.142721 0.000000 0.750000
O O1 0.500000 0.750000 0.677965
O O2 0.334352 0.500000 0.750000
O O3 0.304966 0.585691 0.581100
O O4 0.239122 0.833784 0.710593
O O5 0.626459 0.175217 0.460252
O O6 0.449164 0.084139 0.331606
#
# Coordination Sequence:
#
# PCOD9336988 Si02
#       4
#     8   4   4   4
#     4  12  27  50  76 112 150 194 246 308 371 439
#     4  12  28  48  78 108 148 196 252 304 370 440
#     4  12  30  46  76 114 146 194 252 306 368 436
#     4  12  26  52  76 102 154 198 246 304 374 442
#
# _framework density 20.023256
#
# number of rings (size 3 to 8) (size 9 to 14) (size 15 to 20)
#    0.000    0.000    6.000    2.400   14.000    0.000 
#    0.000    0.000    0.000    0.000    0.000    0.000 
#    0.000    0.000    0.000    0.000    0.000    0.000 
#
# Total GULP energy -56044.687517 kJ/mol
# GULP energy per Si atom -5604.468752 kJ/mol
# Density = 1.997768 g / cm^3
# Si number density = 20.023256 Si / 1000 Ang^3
#
#
#
# Elastic Constant Matrix: (Units=GPa)
#
#
# Indices 1 2 3 4 5 6 
#
# 1 167.8308 93.1974 90.7167 0.0000 0.0000 0.0000
# 2 93.1974 156.0435 98.5377 0.0000 0.0000 0.0000
# 3 90.7167 98.5377 188.8555 0.0000 0.0000 0.0000
# 4 0.0000 0.0000 0.0000 40.2881 0.0000 0.0000
# 5 0.0000 0.0000 0.0000 0.0000 38.0976 0.0000
# 6 0.0000 0.0000 0.0000 0.0000 0.0000 58.9596
#
#
#
# Elastic Compliance Matrix: (Units=1/GPa)
#
#
# Indices 1 2 3 4 5 6 
#
# 1 0.009602 -0.004209 -0.002416 0.000000 0.000000 0.000000
# 2 -0.004209 0.011402 -0.003928 0.000000 0.000000 0.000000
# 3 -0.002416 -0.003928 0.008505 0.000000 0.000000 0.000000
# 4 0.000000 0.000000 0.000000 0.024821 0.000000 0.000000
# 5 0.000000 0.000000 0.000000 0.000000 0.026248 0.000000
# 6 0.000000 0.000000 0.000000 0.000000 0.000000 0.016961
#
#
# Mechanical properties :
#
#
# Convention : Reuss Voigt Hill
#
# Bulk Modulus (GPa) = 118.99459 119.73704 119.36582
# Shear Modulus (GPa) = 41.17071 42.82093 41.99582
#
# Velocity S-wave (km/s) = 4.53939 4.62947 4.58465
# Velocity P-wave (km/s) = 9.32909 9.40770 9.36848
#
# Compressibility (1/GPa) = 0.00840374
#
# Stress axis : x y z
#
# Youngs Moduli (GPa) = 104.15015 87.70072 117.57923
#
# Poissons Ratio (x) = 0.36912 0.28408
# Poissons Ratio (y) = 0.43835 0.46181
# Poissons Ratio (z) = 0.25163 0.34446
#
# Static dielectric constant tensor:
#      x y z
#    x 1.690970 0.000000 0.000000 
#    y 0.000000 1.675560 0.000000 
#    z 0.000000 0.000000 1.632920 
# 
# From -- ./inp_files/686.got.cif
#   From: 2010.05.17/outbox.cif.g08.bks.cpg/sg24_1_cif.got.tgz:686.got - 2010.06.04 00:33:39.
