data_PCOD9336227
_publ_section_title
;
Structure prediction by ZEFSAII (Michael W. Deem and Ramdas Pophale) SiO2 
 PCOD9336227
Probable space group: I 21 21 21
;
_chemical_formula_sum "Si O2"
_cell_formula_units_Z 32
_cell_length_a 19.102625
_cell_length_b 13.291301
_cell_length_c 4.899420
_cell_angle_alpha 90.000000
_cell_angle_beta 90.000000
_cell_angle_gamma 90.000000
_cell_volume 1243.956559
_symmetry_space_group_name_H-M "I 21 21 21"
_symmetry_group_IT_number 24
_symmetry_cell_setting 'orthorhombic'
loop_
_space_group_symop_operation_xyz
x,y,z
-x,1/2-y,z
x,-y,1/2-z
1/2-x,y,-z
1/2+x,1/2+y,1/2+z
1/2-x,-y,1/2+z
1/2+x,1/2-y,-z
-x,1/2+y,1/2-z
loop_
_atom_site_type_symbol
_atom_site_label
_atom_site_fract_x
_atom_site_fract_y
_atom_site_fract_z
Si Si1 0.560482 0.676662 0.032225
Si Si2 0.875641 0.163110 0.097381
Si Si3 0.250000 0.549607 0.500000
Si Si4 0.801395 0.317887 0.753677
Si Si5 0.477432 0.500000 0.750000
O O1 0.500000 0.750000 0.166971
O O2 0.593136 0.749202 0.791779
O O3 0.521120 0.581146 0.913552
O O4 0.626535 0.626153 0.187926
O O5 0.804452 0.110087 0.194416
O O6 0.929942 0.073543 0.065440
O O7 0.842245 0.215208 0.832784
O O8 0.207288 0.500000 0.750000
O O9 0.750000 0.312804 0.500000
O O10 0.750000 0.348264 0.000000
#
# Coordination Sequence:
#
# PCOD9336227 Si02
#       5
#     8   8   4   8   4
#     4  10  24  47  79 115 155 213 253 322 389 467
#     4  11  23  45  75 111 160 199 250 322 389 461
#     4  12  26  38  70 114 152 186 244 310 394 458
#     4  12  24  46  85 112 150 206 257 316 398 461
#     4  10  24  50  76 116 160 202 274 310 386 466
#
# _framework density 25.724371000000001
#
# number of rings (size 3 to 8) (size 9 to 14) (size 15 to 20)
#    0.000    1.000    5.000    0.000    5.250    3.000 
#    0.000    6.250    8.250    0.000    0.000    0.000 
#    0.000    0.000    0.000    0.000    0.000    0.000 
#
# Total GULP energy -89166.455117 kJ/mol
# GULP energy per Si atom -5572.903445 kJ/mol
# Density = 2.566582 g / cm^3
# Si number density = 25.724371 Si / 1000 Ang^3
#
#
#
# Elastic Constant Matrix: (Units=GPa)
#
#
# Indices 1 2 3 4 5 6 
#
# 1 222.0377 43.7566 51.8953 0.0000 0.0000 0.0000
# 2 43.7566 79.8666 8.5904 0.0000 0.0000 0.0000
# 3 51.8953 8.5904 116.5470 0.0000 0.0000 0.0000
# 4 0.0000 0.0000 0.0000 6.6820 0.0000 0.0000
# 5 0.0000 0.0000 0.0000 0.0000 6.6608 0.0000
# 6 0.0000 0.0000 0.0000 0.0000 0.0000 29.9578
#
#
#
# Elastic Compliance Matrix: (Units=1/GPa)
#
#
# Indices 1 2 3 4 5 6 
#
# 1 0.005593 -0.002819 -0.002283 0.000000 0.000000 0.000000
# 2 -0.002819 0.014041 0.000220 0.000000 0.000000 0.000000
# 3 -0.002283 0.000220 0.009580 0.000000 0.000000 0.000000
# 4 0.000000 0.000000 0.000000 0.149655 0.000000 0.000000
# 5 0.000000 0.000000 0.000000 0.000000 0.150133 0.000000
# 6 0.000000 0.000000 0.000000 0.000000 0.000000 0.033380
#
#
# Mechanical properties :
#
#
# Convention : Reuss Voigt Hill
#
# Bulk Modulus (GPa) = 51.40749 69.65954 60.53351
# Shear Modulus (GPa) = 13.20553 29.60738 21.40645
#
# Velocity S-wave (km/s) = 2.26817 3.39624 2.88783
# Velocity P-wave (km/s) = 5.18525 6.52053 5.89084
#
# Compressibility (1/GPa) = 0.01945242
#
# Stress axis : x y z
#
# Youngs Moduli (GPa) = 178.80572 71.21792 104.38029
#
# Poissons Ratio (x) = 0.20073 0.23825
# Poissons Ratio (y) = 0.50397 -0.02297
# Poissons Ratio (z) = 0.40813 -0.01567
#
# Static dielectric constant tensor:
#      x y z
#    x 2.267130 0.000000 0.000000 
#    y 0.000000 3.210080 0.000000 
#    z 0.000000 0.000000 2.303670 
# 
# From -- ./inp_files/4299.got.cif
#   From: 2010.05.17/outbox.cif.g08.bks.cpg/sg24_3_cif.got.tgz:4299.got - 2010.06.04 00:33:39.
