data_PCOD9336729
_publ_section_title
;
Structure prediction by ZEFSAII (Michael W. Deem and Ramdas Pophale) SiO2 
 PCOD9336729
Probable space group: I 21 21 21
;
_chemical_formula_sum "Si O2"
_cell_formula_units_Z 44
_cell_length_a 28.858679
_cell_length_b 8.880033
_cell_length_c 7.828566
_cell_angle_alpha 90.000000
_cell_angle_beta 90.000000
_cell_angle_gamma 90.000000
_cell_volume 2006.195466
_symmetry_space_group_name_H-M "I 21 21 21"
_symmetry_group_IT_number 24
_symmetry_cell_setting 'orthorhombic'
loop_
_space_group_symop_operation_xyz
x,y,z
-x,1/2-y,z
x,-y,1/2-z
1/2-x,y,-z
1/2+x,1/2+y,1/2+z
1/2-x,-y,1/2+z
1/2+x,1/2-y,-z
-x,1/2+y,1/2-z
loop_
_atom_site_type_symbol
_atom_site_label
_atom_site_fract_x
_atom_site_fract_y
_atom_site_fract_z
Si Si1 0.172180 0.380201 0.599954
Si Si2 0.591724 0.321481 0.282513
Si Si3 0.250000 0.820012 0.000000
Si Si4 0.899670 0.707594 0.396755
Si Si5 0.818789 0.500000 0.250000
Si Si6 0.000000 0.750000 0.994399
Si Si7 0.519917 0.500000 0.750000
Si Si8 0.861258 0.000000 0.250000
O O1 0.166078 0.500000 0.750000
O O2 0.132042 0.254112 0.607619
O O3 0.219519 0.288721 0.618699
O O4 0.168930 0.461688 0.416939
O O5 0.597154 0.500000 0.250000
O O6 0.543977 0.286153 0.376962
O O7 0.595508 0.251995 0.094501
O O8 0.214570 0.915425 0.115740
O O9 0.853856 0.609194 0.353772
O O10 0.944984 0.613500 0.346336
O O11 0.892960 0.857692 0.290565
O O12 0.006752 0.603289 0.114471
#
# Coordination Sequence:
#
# PCOD9336729 Si02
#       8
#     8   8   4   8   4   4   4   4
#     4  12  28  49  76 111 154 205 256 323 385 463
#     4  12  26  51  78 109 154 198 261 315 389 465
#     4  12  28  44  78 118 150 202 264 318 388 468
#     4  11  24  50  79 106 156 204 248 318 390 463
#     4  11  26  46  78 113 156 206 259 316 389 464
#     4  12  28  48  80 112 150 200 256 330 386 470
#     4  11  26  51  72 114 146 198 254 316 382 466
#     4  12  24  49  76 113 152 204 255 314 393 458
#
# _framework density 21.932061000000001
#
# number of rings (size 3 to 8) (size 9 to 14) (size 15 to 20)
#    0.000    0.364    5.455    2.182    5.091    4.364 
#    3.273    0.000    0.000    0.000    0.000    0.000 
#    0.000    0.000    0.000    0.000    0.000    0.000 
#
# Total GULP energy -123195.927408 kJ/mol
# GULP energy per Si atom -5599.814882 kJ/mol
# Density = 2.188214 g / cm^3
# Si number density = 21.932061 Si / 1000 Ang^3
#
#
#
# Elastic Constant Matrix: (Units=GPa)
#
#
# Indices 1 2 3 4 5 6 
#
# 1 119.0254 63.8611 43.0222 0.0000 0.0000 0.0000
# 2 63.8611 142.9204 52.5853 0.0000 0.0000 0.0000
# 3 43.0222 52.5853 145.3558 0.0000 0.0000 0.0000
# 4 0.0000 0.0000 0.0000 39.0871 0.0000 0.0000
# 5 0.0000 0.0000 0.0000 0.0000 26.4643 0.0000
# 6 0.0000 0.0000 0.0000 0.0000 0.0000 15.8593
#
#
#
# Elastic Compliance Matrix: (Units=1/GPa)
#
#
# Indices 1 2 3 4 5 6 
#
# 1 0.011433 -0.004457 -0.001772 0.000000 0.000000 0.000000
# 2 -0.004457 0.009809 -0.002229 0.000000 0.000000 0.000000
# 3 -0.001772 -0.002229 0.008211 0.000000 0.000000 0.000000
# 4 0.000000 0.000000 0.000000 0.025584 0.000000 0.000000
# 5 0.000000 0.000000 0.000000 0.000000 0.037787 0.000000
# 6 0.000000 0.000000 0.000000 0.000000 0.000000 0.063055
#
#
# Mechanical properties :
#
#
# Convention : Reuss Voigt Hill
#
# Bulk Modulus (GPa) = 79.76563 80.69319 80.22941
# Shear Modulus (GPa) = 28.25306 32.80433 30.52870
#
# Velocity S-wave (km/s) = 3.59306 3.87166 3.73495
# Velocity P-wave (km/s) = 7.32542 7.54046 7.43372
#
# Compressibility (1/GPa) = 0.01253673
#
# Stress axis : x y z
#
# Youngs Moduli (GPa) = 87.46473 101.95135 121.79474
#
# Poissons Ratio (x) = 0.45438 0.21577
# Poissons Ratio (y) = 0.38982 0.27152
# Poissons Ratio (z) = 0.15495 0.22728
#
# Static dielectric constant tensor:
#      x y z
#    x 1.778350 0.000000 0.000000 
#    y 0.000000 1.816580 0.000000 
#    z 0.000000 0.000000 1.827480 
# 
# From -- ./inp_files/16790.got.cif
#   From: 2010.05.17/outbox.cif.g08.bks.cpg/sg24_9_cif.got.tgz:16790.got - 2010.06.04 00:33:39.
