data_PCOD9336896
_publ_section_title
;
Structure prediction by ZEFSAII (Michael W. Deem and Ramdas Pophale) SiO2 
 PCOD9336896
Probable space group: I 21 21 21
;
_chemical_formula_sum "Si O2"
_cell_formula_units_Z 48
_cell_length_a 9.349155
_cell_length_b 18.091649
_cell_length_c 12.249711
_cell_angle_alpha 90.000000
_cell_angle_beta 90.000000
_cell_angle_gamma 90.000000
_cell_volume 2071.936094
_symmetry_space_group_name_H-M "I 21 21 21"
_symmetry_group_IT_number 24
_symmetry_cell_setting 'orthorhombic'
loop_
_space_group_symop_operation_xyz
x,y,z
-x,1/2-y,z
x,-y,1/2-z
1/2-x,y,-z
1/2+x,1/2+y,1/2+z
1/2-x,-y,1/2+z
1/2+x,1/2-y,-z
-x,1/2+y,1/2-z
loop_
_atom_site_type_symbol
_atom_site_label
_atom_site_fract_x
_atom_site_fract_y
_atom_site_fract_z
Si Si1 0.250000 0.952220 0.500000
Si Si2 0.603546 0.431799 0.372685
Si Si3 0.692401 0.146940 0.756826
Si Si4 0.526575 0.670687 0.929094
Si Si5 0.144433 0.500000 0.750000
Si Si6 0.447315 0.825982 0.560902
Si Si7 0.728313 0.697902 0.252053
O O1 0.393429 0.901492 0.505235
O O2 0.273531 0.007248 0.396346
O O3 0.579527 0.386318 0.482842
O O4 0.459749 0.474362 0.345626
O O5 0.629129 0.370857 0.278134
O O6 0.609268 0.144697 0.641014
O O7 0.573554 0.161982 0.850338
O O8 0.805144 0.214910 0.748155
O O9 0.762749 0.069842 0.782011
O O10 0.500000 0.750000 0.984704
O O11 0.647995 0.687340 0.839472
O O12 0.500000 0.750000 0.501087
O O13 0.304101 0.810499 0.631523
#
# Coordination Sequence:
#
# PCOD9336896 Si02
#       7
#     4   8   8   8   4   8   8
#     4  12  24  42  66 102 128 166 228 284 320 396
#     4  12  24  39  60 103 130 166 216 283 333 385
#     4   9  22  42  64  90 129 177 214 266 335 409
#     4   9  19  38  68  95 121 165 219 270 334 388
#     4  12  28  38  54  96 138 178 206 254 342 404
#     4   9  21  44  69  89 121 177 221 262 323 389
#     4   9  18  42  69  90 119 165 224 269 328 393
#
# _framework density 23.166737999999999
#
# number of rings (size 3 to 8) (size 9 to 14) (size 15 to 20)
#    0.000    2.000    1.667    3.000    4.667    0.667 
#    6.000    0.000    0.000    0.000    0.000    0.000 
#    0.000    0.000    0.000    0.000    0.000    0.000 
#
# Total GULP energy -133939.573826 kJ/mol
# GULP energy per Si atom -5580.815576 kJ/mol
# Density = 2.311401 g / cm^3
# Si number density = 23.166738 Si / 1000 Ang^3
#
#
#
# Elastic Constant Matrix: (Units=GPa)
#
#
# Indices 1 2 3 4 5 6 
#
# 1 59.3633 60.9409 4.3993 0.0000 0.0000 0.0000
# 2 60.9409 182.7924 30.0229 0.0001 0.0001 0.0001
# 3 4.3993 30.0229 34.3209 0.0001 0.0002 0.0001
# 4 0.0000 0.0001 0.0001 29.6984 0.0001 0.0001
# 5 0.0000 0.0001 0.0002 0.0001 8.0226 0.0000
# 6 0.0000 0.0001 0.0001 0.0001 0.0000 28.9004
#
#
#
# Elastic Compliance Matrix: (Units=1/GPa)
#
#
# Indices 1 2 3 4 5 6 
#
# 1 0.026333 -0.009605 0.005027 0.000000 0.000000 0.000000
# 2 -0.009605 0.009892 -0.007422 0.000000 0.000000 0.000000
# 3 0.005027 -0.007422 0.034985 0.000000 -0.000001 0.000000
# 4 0.000000 0.000000 0.000000 0.033672 0.000000 0.000000
# 5 0.000000 0.000000 -0.000001 0.000000 0.124648 0.000000
# 6 0.000000 0.000000 0.000000 0.000000 0.000000 0.034602
#
#
# Mechanical properties :
#
#
# Convention : Reuss Voigt Hill
#
# Bulk Modulus (GPa) = 21.18223 51.91140 36.54681
# Shear Modulus (GPa) = 16.45453 25.39852 20.92652
#
# Velocity S-wave (km/s) = 2.66797 3.31469 3.00876
# Velocity P-wave (km/s) = 4.31903 6.09146 5.28015
#
# Compressibility (1/GPa) = 0.04720939
#
# Stress axis : x y z
#
# Youngs Moduli (GPa) = 37.97546 101.09404 28.58377
#
# Poissons Ratio (x) = 0.97097 -0.14368
# Poissons Ratio (y) = 0.36474 0.21215
# Poissons Ratio (z) = -0.19088 0.75031
#
# Static dielectric constant tensor:
#      x y z
#    x 1.910100 0.000000 0.000000 
#    y 0.000000 1.959860 0.000000 
#    z 0.000000 0.000000 1.880510 
# 
# From -- ./inp_files/24826.got.cif
#   From: 2010.05.17/outbox.cif.g08.bks.cpg/sg24_13_cif.got.tgz:24826.got - 2010.06.04 00:33:39.
