data_PCOD9336781
_publ_section_title
;
Structure prediction by ZEFSAII (Michael W. Deem and Ramdas Pophale) SiO2 
 PCOD9336781
Probable space group: I 21 21 21
;
_chemical_formula_sum "Si O2"
_cell_formula_units_Z 28
_cell_length_a 6.536583
_cell_length_b 10.150474
_cell_length_c 19.025603
_cell_angle_alpha 90.000000
_cell_angle_beta 90.000000
_cell_angle_gamma 90.000000
_cell_volume 1262.337644
_symmetry_space_group_name_H-M "I 21 21 21"
_symmetry_group_IT_number 24
_symmetry_cell_setting 'orthorhombic'
loop_
_space_group_symop_operation_xyz
x,y,z
-x,1/2-y,z
x,-y,1/2-z
1/2-x,y,-z
1/2+x,1/2+y,1/2+z
1/2-x,-y,1/2+z
1/2+x,1/2-y,-z
-x,1/2+y,1/2-z
loop_
_atom_site_type_symbol
_atom_site_label
_atom_site_fract_x
_atom_site_fract_y
_atom_site_fract_z
Si Si1 0.598511 0.107315 0.437396
Si Si2 0.661659 0.132514 0.280930
Si Si3 0.824742 0.353691 0.922057
Si Si4 0.500000 0.750000 0.682760
O O1 0.500000 0.250000 0.452447
O O2 0.750000 0.069033 0.500000
O O3 0.714236 0.114965 0.362810
O O4 0.423747 0.997754 0.427313
O O5 0.500000 0.250000 0.277306
O O6 0.853855 0.165354 0.232601
O O7 0.564248 0.000000 0.250000
O O8 0.640364 0.339548 0.867600
O O9 0.000000 0.250000 0.900253
O O10 0.750000 0.315762 0.000000
#
# Coordination Sequence:
#
# PCOD9336781 Si02
#       4
#     8   8   8   4
#     4  11  26  46  73 106 149 190 239 291 356 435
#     4  11  26  47  71 105 145 186 239 296 352 427
#     4  12  25  46  75 109 140 184 244 299 353 423
#     4  12  26  44  78 106 142 188 236 300 366 410
#
# _framework density 22.181069999999998
#
# number of rings (size 3 to 8) (size 9 to 14) (size 15 to 20)
#    0.000    0.571    1.429    6.000    6.000    5.714 
#    0.000    0.000    0.000    0.000    0.000    0.000 
#    0.000    0.000    0.000    0.000    0.000    0.000 
#
# Total GULP energy -78463.386090 kJ/mol
# GULP energy per Si atom -5604.527578 kJ/mol
# Density = 2.213059 g / cm^3
# Si number density = 22.181070 Si / 1000 Ang^3
#
#
#
# Elastic Constant Matrix: (Units=GPa)
#
#
# Indices 1 2 3 4 5 6 
#
# 1 121.3429 53.6416 87.5046 0.0000 0.0000 0.0000
# 2 53.6416 142.9455 30.5042 0.0000 0.0000 0.0000
# 3 87.5046 30.5042 195.7215 0.0000 0.0000 0.0000
# 4 0.0000 0.0000 0.0000 0.7394 0.0000 0.0000
# 5 0.0000 0.0000 0.0000 0.0000 212.4399 0.0000
# 6 0.0000 0.0000 0.0000 0.0000 0.0000 18.4037
#
#
#
# Elastic Compliance Matrix: (Units=1/GPa)
#
#
# Indices 1 2 3 4 5 6 
#
# 1 0.014156 -0.004098 -0.005690 0.000000 0.000000 0.000000
# 2 -0.004098 0.008423 0.000519 0.000000 0.000000 0.000000
# 3 -0.005690 0.000519 0.007572 0.000000 0.000000 0.000000
# 4 0.000000 0.000000 0.000000 1.352476 0.000000 0.000000
# 5 0.000000 0.000000 0.000000 0.000000 0.004707 0.000000
# 6 0.000000 0.000000 0.000000 0.000000 0.000000 0.054337
#
#
# Mechanical properties :
#
#
# Convention : Reuss Voigt Hill
#
# Bulk Modulus (GPa) = 86.10675 89.25675 87.68175
# Shear Modulus (GPa) = 3.41511 65.54055 34.47783
#
# Velocity S-wave (km/s) = 1.24217 5.44170 3.94684
# Velocity P-wave (km/s) = 6.40012 8.93366 7.77083
#
# Compressibility (1/GPa) = 0.01161349
#
# Stress axis : x y z
#
# Youngs Moduli (GPa) = 70.64048 118.72792 132.05793
#
# Poissons Ratio (x) = 0.48654 0.75146
# Poissons Ratio (y) = 0.28948 -0.06859
# Poissons Ratio (z) = 0.40197 -0.06167
#
# Static dielectric constant tensor:
#      x y z
#    x 1.820090 0.000000 0.000000 
#    y 0.000000 1.799810 0.000000 
#    z 0.000000 0.000000 1.813390 
# 
# From -- ./inp_files/5219.got.cif
#   From: 2010.05.17/outbox.cif.g08.bks.cpg/sg24_3_cif.got.tgz:5219.got - 2010.06.04 00:33:39.
