data_PCOD9336789
_publ_section_title
;
Structure prediction by ZEFSAII (Michael W. Deem and Ramdas Pophale) SiO2 
 PCOD9336789
Probable space group: I 21 21 21
;
_chemical_formula_sum "Si O2"
_cell_formula_units_Z 40
_cell_length_a 12.531815
_cell_length_b 9.301955
_cell_length_c 11.772335
_cell_angle_alpha 90.000000
_cell_angle_beta 90.000000
_cell_angle_gamma 90.000000
_cell_volume 1372.305555
_symmetry_space_group_name_H-M "I 21 21 21"
_symmetry_group_IT_number 24
_symmetry_cell_setting 'orthorhombic'
loop_
_space_group_symop_operation_xyz
x,y,z
-x,1/2-y,z
x,-y,1/2-z
1/2-x,y,-z
1/2+x,1/2+y,1/2+z
1/2-x,-y,1/2+z
1/2+x,1/2-y,-z
-x,1/2+y,1/2-z
loop_
_atom_site_type_symbol
_atom_site_label
_atom_site_fract_x
_atom_site_fract_y
_atom_site_fract_z
Si Si1 0.709088 0.766580 0.723466
Si Si2 0.856561 0.022399 0.929553
Si Si3 0.093365 0.136747 0.800916
Si Si4 0.364647 0.755133 0.957720
Si Si5 0.072047 0.922777 0.451699
O O1 0.797690 0.879198 0.668130
O O2 0.798615 0.655882 0.767331
O O3 0.647582 0.823464 0.834137
O O4 0.626970 0.676650 0.644208
O O5 0.948685 0.100568 0.004518
O O6 0.899149 0.855840 0.940605
O O7 0.750000 0.002537 0.000000
O O8 0.000000 0.250000 0.798615
O O9 0.033665 0.000000 0.750000
O O10 0.130955 0.108007 0.929345
O O11 0.421740 0.905962 0.928034
O O12 0.250000 0.803151 0.000000
#
# Coordination Sequence:
#
# PCOD9336789 Si02
#       5
#     8   8   8   8   8
#     4  12  26  52  82 121 172 235 298 380 460 547
#     4  11  27  50  77 120 172 223 294 376 449 545
#     4  12  26  47  79 122 167 228 290 368 452 537
#     4  11  26  51  85 125 172 225 300 376 459 557
#     4  12  25  52  82 118 171 231 296 370 454 558
#
# _framework density 29.148028
#
# number of rings (size 3 to 8) (size 9 to 14) (size 15 to 20)
#    0.000    0.400    2.000    6.600    0.000    8.000 
#   10.800    0.000    0.000    0.000    0.000    0.000 
#    0.000    0.000    0.000    0.000    0.000    0.000 
#
# Total GULP energy -111439.836269 kJ/mol
# GULP energy per Si atom -5571.991813 kJ/mol
# Density = 2.908169 g / cm^3
# Si number density = 29.148028 Si / 1000 Ang^3
#
#
#
# Elastic Constant Matrix: (Units=GPa)
#
#
# Indices 1 2 3 4 5 6 
#
# 1 167.7755 49.5720 49.6842 0.0000 0.0000 0.0000
# 2 49.5720 193.0290 82.5527 0.0000 0.0000 0.0000
# 3 49.6842 82.5527 184.7791 0.0000 0.0000 0.0000
# 4 0.0000 0.0000 0.0000 60.2413 0.0000 0.0000
# 5 0.0000 0.0000 0.0000 0.0000 30.6952 0.0000
# 6 0.0000 0.0000 0.0000 0.0000 0.0000 42.0054
#
#
#
# Elastic Compliance Matrix: (Units=1/GPa)
#
#
# Indices 1 2 3 4 5 6 
#
# 1 0.006684 -0.001172 -0.001274 0.000000 0.000000 0.000000
# 2 -0.001172 0.006610 -0.002638 0.000000 0.000000 0.000000
# 3 -0.001274 -0.002638 0.006933 0.000000 0.000000 0.000000
# 4 0.000000 0.000000 0.000000 0.016600 0.000000 0.000000
# 5 0.000000 0.000000 0.000000 0.000000 0.032578 0.000000
# 6 0.000000 0.000000 0.000000 0.000000 0.000000 0.023806
#
#
# Mechanical properties :
#
#
# Convention : Reuss Voigt Hill
#
# Bulk Modulus (GPa) = 99.40723 101.02239 100.21481
# Shear Modulus (GPa) = 46.84685 50.84003 48.84344
#
# Velocity S-wave (km/s) = 4.01335 4.18089 4.09798
# Velocity P-wave (km/s) = 7.46018 7.61841 7.53971
#
# Compressibility (1/GPa) = 0.01005963
#
# Stress axis : x y z
#
# Youngs Moduli (GPa) = 149.61703 151.29433 144.24099
#
# Poissons Ratio (x) = 0.17728 0.18371
# Poissons Ratio (y) = 0.17531 0.38049
# Poissons Ratio (z) = 0.19056 0.39910
#
# Static dielectric constant tensor:
#      x y z
#    x 2.236040 0.000000 0.000000 
#    y 0.000000 3.013030 0.000000 
#    z 0.000000 0.000000 2.306970 
# 
# From -- ./inp_files/21339.got.cif
#   From: 2010.05.17/outbox.cif.g08.bks.cpg/sg24_11_cif.got.tgz:21339.got - 2010.06.04 00:33:39.
