data_PCOD9336542
_publ_section_title
;
Structure prediction by ZEFSAII (Michael W. Deem and Ramdas Pophale) SiO2 
 PCOD9336542
Probable space group: I 21 21 21
;
_chemical_formula_sum "Si O2"
_cell_formula_units_Z 48
_cell_length_a 9.762770
_cell_length_b 14.613398
_cell_length_c 16.280973
_cell_angle_alpha 90.000000
_cell_angle_beta 90.000000
_cell_angle_gamma 90.000000
_cell_volume 2322.761541
_symmetry_space_group_name_H-M "I 21 21 21"
_symmetry_group_IT_number 24
_symmetry_cell_setting 'orthorhombic'
loop_
_space_group_symop_operation_xyz
x,y,z
-x,1/2-y,z
x,-y,1/2-z
1/2-x,y,-z
1/2+x,1/2+y,1/2+z
1/2-x,-y,1/2+z
1/2+x,1/2-y,-z
-x,1/2+y,1/2-z
loop_
_atom_site_type_symbol
_atom_site_label
_atom_site_fract_x
_atom_site_fract_y
_atom_site_fract_z
Si Si1 0.394659 0.679842 0.456699
Si Si2 0.500365 0.484652 0.403131
Si Si3 0.492278 0.140080 0.562648
Si Si4 0.656251 0.751451 0.274044
Si Si5 0.730846 0.573233 0.809160
Si Si6 0.276475 0.574715 0.814226
O O1 0.500000 0.750000 0.500424
O O2 0.250000 0.661232 0.500000
O O3 0.475126 0.585713 0.439364
O O4 0.355631 0.728301 0.370491
O O5 0.512601 0.410160 0.475381
O O6 0.635255 0.475016 0.347892
O O7 0.365455 0.463904 0.350148
O O8 0.500000 0.250000 0.554542
O O9 0.362347 0.111504 0.617775
O O10 0.622244 0.100610 0.612372
O O11 0.500000 0.750000 0.241470
O O12 0.723403 0.657178 0.247693
O O13 0.740534 0.833183 0.233973
O O14 0.659063 0.500000 0.750000
O O15 0.331176 0.500000 0.750000
#
# Coordination Sequence:
#
# PCOD9336542 Si02
#       6
#     8   8   8   8   8   8
#     4  11  25  47  70 105 140 184 237 288 350 417
#     4  12  26  44  72 100 139 183 230 281 348 421
#     4  12  28  44  67 105 140 176 224 292 360 409
#     4  11  22  41  72 101 132 179 237 279 334 418
#     4  12  25  46  70 100 138 182 231 283 345 418
#     4  12  23  44  70  98 135 179 229 283 339 412
#
# _framework density 20.665057999999998
#
# number of rings (size 3 to 8) (size 9 to 14) (size 15 to 20)
#    0.000    0.333    5.000    5.000    2.333    4.000 
#    3.000    0.000    0.000    0.000    0.000    0.000 
#    0.000    0.000    0.000    0.000    0.000    0.000 
#
# Total GULP energy -134301.632072 kJ/mol
# GULP energy per Si atom -5595.901336 kJ/mol
# Density = 2.061802 g / cm^3
# Si number density = 20.665058 Si / 1000 Ang^3
#
#
#
# Elastic Constant Matrix: (Units=GPa)
#
#
# Indices 1 2 3 4 5 6 
#
# 1 84.9763 34.5772 16.3462 0.0000 0.0000 0.0000
# 2 34.5772 164.7503 37.0860 0.0000 0.0000 0.0000
# 3 16.3462 37.0860 80.3434 0.0000 0.0000 0.0000
# 4 0.0000 0.0000 0.0000 41.2486 0.0000 0.0000
# 5 0.0000 0.0000 0.0000 0.0000 14.8490 0.0000
# 6 0.0000 0.0000 0.0000 0.0000 0.0000 11.3067
#
#
#
# Elastic Compliance Matrix: (Units=1/GPa)
#
#
# Indices 1 2 3 4 5 6 
#
# 1 0.013038 -0.002387 -0.001551 0.000000 0.000000 0.000000
# 2 -0.002387 0.007211 -0.002843 0.000000 0.000000 0.000000
# 3 -0.001551 -0.002843 0.014074 0.000000 0.000000 0.000000
# 4 0.000000 0.000000 0.000000 0.024243 0.000000 0.000000
# 5 0.000000 0.000000 0.000000 0.000000 0.067345 0.000000
# 6 0.000000 0.000000 0.000000 0.000000 0.000000 0.088443
#
#
# Mechanical properties :
#
#
# Convention : Reuss Voigt Hill
#
# Bulk Modulus (GPa) = 48.16626 56.23208 52.19917
# Shear Modulus (GPa) = 21.29151 29.61823 25.45487
#
# Velocity S-wave (km/s) = 3.21333 3.78994 3.51348
# Velocity P-wave (km/s) = 6.09311 6.81335 6.46327
#
# Compressibility (1/GPa) = 0.02076142
#
# Stress axis : x y z
#
# Youngs Moduli (GPa) = 76.70098 138.68219 71.05174
#
# Poissons Ratio (x) = 0.33107 0.11017
# Poissons Ratio (y) = 0.18310 0.20198
# Poissons Ratio (z) = 0.11893 0.39424
#
# Static dielectric constant tensor:
#      x y z
#    x 1.768770 0.000000 0.000000 
#    y 0.000000 1.722130 0.000000 
#    z 0.000000 0.000000 1.666910 
# 
# From -- ./inp_files/29458.got.cif
#   From: 2010.05.17/outbox.cif.g08.bks.cpg/sg24_15_cif.got.tgz:29458.got - 2010.06.04 00:33:39.
