data_PCOD9336687
_publ_section_title
;
Structure prediction by ZEFSAII (Michael W. Deem and Ramdas Pophale) SiO2 
 PCOD9336687
Probable space group: I 21 21 21
;
_chemical_formula_sum "Si O2"
_cell_formula_units_Z 48
_cell_length_a 11.180595
_cell_length_b 8.490408
_cell_length_c 23.994361
_cell_angle_alpha 90.000000
_cell_angle_beta 90.000000
_cell_angle_gamma 90.000000
_cell_volume 2277.732220
_symmetry_space_group_name_H-M "I 21 21 21"
_symmetry_group_IT_number 24
_symmetry_cell_setting 'orthorhombic'
loop_
_space_group_symop_operation_xyz
x,y,z
-x,1/2-y,z
x,-y,1/2-z
1/2-x,y,-z
1/2+x,1/2+y,1/2+z
1/2-x,-y,1/2+z
1/2+x,1/2-y,-z
-x,1/2+y,1/2-z
loop_
_atom_site_type_symbol
_atom_site_label
_atom_site_fract_x
_atom_site_fract_y
_atom_site_fract_z
Si Si1 0.077324 0.453591 0.616292
Si Si2 0.000000 0.250000 0.182321
Si Si3 0.321751 0.114420 0.349258
Si Si4 0.445122 0.422849 0.517718
Si Si5 0.684216 0.546915 0.553375
Si Si6 0.697714 0.883807 0.599128
Si Si7 0.837465 0.500000 0.250000
O O1 0.133127 0.290357 0.638605
O O2 0.066826 0.441902 0.548734
O O3 0.177742 0.581117 0.629273
O O4 0.946008 0.481184 0.641682
O O5 0.907033 0.154766 0.142994
O O6 0.922155 0.373694 0.218356
O O7 0.226889 0.055206 0.394948
O O8 0.251636 0.089281 0.292269
O O9 0.500000 0.250000 0.528335
O O10 0.545720 0.541945 0.539649
O O11 0.335165 0.472207 0.557226
O O12 0.750000 0.477551 0.500000
O O13 0.717978 0.726531 0.563692
#
# Coordination Sequence:
#
# PCOD9336687 Si02
#       7
#     8   4   8   8   8   8   4
#     4  11  24  44  70 105 147 192 235 278 359 446
#     4  12  28  52  74 104 134 184 252 302 366 420
#     4  11  24  49  69 103 142 191 246 293 355 428
#     4  12  21  39  67 104 150 193 231 281 347 440
#     4  12  21  40  67  99 151 188 229 296 359 425
#     4  12  25  43  68 111 143 183 239 290 368 428
#     4  12  28  54  76 100 136 188 250 314 354 414
#
# _framework density 21.073592999999999
#
# number of rings (size 3 to 8) (size 9 to 14) (size 15 to 20)
#    0.000    0.333    6.667    2.500    2.333    0.667 
#    7.500    0.000    0.000    0.000    0.000    0.000 
#    0.000    0.000    0.000    0.000    0.000    0.000 
#
# Total GULP energy -134120.803620 kJ/mol
# GULP energy per Si atom -5588.366818 kJ/mol
# Density = 2.102563 g / cm^3
# Si number density = 21.073593 Si / 1000 Ang^3
#
#
#
# Elastic Constant Matrix: (Units=GPa)
#
#
# Indices 1 2 3 4 5 6 
#
# 1 123.7292 16.2595 48.4744 0.0000 0.0000 0.0000
# 2 16.2595 60.7624 24.7650 0.0000 0.0000 0.0000
# 3 48.4744 24.7650 120.4734 0.0000 0.0000 0.0000
# 4 0.0000 0.0000 0.0000 118.8878 0.0000 0.0000
# 5 0.0000 0.0000 0.0000 0.0000 24.2747 0.0000
# 6 0.0000 0.0000 0.0000 0.0000 0.0000 40.1374
#
#
#
# Elastic Compliance Matrix: (Units=1/GPa)
#
#
# Indices 1 2 3 4 5 6 
#
# 1 0.009661 -0.001092 -0.003663 0.000000 0.000000 0.000000
# 2 -0.001092 0.018086 -0.003278 0.000000 0.000000 0.000000
# 3 -0.003663 -0.003278 0.010448 0.000000 0.000000 0.000000
# 4 0.000000 0.000000 0.000000 0.008411 0.000000 0.000000
# 5 0.000000 0.000000 0.000000 0.000000 0.041195 0.000000
# 6 0.000000 0.000000 0.000000 0.000000 0.000000 0.024914
#
#
# Mechanical properties :
#
#
# Convention : Reuss Voigt Hill
#
# Bulk Modulus (GPa) = 45.19088 53.77364 49.48226
# Shear Modulus (GPa) = 36.72201 51.02441 43.87321
#
# Velocity S-wave (km/s) = 4.17893 4.92596 4.56774
# Velocity P-wave (km/s) = 6.69145 7.61090 7.16594
#
# Compressibility (1/GPa) = 0.02212836
#
# Stress axis : x y z
#
# Youngs Moduli (GPa) = 103.51294 55.29145 95.71044
#
# Poissons Ratio (x) = 0.06040 0.35055
# Poissons Ratio (y) = 0.11307 0.31377
# Poissons Ratio (z) = 0.37912 0.18126
#
# Static dielectric constant tensor:
#      x y z
#    x 1.434760 0.000000 0.000000 
#    y 0.000000 1.771620 0.000000 
#    z 0.000000 0.000000 1.737360 
# 
# From -- ./inp_files/35566.got.cif
#   From: 2010.05.17/outbox.cif.g08.bks.cpg/sg24_18_cif.got.tgz:35566.got - 2010.06.04 00:33:39.
