data_PCOD9336358
_publ_section_title
;
Structure prediction by ZEFSAII (Michael W. Deem and Ramdas Pophale) SiO2 
 PCOD9336358
Probable space group: I 21 21 21
;
_chemical_formula_sum "Si O2"
_cell_formula_units_Z 56
_cell_length_a 7.268877
_cell_length_b 25.537087
_cell_length_c 12.192089
_cell_angle_alpha 90.000000
_cell_angle_beta 90.000000
_cell_angle_gamma 90.000000
_cell_volume 2263.168034
_symmetry_space_group_name_H-M "I 21 21 21"
_symmetry_group_IT_number 24
_symmetry_cell_setting 'orthorhombic'
loop_
_space_group_symop_operation_xyz
x,y,z
-x,1/2-y,z
x,-y,1/2-z
1/2-x,y,-z
1/2+x,1/2+y,1/2+z
1/2-x,-y,1/2+z
1/2+x,1/2-y,-z
-x,1/2+y,1/2-z
loop_
_atom_site_type_symbol
_atom_site_label
_atom_site_fract_x
_atom_site_fract_y
_atom_site_fract_z
Si Si1 0.529785 0.975378 0.971914
Si Si2 0.961407 0.905614 0.462390
Si Si3 0.406264 0.607174 0.791771
Si Si4 0.961613 0.810890 0.032171
Si Si5 0.379430 0.837151 0.343624
Si Si6 0.180506 0.728526 0.604913
Si Si7 0.029305 0.107697 0.645888
O O1 0.514640 0.942614 0.859055
O O2 0.466179 0.034824 0.965730
O O3 0.750000 0.974934 0.000000
O O4 0.437925 0.942883 0.070967
O O5 0.750000 0.910031 0.500000
O O6 0.953621 0.888906 0.335641
O O7 0.073028 0.867846 0.544824
O O8 0.479327 0.658417 0.854509
O O9 0.183986 0.602920 0.812604
O O10 0.000000 0.750000 0.038454
O O11 0.750000 0.817194 0.000000
O O12 0.059839 0.842849 0.935246
O O13 0.249820 0.784993 0.352285
O O14 0.577007 0.808207 0.309535
O O15 0.348258 0.880112 0.251529
O O16 0.250000 0.697625 0.500000
O O17 0.000000 0.750000 0.541218
#
# Coordination Sequence:
#
# PCOD9336358 Si02
#       7
#     8   8   8   8   8   8   8
#     4   8  17  27  42  67 100 134 164 208 253 298
#     4  11  17  26  45  70 102 138 164 198 258 313
#     4   9  17  30  44  66 104 130 172 201 259 302
#     4   9  19  34  52  72  97 136 171 212 254 296
#     4   9  19  28  48  71  99 134 168 202 258 298
#     4   8  19  33  47  68 104 136 175 205 253 301
#     4   9  16  30  46  70  97 132 168 213 244 312
#
# _framework density 24.744073
#
# number of rings (size 3 to 8) (size 9 to 14) (size 15 to 20)
#    0.857    2.000    1.429    2.571    2.000    0.571 
#    2.571    0.000    0.000    0.000    0.000    4.000 
#    4.286    0.000    0.000    0.000    0.000    0.000 
#
# Total GULP energy -155998.737513 kJ/mol
# GULP energy per Si atom -5571.383483 kJ/mol
# Density = 2.468775 g / cm^3
# Si number density = 24.744073 Si / 1000 Ang^3
#
#
#
# Elastic Constant Matrix: (Units=GPa)
#
#
# Indices 1 2 3 4 5 6 
#
# 1 51.9960 1.0098 21.6569 0.0000 0.0000 0.0000
# 2 1.0098 176.5357 73.0457 0.0001 0.0000 0.0000
# 3 21.6569 73.0457 188.5255 0.0000 0.0002 0.0000
# 4 0.0000 0.0001 0.0000 19.2053 0.0001 0.0000
# 5 0.0000 0.0000 0.0002 0.0001 6.7662 0.0000
# 6 0.0000 0.0000 0.0000 0.0000 0.0000 20.0529
#
#
#
# Elastic Compliance Matrix: (Units=1/GPa)
#
#
# Indices 1 2 3 4 5 6 
#
# 1 0.020350 0.001013 -0.002730 0.000000 0.000000 0.000000
# 2 0.001013 0.006797 -0.002750 0.000000 0.000000 0.000000
# 3 -0.002730 -0.002750 0.006683 0.000000 0.000000 0.000000
# 4 0.000000 0.000000 0.000000 0.052069 -0.000001 0.000000
# 5 0.000000 0.000000 0.000000 -0.000001 0.147793 0.000000
# 6 0.000000 0.000000 0.000000 0.000000 0.000000 0.049868
#
#
# Mechanical properties :
#
#
# Convention : Reuss Voigt Hill
#
# Bulk Modulus (GPa) = 40.16681 67.60911 53.88796
# Shear Modulus (GPa) = 16.62279 30.62787 23.62533
#
# Velocity S-wave (km/s) = 2.59470 3.52204 3.09332
# Velocity P-wave (km/s) = 5.02442 6.62739 5.88078
#
# Compressibility (1/GPa) = 0.02489617
#
# Stress axis : x y z
#
# Youngs Moduli (GPa) = 49.14066 147.13305 149.62466
#
# Poissons Ratio (x) = -0.14909 0.40852
# Poissons Ratio (y) = -0.04979 0.41144
# Poissons Ratio (z) = 0.13417 0.40458
#
# Static dielectric constant tensor:
#      x y z
#    x 2.123150 0.000000 0.000000 
#    y 0.000000 2.276310 0.000000 
#    z 0.000000 0.000000 1.954350 
# 
# From -- ./inp_files/20108.got.cif
#   From: 2010.05.17/outbox.cif.g08.bks.cpg/sg24_11_cif.got.tgz:20108.got - 2010.06.04 00:33:39.
