data_PCOD9336306
_publ_section_title
;
Structure prediction by ZEFSAII (Michael W. Deem and Ramdas Pophale) SiO2 
 PCOD9336306
Probable space group: I 21 21 21
;
_chemical_formula_sum "Si O2"
_cell_formula_units_Z 40
_cell_length_a 6.402944
_cell_length_b 13.174757
_cell_length_c 23.853995
_cell_angle_alpha 90.000000
_cell_angle_beta 90.000000
_cell_angle_gamma 90.000000
_cell_volume 2012.256973
_symmetry_space_group_name_H-M "I 21 21 21"
_symmetry_group_IT_number 24
_symmetry_cell_setting 'orthorhombic'
loop_
_space_group_symop_operation_xyz
x,y,z
-x,1/2-y,z
x,-y,1/2-z
1/2-x,y,-z
1/2+x,1/2+y,1/2+z
1/2-x,-y,1/2+z
1/2+x,1/2-y,-z
-x,1/2+y,1/2-z
loop_
_atom_site_type_symbol
_atom_site_label
_atom_site_fract_x
_atom_site_fract_y
_atom_site_fract_z
Si Si1 0.750000 0.008091 0.000000
Si Si2 0.064722 0.355690 0.412011
Si Si3 0.897325 0.644234 0.554886
Si Si4 0.756607 0.503848 0.151031
Si Si5 0.884577 0.856191 0.810405
Si Si6 0.574699 0.000000 0.750000
O O1 0.913966 0.074932 0.966501
O O2 0.631875 0.937062 0.956842
O O3 0.249073 0.338977 0.366889
O O4 0.000000 0.250000 0.438825
O O5 0.867310 0.402828 0.380469
O O6 0.750000 0.660044 0.500000
O O7 0.788727 0.584676 0.606154
O O8 0.000000 0.750000 0.573068
O O9 0.550215 0.553577 0.177804
O O10 0.922497 0.472342 0.198463
O O11 0.720091 0.904299 0.766512
O O12 0.000000 0.750000 0.795212
#
# Coordination Sequence:
#
# PCOD9336306 Si02
#       6
#     4   8   8   8   8   4
#     4  12  24  40  68 104 140 176 228 282 340 418
#     4  11  23  38  68 104 134 176 224 274 347 423
#     4  12  25  44  73  99 140 190 233 287 349 412
#     4  11  23  45  70  98 142 179 227 294 344 413
#     4  11  22  43  73  94 136 182 220 284 355 406
#     4  10  26  44  70 102 134 178 238 286 350 418
#
# _framework density 19.878177000000001
#
# number of rings (size 3 to 8) (size 9 to 14) (size 15 to 20)
#    0.000    0.800    7.000    0.600    0.000    2.400 
#    0.000    6.000    4.400    0.000    0.000    0.000 
#    0.000    0.000    0.000    0.000    0.000    0.000 
#
# Total GULP energy -111760.615504 kJ/mol
# GULP energy per Si atom -5588.030775 kJ/mol
# Density = 1.983293 g / cm^3
# Si number density = 19.878177 Si / 1000 Ang^3
#
#
#
# Elastic Constant Matrix: (Units=GPa)
#
#
# Indices 1 2 3 4 5 6 
#
# 1 104.0417 60.8774 42.7916 0.0000 0.0000 0.0000
# 2 60.8774 132.7791 60.9421 0.0000 0.0000 0.0000
# 3 42.7916 60.9421 81.4581 0.0000 0.0000 0.0000
# 4 0.0000 0.0000 0.0000 46.6409 0.0000 0.0000
# 5 0.0000 0.0000 0.0000 0.0000 28.0191 0.0000
# 6 0.0000 0.0000 0.0000 0.0000 0.0000 25.6367
#
#
#
# Elastic Compliance Matrix: (Units=1/GPa)
#
#
# Indices 1 2 3 4 5 6 
#
# 1 0.013888 -0.004598 -0.003856 0.000000 0.000000 0.000000
# 2 -0.004598 0.012992 -0.007305 0.000000 0.000000 0.000000
# 3 -0.003856 -0.007305 0.019767 0.000000 0.000000 0.000000
# 4 0.000000 0.000000 0.000000 0.021440 0.000000 0.000000
# 5 0.000000 0.000000 0.000000 0.000000 0.035690 0.000000
# 6 0.000000 0.000000 0.000000 0.000000 0.000000 0.039007
#
#
# Mechanical properties :
#
#
# Convention : Reuss Voigt Hill
#
# Bulk Modulus (GPa) = 66.09291 71.94457 69.01874
# Shear Modulus (GPa) = 27.87971 30.30386 29.09179
#
# Velocity S-wave (km/s) = 3.74910 3.90869 3.82973
# Velocity P-wave (km/s) = 7.21541 7.52608 7.37238
#
# Compressibility (1/GPa) = 0.01513022
#
# Stress axis : x y z
#
# Youngs Moduli (GPa) = 72.00708 76.97170 50.59043
#
# Poissons Ratio (x) = 0.35388 0.19507
# Poissons Ratio (y) = 0.33105 0.36954
# Poissons Ratio (z) = 0.27765 0.56224
#
# Static dielectric constant tensor:
#      x y z
#    x 1.673370 0.000000 0.000000 
#    y 0.000000 1.668330 0.000000 
#    z 0.000000 0.000000 1.706260 
# 
# From -- ./inp_files/2487.got.cif
#   From: 2010.05.17/outbox.cif.g08.bks.cpg/sg24_2_cif.got.tgz:2487.got - 2010.06.04 00:33:39.
