data_PCOD9336267
_publ_section_title
;
Structure prediction by ZEFSAII (Michael W. Deem and Ramdas Pophale) SiO2 
 PCOD9336267
Probable space group: I 21 21 21
;
_chemical_formula_sum "Si O2"
_cell_formula_units_Z 60
_cell_length_a 6.355736
_cell_length_b 25.029159
_cell_length_c 17.010918
_cell_angle_alpha 90.000000
_cell_angle_beta 90.000000
_cell_angle_gamma 90.000000
_cell_volume 2706.075179
_symmetry_space_group_name_H-M "I 21 21 21"
_symmetry_group_IT_number 24
_symmetry_cell_setting 'orthorhombic'
loop_
_space_group_symop_operation_xyz
x,y,z
-x,1/2-y,z
x,-y,1/2-z
1/2-x,y,-z
1/2+x,1/2+y,1/2+z
1/2-x,-y,1/2+z
1/2+x,1/2-y,-z
-x,1/2+y,1/2-z
loop_
_atom_site_type_symbol
_atom_site_label
_atom_site_fract_x
_atom_site_fract_y
_atom_site_fract_z
Si Si1 0.317575 0.982492 0.089268
Si Si2 0.391889 0.307906 0.299295
Si Si3 0.009467 0.453510 0.200571
Si Si4 0.566142 0.660510 0.762646
Si Si5 0.600839 0.343854 0.147490
Si Si6 0.000000 0.250000 0.964564
Si Si7 0.359431 0.564019 0.416975
Si Si8 0.669062 0.645580 0.086905
O O1 0.318167 0.918570 0.094549
O O2 0.168229 0.013398 0.151747
O O3 0.553657 0.004624 0.095391
O O4 0.250000 0.996748 0.000000
O O5 0.500000 0.250000 0.290112
O O6 0.490385 0.346626 0.232549
O O7 0.441734 0.332180 0.385269
O O8 0.150259 0.309277 0.276124
O O9 0.118961 0.500000 0.250000
O O10 0.938934 0.404331 0.254645
O O11 0.174292 0.425934 0.143493
O O12 0.670142 0.674235 0.677844
O O13 0.690673 0.670796 0.843529
O O14 0.496616 0.301054 0.091553
O O15 0.559552 0.398573 0.101722
O O16 0.750000 0.251979 0.000000
O O17 0.250000 0.571880 0.500000
O O18 0.750000 0.659821 0.000000
#
# Coordination Sequence:
#
# PCOD9336267 Si02
#       8
#     8   8   8   8   8   4   8   8
#     4  11  23  42  65  97 142 185 229 289 354 432
#     4  11  25  48  73 102 133 184 242 303 383 444
#     4  12  24  39  67 102 138 184 236 284 354 435
#     4  11  24  43  75 101 136 188 232 300 368 438
#     4  11  25  44  71 103 143 185 243 306 359 445
#     4  12  30  48  74 110 150 204 258 318 386 446
#     4  12  25  40  67 102 143 193 236 287 357 433
#     4  10  25  46  68 104 142 179 239 303 372 445
#
# _framework density 22.172333999999999
#
# number of rings (size 3 to 8) (size 9 to 14) (size 15 to 20)
#    0.000    0.800    6.000    0.400    3.733    4.800 
#    2.400    0.000    0.000    0.000    0.000    0.000 
#    0.000    0.000    0.000    0.000    0.000    0.000 
#
# Total GULP energy -167125.196455 kJ/mol
# GULP energy per Si atom -5570.839882 kJ/mol
# Density = 2.212187 g / cm^3
# Si number density = 22.172334 Si / 1000 Ang^3
#
#
#
# Elastic Constant Matrix: (Units=GPa)
#
#
# Indices 1 2 3 4 5 6 
#
# 1 103.5764 17.1439 50.5565 0.0000 0.0000 0.0000
# 2 17.1439 54.7342 15.4131 0.0000 0.0000 0.0000
# 3 50.5565 15.4131 108.8909 0.0001 0.0000 0.0000
# 4 0.0000 0.0000 0.0001 13.5351 0.0000 0.0000
# 5 0.0000 0.0000 0.0000 0.0000 -2.4626 0.0000
# 6 0.0000 0.0000 0.0000 0.0000 0.0000 21.3636
#
#
#
# Elastic Compliance Matrix: (Units=1/GPa)
#
#
# Indices 1 2 3 4 5 6 
#
# 1 0.012787 -0.002430 -0.005593 0.000000 0.000000 0.000000
# 2 -0.002430 0.019490 -0.001630 0.000000 0.000000 0.000000
# 3 -0.005593 -0.001630 0.012011 0.000000 0.000000 0.000000
# 4 0.000000 0.000000 0.000000 0.073882 0.000000 0.000000
# 5 0.000000 0.000000 0.000000 0.000000 -0.406072 0.000000
# 6 0.000000 0.000000 0.000000 0.000000 0.000000 0.046809
#
#
# Mechanical properties :
#
#
# Convention : Reuss Voigt Hill
#
# Bulk Modulus (GPa) = 40.02993 48.15874 44.09433
# Shear Modulus (GPa) = -23.42367 18.75976 -2.33196
#
# Velocity S-wave (km/s) = -3.25381 2.91192 -1.02666
# Velocity P-wave (km/s) = 1.99419 5.75091 4.30406
#
# Compressibility (1/GPa) = 0.02498131
#
# Stress axis : x y z
#
# Youngs Moduli (GPa) = 78.20547 51.30720 83.25746
#
# Poissons Ratio (x) = 0.12469 0.46564
# Poissons Ratio (y) = 0.19005 0.13575
# Poissons Ratio (z) = 0.43738 0.08366
#
# Static dielectric constant tensor:
#      x y z
#    x 1.993030 0.000000 0.000000 
#    y 0.000000 1.872130 0.000000 
#    z 0.000000 0.000000 1.818280 
# 
# From -- ./inp_files/28913.got.cif
#   From: 2010.05.17/outbox.cif.g08.bks.cpg/sg24_15_cif.got.tgz:28913.got - 2010.06.04 00:33:39.
