data_PCOD9336806
_publ_section_title
;
Structure prediction by ZEFSAII (Michael W. Deem and Ramdas Pophale) SiO2 
 PCOD9336806
Probable space group: I 21 21 21
;
_chemical_formula_sum "Si O2"
_cell_formula_units_Z 20
_cell_length_a 11.458003
_cell_length_b 7.478797
_cell_length_c 8.631251
_cell_angle_alpha 90.000000
_cell_angle_beta 90.000000
_cell_angle_gamma 90.000000
_cell_volume 739.629838
_symmetry_space_group_name_H-M "I 21 21 21"
_symmetry_group_IT_number 24
_symmetry_cell_setting 'orthorhombic'
loop_
_space_group_symop_operation_xyz
x,y,z
-x,1/2-y,z
x,-y,1/2-z
1/2-x,y,-z
1/2+x,1/2+y,1/2+z
1/2-x,-y,1/2+z
1/2+x,1/2-y,-z
-x,1/2+y,1/2-z
loop_
_atom_site_type_symbol
_atom_site_label
_atom_site_fract_x
_atom_site_fract_y
_atom_site_fract_z
Si Si1 0.000000 0.750000 0.518929
Si Si2 0.202176 0.204209 0.732037
Si Si3 0.868458 0.921086 0.059158
O O1 0.889125 0.731488 0.631308
O O2 0.024981 0.557827 0.438850
O O3 0.322372 0.316505 0.710968
O O4 0.131240 0.269036 0.577292
O O5 0.236222 0.000000 0.750000
O O6 0.750000 0.019195 0.000000
#
# Coordination Sequence:
#
# PCOD9336806 Si02
#       3
#     4   8   8
#     4  12  18  40  78 100 164 212 244 330 410 454
#     4   9  19  37  66 107 157 197 260 323 382 477
#     4   8  22  37  59 125 148 183 291 303 370 510
#
# _framework density 27.040555000000001
#
# number of rings (size 3 to 8) (size 9 to 14) (size 15 to 20)
#    2.400    0.000    0.000    3.600    0.000    0.000 
#    7.200    0.000    0.000    2.400   10.400    0.000 
#    0.000    0.000    0.000    0.000    0.000    0.000 
#
# Total GULP energy -55679.928475 kJ/mol
# GULP energy per Si atom -5567.992847 kJ/mol
# Density = 2.697901 g / cm^3
# Si number density = 27.040555 Si / 1000 Ang^3
#
#
#
# Elastic Constant Matrix: (Units=GPa)
#
#
# Indices 1 2 3 4 5 6 
#
# 1 110.7132 113.6376 53.1976 0.0000 0.0000 0.0000
# 2 113.6376 250.9741 78.5813 0.0000 0.0000 0.0000
# 3 53.1976 78.5813 95.6767 0.0000 0.0000 0.0000
# 4 0.0000 0.0000 0.0000 19.4809 0.0000 0.0000
# 5 0.0000 0.0000 0.0000 0.0000 -366.0554 0.0000
# 6 0.0000 0.0000 0.0000 0.0000 0.0000 86.7694
#
#
#
# Elastic Compliance Matrix: (Units=1/GPa)
#
#
# Indices 1 2 3 4 5 6 
#
# 1 0.018217 -0.006835 -0.004516 0.000000 0.000000 0.000000
# 2 -0.006835 0.007928 -0.002711 0.000000 0.000000 0.000000
# 3 -0.004516 -0.002711 0.015189 0.000000 0.000000 0.000000
# 4 0.000000 0.000000 0.000000 0.051332 0.000000 0.000000
# 5 0.000000 0.000000 0.000000 0.000000 -0.002732 0.000000
# 6 0.000000 0.000000 0.000000 0.000000 0.000000 0.011525
#
#
# Mechanical properties :
#
#
# Convention : Reuss Voigt Hill
#
# Bulk Modulus (GPa) = 75.69089 105.35523 90.52306
# Shear Modulus (GPa) = 37.31703 -37.83117 -0.25707
#
# Velocity S-wave (km/s) = 3.71892 -3.74445 -0.30867
# Velocity P-wave (km/s) = 6.81857 4.51132 5.78121
#
# Compressibility (1/GPa) = 0.01321163
#
# Stress axis : x y z
#
# Youngs Moduli (GPa) = 54.89280 126.13453 65.83515
#
# Poissons Ratio (x) = 0.86209 0.29729
# Poissons Ratio (y) = 0.37518 0.17850
# Poissons Ratio (z) = 0.24788 0.34199
#
# Static dielectric constant tensor:
#      x y z
#    x 2.212680 0.000000 0.000000 
#    y 0.000000 25.409710 0.000000 
#    z 0.000000 0.000000 2.223950 
# 
# From -- ./inp_files/8443.got.cif
#   From: 2010.05.17/outbox.cif.g08.bks.cpg/sg24_5_cif.got.tgz:8443.got - 2010.06.04 00:33:39.
