data_PCOD9336695
_publ_section_title
;
Structure prediction by ZEFSAII (Michael W. Deem and Ramdas Pophale) SiO2 
 PCOD9336695
Probable space group: I 21 21 21
;
_chemical_formula_sum "Si O2"
_cell_formula_units_Z 40
_cell_length_a 8.475991
_cell_length_b 26.160043
_cell_length_c 8.596843
_cell_angle_alpha 90.000000
_cell_angle_beta 90.000000
_cell_angle_gamma 90.000000
_cell_volume 1906.197677
_symmetry_space_group_name_H-M "I 21 21 21"
_symmetry_group_IT_number 24
_symmetry_cell_setting 'orthorhombic'
loop_
_space_group_symop_operation_xyz
x,y,z
-x,1/2-y,z
x,-y,1/2-z
1/2-x,y,-z
1/2+x,1/2+y,1/2+z
1/2-x,-y,1/2+z
1/2+x,1/2-y,-z
-x,1/2+y,1/2-z
loop_
_atom_site_type_symbol
_atom_site_label
_atom_site_fract_x
_atom_site_fract_y
_atom_site_fract_z
Si Si1 0.250000 0.031276 0.500000
Si Si2 0.586646 0.983194 0.573283
Si Si3 0.281162 0.879672 0.246092
Si Si4 0.319171 0.234112 0.335874
Si Si5 0.250000 0.281686 0.000000
Si Si6 0.006605 0.627565 0.482319
O O1 0.250441 0.069907 0.353680
O O2 0.415126 0.999675 0.501329
O O3 0.750000 0.004466 0.500000
O O4 0.600352 0.922018 0.571163
O O5 0.579339 0.000000 0.750000
O O6 0.304231 0.826956 0.156013
O O7 0.136481 0.869439 0.361707
O O8 0.436359 0.885716 0.349794
O O9 0.500000 0.250000 0.331864
O O10 0.250000 0.255363 0.500000
O O11 0.252762 0.251465 0.165077
O O12 0.399216 0.319878 0.992513
#
# Coordination Sequence:
#
# PCOD9336695 Si02
#       6
#     4   8   8   8   4   8
#     4  12  26  46  75 106 150 195 244 316 380 440
#     4  12  28  47  73 109 149 197 251 312 379 459
#     4  11  24  45  73 102 141 192 248 301 376 455
#     4  12  28  47  73 109 149 197 251 312 379 459
#     4  12  26  46  75 106 150 195 244 316 380 440
#     4  11  24  45  73 102 141 192 248 301 376 455
#
# _framework density 20.984181
#
# number of rings (size 3 to 8) (size 9 to 14) (size 15 to 20)
#    0.000    0.400    6.000    2.400    5.600    0.000 
#    0.000    0.000    0.000    0.000    0.000    0.000 
#    0.000    0.000    0.000    0.000    0.000    0.000 
#
# Total GULP energy -111673.314550 kJ/mol
# GULP energy per Si atom -5583.665728 kJ/mol
# Density = 2.093642 g / cm^3
# Si number density = 20.984181 Si / 1000 Ang^3
#
#
#
# Elastic Constant Matrix: (Units=GPa)
#
#
# Indices 1 2 3 4 5 6 
#
# 1 95.2366 13.2847 25.3410 0.0002 0.0001 -0.0007
# 2 13.2847 89.6197 25.4752 0.0000 0.0000 0.0000
# 3 25.3410 25.4752 121.9299 0.0037 0.0018 -0.0026
# 4 0.0002 0.0000 0.0037 35.7093 0.0001 -0.0002
# 5 0.0001 0.0000 0.0018 0.0001 32.5388 -0.0003
# 6 -0.0007 0.0000 -0.0026 -0.0002 -0.0003 31.9015
#
#
#
# Elastic Compliance Matrix: (Units=1/GPa)
#
#
# Indices 1 2 3 4 5 6 
#
# 1 0.011209 -0.001062 -0.002108 0.000000 0.000000 0.000000
# 2 -0.001062 0.011964 -0.002279 0.000000 0.000000 0.000000
# 3 -0.002108 -0.002279 0.009116 -0.000001 0.000000 0.000001
# 4 0.000000 0.000000 -0.000001 0.028004 0.000000 0.000000
# 5 0.000000 0.000000 0.000000 0.000000 0.030733 0.000000
# 6 0.000000 0.000000 0.000001 0.000000 0.000000 0.031346
#
#
# Mechanical properties :
#
#
# Convention : Reuss Voigt Hill
#
# Bulk Modulus (GPa) = 46.74968 48.33201 47.54085
# Shear Modulus (GPa) = 35.61276 36.20894 35.91085
#
# Velocity S-wave (km/s) = 4.12409 4.15846 4.14131
# Velocity P-wave (km/s) = 6.70853 6.79262 6.75070
#
# Compressibility (1/GPa) = 0.02139052
#
# Stress axis : x y z
#
# Youngs Moduli (GPa) = 89.21261 83.58753 109.70223
#
# Poissons Ratio (x) = 0.08881 0.23121
# Poissons Ratio (y) = 0.09478 0.24999
# Poissons Ratio (z) = 0.18803 0.19048
#
# Static dielectric constant tensor:
#      x y z
#    x 1.790200 0.000000 0.000000 
#    y 0.000000 1.733440 0.000000 
#    z 0.000000 0.000000 1.786520 
# 
# From -- ./inp_files/9351.got.cif
#   From: 2010.05.17/outbox.cif.g08.bks.cpg/sg24_5_cif.got.tgz:9351.got - 2010.06.04 00:33:39.
