data_PCOD9336911
_publ_section_title
;
Structure prediction by ZEFSAII (Michael W. Deem and Ramdas Pophale) SiO2 
 PCOD9336911
Probable space group: I 21 21 21
;
_chemical_formula_sum "Si O2"
_cell_formula_units_Z 32
_cell_length_a 14.480526
_cell_length_b 19.225340
_cell_length_c 4.886270
_cell_angle_alpha 90.000000
_cell_angle_beta 90.000000
_cell_angle_gamma 90.000000
_cell_volume 1360.303539
_symmetry_space_group_name_H-M "I 21 21 21"
_symmetry_group_IT_number 24
_symmetry_cell_setting 'orthorhombic'
loop_
_space_group_symop_operation_xyz
x,y,z
-x,1/2-y,z
x,-y,1/2-z
1/2-x,y,-z
1/2+x,1/2+y,1/2+z
1/2-x,-y,1/2+z
1/2+x,1/2-y,-z
-x,1/2+y,1/2-z
loop_
_atom_site_type_symbol
_atom_site_label
_atom_site_fract_x
_atom_site_fract_y
_atom_site_fract_z
Si Si1 0.994222 0.453651 0.485773
Si Si2 0.187926 0.115476 0.234506
Si Si3 0.149914 0.344392 0.470546
Si Si4 0.390051 0.744712 0.459974
O O1 0.041109 0.500000 0.250000
O O2 0.901712 0.424133 0.346871
O O3 0.064439 0.392034 0.557937
O O4 0.973745 0.500000 0.750000
O O5 0.250000 0.129454 0.500000
O O6 0.151076 0.184601 0.081536
O O7 0.250000 0.078078 0.000000
O O8 0.250000 0.378610 0.500000
O O9 0.134825 0.317599 0.164984
O O10 0.148371 0.276643 0.665705
O O11 0.500000 0.750000 0.444259
#
# Coordination Sequence:
#
# PCOD9336911 Si02
#       4
#     8   8   8   8
#     4  12  28  49  73 103 146 196 247 292 346 421
#     4  12  26  46  75 108 144 186 236 296 362 431
#     4  12  26  46  73 109 142 186 236 297 363 428
#     4  12  24  44  75 107 147 182 225 298 373 430
#
# _framework density 23.524163000000001
#
# number of rings (size 3 to 8) (size 9 to 14) (size 15 to 20)
#    0.000    0.000    2.500    8.250    3.500    3.000 
#    0.000    0.000    0.000    0.000    0.000    0.000 
#    0.000    0.000    0.000    0.000    0.000    0.000 
#
# Total GULP energy -89730.634268 kJ/mol
# GULP energy per Si atom -5608.164642 kJ/mol
# Density = 2.347062 g / cm^3
# Si number density = 23.524163 Si / 1000 Ang^3
#
#
#
# Elastic Constant Matrix: (Units=GPa)
#
#
# Indices 1 2 3 4 5 6 
#
# 1 169.8034 34.9630 38.7201 0.0000 0.0000 0.0000
# 2 34.9630 68.6697 14.8468 0.0000 0.0000 0.0000
# 3 38.7201 14.8468 127.9501 0.0000 0.0000 0.0000
# 4 0.0000 0.0000 0.0000 38.5696 0.0000 0.0000
# 5 0.0000 0.0000 0.0000 0.0000 36.4669 0.0000
# 6 0.0000 0.0000 0.0000 0.0000 0.0000 0.9031
#
#
#
# Elastic Compliance Matrix: (Units=1/GPa)
#
#
# Indices 1 2 3 4 5 6 
#
# 1 0.006934 -0.003156 -0.001732 0.000000 0.000000 0.000000
# 2 -0.003156 0.016374 -0.000945 0.000000 0.000000 0.000000
# 3 -0.001732 -0.000945 0.008449 0.000000 0.000000 0.000000
# 4 0.000000 0.000000 0.000000 0.025927 0.000000 0.000000
# 5 0.000000 0.000000 0.000000 0.000000 0.027422 0.000000
# 6 0.000000 0.000000 0.000000 0.000000 0.000000 1.107268
#
#
# Mechanical properties :
#
#
# Convention : Reuss Voigt Hill
#
# Bulk Modulus (GPa) = 49.77345 60.38698 55.08022
# Shear Modulus (GPa) = 4.12972 33.71416 18.92194
#
# Velocity S-wave (km/s) = 1.32640 3.78983 2.83920
# Velocity P-wave (km/s) = 4.85285 6.69898 5.84921
#
# Compressibility (1/GPa) = 0.02009103
#
# Stress axis : x y z
#
# Youngs Moduli (GPa) = 144.21796 61.07399 118.35211
#
# Poissons Ratio (x) = 0.19274 0.20500
# Poissons Ratio (y) = 0.45514 0.11183
# Poissons Ratio (z) = 0.24981 0.05771
#
# Static dielectric constant tensor:
#      x y z
#    x 1.879680 0.000000 0.000000 
#    y 0.000000 1.907550 0.000000 
#    z 0.000000 0.000000 1.837400 
# 
# From -- ./inp_files/3075.got.cif
#   From: 2010.05.17/outbox.cif.g08.bks.cpg/sg24_2_cif.got.tgz:3075.got - 2010.06.04 00:33:39.
