data_PCOD9336069
_publ_section_title
;
Structure prediction by ZEFSAII (Michael W. Deem and Ramdas Pophale) SiO2 
 PCOD9336069
Probable space group: I 21 21 21
;
_chemical_formula_sum "Si O2"
_cell_formula_units_Z 40
_cell_length_a 18.546377
_cell_length_b 11.089779
_cell_length_c 9.517157
_cell_angle_alpha 90.000000
_cell_angle_beta 90.000000
_cell_angle_gamma 90.000000
_cell_volume 1957.443381
_symmetry_space_group_name_H-M "I 21 21 21"
_symmetry_group_IT_number 24
_symmetry_cell_setting 'orthorhombic'
loop_
_space_group_symop_operation_xyz
x,y,z
-x,1/2-y,z
x,-y,1/2-z
1/2-x,y,-z
1/2+x,1/2+y,1/2+z
1/2-x,-y,1/2+z
1/2+x,1/2-y,-z
-x,1/2+y,1/2-z
loop_
_atom_site_type_symbol
_atom_site_label
_atom_site_fract_x
_atom_site_fract_y
_atom_site_fract_z
Si Si1 0.903957 0.131408 0.181896
Si Si2 0.278685 0.796683 0.646902
Si Si3 0.371249 0.854499 0.235880
Si Si4 0.111334 0.000000 0.250000
Si Si5 0.932457 0.689482 0.056581
Si Si6 0.000000 0.750000 0.560161
O O1 0.823947 0.173719 0.134394
O O2 0.920194 0.218962 0.314677
O O3 0.905374 0.000000 0.250000
O O4 0.957553 0.161525 0.051006
O O5 0.250000 0.842900 0.500000
O O6 0.204729 0.791492 0.730410
O O7 0.335496 0.895250 0.700106
O O8 0.436996 0.808648 0.339330
O O9 0.366596 0.000000 0.250000
O O10 0.379084 0.826181 0.071016
O O11 0.062945 0.059127 0.370459
O O12 0.000000 0.750000 0.982199
#
# Coordination Sequence:
#
# PCOD9336069 Si02
#       6
#     8   8   8   4   8   4
#     4  11  27  45  70  96 142 189 226 274 339 418
#     4  11  22  45  69 101 133 177 236 283 342 403
#     4  12  26  44  73 103 140 172 232 294 348 398
#     4  10  24  38  70 102 136 184 224 286 338 404
#     4  11  25  42  68 103 139 176 233 276 344 407
#     4  12  26  44  70 106 134 184 230 280 354 410
#
# _framework density 20.434818
#
# number of rings (size 3 to 8) (size 9 to 14) (size 15 to 20)
#    0.000    0.800    5.000    1.200    7.000    2.400 
#    3.600    1.000    0.000    0.000    0.000    0.000 
#    0.000    0.000    0.000    0.000    0.000    0.000 
#
# Total GULP energy -111397.982118 kJ/mol
# GULP energy per Si atom -5569.899106 kJ/mol
# Density = 2.038831 g / cm^3
# Si number density = 20.434818 Si / 1000 Ang^3
#
#
#
# Elastic Constant Matrix: (Units=GPa)
#
#
# Indices 1 2 3 4 5 6 
#
# 1 122.4088 61.2323 21.0071 0.0000 0.0000 0.0000
# 2 61.2323 90.7639 31.8544 0.0000 0.0000 0.0000
# 3 21.0071 31.8544 90.2303 0.0000 0.0000 0.0000
# 4 0.0000 0.0000 0.0000 83.7445 0.0000 0.0000
# 5 0.0000 0.0000 0.0000 0.0000 13.0018 0.0000
# 6 0.0000 0.0000 0.0000 0.0000 0.0000 220.6975
#
#
#
# Elastic Compliance Matrix: (Units=1/GPa)
#
#
# Indices 1 2 3 4 5 6 
#
# 1 0.012331 -0.008345 0.000075 0.000000 0.000000 0.000000
# 2 -0.008345 0.018224 -0.004491 0.000000 0.000000 0.000000
# 3 0.000075 -0.004491 0.012651 0.000000 0.000000 0.000000
# 4 0.000000 0.000000 0.000000 0.011941 0.000000 0.000000
# 5 0.000000 0.000000 0.000000 0.000000 0.076913 0.000000
# 6 0.000000 0.000000 0.000000 0.000000 0.000000 0.004531
#
#
# Mechanical properties :
#
#
# Convention : Reuss Voigt Hill
#
# Bulk Modulus (GPa) = 56.54853 59.06561 57.80707
# Shear Modulus (GPa) = 29.76086 76.10938 52.93512
#
# Velocity S-wave (km/s) = 3.82039 6.10948 5.09516
# Velocity P-wave (km/s) = 6.86974 8.87327 7.93499
#
# Compressibility (1/GPa) = 0.01768393
#
# Stress axis : x y z
#
# Youngs Moduli (GPa) = 81.09656 54.87371 79.04787
#
# Poissons Ratio (x) = 0.45794 -0.00595
# Poissons Ratio (y) = 0.67678 0.35498
# Poissons Ratio (z) = -0.00611 0.24642
#
# Static dielectric constant tensor:
#      x y z
#    x 0.137340 0.000000 0.000000 
#    y 0.000000 1.716420 0.000000 
#    z 0.000000 0.000000 1.743750 
# 
# From -- ./inp_files/10726.got.cif
#   From: 2010.05.17/outbox.cif.g08.bks.cpg/sg24_6_cif.got.tgz:10726.got - 2010.06.04 00:33:39.
