data_PCOD9336039
_publ_section_title
;
Structure prediction by ZEFSAII (Michael W. Deem and Ramdas Pophale) SiO2 
 PCOD9336039
Probable space group: I 21 21 21
;
_chemical_formula_sum "Si O2"
_cell_formula_units_Z 24
_cell_length_a 10.975049
_cell_length_b 7.535789
_cell_length_c 12.398433
_cell_angle_alpha 90.000000
_cell_angle_beta 90.000000
_cell_angle_gamma 90.000000
_cell_volume 1025.420504
_symmetry_space_group_name_H-M "I 21 21 21"
_symmetry_group_IT_number 24
_symmetry_cell_setting 'orthorhombic'
loop_
_space_group_symop_operation_xyz
x,y,z
-x,1/2-y,z
x,-y,1/2-z
1/2-x,y,-z
1/2+x,1/2+y,1/2+z
1/2-x,-y,1/2+z
1/2+x,1/2-y,-z
-x,1/2+y,1/2-z
loop_
_atom_site_type_symbol
_atom_site_label
_atom_site_fract_x
_atom_site_fract_y
_atom_site_fract_z
Si Si1 0.750000 0.128463 0.000000
Si Si2 0.539301 0.045525 0.366503
Si Si3 0.858813 0.795221 0.279745
Si Si4 0.813665 0.500000 0.750000
O O1 0.688929 0.232262 0.901469
O O2 0.863787 0.014031 0.953886
O O3 0.500000 0.250000 0.376734
O O4 0.597364 0.000000 0.250000
O O5 0.408626 0.948010 0.346298
O O6 0.772417 0.660908 0.214302
O O7 0.000000 0.750000 0.268297
O O8 0.848284 0.000000 0.250000
#
# Coordination Sequence:
#
# PCOD9336039 Si02
#       4
#     4   8   8   4
#     4  12  26  42  74 112 140 182 254 296 360 428
#     4  10  23  46  76 101 142 196 238 297 361 435
#     4  12  27  49  73 106 148 191 241 305 359 430
#     4  10  24  48  76  96 144 200 236 286 370 428
#
# _framework density 23.405035000000002
#
# number of rings (size 3 to 8) (size 9 to 14) (size 15 to 20)
#    1.000    0.000    1.667    5.000    4.667    1.333 
#    6.000    1.667    0.000    0.000    0.000    0.000 
#    0.000    0.000    0.000    0.000    0.000    0.000 
#
# Total GULP energy -66983.684808 kJ/mol
# GULP energy per Si atom -5581.973734 kJ/mol
# Density = 2.335176 g / cm^3
# Si number density = 23.405035 Si / 1000 Ang^3
#
#
#
# Elastic Constant Matrix: (Units=GPa)
#
#
# Indices 1 2 3 4 5 6 
#
# 1 252.1709 67.8267 28.9150 0.0000 0.0000 0.0000
# 2 67.8267 87.5676 -12.1393 0.0000 0.0000 0.0000
# 3 28.9150 -12.1393 49.3777 0.0000 0.0000 0.0000
# 4 0.0000 0.0000 0.0000 18.2945 0.0000 0.0000
# 5 0.0000 0.0000 0.0000 0.0000 18.6904 0.0000
# 6 0.0000 0.0000 0.0000 0.0000 0.0000 42.4750
#
#
#
# Elastic Compliance Matrix: (Units=1/GPa)
#
#
# Indices 1 2 3 4 5 6 
#
# 1 0.005922 -0.005247 -0.004758 0.000000 0.000000 0.000000
# 2 -0.005247 0.016471 0.007122 0.000000 0.000000 0.000000
# 3 -0.004758 0.007122 0.024789 0.000000 0.000000 0.000000
# 4 0.000000 0.000000 0.000000 0.054661 0.000000 0.000000
# 5 0.000000 0.000000 0.000000 0.000000 0.053503 0.000000
# 6 0.000000 0.000000 0.000000 0.000000 0.000000 0.023543
#
#
# Mechanical properties :
#
#
# Convention : Reuss Voigt Hill
#
# Bulk Modulus (GPa) = 24.14496 62.03568 43.09032
# Shear Modulus (GPa) = 25.19372 36.19289 30.69331
#
# Velocity S-wave (km/s) = 3.28445 3.93666 3.62525
# Velocity P-wave (km/s) = 4.97212 6.87211 5.99783
#
# Compressibility (1/GPa) = 0.04141650
#
# Stress axis : x y z
#
# Youngs Moduli (GPa) = 168.85090 60.71262 40.34027
#
# Poissons Ratio (x) = 0.31855 0.19194
# Poissons Ratio (y) = 0.88594 -0.28730
# Poissons Ratio (z) = 0.80339 -0.43238
#
# Static dielectric constant tensor:
#      x y z
#    x 1.897230 0.000000 0.000000 
#    y 0.000000 1.962690 0.000000 
#    z 0.000000 0.000000 1.978790 
# 
# From -- ./inp_files/19036.got.cif
#   From: 2010.05.17/outbox.cif.g08.bks.cpg/sg24_10_cif.got.tgz:19036.got - 2010.06.04 00:33:39.
