data_PCOD9336002
_publ_section_title
;
Structure prediction by ZEFSAII (Michael W. Deem and Ramdas Pophale) SiO2 
 PCOD9336002
Probable space group: I 21 21 21
;
_chemical_formula_sum "Si O2"
_cell_formula_units_Z 40
_cell_length_a 16.536989
_cell_length_b 10.896296
_cell_length_c 8.697115
_cell_angle_alpha 90.000000
_cell_angle_beta 90.000000
_cell_angle_gamma 90.000000
_cell_volume 1567.149912
_symmetry_space_group_name_H-M "I 21 21 21"
_symmetry_group_IT_number 24
_symmetry_cell_setting 'orthorhombic'
loop_
_space_group_symop_operation_xyz
x,y,z
-x,1/2-y,z
x,-y,1/2-z
1/2-x,y,-z
1/2+x,1/2+y,1/2+z
1/2-x,-y,1/2+z
1/2+x,1/2-y,-z
-x,1/2+y,1/2-z
loop_
_atom_site_type_symbol
_atom_site_label
_atom_site_fract_x
_atom_site_fract_y
_atom_site_fract_z
Si Si1 0.028070 0.000000 0.750000
Si Si2 0.912775 0.697921 0.956004
Si Si3 0.585960 0.848608 0.476645
Si Si4 0.272552 0.708865 0.253223
Si Si5 0.622842 0.641786 0.706076
Si Si6 0.854308 0.000000 0.250000
O O1 0.083760 0.064665 0.622746
O O2 0.972966 0.903529 0.653862
O O3 0.836419 0.762820 0.879635
O O4 0.000000 0.750000 0.913896
O O5 0.908009 0.703504 0.137496
O O6 0.672763 0.839714 0.392637
O O7 0.581406 0.714468 0.562967
O O8 0.591749 0.949038 0.611575
O O9 0.218426 0.825917 0.301402
O O10 0.207135 0.608049 0.206562
O O11 0.610358 0.500000 0.750000
#
# Coordination Sequence:
#
# PCOD9336002 Si02
#       6
#     4   8   8   8   8   4
#     4  12  29  50  76 110 165 210 270 324 403 486
#     4  12  29  47  71 109 151 205 254 316 397 469
#     4  11  26  48  80 116 153 204 262 333 398 473
#     4  11  25  47  77 111 150 197 263 320 397 466
#     4  11  28  49  78 110 150 198 258 324 388 467
#     4  10  23  44  80 114 147 196 266 334 389 454
#
# _framework density 25.524042000000001
#
# number of rings (size 3 to 8) (size 9 to 14) (size 15 to 20)
#    0.000    0.800    2.000    3.600    9.800    8.000 
#    0.000    0.000    0.000    0.000    0.000    0.000 
#    0.000    0.000    0.000    0.000    0.000    0.000 
#
# Total GULP energy -111940.140749 kJ/mol
# GULP energy per Si atom -5597.007037 kJ/mol
# Density = 2.546595 g / cm^3
# Si number density = 25.524042 Si / 1000 Ang^3
#
#
#
# Elastic Constant Matrix: (Units=GPa)
#
#
# Indices 1 2 3 4 5 6 
#
# 1 81.4470 31.0812 40.5261 0.0000 0.0000 0.0000
# 2 31.0812 133.4415 62.1728 0.0000 0.0000 0.0000
# 3 40.5261 62.1728 152.6394 0.0000 0.0000 0.0000
# 4 0.0000 0.0000 0.0000 52.2211 0.0000 0.0000
# 5 0.0000 0.0000 0.0000 0.0000 45.7380 0.0000
# 6 0.0000 0.0000 0.0000 0.0000 0.0000 28.3901
#
#
#
# Elastic Compliance Matrix: (Units=1/GPa)
#
#
# Indices 1 2 3 4 5 6 
#
# 1 0.014551 -0.001962 -0.003064 0.000000 0.000000 0.000000
# 2 -0.001962 0.009514 -0.003354 0.000000 0.000000 0.000000
# 3 -0.003064 -0.003354 0.008731 0.000000 0.000000 0.000000
# 4 0.000000 0.000000 0.000000 0.019149 0.000000 0.000000
# 5 0.000000 0.000000 0.000000 0.000000 0.021864 0.000000
# 6 0.000000 0.000000 0.000000 0.000000 0.000000 0.035224
#
#
# Mechanical properties :
#
#
# Convention : Reuss Voigt Hill
#
# Bulk Modulus (GPa) = 62.36091 70.56534 66.46312
# Shear Modulus (GPa) = 38.12767 40.85303 39.49035
#
# Velocity S-wave (km/s) = 3.86916 4.00505 3.93769
# Velocity P-wave (km/s) = 6.66677 7.00670 6.83885
#
# Compressibility (1/GPa) = 0.01603569
#
# Stress axis : x y z
#
# Youngs Moduli (GPa) = 68.72263 105.11256 114.53106
#
# Poissons Ratio (x) = 0.20618 0.35097
# Poissons Ratio (y) = 0.13480 0.38417
# Poissons Ratio (z) = 0.21060 0.35258
#
# Static dielectric constant tensor:
#      x y z
#    x 1.984980 0.000000 0.000000 
#    y 0.000000 2.159400 0.000000 
#    z 0.000000 0.000000 1.990580 
# 
# From -- ./inp_files/13871.got.cif
#   From: 2010.05.17/outbox.cif.g08.bks.cpg/sg24_7_cif.got.tgz:13871.got - 2010.06.04 00:33:39.
