data_PCOD9336372
_publ_section_title
;
Structure prediction by ZEFSAII (Michael W. Deem and Ramdas Pophale) SiO2 
 PCOD9336372
Probable space group: I 21 21 21
;
_chemical_formula_sum "Si O2"
_cell_formula_units_Z 48
_cell_length_a 14.308782
_cell_length_b 9.878000
_cell_length_c 19.643690
_cell_angle_alpha 90.000000
_cell_angle_beta 90.000000
_cell_angle_gamma 90.000000
_cell_volume 2776.481351
_symmetry_space_group_name_H-M "I 21 21 21"
_symmetry_group_IT_number 24
_symmetry_cell_setting 'orthorhombic'
loop_
_space_group_symop_operation_xyz
x,y,z
-x,1/2-y,z
x,-y,1/2-z
1/2-x,y,-z
1/2+x,1/2+y,1/2+z
1/2-x,-y,1/2+z
1/2+x,1/2-y,-z
-x,1/2+y,1/2-z
loop_
_atom_site_type_symbol
_atom_site_label
_atom_site_fract_x
_atom_site_fract_y
_atom_site_fract_z
Si Si1 0.408587 0.340501 0.267824
Si Si2 0.208339 0.742387 0.645673
Si Si3 0.104711 0.042272 0.946598
Si Si4 0.619178 0.041700 0.041404
Si Si5 0.108271 0.236987 0.072523
Si Si6 0.390480 0.260552 0.425516
O O1 0.500000 0.250000 0.250720
O O2 0.424054 0.500000 0.250000
O O3 0.324533 0.285978 0.221484
O O4 0.387357 0.309281 0.346862
O O5 0.150575 0.864341 0.610957
O O6 0.176101 0.612945 0.601307
O O7 0.317102 0.768395 0.632403
O O8 0.991593 0.045944 0.938814
O O9 0.143840 0.890871 0.938691
O O10 0.122331 0.111610 0.020026
O O11 0.647684 0.886739 0.032401
O O12 0.629661 0.132739 0.974735
O O13 0.000000 0.250000 0.092775
O O14 0.500000 0.250000 0.443419
#
# Coordination Sequence:
#
# PCOD9336372 Si02
#       6
#     8   8   8   8   8   8
#     4  11  22  33  51  79 112 140 164 198 249 319
#     4  11  19  30  49  72 102 136 172 207 247 303
#     4   9  17  29  49  75 106 132 158 205 256 312
#     4   9  15  29  48  73 103 134 160 203 254 309
#     4   9  19  34  51  71  96 131 180 216 253 291
#     4   9  18  29  46  76 109 134 160 190 256 316
#
# _framework density 17.288067999999999
#
# number of rings (size 3 to 8) (size 9 to 14) (size 15 to 20)
#    0.000    2.333    1.667    4.500    4.667    0.000 
#    0.000    3.333    0.000    0.000    4.333    0.000 
#    0.000    0.000    0.000    0.000    0.000    0.000 
#
# Total GULP energy -133774.858461 kJ/mol
# GULP energy per Si atom -5573.952436 kJ/mol
# Density = 1.724872 g / cm^3
# Si number density = 17.288068 Si / 1000 Ang^3
#
#
#
# Elastic Constant Matrix: (Units=GPa)
#
#
# Indices 1 2 3 4 5 6 
#
# 1 63.9041 28.2461 29.1020 0.0000 0.0000 0.0000
# 2 28.2461 154.8303 24.7024 0.0000 0.0000 0.0000
# 3 29.1020 24.7024 26.2784 0.0000 0.0000 0.0000
# 4 0.0000 0.0000 0.0000 6.5710 0.0000 0.0000
# 5 0.0000 0.0000 0.0000 0.0000 18.9897 0.0000
# 6 0.0000 0.0000 0.0000 0.0000 0.0000 -2.0577
#
#
#
# Elastic Compliance Matrix: (Units=1/GPa)
#
#
# Indices 1 2 3 4 5 6 
#
# 1 0.031576 -0.000213 -0.034769 0.000000 0.000000 0.000000
# 2 -0.000213 0.007600 -0.006908 0.000000 0.000000 0.000000
# 3 -0.034769 -0.006908 0.083052 0.000000 0.000000 0.000000
# 4 0.000000 0.000000 0.000000 0.152185 0.000000 0.000000
# 5 0.000000 0.000000 0.000000 0.000000 0.052660 0.000000
# 6 0.000000 0.000000 0.000000 0.000000 0.000000 -0.485983
#
#
# Mechanical properties :
#
#
# Convention : Reuss Voigt Hill
#
# Bulk Modulus (GPa) = 26.00866 45.45710 35.73288
# Shear Modulus (GPa) = -80.23818 15.56475 -32.33671
#
# Velocity S-wave (km/s) = -6.82006 3.00378 -4.32958
# Velocity P-wave (km/s) = 6.85133 6.19526 2.06874
#
# Compressibility (1/GPa) = 0.03844873
#
# Stress axis : x y z
#
# Youngs Moduli (GPa) = 31.66915 131.58429 12.04065
#
# Poissons Ratio (x) = 0.02808 0.41864
# Poissons Ratio (y) = 0.00676 0.08317
# Poissons Ratio (z) = 1.10110 0.90893
#
# Static dielectric constant tensor:
#      x y z
#    x 1.602620 0.000000 0.000000 
#    y 0.000000 1.638780 0.000000 
#    z 0.000000 0.000000 1.570910 
# 
# From -- ./inp_files/13242.got.cif
#   From: 2010.05.17/outbox.cif.g08.bks.cpg/sg24_7_cif.got.tgz:13242.got - 2010.06.04 00:33:39.
