data_PCOD9336921
_publ_section_title
;
Structure prediction by ZEFSAII (Michael W. Deem and Ramdas Pophale) SiO2 
 PCOD9336921
Probable space group: I 21 21 21
;
_chemical_formula_sum "Si O2"
_cell_formula_units_Z 36
_cell_length_a 5.401373
_cell_length_b 20.646426
_cell_length_c 13.212851
_cell_angle_alpha 90.000000
_cell_angle_beta 90.000000
_cell_angle_gamma 90.000000
_cell_volume 1473.484564
_symmetry_space_group_name_H-M "I 21 21 21"
_symmetry_group_IT_number 24
_symmetry_cell_setting 'orthorhombic'
loop_
_space_group_symop_operation_xyz
x,y,z
-x,1/2-y,z
x,-y,1/2-z
1/2-x,y,-z
1/2+x,1/2+y,1/2+z
1/2-x,-y,1/2+z
1/2+x,1/2-y,-z
-x,1/2+y,1/2-z
loop_
_atom_site_type_symbol
_atom_site_label
_atom_site_fract_x
_atom_site_fract_y
_atom_site_fract_z
Si Si1 0.750000 0.398282 0.500000
Si Si2 0.000000 0.250000 0.675667
Si Si3 0.250000 0.787973 0.500000
Si Si4 0.386364 0.008459 0.853913
Si Si5 0.250000 0.313413 0.500000
Si Si6 0.750000 0.082460 0.000000
Si Si7 0.908177 0.365383 0.831848
O O1 0.732944 0.444465 0.598339
O O2 0.497438 0.356956 0.500518
O O3 0.221104 0.268956 0.599364
O O4 0.042598 0.185620 0.743072
O O5 0.500000 0.750000 0.478774
O O6 0.201320 0.831181 0.401724
O O7 0.541865 0.000000 0.750000
O O8 0.546309 0.037497 0.945884
O O9 0.188986 0.062092 0.816746
O O10 0.865384 0.124373 0.909453
#
# Coordination Sequence:
#
# PCOD9336921 Si02
#       7
#     4   4   4   8   4   4   8
#     4  12  26  56  83 117 169 215 286 352 416 508
#     4  12  30  54  84 118 172 224 298 340 448 506
#     4  12  24  46  75 115 162 199 261 330 404 500
#     4  12  27  47  81 119 165 220 278 355 435 512
#     4  12  30  58  79 117 163 229 286 360 398 516
#     4  12  24  50  75 125 168 207 289 344 434 520
#     4  12  26  48  79 121 163 224 266 357 424 516
#
# _framework density 24.431878999999999
#
# number of rings (size 3 to 8) (size 9 to 14) (size 15 to 20)
#    0.000    0.000    5.556    3.333    3.111    0.889 
#   10.000    0.000    0.000    0.000    0.000    0.000 
#    0.000    0.000    0.000    0.000    0.000    0.000 
#
# Total GULP energy -100672.932203 kJ/mol
# GULP energy per Si atom -5592.940678 kJ/mol
# Density = 2.437627 g / cm^3
# Si number density = 24.431879 Si / 1000 Ang^3
#
#
#
# Elastic Constant Matrix: (Units=GPa)
#
#
# Indices 1 2 3 4 5 6 
#
# 1 140.3671 80.8202 53.6033 0.0000 0.0000 0.0000
# 2 80.8202 150.7214 68.4381 0.0000 0.0000 0.0000
# 3 53.6033 68.4381 183.7378 0.0000 0.0000 0.0000
# 4 0.0000 0.0000 0.0000 47.2990 0.0000 0.0000
# 5 0.0000 0.0000 0.0000 0.0000 37.3131 0.0000
# 6 0.0000 0.0000 0.0000 0.0000 0.0000 21.6062
#
#
#
# Elastic Compliance Matrix: (Units=1/GPa)
#
#
# Indices 1 2 3 4 5 6 
#
# 1 0.010509 -0.005107 -0.001164 0.000000 0.000000 0.000000
# 2 -0.005107 0.010467 -0.002409 0.000000 0.000000 0.000000
# 3 -0.001164 -0.002409 0.006679 0.000000 0.000000 0.000000
# 4 0.000000 0.000000 0.000000 0.021142 0.000000 0.000000
# 5 0.000000 0.000000 0.000000 0.000000 0.026800 0.000000
# 6 0.000000 0.000000 0.000000 0.000000 0.000000 0.046283
#
#
# Mechanical properties :
#
#
# Convention : Reuss Voigt Hill
#
# Bulk Modulus (GPa) = 97.12022 97.83884 97.47953
# Shear Modulus (GPa) = 35.04564 39.37465 37.21015
#
# Velocity S-wave (km/s) = 3.79149 4.01884 3.90682
# Velocity P-wave (km/s) = 7.68146 7.85285 7.76763
#
# Compressibility (1/GPa) = 0.01029652
#
# Stress axis : x y z
#
# Youngs Moduli (GPa) = 95.15752 95.53959 149.71669
#
# Poissons Ratio (x) = 0.48789 0.17423
# Poissons Ratio (y) = 0.48594 0.36065
# Poissons Ratio (z) = 0.11074 0.23014
#
# Static dielectric constant tensor:
#      x y z
#    x 1.953560 0.000000 0.000000 
#    y 0.000000 2.078380 0.000000 
#    z 0.000000 0.000000 1.966470 
# 
# From -- ./inp_files/23665.got.cif
#   From: 2010.05.17/outbox.cif.g08.bks.cpg/sg24_12_cif.got.tgz:23665.got - 2010.06.04 00:33:39.
