data_PCOD9336727
_publ_section_title
;
Structure prediction by ZEFSAII (Michael W. Deem and Ramdas Pophale) SiO2 
 PCOD9336727
Probable space group: I 21 21 21
;
_chemical_formula_sum "Si O2"
_cell_formula_units_Z 40
_cell_length_a 9.226982
_cell_length_b 11.619448
_cell_length_c 16.353519
_cell_angle_alpha 90.000000
_cell_angle_beta 90.000000
_cell_angle_gamma 90.000000
_cell_volume 1753.300634
_symmetry_space_group_name_H-M "I 21 21 21"
_symmetry_group_IT_number 24
_symmetry_cell_setting 'orthorhombic'
loop_
_space_group_symop_operation_xyz
x,y,z
-x,1/2-y,z
x,-y,1/2-z
1/2-x,y,-z
1/2+x,1/2+y,1/2+z
1/2-x,-y,1/2+z
1/2+x,1/2-y,-z
-x,1/2+y,1/2-z
loop_
_atom_site_type_symbol
_atom_site_label
_atom_site_fract_x
_atom_site_fract_y
_atom_site_fract_z
Si Si1 0.865572 0.540006 0.884288
Si Si2 0.247380 0.807241 0.306809
Si Si3 0.000000 0.250000 0.716345
Si Si4 0.886428 0.830416 0.452128
Si Si5 0.500000 0.250000 0.678132
Si Si6 0.033860 0.051582 0.433928
O O1 0.833365 0.424598 0.831252
O O2 0.701525 0.570762 0.911191
O O3 0.939246 0.643586 0.835340
O O4 0.959775 0.532271 0.967767
O O5 0.365239 0.717686 0.272982
O O6 0.180965 0.758770 0.389006
O O7 0.120468 0.806791 0.238230
O O8 0.750000 0.879676 0.500000
O O9 0.000000 0.750000 0.501901
O O10 0.967516 0.931658 0.404992
O O11 0.551227 0.151752 0.613725
#
# Coordination Sequence:
#
# PCOD9336727 Si02
#       6
#     8   8   4   8   4   8
#     4  11  24  50  74 108 154 213 249 333 398 478
#     4  12  26  47  77 110 155 195 262 330 406 464
#     4  12  27  44  77 108 150 202 270 314 397 476
#     4  12  26  47  76 116 152 209 263 328 401 497
#     4  12  25  50  77 114 148 212 258 332 407 482
#     4  11  25  47  78 106 160 204 261 318 407 481
#
# _framework density 22.814112999999999
#
# number of rings (size 3 to 8) (size 9 to 14) (size 15 to 20)
#    0.000    0.400    5.000    2.400    4.200    4.000 
#    7.200    0.000    0.000    0.000    0.000    0.000 
#    0.000    0.000    0.000    0.000    0.000    0.000 
#
# Total GULP energy -111536.229487 kJ/mol
# GULP energy per Si atom -5576.811474 kJ/mol
# Density = 2.276219 g / cm^3
# Si number density = 22.814113 Si / 1000 Ang^3
#
#
#
# Elastic Constant Matrix: (Units=GPa)
#
#
# Indices 1 2 3 4 5 6 
#
# 1 85.7309 42.1856 44.7230 0.0000 0.0000 0.0000
# 2 42.1856 136.3777 39.0673 0.0000 0.0000 0.0000
# 3 44.7230 39.0673 87.3073 0.0000 0.0000 0.0000
# 4 0.0000 0.0000 0.0000 25.6944 0.0000 0.0000
# 5 0.0000 0.0000 0.0000 0.0000 34.7004 0.0000
# 6 0.0000 0.0000 0.0000 0.0000 0.0000 45.2226
#
#
#
# Elastic Compliance Matrix: (Units=1/GPa)
#
#
# Indices 1 2 3 4 5 6 
#
# 1 0.017040 -0.003178 -0.007307 0.000000 0.000000 0.000000
# 2 -0.003178 0.009003 -0.002401 0.000000 0.000000 0.000000
# 3 -0.007307 -0.002401 0.016271 0.000000 0.000000 0.000000
# 4 0.000000 0.000000 0.000000 0.038919 0.000000 0.000000
# 5 0.000000 0.000000 0.000000 0.000000 0.028818 0.000000
# 6 0.000000 0.000000 0.000000 0.000000 0.000000 0.022113
#
#
# Mechanical properties :
#
#
# Convention : Reuss Voigt Hill
#
# Bulk Modulus (GPa) = 60.44713 62.37418 61.41065
# Shear Modulus (GPa) = 30.59059 33.35282 31.97171
#
# Velocity S-wave (km/s) = 3.66575 3.82768 3.74759
# Velocity P-wave (km/s) = 6.66858 6.85086 6.76034
#
# Compressibility (1/GPa) = 0.01654338
#
# Stress axis : x y z
#
# Youngs Moduli (GPa) = 58.68644 111.06999 61.45939
#
# Poissons Ratio (x) = 0.35296 0.44906
# Poissons Ratio (y) = 0.18649 0.14756
# Poissons Ratio (z) = 0.42880 0.26667
#
# Static dielectric constant tensor:
#      x y z
#    x 1.940140 0.000000 0.000000 
#    y 0.000000 1.886850 0.000000 
#    z 0.000000 0.000000 1.935310 
# 
# From -- ./inp_files/29281.got.cif
#   From: 2010.05.17/outbox.cif.g08.bks.cpg/sg24_15_cif.got.tgz:29281.got - 2010.06.04 00:33:39.
