data_PCOD9336297
_publ_section_title
;
Structure prediction by ZEFSAII (Michael W. Deem and Ramdas Pophale) SiO2 
 PCOD9336297
Probable space group: I 21 21 21
;
_chemical_formula_sum "Si O2"
_cell_formula_units_Z 40
_cell_length_a 21.794253
_cell_length_b 5.685267
_cell_length_c 14.994177
_cell_angle_alpha 90.000000
_cell_angle_beta 90.000000
_cell_angle_gamma 90.000000
_cell_volume 1857.870705
_symmetry_space_group_name_H-M "I 21 21 21"
_symmetry_group_IT_number 24
_symmetry_cell_setting 'orthorhombic'
loop_
_space_group_symop_operation_xyz
x,y,z
-x,1/2-y,z
x,-y,1/2-z
1/2-x,y,-z
1/2+x,1/2+y,1/2+z
1/2-x,-y,1/2+z
1/2+x,1/2-y,-z
-x,1/2+y,1/2-z
loop_
_atom_site_type_symbol
_atom_site_label
_atom_site_fract_x
_atom_site_fract_y
_atom_site_fract_z
Si Si1 0.704794 0.717726 0.578611
Si Si2 0.000000 0.250000 0.526740
Si Si3 0.917054 0.585968 0.650248
Si Si4 0.701834 0.672310 0.110589
Si Si5 0.744074 0.000000 0.750000
Si Si6 0.108409 0.468304 0.977061
O O1 0.750000 0.812071 0.500000
O O2 0.732902 0.455092 0.589769
O O3 0.709537 0.860012 0.670887
O O4 0.638088 0.764031 0.537544
O O5 0.958493 0.424046 0.586683
O O6 0.051207 0.403239 0.476866
O O7 0.931811 0.500000 0.750000
O O8 0.845464 0.531956 0.633578
O O9 0.919289 0.853710 0.614355
O O10 0.713897 0.818814 0.198349
O O11 0.662167 0.844326 0.046482
#
# Coordination Sequence:
#
# PCOD9336297 Si02
#       6
#     8   4   8   8   4   8
#     4  12  24  40  66  98 136 180 224 285 354 417
#     4  10  26  38  62  92 126 184 234 278 334 406
#     4  11  22  37  60  89 131 180 230 281 328 403
#     4  11  22  39  61  97 135 178 224 277 345 417
#     4  12  24  40  62 104 138 174 228 280 356 424
#     4  11  24  43  63  94 139 183 232 282 346 413
#
# _framework density 21.530024000000001
#
# number of rings (size 3 to 8) (size 9 to 14) (size 15 to 20)
#    0.000    0.800    4.000    3.600    5.600    1.600 
#    0.000    0.000    0.000    0.000    5.200    0.000 
#    0.000    0.000    0.000    0.000    0.000    0.000 
#
# Total GULP energy -111466.356565 kJ/mol
# GULP energy per Si atom -5573.317828 kJ/mol
# Density = 2.148102 g / cm^3
# Si number density = 21.530024 Si / 1000 Ang^3
#
#
#
# Elastic Constant Matrix: (Units=GPa)
#
#
# Indices 1 2 3 4 5 6 
#
# 1 110.0963 50.6561 23.9172 0.0000 0.0000 0.0000
# 2 50.6561 91.7429 26.5275 0.0000 0.0000 0.0000
# 3 23.9172 26.5275 78.4869 0.0000 0.0000 0.0000
# 4 0.0000 0.0000 0.0000 43.9915 0.0000 0.0000
# 5 0.0000 0.0000 0.0000 0.0000 16.2431 0.0000
# 6 0.0000 0.0000 0.0000 0.0000 0.0000 48.7637
#
#
#
# Elastic Compliance Matrix: (Units=1/GPa)
#
#
# Indices 1 2 3 4 5 6 
#
# 1 0.012359 -0.006356 -0.001618 0.000000 0.000000 0.000000
# 2 -0.006356 0.015350 -0.003251 0.000000 0.000000 0.000000
# 3 -0.001618 -0.003251 0.014333 0.000000 0.000000 0.000000
# 4 0.000000 0.000000 0.000000 0.022732 0.000000 0.000000
# 5 0.000000 0.000000 0.000000 0.000000 0.061565 0.000000
# 6 0.000000 0.000000 0.000000 0.000000 0.000000 0.020507
#
#
# Mechanical properties :
#
#
# Convention : Reuss Voigt Hill
#
# Bulk Modulus (GPa) = 51.04328 53.61420 52.32874
# Shear Modulus (GPa) = 28.43728 33.74800 31.09264
#
# Velocity S-wave (km/s) = 3.63825 3.96344 3.80432
# Velocity P-wave (km/s) = 6.43495 6.77505 6.60719
#
# Compressibility (1/GPa) = 0.01959122
#
# Stress axis : x y z
#
# Youngs Moduli (GPa) = 80.91295 65.14791 69.77013
#
# Poissons Ratio (x) = 0.41410 0.11288
# Poissons Ratio (y) = 0.51430 0.22683
# Poissons Ratio (z) = 0.13090 0.21180
#
# Static dielectric constant tensor:
#      x y z
#    x 1.807150 0.000000 0.000000 
#    y 0.000000 1.885270 0.000000 
#    z 0.000000 0.000000 1.811310 
# 
# From -- ./inp_files/27721.got.cif
#   From: 2010.05.17/outbox.cif.g08.bks.cpg/sg24_14_cif.got.tgz:27721.got - 2010.06.04 00:33:39.
