data_PCOD9336990
_publ_section_title
;
Structure prediction by ZEFSAII (Michael W. Deem and Ramdas Pophale) SiO2 
 PCOD9336990
Probable space group: I 21 21 21
;
_chemical_formula_sum "Si O2"
_cell_formula_units_Z 24
_cell_length_a 4.717083
_cell_length_b 15.848363
_cell_length_c 11.480722
_cell_angle_alpha 90.000000
_cell_angle_beta 90.000000
_cell_angle_gamma 90.000000
_cell_volume 858.276317
_symmetry_space_group_name_H-M "I 21 21 21"
_symmetry_group_IT_number 24
_symmetry_cell_setting 'orthorhombic'
loop_
_space_group_symop_operation_xyz
x,y,z
-x,1/2-y,z
x,-y,1/2-z
1/2-x,y,-z
1/2+x,1/2+y,1/2+z
1/2-x,-y,1/2+z
1/2+x,1/2-y,-z
-x,1/2+y,1/2-z
loop_
_atom_site_type_symbol
_atom_site_label
_atom_site_fract_x
_atom_site_fract_y
_atom_site_fract_z
Si Si1 0.250000 0.972646 0.500000
Si Si2 0.142093 0.576110 0.816618
Si Si3 0.352893 0.330048 0.878566
Si Si4 0.250000 0.692098 0.000000
O O1 0.415880 0.032033 0.404151
O O2 0.458109 0.909420 0.572493
O O3 0.287294 0.500000 0.750000
O O4 0.098567 0.637510 0.705732
O O5 0.344823 0.630896 0.897481
O O6 0.500000 0.250000 0.817531
O O7 0.250000 0.293409 0.000000
O O8 0.500000 0.750000 0.044071
#
# Coordination Sequence:
#
# PCOD9336990 Si02
#       4
#     4   8   8   4
#     4  12  27  52  81 124 178 218 290 360 431 530
#     4  12  27  50  82 120 163 222 284 353 430 519
#     4  12  26  52  83 126 165 222 282 354 447 519
#     4  12  29  54  79 122 172 230 292 360 443 528
#
# _framework density 27.963023
#
# number of rings (size 3 to 8) (size 9 to 14) (size 15 to 20)
#    0.000    0.000    5.000    4.000    0.000   10.667 
#    0.000    0.000    0.000    0.000    0.000    0.000 
#    0.000    0.000    0.000    0.000    0.000    0.000 
#
# Total GULP energy -66929.023978 kJ/mol
# GULP energy per Si atom -5577.418665 kJ/mol
# Density = 2.789938 g / cm^3
# Si number density = 27.963023 Si / 1000 Ang^3
#
#
#
# Elastic Constant Matrix: (Units=GPa)
#
#
# Indices 1 2 3 4 5 6 
#
# 1 105.0397 76.0115 54.1182 0.0000 0.0000 0.0000
# 2 76.0115 163.6865 85.8259 0.0000 0.0000 0.0000
# 3 54.1182 85.8259 168.6800 0.0000 0.0000 0.0000
# 4 0.0000 0.0000 0.0000 -20.9281 0.0000 0.0000
# 5 0.0000 0.0000 0.0000 0.0000 54.1695 0.0000
# 6 0.0000 0.0000 0.0000 0.0000 0.0000 49.5077
#
#
#
# Elastic Compliance Matrix: (Units=1/GPa)
#
#
# Indices 1 2 3 4 5 6 
#
# 1 0.014685 -0.005931 -0.001694 0.000000 0.000000 0.000000
# 2 -0.005931 0.010728 -0.003555 0.000000 0.000000 0.000000
# 3 -0.001694 -0.003555 0.008281 0.000000 0.000000 0.000000
# 4 0.000000 0.000000 0.000000 -0.047783 0.000000 0.000000
# 5 0.000000 0.000000 0.000000 0.000000 0.018461 0.000000
# 6 0.000000 0.000000 0.000000 0.000000 0.000000 0.020199
#
#
# Mechanical properties :
#
#
# Convention : Reuss Voigt Hill
#
# Bulk Modulus (GPa) = 88.23826 96.59082 92.41454
# Shear Modulus (GPa) = 98.60310 31.31321 64.95816
#
# Velocity S-wave (km/s) = 5.94462 3.34998 4.82498
# Velocity P-wave (km/s) = 8.87366 7.04134 8.01007
#
# Compressibility (1/GPa) = 0.01133295
#
# Stress axis : x y z
#
# Youngs Moduli (GPa) = 68.09722 93.21575 120.76194
#
# Poissons Ratio (x) = 0.55289 0.20451
# Poissons Ratio (y) = 0.40391 0.42936
# Poissons Ratio (z) = 0.11532 0.33142
#
# Static dielectric constant tensor:
#      x y z
#    x 2.253520 0.000000 0.000000 
#    y 0.000000 2.169030 0.000000 
#    z 0.000000 0.000000 2.205050 
# 
# From -- ./inp_files/17258.got.cif
#   From: 2010.05.17/outbox.cif.g08.bks.cpg/sg24_9_cif.got.tgz:17258.got - 2010.06.04 00:33:39.
