data_PCOD9336150
_publ_section_title
;
Structure prediction by ZEFSAII (Michael W. Deem and Ramdas Pophale) SiO2 
 PCOD9336150
Probable space group: I 21 21 21
;
_chemical_formula_sum "Si O2"
_cell_formula_units_Z 44
_cell_length_a 17.901414
_cell_length_b 8.023693
_cell_length_c 13.755612
_cell_angle_alpha 90.000000
_cell_angle_beta 90.000000
_cell_angle_gamma 90.000000
_cell_volume 1975.793522
_symmetry_space_group_name_H-M "I 21 21 21"
_symmetry_group_IT_number 24
_symmetry_cell_setting 'orthorhombic'
loop_
_space_group_symop_operation_xyz
x,y,z
-x,1/2-y,z
x,-y,1/2-z
1/2-x,y,-z
1/2+x,1/2+y,1/2+z
1/2-x,-y,1/2+z
1/2+x,1/2-y,-z
-x,1/2+y,1/2-z
loop_
_atom_site_type_symbol
_atom_site_label
_atom_site_fract_x
_atom_site_fract_y
_atom_site_fract_z
Si Si1 0.885332 0.853681 0.675263
Si Si2 0.576058 0.898578 0.552755
Si Si3 0.732219 0.377771 0.612621
Si Si4 0.566593 0.524081 0.637217
Si Si5 0.856887 0.500000 0.750000
Si Si6 0.766452 0.996656 0.114421
O O1 0.915887 0.876871 0.564514
O O2 0.899647 0.671435 0.722689
O O3 0.909759 0.000000 0.750000
O O4 0.795974 0.884320 0.659311
O O5 0.572720 0.713681 0.599181
O O6 0.506822 0.022136 0.574941
O O7 0.646835 0.964374 0.612900
O O8 0.750000 0.377261 0.500000
O O9 0.647848 0.441448 0.625787
O O10 0.798775 0.478442 0.661706
O O11 0.741002 0.190770 0.651251
O O12 0.546704 0.500000 0.750000
O O13 0.750000 0.997082 0.000000
#
# Coordination Sequence:
#
# PCOD9336150 Si02
#       6
#     8   8   8   8   4   8
#     4  11  22  42  73 106 143 189 243 298 366 435
#     4  10  24  44  67  96 150 190 234 305 366 437
#     4  11  22  39  66 105 139 173 236 297 362 433
#     4  11  24  43  67  98 135 188 240 293 369 443
#     4  12  22  38  72 108 136 182 240 302 354 440
#     4   9  20  38  63  98 136 179 229 294 352 420
#
# _framework density 22.269532000000002
#
# number of rings (size 3 to 8) (size 9 to 14) (size 15 to 20)
#    0.000    1.455    2.727    2.182    0.000    5.818 
#    0.000    0.000   18.000    0.000    0.000    0.000 
#    0.000    0.000    0.000    0.000    0.000    0.000 
#
# Total GULP energy -122626.157409 kJ/mol
# GULP energy per Si atom -5573.916246 kJ/mol
# Density = 2.221885 g / cm^3
# Si number density = 22.269532 Si / 1000 Ang^3
#
#
#
# Elastic Constant Matrix: (Units=GPa)
#
#
# Indices 1 2 3 4 5 6 
#
# 1 32.3793 -4.3729 36.0882 0.0000 0.0000 0.0000
# 2 -4.3729 105.5100 51.2630 0.0000 0.0000 0.0000
# 3 36.0882 51.2630 177.4173 0.0000 0.0000 0.0000
# 4 0.0000 0.0000 0.0000 36.5876 0.0000 0.0000
# 5 0.0000 0.0000 0.0000 0.0000 17.6627 0.0000
# 6 0.0000 0.0000 0.0000 0.0000 0.0000 21.4967
#
#
#
# Elastic Compliance Matrix: (Units=1/GPa)
#
#
# Indices 1 2 3 4 5 6 
#
# 1 0.044202 0.007213 -0.011075 0.000000 0.000000 0.000000
# 2 0.007213 0.012203 -0.004993 0.000000 0.000000 0.000000
# 3 -0.011075 -0.004993 0.009332 0.000000 0.000000 0.000000
# 4 0.000000 0.000000 0.000000 0.027332 0.000000 0.000000
# 5 0.000000 0.000000 0.000000 0.000000 0.056616 0.000000
# 6 0.000000 0.000000 0.000000 0.000000 0.000000 0.046519
#
#
# Mechanical properties :
#
#
# Convention : Reuss Voigt Hill
#
# Bulk Modulus (GPa) = 20.82212 53.47369 37.14790
# Shear Modulus (GPa) = 21.74650 30.63797 26.19224
#
# Velocity S-wave (km/s) = 3.12831 3.71317 3.43322
# Velocity P-wave (km/s) = 4.73485 6.51519 5.69502
#
# Compressibility (1/GPa) = 0.04802585
#
# Stress axis : x y z
#
# Youngs Moduli (GPa) = 22.62354 81.94970 107.15960
#
# Poissons Ratio (x) = -0.59110 1.18680
# Poissons Ratio (y) = -0.16318 0.53505
# Poissons Ratio (z) = 0.25056 0.40917
#
# Static dielectric constant tensor:
#      x y z
#    x 2.232250 0.000000 0.000000 
#    y 0.000000 2.014910 0.000000 
#    z 0.000000 0.000000 1.829310 
# 
# From -- ./inp_files/26959.got.cif
#   From: 2010.05.17/outbox.cif.g08.bks.cpg/sg24_14_cif.got.tgz:26959.got - 2010.06.04 00:33:39.
