data_PCOD9336639
_publ_section_title
;
Structure prediction by ZEFSAII (Michael W. Deem and Ramdas Pophale) SiO2 
 PCOD9336639
Probable space group: I 21 21 21
;
_chemical_formula_sum "Si O2"
_cell_formula_units_Z 48
_cell_length_a 9.041006
_cell_length_b 16.847882
_cell_length_c 13.984673
_cell_angle_alpha 90.000000
_cell_angle_beta 90.000000
_cell_angle_gamma 90.000000
_cell_volume 2130.170595
_symmetry_space_group_name_H-M "I 21 21 21"
_symmetry_group_IT_number 24
_symmetry_cell_setting 'orthorhombic'
loop_
_space_group_symop_operation_xyz
x,y,z
-x,1/2-y,z
x,-y,1/2-z
1/2-x,y,-z
1/2+x,1/2+y,1/2+z
1/2-x,-y,1/2+z
1/2+x,1/2-y,-z
-x,1/2+y,1/2-z
loop_
_atom_site_type_symbol
_atom_site_label
_atom_site_fract_x
_atom_site_fract_y
_atom_site_fract_z
Si Si1 0.631803 0.192353 0.285096
Si Si2 0.196994 0.890128 0.602721
Si Si3 0.877835 0.066446 0.561601
Si Si4 0.143320 0.941395 0.077679
Si Si5 0.363816 0.805778 0.775078
Si Si6 0.838619 0.892860 0.596742
O O1 0.500000 0.250000 0.255993
O O2 0.571006 0.124647 0.355208
O O3 0.754152 0.247866 0.333192
O O4 0.706406 0.153821 0.191600
O O5 0.250000 0.860176 0.500000
O O6 0.271011 0.838965 0.685637
O O7 0.018705 0.886592 0.599382
O O8 0.266206 0.979970 0.611067
O O9 0.750000 0.107039 0.500000
O O10 0.001175 0.038276 0.486364
O O11 0.810590 0.986792 0.607085
O O12 0.098467 0.882305 0.161358
O O13 0.250000 0.900073 0.000000
O O14 0.500000 0.750000 0.747655
O O15 0.750000 0.868284 0.500000
#
# Coordination Sequence:
#
# PCOD9336639 Si02
#       6
#     8   8   8   8   8   8
#     4  12  26  44  68 102 143 189 231 292 368 430
#     4  11  24  48  72 100 135 186 241 296 352 417
#     4  11  24  44  71 101 139 183 240 296 349 422
#     4  11  23  44  75 104 136 191 244 294 352 425
#     4  12  28  44  68 108 151 188 232 291 366 436
#     4  11  25  47  73 101 133 183 249 297 347 420
#
# _framework density 22.533405999999999
#
# number of rings (size 3 to 8) (size 9 to 14) (size 15 to 20)
#    0.000    0.667    5.000    3.000    2.333    6.000 
#    0.000    3.333    0.000    0.000    0.000    0.000 
#    0.000    0.000    0.000    0.000    0.000    0.000 
#
# Total GULP energy -134010.076950 kJ/mol
# GULP energy per Si atom -5583.753206 kJ/mol
# Density = 2.248212 g / cm^3
# Si number density = 22.533406 Si / 1000 Ang^3
#
#
#
# Elastic Constant Matrix: (Units=GPa)
#
#
# Indices 1 2 3 4 5 6 
#
# 1 99.0071 43.0637 29.7264 0.0000 0.0000 0.0000
# 2 43.0637 98.2345 56.1403 0.0000 0.0000 0.0000
# 3 29.7264 56.1403 85.9436 0.0000 0.0000 0.0000
# 4 0.0000 0.0000 0.0000 16.6764 0.0000 0.0000
# 5 0.0000 0.0000 0.0000 0.0000 28.0492 0.0000
# 6 0.0000 0.0000 0.0000 0.0000 0.0000 32.8793
#
#
#
# Elastic Compliance Matrix: (Units=1/GPa)
#
#
# Indices 1 2 3 4 5 6 
#
# 1 0.012556 -0.004823 -0.001193 0.000000 0.000000 0.000000
# 2 -0.004823 0.018096 -0.010153 0.000000 0.000000 0.000000
# 3 -0.001193 -0.010153 0.018680 0.000000 0.000000 0.000000
# 4 0.000000 0.000000 0.000000 0.059965 0.000000 0.000000
# 5 0.000000 0.000000 0.000000 0.000000 0.035652 0.000000
# 6 0.000000 0.000000 0.000000 0.000000 0.000000 0.030414
#
#
# Mechanical properties :
#
#
# Convention : Reuss Voigt Hill
#
# Bulk Modulus (GPa) = 58.83697 60.11622 59.47659
# Shear Modulus (GPa) = 23.43412 25.80463 24.61938
#
# Velocity S-wave (km/s) = 3.22836 3.38771 3.30899
# Velocity P-wave (km/s) = 6.32962 6.48373 6.40714
#
# Compressibility (1/GPa) = 0.01699612
#
# Stress axis : x y z
#
# Youngs Moduli (GPa) = 79.64306 55.26069 53.53323
#
# Poissons Ratio (x) = 0.26651 0.06384
# Poissons Ratio (y) = 0.38409 0.54350
# Poissons Ratio (z) = 0.09498 0.56104
#
# Static dielectric constant tensor:
#      x y z
#    x 1.905890 0.000000 0.000000 
#    y 0.000000 1.819350 0.000000 
#    z 0.000000 0.000000 1.814820 
# 
# From -- ./inp_files/24782.got.cif
#   From: 2010.05.17/outbox.cif.g08.bks.cpg/sg24_13_cif.got.tgz:24782.got - 2010.06.04 00:33:39.
