data_PCOD9336293
_publ_section_title
;
Structure prediction by ZEFSAII (Michael W. Deem and Ramdas Pophale) SiO2 
 PCOD9336293
Probable space group: I 21 21 21
;
_chemical_formula_sum "Si O2"
_cell_formula_units_Z 20
_cell_length_a 16.676614
_cell_length_b 4.915353
_cell_length_c 9.113063
_cell_angle_alpha 90.000000
_cell_angle_beta 90.000000
_cell_angle_gamma 90.000000
_cell_volume 747.010939
_symmetry_space_group_name_H-M "I 21 21 21"
_symmetry_group_IT_number 24
_symmetry_cell_setting 'orthorhombic'
loop_
_space_group_symop_operation_xyz
x,y,z
-x,1/2-y,z
x,-y,1/2-z
1/2-x,y,-z
1/2+x,1/2+y,1/2+z
1/2-x,-y,1/2+z
1/2+x,1/2-y,-z
-x,1/2+y,1/2-z
loop_
_atom_site_type_symbol
_atom_site_label
_atom_site_fract_x
_atom_site_fract_y
_atom_site_fract_z
Si Si1 0.676365 0.385196 0.591675
Si Si2 0.943657 0.000000 0.250000
Si Si3 0.904635 0.251884 0.857159
O O1 0.701319 0.500000 0.750000
O O2 0.750000 0.268007 0.500000
O O3 0.609705 0.156022 0.627394
O O4 0.642907 0.641514 0.499619
O O5 0.000000 0.250000 0.200240
O O6 0.891682 0.500000 0.750000
O O7 0.000000 0.250000 0.887707
O O8 0.883189 0.000000 0.750000
#
# Coordination Sequence:
#
# PCOD9336293 Si02
#       3
#     8   4   8
#     4  12  30  57  92 139 194 248 321 399 485 563
#     4  12  30  58  92 136 186 258 324 386 462 582
#     4  10  25  51  86 127 183 240 311 387 471 564
#
# _framework density 26.773371000000001
#
# number of rings (size 3 to 8) (size 9 to 14) (size 15 to 20)
#    0.000    0.800    2.000    1.200   11.200    3.200 
#    7.200    0.000    0.000    0.000    0.000    0.000 
#    0.000    0.000    0.000    0.000    0.000    0.000 
#
# Total GULP energy -56010.773855 kJ/mol
# GULP energy per Si atom -5601.077386 kJ/mol
# Density = 2.671243 g / cm^3
# Si number density = 26.773371 Si / 1000 Ang^3
#
#
#
# Elastic Constant Matrix: (Units=GPa)
#
#
# Indices 1 2 3 4 5 6 
#
# 1 163.5394 73.9028 92.6574 0.0000 0.0000 0.0000
# 2 73.9028 253.2866 87.5077 0.0000 0.0000 0.0000
# 3 92.6574 87.5077 228.8642 0.0000 0.0000 0.0000
# 4 0.0000 0.0000 0.0000 62.1992 0.0000 0.0000
# 5 0.0000 0.0000 0.0000 0.0000 35.1943 0.0000
# 6 0.0000 0.0000 0.0000 0.0000 0.0000 42.5236
#
#
#
# Elastic Compliance Matrix: (Units=1/GPa)
#
#
# Indices 1 2 3 4 5 6 
#
# 1 0.008383 -0.001467 -0.002833 0.000000 0.000000 0.000000
# 2 -0.001467 0.004806 -0.001244 0.000000 0.000000 0.000000
# 3 -0.002833 -0.001244 0.005992 0.000000 0.000000 0.000000
# 4 0.000000 0.000000 0.000000 0.016077 0.000000 0.000000
# 5 0.000000 0.000000 0.000000 0.000000 0.028414 0.000000
# 6 0.000000 0.000000 0.000000 0.000000 0.000000 0.023516
#
#
# Mechanical properties :
#
#
# Convention : Reuss Voigt Hill
#
# Bulk Modulus (GPa) = 123.55980 128.20290 125.88135
# Shear Modulus (GPa) = 49.51837 54.09157 51.80497
#
# Velocity S-wave (km/s) = 4.30529 4.49971 4.40357
# Velocity P-wave (km/s) = 8.42404 8.65938 8.54252
#
# Compressibility (1/GPa) = 0.00809325
#
# Stress axis : x y z
#
# Youngs Moduli (GPa) = 119.29248 208.08155 166.89539
#
# Poissons Ratio (x) = 0.30529 0.47279
# Poissons Ratio (y) = 0.17502 0.20754
# Poissons Ratio (z) = 0.33794 0.25876
#
# Static dielectric constant tensor:
#      x y z
#    x 2.102390 0.000000 0.000000 
#    y 0.000000 2.048090 0.000000 
#    z 0.000000 0.000000 1.967520 
# 
# From -- ./inp_files/13539.got.cif
#   From: 2010.05.17/outbox.cif.g08.bks.cpg/sg24_7_cif.got.tgz:13539.got - 2010.06.04 00:33:39.
