data_PCOD9336692
_publ_section_title
;
Structure prediction by ZEFSAII (Michael W. Deem and Ramdas Pophale) SiO2 
 PCOD9336692
Probable space group: I 21 21 21
;
_chemical_formula_sum "Si O2"
_cell_formula_units_Z 24
_cell_length_a 11.268254
_cell_length_b 7.663751
_cell_length_c 11.422930
_cell_angle_alpha 90.000000
_cell_angle_beta 90.000000
_cell_angle_gamma 90.000000
_cell_volume 986.451027
_symmetry_space_group_name_H-M "I 21 21 21"
_symmetry_group_IT_number 24
_symmetry_cell_setting 'orthorhombic'
loop_
_space_group_symop_operation_xyz
x,y,z
-x,1/2-y,z
x,-y,1/2-z
1/2-x,y,-z
1/2+x,1/2+y,1/2+z
1/2-x,-y,1/2+z
1/2+x,1/2-y,-z
-x,1/2+y,1/2-z
loop_
_atom_site_type_symbol
_atom_site_label
_atom_site_fract_x
_atom_site_fract_y
_atom_site_fract_z
Si Si1 0.180001 0.367716 0.103175
Si Si2 0.083415 0.997876 0.384513
Si Si3 0.000000 0.250000 0.564835
Si Si4 0.624943 0.000000 0.250000
O O1 0.137924 0.177513 0.063370
O O2 0.279994 0.358496 0.202223
O O3 0.058558 0.466668 0.128452
O O4 0.250000 0.461132 0.000000
O O5 0.127798 0.000000 0.250000
O O6 0.092509 0.157196 0.474545
O O7 0.048178 0.403262 0.650593
#
# Coordination Sequence:
#
# PCOD9336692 Si02
#       4
#     8   8   4   4
#     4  11  24  45  70 103 146 196 246 306 368 442
#     4  11  25  47  74 105 145 191 260 307 362 448
#     4  12  28  48  74 112 154 202 248 314 378 454
#     4  12  28  48  74 110 160 200 246 314 384 450
#
# _framework density 24.329642
#
# number of rings (size 3 to 8) (size 9 to 14) (size 15 to 20)
#    0.000    0.667    5.000    2.000    4.667    2.667 
#    0.000    0.000    0.000    0.000    0.000    0.000 
#    0.000    0.000    0.000    0.000    0.000    0.000 
#
# Total GULP energy -66924.007301 kJ/mol
# GULP energy per Si atom -5577.000608 kJ/mol
# Density = 2.427427 g / cm^3
# Si number density = 24.329642 Si / 1000 Ang^3
#
#
#
# Elastic Constant Matrix: (Units=GPa)
#
#
# Indices 1 2 3 4 5 6 
#
# 1 78.0644 23.2143 38.5953 0.0000 0.0000 0.0000
# 2 23.2143 128.1332 45.0605 0.0000 0.0000 0.0000
# 3 38.5953 45.0605 120.9444 0.0000 0.0000 0.0000
# 4 0.0000 0.0000 0.0000 45.2193 0.0000 0.0000
# 5 0.0000 0.0000 0.0000 0.0000 10.6343 0.0000
# 6 0.0000 0.0000 0.0000 0.0000 0.0000 15.1704
#
#
#
# Elastic Compliance Matrix: (Units=1/GPa)
#
#
# Indices 1 2 3 4 5 6 
#
# 1 0.015374 -0.001220 -0.004451 0.000000 0.000000 0.000000
# 2 -0.001220 0.009078 -0.002993 0.000000 0.000000 0.000000
# 3 -0.004451 -0.002993 0.010804 0.000000 0.000000 0.000000
# 4 0.000000 0.000000 0.000000 0.022114 0.000000 0.000000
# 5 0.000000 0.000000 0.000000 0.000000 0.094035 0.000000
# 6 0.000000 0.000000 0.000000 0.000000 0.000000 0.065918
#
#
# Mechanical properties :
#
#
# Convention : Reuss Voigt Hill
#
# Bulk Modulus (GPa) = 55.78212 60.09800 57.94006
# Shear Modulus (GPa) = 20.77905 28.88960 24.83433
#
# Velocity S-wave (km/s) = 2.92561 3.44964 3.19837
# Velocity P-wave (km/s) = 5.86427 6.37353 6.12419
#
# Compressibility (1/GPa) = 0.01792689
#
# Stress axis : x y z
#
# Youngs Moduli (GPa) = 65.04699 110.15784 92.55944
#
# Poissons Ratio (x) = 0.13437 0.41202
# Poissons Ratio (y) = 0.07935 0.27702
# Poissons Ratio (z) = 0.28955 0.32969
#
# Static dielectric constant tensor:
#      x y z
#    x 1.929260 0.000000 0.000000 
#    y 0.000000 1.929330 0.000000 
#    z 0.000000 0.000000 2.121950 
# 
# From -- ./inp_files/10033.got.cif
#   From: 2010.05.17/outbox.cif.g08.bks.cpg/sg24_6_cif.got.tgz:10033.got - 2010.06.04 00:33:39.
