data_PCOD9336755
_publ_section_title
;
Structure prediction by ZEFSAII (Michael W. Deem and Ramdas Pophale) SiO2 
 PCOD9336755
Probable space group: I 21 21 21
;
_chemical_formula_sum "Si O2"
_cell_formula_units_Z 48
_cell_length_a 14.234647
_cell_length_b 8.136620
_cell_length_c 18.545550
_cell_angle_alpha 90.000000
_cell_angle_beta 90.000000
_cell_angle_gamma 90.000000
_cell_volume 2147.981087
_symmetry_space_group_name_H-M "I 21 21 21"
_symmetry_group_IT_number 24
_symmetry_cell_setting 'orthorhombic'
loop_
_space_group_symop_operation_xyz
x,y,z
-x,1/2-y,z
x,-y,1/2-z
1/2-x,y,-z
1/2+x,1/2+y,1/2+z
1/2-x,-y,1/2+z
1/2+x,1/2-y,-z
-x,1/2+y,1/2-z
loop_
_atom_site_type_symbol
_atom_site_label
_atom_site_fract_x
_atom_site_fract_y
_atom_site_fract_z
Si Si1 0.155503 0.070346 0.047950
Si Si2 0.250000 0.649632 0.000000
Si Si3 0.358549 0.572965 0.613939
Si Si4 0.918083 0.640259 0.942472
Si Si5 0.597215 0.679844 0.224288
Si Si6 0.772841 0.000000 0.750000
Si Si7 0.451022 0.072225 0.671374
O O1 0.147638 0.242321 0.086546
O O2 0.250000 0.069863 0.000000
O O3 0.133580 0.938526 0.112498
O O4 0.080846 0.029146 0.985439
O O5 0.314658 0.540319 0.948294
O O6 0.178632 0.764329 0.956491
O O7 0.292988 0.544678 0.683053
O O8 0.464520 0.533428 0.636892
O O9 0.928514 0.633385 0.857775
O O10 0.000000 0.750000 0.974771
O O11 0.500000 0.750000 0.258880
O O12 0.631968 0.500000 0.250000
O O13 0.666981 0.835352 0.231515
O O14 0.500000 0.250000 0.680415
O O15 0.424328 0.000000 0.750000
#
# Coordination Sequence:
#
# PCOD9336755 Si02
#       7
#     8   4   8   8   8   4   8
#     4  12  26  47  73 112 150 198 254 313 386 472
#     4  12  22  42  72 100 152 192 238 320 374 462
#     4  12  26  47  74 114 155 195 259 325 395 470
#     4  11  25  46  70 107 144 197 250 310 388 462
#     4  11  25  46  76 107 152 207 265 327 392 468
#     4  12  26  48  74 118 152 202 266 338 402 470
#     4  12  27  51  81 113 156 207 261 325 401 477
#
# _framework density 22.346567
#
# number of rings (size 3 to 8) (size 9 to 14) (size 15 to 20)
#    0.000    0.333    5.000    4.000    2.333    0.000 
#    0.000    1.667    0.000    0.000    0.000    0.000 
#    0.000    0.000    0.000    0.000    0.000    0.000 
#
# Total GULP energy -134089.355046 kJ/mol
# GULP energy per Si atom -5587.056460 kJ/mol
# Density = 2.229570 g / cm^3
# Si number density = 22.346567 Si / 1000 Ang^3
#
#
#
# Elastic Constant Matrix: (Units=GPa)
#
#
# Indices 1 2 3 4 5 6 
#
# 1 92.1521 27.2385 25.3713 0.0000 0.0000 0.0000
# 2 27.2385 151.0754 46.3292 0.0000 0.0000 0.0000
# 3 25.3713 46.3292 119.8266 0.0000 0.0000 0.0000
# 4 0.0000 0.0000 0.0000 39.1525 0.0000 0.0000
# 5 0.0000 0.0000 0.0000 0.0000 38.6334 0.0000
# 6 0.0000 0.0000 0.0000 0.0000 0.0000 15.4525
#
#
#
# Elastic Compliance Matrix: (Units=1/GPa)
#
#
# Indices 1 2 3 4 5 6 
#
# 1 0.011834 -0.001549 -0.001907 0.000000 0.000000 0.000000
# 2 -0.001549 0.007712 -0.002654 0.000000 0.000000 0.000000
# 3 -0.001907 -0.002654 0.009775 0.000000 0.000000 0.000000
# 4 0.000000 0.000000 0.000000 0.025541 0.000000 0.000000
# 5 0.000000 0.000000 0.000000 0.000000 0.025884 0.000000
# 6 0.000000 0.000000 0.000000 0.000000 0.000000 0.064714
#
#
# Mechanical properties :
#
#
# Convention : Reuss Voigt Hill
#
# Bulk Modulus (GPa) = 58.47067 62.32578 60.39823
# Shear Modulus (GPa) = 30.60310 36.25535 33.42923
#
# Velocity S-wave (km/s) = 3.70466 4.03229 3.87194
# Velocity P-wave (km/s) = 6.67245 7.04487 6.86119
#
# Compressibility (1/GPa) = 0.01710259
#
# Stress axis : x y z
#
# Youngs Moduli (GPa) = 84.49891 129.66237 102.29935
#
# Poissons Ratio (x) = 0.20084 0.19507
# Poissons Ratio (y) = 0.13089 0.27149
# Poissons Ratio (z) = 0.16113 0.34411
#
# Static dielectric constant tensor:
#      x y z
#    x 1.874060 0.000000 0.000000 
#    y 0.000000 1.843120 0.000000 
#    z 0.000000 0.000000 1.824730 
# 
# From -- ./inp_files/30742.got.cif
#   From: 2010.05.17/outbox.cif.g08.bks.cpg/sg24_16_cif.got.tgz:30742.got - 2010.06.04 00:33:39.
