data_PCOD9336641
_publ_section_title
;
Structure prediction by ZEFSAII (Michael W. Deem and Ramdas Pophale) SiO2 
 PCOD9336641
Probable space group: I 21 21 21
;
_chemical_formula_sum "Si O2"
_cell_formula_units_Z 56
_cell_length_a 15.888112
_cell_length_b 13.760179
_cell_length_c 12.695759
_cell_angle_alpha 90.000000
_cell_angle_beta 90.000000
_cell_angle_gamma 90.000000
_cell_volume 2775.588285
_symmetry_space_group_name_H-M "I 21 21 21"
_symmetry_group_IT_number 24
_symmetry_cell_setting 'orthorhombic'
loop_
_space_group_symop_operation_xyz
x,y,z
-x,1/2-y,z
x,-y,1/2-z
1/2-x,y,-z
1/2+x,1/2+y,1/2+z
1/2-x,-y,1/2+z
1/2+x,1/2-y,-z
-x,1/2+y,1/2-z
loop_
_atom_site_type_symbol
_atom_site_label
_atom_site_fract_x
_atom_site_fract_y
_atom_site_fract_z
Si Si1 0.221281 0.385407 0.769324
Si Si2 0.096189 0.781995 0.750406
Si Si3 0.750000 0.059337 0.000000
Si Si4 0.653621 0.376608 0.465871
Si Si5 0.807138 0.412529 0.912674
Si Si6 0.631523 0.935212 0.856175
Si Si7 0.170944 0.000000 0.250000
Si Si8 0.043359 0.844480 0.153700
O O1 0.204963 0.500000 0.750000
O O2 0.146403 0.317748 0.738287
O O3 0.300931 0.359592 0.694084
O O4 0.232396 0.378566 0.895280
O O5 0.124245 0.844330 0.851223
O O6 0.130572 0.843042 0.650555
O O7 0.000000 0.750000 0.744100
O O8 0.824265 0.989925 0.046147
O O9 0.750000 0.356703 0.500000
O O10 0.645956 0.494603 0.465331
O O11 0.595616 0.320950 0.549211
O O12 0.736685 0.460426 0.836333
O O13 0.750000 0.360031 0.000000
O O14 0.538940 0.902641 0.883216
O O15 0.620351 0.000000 0.750000
O O16 0.108380 0.088107 0.282059
O O17 0.000000 0.750000 0.206727
#
# Coordination Sequence:
#
# PCOD9336641 Si02
#       8
#     8   8   4   8   8   8   4   8
#     4   9  22  42  61  88 134 180 210 271 352 409
#     4  12  26  42  66 106 136 172 240 292 333 423
#     4   8  18  40  62  80 118 184 206 246 352 414
#     4  11  23  45  68  98 134 183 233 282 353 415
#     4  11  23  45  74  96 136 195 227 276 357 420
#     4   9  20  38  60  88 125 165 215 272 328 400
#     4  12  22  48  70  98 140 180 230 290 342 422
#     4  12  25  38  66 106 129 169 235 287 344 404
#
# _framework density 20.175903000000002
#
# number of rings (size 3 to 8) (size 9 to 14) (size 15 to 20)
#    0.000    1.714    5.000    0.429    5.000    6.857 
#    1.286    0.714    0.000    0.000    0.000    0.000 
#    0.000    0.000    0.000    0.000    0.000    0.000 
#
# Total GULP energy -155966.110454 kJ/mol
# GULP energy per Si atom -5570.218231 kJ/mol
# Density = 2.012998 g / cm^3
# Si number density = 20.175903 Si / 1000 Ang^3
#
#
#
# Elastic Constant Matrix: (Units=GPa)
#
#
# Indices 1 2 3 4 5 6 
#
# 1 129.2794 24.6464 15.6183 0.0000 0.0000 0.0000
# 2 24.6464 51.8510 1.0505 0.0000 0.0000 0.0000
# 3 15.6183 1.0505 72.3653 0.0000 0.0000 0.0000
# 4 0.0000 0.0000 0.0000 14.3623 0.0000 0.0000
# 5 0.0000 0.0000 0.0000 0.0000 24.5861 0.0000
# 6 0.0000 0.0000 0.0000 0.0000 0.0000 115.9013
#
#
#
# Elastic Compliance Matrix: (Units=1/GPa)
#
#
# Indices 1 2 3 4 5 6 
#
# 1 0.008741 -0.004118 -0.001827 0.000000 0.000000 0.000000
# 2 -0.004118 0.021232 0.000581 0.000000 0.000000 0.000000
# 3 -0.001827 0.000581 0.014205 0.000000 0.000000 0.000000
# 4 0.000000 0.000000 0.000000 0.069627 0.000000 0.000000
# 5 0.000000 0.000000 0.000000 0.000000 0.040673 0.000000
# 6 0.000000 0.000000 0.000000 0.000000 0.000000 0.008628
#
#
# Mechanical properties :
#
#
# Convention : Reuss Voigt Hill
#
# Bulk Modulus (GPa) = 29.89621 37.34734 33.62177
# Shear Modulus (GPa) = 27.02950 45.11531 36.07240
#
# Velocity S-wave (km/s) = 3.66415 4.73387 4.23294
# Velocity P-wave (km/s) = 5.72287 6.95920 6.37110
#
# Compressibility (1/GPa) = 0.03344906
#
# Stress axis : x y z
#
# Youngs Moduli (GPa) = 114.40455 47.09959 70.39966
#
# Poissons Ratio (x) = 0.19395 0.12860
# Poissons Ratio (y) = 0.47110 -0.04087
# Poissons Ratio (z) = 0.20899 -0.02734
#
# Static dielectric constant tensor:
#      x y z
#    x 1.856290 0.000000 0.000000 
#    y 0.000000 1.766790 0.000000 
#    z 0.000000 0.000000 1.585580 
# 
# From -- ./inp_files/20876.got.cif
#   From: 2010.05.17/outbox.cif.g08.bks.cpg/sg24_11_cif.got.tgz:20876.got - 2010.06.04 00:33:39.
