data_PCOD9336284
_publ_section_title
;
Structure prediction by ZEFSAII (Michael W. Deem and Ramdas Pophale) SiO2 
 PCOD9336284
Probable space group: I 21 21 21
;
_chemical_formula_sum "Si O2"
_cell_formula_units_Z 28
_cell_length_a 18.509866
_cell_length_b 6.668497
_cell_length_c 7.684291
_cell_angle_alpha 90.000000
_cell_angle_beta 90.000000
_cell_angle_gamma 90.000000
_cell_volume 948.494983
_symmetry_space_group_name_H-M "I 21 21 21"
_symmetry_group_IT_number 24
_symmetry_cell_setting 'orthorhombic'
loop_
_space_group_symop_operation_xyz
x,y,z
-x,1/2-y,z
x,-y,1/2-z
1/2-x,y,-z
1/2+x,1/2+y,1/2+z
1/2-x,-y,1/2+z
1/2+x,1/2-y,-z
-x,1/2+y,1/2-z
loop_
_atom_site_type_symbol
_atom_site_label
_atom_site_fract_x
_atom_site_fract_y
_atom_site_fract_z
Si Si1 0.474791 0.020930 0.950864
Si Si2 0.376264 0.462620 0.440737
Si Si3 0.326861 0.878880 0.603405
Si Si4 0.750000 0.306991 0.500000
O O1 0.500000 0.250000 0.985963
O O2 0.452983 0.000000 0.750000
O O3 0.549017 0.895410 0.967627
O O4 0.393090 0.025502 0.021973
O O5 0.407968 0.500000 0.250000
O O6 0.344129 0.646131 0.552204
O O7 0.308829 0.322141 0.400270
O O8 0.250000 0.934217 0.500000
O O9 0.309144 0.145705 0.682899
#
# Coordination Sequence:
#
# PCOD9336284 Si02
#       4
#     8   8   8   4
#     4   9  21  44  72 101 135 189 252 300 353 439
#     4  11  27  46  71 112 148 186 245 312 377 424
#     4  10  25  48  73 105 146 197 252 295 365 448
#     4  12  28  40  76 100 156 194 240 302 372 454
#
# _framework density 29.520448999999999
#
# number of rings (size 3 to 8) (size 9 to 14) (size 15 to 20)
#    0.000    1.714    0.000    0.857   20.000    0.000 
#   15.429    0.000    0.000    0.000    0.000    0.000 
#    0.000    0.000    0.000    0.000    0.000    0.000 
#
# Total GULP energy -77956.129902 kJ/mol
# GULP energy per Si atom -5568.294993 kJ/mol
# Density = 2.945326 g / cm^3
# Si number density = 29.520449 Si / 1000 Ang^3
#
#
#
# Elastic Constant Matrix: (Units=GPa)
#
#
# Indices 1 2 3 4 5 6 
#
# 1 299.4498 88.3201 -4.4553 0.0000 0.0000 0.0000
# 2 88.3201 90.4506 7.6100 0.0000 0.0000 0.0000
# 3 -4.4553 7.6100 113.3846 0.0000 0.0000 0.0000
# 4 0.0000 0.0000 0.0000 39.4269 0.0000 0.0000
# 5 0.0000 0.0000 0.0000 0.0000 37.6914 0.0000
# 6 0.0000 0.0000 0.0000 0.0000 0.0000 94.1889
#
#
#
# Elastic Compliance Matrix: (Units=1/GPa)
#
#
# Indices 1 2 3 4 5 6 
#
# 1 0.004718 -0.004649 0.000497 0.000000 0.000000 0.000000
# 2 -0.004649 0.015699 -0.001236 0.000000 0.000000 0.000000
# 3 0.000497 -0.001236 0.008922 0.000000 0.000000 0.000000
# 4 0.000000 0.000000 0.000000 0.025363 0.000000 0.000000
# 5 0.000000 0.000000 0.000000 0.000000 0.026531 0.000000
# 6 0.000000 0.000000 0.000000 0.000000 0.000000 0.010617
#
#
# Mechanical properties :
#
#
# Convention : Reuss Voigt Hill
#
# Bulk Modulus (GPa) = 53.86845 76.24830 65.05838
# Shear Modulus (GPa) = 45.95010 61.71544 53.83277
#
# Velocity S-wave (km/s) = 3.94960 4.57727 4.27497
# Velocity P-wave (km/s) = 6.25192 7.33623 6.81567
#
# Compressibility (1/GPa) = 0.01856374
#
# Stress axis : x y z
#
# Youngs Moduli (GPa) = 211.95688 63.69858 112.08175
#
# Poissons Ratio (x) = 0.29611 -0.05575
# Poissons Ratio (y) = 0.98532 0.13857
# Poissons Ratio (z) = -0.10543 0.07875
#
# Static dielectric constant tensor:
#      x y z
#    x 2.302680 0.000000 0.000000 
#    y 0.000000 2.541590 0.000000 
#    z 0.000000 0.000000 2.209720 
# 
# From -- ./inp_files/13667.got.cif
#   From: 2010.05.17/outbox.cif.g08.bks.cpg/sg24_7_cif.got.tgz:13667.got - 2010.06.04 00:33:39.
