data_PCOD9336135
_publ_section_title
;
Structure prediction by ZEFSAII (Michael W. Deem and Ramdas Pophale) SiO2 
 PCOD9336135
Probable space group: I 21 21 21
;
_chemical_formula_sum "Si O2"
_cell_formula_units_Z 40
_cell_length_a 7.198524
_cell_length_b 12.015567
_cell_length_c 19.727906
_cell_angle_alpha 90.000000
_cell_angle_beta 90.000000
_cell_angle_gamma 90.000000
_cell_volume 1706.352355
_symmetry_space_group_name_H-M "I 21 21 21"
_symmetry_group_IT_number 24
_symmetry_cell_setting 'orthorhombic'
loop_
_space_group_symop_operation_xyz
x,y,z
-x,1/2-y,z
x,-y,1/2-z
1/2-x,y,-z
1/2+x,1/2+y,1/2+z
1/2-x,-y,1/2+z
1/2+x,1/2-y,-z
-x,1/2+y,1/2-z
loop_
_atom_site_type_symbol
_atom_site_label
_atom_site_fract_x
_atom_site_fract_y
_atom_site_fract_z
Si Si1 0.982020 0.127325 0.369040
Si Si2 0.965240 0.370049 0.521073
Si Si3 0.232229 0.961004 0.675341
Si Si4 0.335694 0.474092 0.127349
Si Si5 0.278956 0.241324 0.079752
O O1 0.813881 0.055925 0.339633
O O2 0.000000 0.250000 0.339674
O O3 0.931715 0.136562 0.448590
O O4 0.175980 0.062817 0.365288
O O5 0.750000 0.382460 0.500000
O O6 0.000000 0.250000 0.555896
O O7 0.052795 0.468299 0.564933
O O8 0.291962 0.850176 0.633565
O O9 0.294001 0.000000 0.750000
O O10 0.009150 0.950013 0.676104
O O11 0.223832 0.366921 0.099634
O O12 0.500000 0.250000 0.087319
O O13 0.250000 0.214460 0.000000
#
# Coordination Sequence:
#
# PCOD9336135 Si02
#       5
#     8   8   8   8   8
#     4  11  24  43  68 104 137 184 236 284 359 425
#     4  11  20  36  66 104 144 180 230 298 363 421
#     4  11  27  49  68 101 144 189 235 294 361 440
#     4  11  24  43  70 106 142 187 233 302 358 424
#     4  10  24  43  73 110 137 186 237 299 368 423
#
# _framework density 23.441817
#
# number of rings (size 3 to 8) (size 9 to 14) (size 15 to 20)
#    0.000    1.200    2.000    4.200    8.400    0.800 
#   14.400    0.000    0.000    0.000    0.000    0.000 
#    0.000    0.000    0.000    0.000    0.000    0.000 
#
# Total GULP energy -111584.930397 kJ/mol
# GULP energy per Si atom -5579.246520 kJ/mol
# Density = 2.338846 g / cm^3
# Si number density = 23.441817 Si / 1000 Ang^3
#
#
#
# Elastic Constant Matrix: (Units=GPa)
#
#
# Indices 1 2 3 4 5 6 
#
# 1 101.9429 25.2213 9.7830 0.0000 0.0000 0.0000
# 2 25.2213 173.6961 66.2499 0.0000 0.0000 0.0000
# 3 9.7830 66.2499 92.9767 0.0000 0.0000 0.0000
# 4 0.0000 0.0000 0.0000 -13.5598 0.0000 0.0000
# 5 0.0000 0.0000 0.0000 0.0000 16.4542 0.0000
# 6 0.0000 0.0000 0.0000 0.0000 0.0000 29.7600
#
#
#
# Elastic Compliance Matrix: (Units=1/GPa)
#
#
# Indices 1 2 3 4 5 6 
#
# 1 0.010175 -0.001468 -0.000025 0.000000 0.000000 0.000000
# 2 -0.001468 0.008118 -0.005630 0.000000 0.000000 0.000000
# 3 -0.000025 -0.005630 0.014769 0.000000 0.000000 0.000000
# 4 0.000000 0.000000 0.000000 -0.073747 0.000000 0.000000
# 5 0.000000 0.000000 0.000000 0.000000 0.060775 0.000000
# 6 0.000000 0.000000 0.000000 0.000000 0.000000 0.033602
#
#
# Mechanical properties :
#
#
# Convention : Reuss Voigt Hill
#
# Bulk Modulus (GPa) = 53.14245 63.45824 58.30035
# Shear Modulus (GPa) = 67.37779 24.35498 45.86638
#
# Velocity S-wave (km/s) = 5.36703 3.22678 4.42815
# Velocity P-wave (km/s) = 7.81830 6.40407 7.14625
#
# Compressibility (1/GPa) = 0.01881735
#
# Stress axis : x y z
#
# Youngs Moduli (GPa) = 98.28024 123.18947 67.70787
#
# Poissons Ratio (x) = 0.18085 0.00166
# Poissons Ratio (y) = 0.14428 0.38117
# Poissons Ratio (z) = 0.00241 0.69351
#
# Static dielectric constant tensor:
#      x y z
#    x 1.936710 0.000000 0.000000 
#    y 0.000000 2.001010 0.000000 
#    z 0.000000 0.000000 1.964460 
# 
# From -- ./inp_files/29254.got.cif
#   From: 2010.05.17/outbox.cif.g08.bks.cpg/sg24_15_cif.got.tgz:29254.got - 2010.06.04 00:33:39.
