data_PCOD9336036
_publ_section_title
;
Structure prediction by ZEFSAII (Michael W. Deem and Ramdas Pophale) SiO2 
 PCOD9336036
Probable space group: I 21 21 21
;
_chemical_formula_sum "Si O2"
_cell_formula_units_Z 32
_cell_length_a 5.319991
_cell_length_b 11.560612
_cell_length_c 23.600172
_cell_angle_alpha 90.000000
_cell_angle_beta 90.000000
_cell_angle_gamma 90.000000
_cell_volume 1451.466081
_symmetry_space_group_name_H-M "I 21 21 21"
_symmetry_group_IT_number 24
_symmetry_cell_setting 'orthorhombic'
loop_
_space_group_symop_operation_xyz
x,y,z
-x,1/2-y,z
x,-y,1/2-z
1/2-x,y,-z
1/2+x,1/2+y,1/2+z
1/2-x,-y,1/2+z
1/2+x,1/2-y,-z
-x,1/2+y,1/2-z
loop_
_atom_site_type_symbol
_atom_site_label
_atom_site_fract_x
_atom_site_fract_y
_atom_site_fract_z
Si Si1 0.807739 0.439976 0.160125
Si Si2 0.690749 0.124571 0.220956
Si Si3 0.753311 0.709640 0.830537
Si Si4 0.004756 0.110698 0.035816
O O1 0.547595 0.373372 0.176915
O O2 0.763264 0.573058 0.178389
O O3 0.039984 0.382086 0.191820
O O4 0.919698 0.441763 0.096590
O O5 0.724965 0.216142 0.272139
O O6 0.659576 0.000000 0.250000
O O7 0.500000 0.750000 0.859664
O O8 0.000000 0.750000 0.863499
O O9 0.000000 0.250000 0.044374
O O10 0.750000 0.080781 0.000000
O O11 0.250000 0.082453 0.000000
#
# Coordination Sequence:
#
# PCOD9336036 Si02
#       4
#     8   8   8   8
#     4  12  24  42  66  98 135 184 223 280 344 393
#     4  12  23  39  61  96 140 187 223 257 322 417
#     4  12  23  38  59  91 139 184 223 268 315 410
#     4  10  23  46  72  98 127 167 233 300 346 396
#
# _framework density 22.046675
#
# number of rings (size 3 to 8) (size 9 to 14) (size 15 to 20)
#    0.000    0.500    5.000    3.750    0.000    3.000 
#    0.000    0.000    0.000    3.000    0.000    0.000 
#    0.000    0.000    0.000    0.000    0.000    0.000 
#
# Total GULP energy -89262.239823 kJ/mol
# GULP energy per Si atom -5578.889989 kJ/mol
# Density = 2.199650 g / cm^3
# Si number density = 22.046675 Si / 1000 Ang^3
#
#
#
# Elastic Constant Matrix: (Units=GPa)
#
#
# Indices 1 2 3 4 5 6 
#
# 1 229.8656 59.6004 35.2232 0.0000 0.0000 0.0000
# 2 59.6004 114.5717 58.4862 0.0000 0.0000 0.0000
# 3 35.2232 58.4862 105.0288 0.0000 0.0000 0.0000
# 4 0.0000 0.0000 0.0000 103.9429 0.0000 0.0000
# 5 0.0000 0.0000 0.0000 0.0000 -3.6280 0.0000
# 6 0.0000 0.0000 0.0000 0.0000 0.0000 21.9359
#
#
#
# Elastic Compliance Matrix: (Units=1/GPa)
#
#
# Indices 1 2 3 4 5 6 
#
# 1 0.005036 -0.002456 -0.000321 0.000000 0.000000 0.000000
# 2 -0.002456 0.013392 -0.006634 0.000000 0.000000 0.000000
# 3 -0.000321 -0.006634 0.013323 0.000000 0.000000 0.000000
# 4 0.000000 0.000000 0.000000 0.009621 0.000000 0.000000
# 5 0.000000 0.000000 0.000000 0.000000 -0.275634 0.000000
# 6 0.000000 0.000000 0.000000 0.000000 0.000000 0.045587
#
#
# Mechanical properties :
#
#
# Convention : Reuss Voigt Hill
#
# Bulk Modulus (GPa) = 77.34419 84.00952 80.67686
# Shear Modulus (GPa) = -30.20378 44.19391 6.99507
#
# Velocity S-wave (km/s) = -3.70536 4.48209 1.78318
# Velocity P-wave (km/s) = 4.10511 8.06062 6.39631
#
# Compressibility (1/GPa) = 0.01292922
#
# Stress axis : x y z
#
# Youngs Moduli (GPa) = 198.55514 74.67061 75.05717
#
# Poissons Ratio (x) = 0.18338 0.02413
# Poissons Ratio (y) = 0.48762 0.49792
# Poissons Ratio (z) = 0.06383 0.49536
#
# Static dielectric constant tensor:
#      x y z
#    x -0.689990 0.000000 0.000000 
#    y 0.000000 1.865710 0.000000 
#    z 0.000000 0.000000 1.945000 
# 
# From -- ./inp_files/6117.got.cif
#   From: 2010.05.17/outbox.cif.g08.bks.cpg/sg24_4_cif.got.tgz:6117.got - 2010.06.04 00:33:39.
