data_PCOD9336490
_publ_section_title
;
Structure prediction by ZEFSAII (Michael W. Deem and Ramdas Pophale) SiO2 
 PCOD9336490
Probable space group: I 21 21 21
;
_chemical_formula_sum "Si O2"
_cell_formula_units_Z 32
_cell_length_a 22.518266
_cell_length_b 7.450648
_cell_length_c 7.623677
_cell_angle_alpha 90.000000
_cell_angle_beta 90.000000
_cell_angle_gamma 90.000000
_cell_volume 1279.067543
_symmetry_space_group_name_H-M "I 21 21 21"
_symmetry_group_IT_number 24
_symmetry_cell_setting 'orthorhombic'
loop_
_space_group_symop_operation_xyz
x,y,z
-x,1/2-y,z
x,-y,1/2-z
1/2-x,y,-z
1/2+x,1/2+y,1/2+z
1/2-x,-y,1/2+z
1/2+x,1/2-y,-z
-x,1/2+y,1/2-z
loop_
_atom_site_type_symbol
_atom_site_label
_atom_site_fract_x
_atom_site_fract_y
_atom_site_fract_z
Si Si1 0.728726 0.710992 0.796118
Si Si2 0.438880 0.321896 0.499368
Si Si3 0.648651 0.297243 0.200193
Si Si4 0.102420 0.297087 0.154730
O O1 0.716988 0.500000 0.750000
O O2 0.785404 0.782807 0.686366
O O3 0.668257 0.810137 0.743100
O O4 0.750000 0.723058 0.000000
O O5 0.500000 0.250000 0.419155
O O6 0.388778 0.293428 0.353815
O O7 0.432830 0.214138 0.682831
O O8 0.428336 0.522986 0.574248
O O9 0.660738 0.500000 0.250000
O O10 0.613015 0.310846 0.021075
#
# Coordination Sequence:
#
# PCOD9336490 Si02
#       4
#     8   8   8   8
#     4  11  21  43  75 114 158 192 251 313 391 466
#     4  11  27  49  69 105 149 200 263 309 373 448
#     4  11  24  44  76 112 149 197 244 313 383 459
#     4  11  25  47  73 109 147 202 249 320 380 441
#
# _framework density 25.018224
#
# number of rings (size 3 to 8) (size 9 to 14) (size 15 to 20)
#    0.000    1.000    2.500    4.500    0.000    7.000 
#   18.000    0.000    0.000    0.000    0.000    0.000 
#    0.000    0.000    0.000    0.000    0.000    0.000 
#
# Total GULP energy -89333.643106 kJ/mol
# GULP energy per Si atom -5583.352694 kJ/mol
# Density = 2.496128 g / cm^3
# Si number density = 25.018224 Si / 1000 Ang^3
#
#
#
# Elastic Constant Matrix: (Units=GPa)
#
#
# Indices 1 2 3 4 5 6 
#
# 1 138.0700 16.5739 -1.8136 0.0000 0.0000 0.0000
# 2 16.5739 63.8924 -5.6686 0.0000 0.0000 0.0000
# 3 -1.8136 -5.6686 118.9162 0.0000 0.0000 0.0000
# 4 0.0000 0.0000 0.0000 30.8278 0.0000 0.0000
# 5 0.0000 0.0000 0.0000 0.0000 12.4525 0.0000
# 6 0.0000 0.0000 0.0000 0.0000 0.0000 48.9652
#
#
#
# Elastic Compliance Matrix: (Units=1/GPa)
#
#
# Indices 1 2 3 4 5 6 
#
# 1 0.007476 -0.001937 0.000022 0.000000 0.000000 0.000000
# 2 -0.001937 0.016220 0.000744 0.000000 0.000000 0.000000
# 3 0.000022 0.000744 0.008445 0.000000 0.000000 0.000000
# 4 0.000000 0.000000 0.000000 0.032438 0.000000 0.000000
# 5 0.000000 0.000000 0.000000 0.000000 0.080305 0.000000
# 6 0.000000 0.000000 0.000000 0.000000 0.000000 0.020423
#
#
# Mechanical properties :
#
#
# Convention : Reuss Voigt Hill
#
# Bulk Modulus (GPa) = 33.56097 37.67355 35.61726
# Shear Modulus (GPa) = 28.15594 39.23490 33.69542
#
# Velocity S-wave (km/s) = 3.35836 3.96441 3.67391
# Velocity P-wave (km/s) = 5.33684 6.00388 5.68016
#
# Compressibility (1/GPa) = 0.02979651
#
# Stress axis : x y z
#
# Youngs Moduli (GPa) = 133.76974 61.65296 118.41239
#
# Poissons Ratio (x) = 0.11944 -0.00256
# Poissons Ratio (y) = 0.25915 -0.08806
# Poissons Ratio (z) = -0.00290 -0.04585
#
# Static dielectric constant tensor:
#      x y z
#    x 2.014030 0.000000 0.000000 
#    y 0.000000 2.145930 0.000000 
#    z 0.000000 0.000000 1.987570 
# 
# From -- ./inp_files/14774.got.cif
#   From: 2010.05.17/outbox.cif.g08.bks.cpg/sg24_8_cif.got.tgz:14774.got - 2010.06.04 00:33:39.
