data_PCOD9336198
_publ_section_title
;
Structure prediction by ZEFSAII (Michael W. Deem and Ramdas Pophale) SiO2 
 PCOD9336198
Probable space group: I 21 21 21
;
_chemical_formula_sum "Si O2"
_cell_formula_units_Z 28
_cell_length_a 7.576831
_cell_length_b 11.691631
_cell_length_c 12.418769
_cell_angle_alpha 90.000000
_cell_angle_beta 90.000000
_cell_angle_gamma 90.000000
_cell_volume 1100.123013
_symmetry_space_group_name_H-M "I 21 21 21"
_symmetry_group_IT_number 24
_symmetry_cell_setting 'orthorhombic'
loop_
_space_group_symop_operation_xyz
x,y,z
-x,1/2-y,z
x,-y,1/2-z
1/2-x,y,-z
1/2+x,1/2+y,1/2+z
1/2-x,-y,1/2+z
1/2+x,1/2-y,-z
-x,1/2+y,1/2-z
loop_
_atom_site_type_symbol
_atom_site_label
_atom_site_fract_x
_atom_site_fract_y
_atom_site_fract_z
Si Si1 0.250000 0.046749 0.000000
Si Si2 0.199108 0.247877 0.153530
Si Si3 0.298253 0.283168 0.382518
Si Si4 0.926845 0.020996 0.872486
O O1 0.265385 0.132029 0.101427
O O2 0.437803 0.990133 0.028898
O O3 0.194513 0.234963 0.281550
O O4 0.324476 0.356368 0.124412
O O5 0.000000 0.250000 0.110662
O O6 0.500000 0.250000 0.360176
O O7 0.250000 0.240976 0.500000
O O8 0.281849 0.420106 0.378391
O O9 0.000138 0.000000 0.750000
#
# Coordination Sequence:
#
# PCOD9336198 Si02
#       4
#     4   8   8   8
#     4  12  24  42  80 100 150 186 244 308 376 442
#     4  11  23  43  72 104 142 191 244 304 369 442
#     4  11  25  45  69  98 150 193 245 303 376 447
#     4  10  24  46  69 110 147 192 247 310 373 448
#
# _framework density 25.451699999999999
#
# number of rings (size 3 to 8) (size 9 to 14) (size 15 to 20)
#    0.000    1.143    0.000    6.857    8.000    0.000 
#    5.143    0.000    0.000    0.000    0.000    0.000 
#    0.000    0.000    0.000    0.000    0.000    0.000 
#
# Total GULP energy -78146.131802 kJ/mol
# GULP energy per Si atom -5581.866557 kJ/mol
# Density = 2.539377 g / cm^3
# Si number density = 25.451700 Si / 1000 Ang^3
#
#
#
# Elastic Constant Matrix: (Units=GPa)
#
#
# Indices 1 2 3 4 5 6 
#
# 1 105.1028 10.1912 26.5737 0.0000 0.0000 0.0000
# 2 10.1912 64.5482 28.6751 0.0000 0.0000 0.0000
# 3 26.5737 28.6751 169.8745 0.0000 0.0000 0.0000
# 4 0.0000 0.0000 0.0000 30.4731 0.0000 0.0000
# 5 0.0000 0.0000 0.0000 0.0000 55.2611 0.0000
# 6 0.0000 0.0000 0.0000 0.0000 0.0000 1.1009
#
#
#
# Elastic Compliance Matrix: (Units=1/GPa)
#
#
# Indices 1 2 3 4 5 6 
#
# 1 0.009960 -0.000952 -0.001397 0.000000 0.000000 0.000000
# 2 -0.000952 0.016839 -0.002694 0.000000 0.000000 0.000000
# 3 -0.001397 -0.002694 0.006560 0.000000 0.000000 0.000000
# 4 0.000000 0.000000 0.000000 0.032816 0.000000 0.000000
# 5 0.000000 0.000000 0.000000 0.000000 0.018096 0.000000
# 6 0.000000 0.000000 0.000000 0.000000 0.000000 0.908359
#
#
# Mechanical properties :
#
#
# Convention : Reuss Voigt Hill
#
# Bulk Modulus (GPa) = 42.96691 52.26725 47.61708
# Shear Modulus (GPa) = 4.94818 35.63941 20.29379
#
# Velocity S-wave (km/s) = 1.39584 3.74609 2.82679
# Velocity P-wave (km/s) = 4.41772 6.26828 5.42252
#
# Compressibility (1/GPa) = 0.02327373
#
# Stress axis : x y z
#
# Youngs Moduli (GPa) = 100.40062 59.38537 152.43946
#
# Poissons Ratio (x) = 0.05652 0.21302
# Poissons Ratio (y) = 0.09556 0.41061
# Poissons Ratio (z) = 0.14030 0.15996
#
# Static dielectric constant tensor:
#      x y z
#    x 2.567600 0.000000 0.000000 
#    y 0.000000 2.370570 0.000000 
#    z 0.000000 0.000000 2.052660 
# 
# From -- ./inp_files/20324.got.cif
#   From: 2010.05.17/outbox.cif.g08.bks.cpg/sg24_11_cif.got.tgz:20324.got - 2010.06.04 00:33:39.
