data_PCOD9336531
_publ_section_title
;
Structure prediction by ZEFSAII (Michael W. Deem and Ramdas Pophale) SiO2 
 PCOD9336531
Probable space group: I 21 21 21
;
_chemical_formula_sum "Si O2"
_cell_formula_units_Z 56
_cell_length_a 12.422785
_cell_length_b 14.532419
_cell_length_c 13.953301
_cell_angle_alpha 90.000000
_cell_angle_beta 90.000000
_cell_angle_gamma 90.000000
_cell_volume 2519.032919
_symmetry_space_group_name_H-M "I 21 21 21"
_symmetry_group_IT_number 24
_symmetry_cell_setting 'orthorhombic'
loop_
_space_group_symop_operation_xyz
x,y,z
-x,1/2-y,z
x,-y,1/2-z
1/2-x,y,-z
1/2+x,1/2+y,1/2+z
1/2-x,-y,1/2+z
1/2+x,1/2-y,-z
-x,1/2+y,1/2-z
loop_
_atom_site_type_symbol
_atom_site_label
_atom_site_fract_x
_atom_site_fract_y
_atom_site_fract_z
Si Si1 0.297712 0.475268 0.344097
Si Si2 0.493024 0.497315 0.477853
Si Si3 0.719580 0.774606 0.889246
Si Si4 0.902217 0.894017 0.369149
Si Si5 0.000000 0.250000 0.281900
Si Si6 0.913153 0.668310 0.630342
Si Si7 0.250000 0.269324 0.000000
Si Si8 0.420634 0.162278 0.349524
O O1 0.367106 0.500000 0.250000
O O2 0.371627 0.490386 0.436173
O O3 0.254937 0.371808 0.343779
O O4 0.202373 0.548618 0.338171
O O5 0.478601 0.525595 0.587801
O O6 0.553839 0.584275 0.435339
O O7 0.548620 0.407757 0.433698
O O8 0.602036 0.746183 0.853657
O O9 0.799666 0.695526 0.858251
O O10 0.750000 0.787673 0.000000
O O11 0.848126 0.827349 0.450991
O O12 0.964948 0.833138 0.290652
O O13 0.802838 0.710754 0.587165
O O14 0.923313 0.632073 0.738997
O O15 0.000000 0.750000 0.624031
O O16 0.500000 0.250000 0.359087
#
# Coordination Sequence:
#
# PCOD9336531 Si02
#       8
#     8   8   8   8   4   8   4   8
#     4  12  23  42  74 116 144 191 263 325 380 466
#     4  12  23  42  74 109 149 199 256 318 392 465
#     4  12  28  49  77 107 149 209 261 321 402 484
#     4  12  23  43  74 115 156 196 257 331 396 481
#     4  12  28  50  76 120 162 206 262 340 424 470
#     4  11  22  40  67 105 143 196 246 317 383 465
#     4  12  22  40  72 112 156 196 254 318 410 466
#     4  11  25  44  71 106 151 198 263 324 384 468
#
# _framework density 22.230751999999999
#
# number of rings (size 3 to 8) (size 9 to 14) (size 15 to 20)
#    0.000    0.286    5.714    3.857    3.000    0.000 
#    1.286    0.000   15.714    0.000    0.000    0.000 
#    0.000    0.000    0.000    0.000    0.000    0.000 
#
# Total GULP energy -156344.194750 kJ/mol
# GULP energy per Si atom -5583.721241 kJ/mol
# Density = 2.218015 g / cm^3
# Si number density = 22.230752 Si / 1000 Ang^3
#
#
#
# Elastic Constant Matrix: (Units=GPa)
#
#
# Indices 1 2 3 4 5 6 
#
# 1 133.8756 53.3550 49.9704 0.0000 0.0000 0.0000
# 2 53.3550 64.9231 23.6190 0.0001 0.0000 0.0000
# 3 49.9704 23.6190 86.8682 0.0001 0.0000 0.0000
# 4 0.0000 0.0001 0.0001 -65.4020 0.0000 0.0000
# 5 0.0000 0.0000 0.0000 0.0000 30.5183 0.0000
# 6 0.0000 0.0000 0.0000 0.0000 0.0000 47.8502
#
#
#
# Elastic Compliance Matrix: (Units=1/GPa)
#
#
# Indices 1 2 3 4 5 6 
#
# 1 0.012805 -0.008704 -0.004999 0.000000 0.000000 0.000000
# 2 -0.008704 0.023011 -0.001249 0.000000 0.000000 0.000000
# 3 -0.004999 -0.001249 0.014727 0.000000 0.000000 0.000000
# 4 0.000000 0.000000 0.000000 -0.015290 0.000000 0.000000
# 5 0.000000 0.000000 0.000000 0.000000 0.032767 0.000000
# 6 0.000000 0.000000 0.000000 0.000000 0.000000 0.020899
#
#
# Mechanical properties :
#
#
# Convention : Reuss Voigt Hill
#
# Bulk Modulus (GPa) = 48.45713 59.95062 54.20388
# Shear Modulus (GPa) = 39.77628 13.17480 26.47554
#
# Velocity S-wave (km/s) = 4.23454 2.43706 3.45475
# Velocity P-wave (km/s) = 6.76410 5.91143 6.35209
#
# Compressibility (1/GPa) = 0.02063680
#
# Stress axis : x y z
#
# Youngs Moduli (GPa) = 78.09652 43.45780 67.90208
#
# Poissons Ratio (x) = 0.37828 0.33945
# Poissons Ratio (y) = 0.67979 0.08483
# Poissons Ratio (z) = 0.39041 0.05429
#
# Static dielectric constant tensor:
#      x y z
#    x 1.821210 0.000000 0.000000 
#    y 0.000000 1.871220 0.000000 
#    z 0.000000 0.000000 1.725000 
# 
# From -- ./inp_files/25867.got.cif
#   From: 2010.05.17/outbox.cif.g08.bks.cpg/sg24_13_cif.got.tgz:25867.got - 2010.06.04 00:33:39.
