data_PCOD9336922
_publ_section_title
;
Structure prediction by ZEFSAII (Michael W. Deem and Ramdas Pophale) SiO2 
 PCOD9336922
Probable space group: I 21 21 21
;
_chemical_formula_sum "Si O2"
_cell_formula_units_Z 40
_cell_length_a 18.351266
_cell_length_b 15.677322
_cell_length_c 5.914669
_cell_angle_alpha 90.000000
_cell_angle_beta 90.000000
_cell_angle_gamma 90.000000
_cell_volume 1701.642619
_symmetry_space_group_name_H-M "I 21 21 21"
_symmetry_group_IT_number 24
_symmetry_cell_setting 'orthorhombic'
loop_
_space_group_symop_operation_xyz
x,y,z
-x,1/2-y,z
x,-y,1/2-z
1/2-x,y,-z
1/2+x,1/2+y,1/2+z
1/2-x,-y,1/2+z
1/2+x,1/2-y,-z
-x,1/2+y,1/2-z
loop_
_atom_site_type_symbol
_atom_site_label
_atom_site_fract_x
_atom_site_fract_y
_atom_site_fract_z
Si Si1 0.750000 0.853169 0.500000
Si Si2 0.323047 0.500000 0.250000
Si Si3 0.054967 0.446588 0.459537
Si Si4 0.500000 0.250000 0.053463
Si Si5 0.883241 0.214460 0.269711
Si Si6 0.709461 0.500000 0.250000
Si Si7 0.090662 0.862477 0.882176
O O1 0.725882 0.917694 0.298046
O O2 0.812628 0.796720 0.384617
O O3 0.381832 0.508204 0.449238
O O4 0.026781 0.500000 0.250000
O O5 0.103883 0.360348 0.449763
O O6 0.980996 0.420573 0.583345
O O7 0.560495 0.296295 0.199359
O O8 0.546748 0.192991 0.885483
O O9 0.890179 0.305578 0.395227
O O10 0.750000 0.510718 0.500000
O O11 0.657727 0.418036 0.294790
#
# Coordination Sequence:
#
# PCOD9336922 Si02
#       7
#     4   4   8   4   8   4   8
#     4  12  26  44  72 112 166 216 258 334 440 524
#     4  12  25  46  68 111 158 204 256 320 422 523
#     4  12  24  46  77 112 149 200 266 342 408 495
#     4  12  24  50  78 116 150 202 284 354 410 494
#     4  12  26  47  74 117 160 201 273 344 422 507
#     4  12  35  60  84 125 178 236 294 356 442 535
#     4  12  28  51  84 114 156 217 288 355 422 503
#
# _framework density 23.506698
#
# number of rings (size 3 to 8) (size 9 to 14) (size 15 to 20)
#    0.000    0.000    6.000    3.000    7.000    1.600 
#    0.000    0.000    0.000    0.000    0.000    0.000 
#    0.000    0.000    0.000    0.000    0.000    0.000 
#
# Total GULP energy -111527.190982 kJ/mol
# GULP energy per Si atom -5576.359549 kJ/mol
# Density = 2.345320 g / cm^3
# Si number density = 23.506698 Si / 1000 Ang^3
#
#
#
# Elastic Constant Matrix: (Units=GPa)
#
#
# Indices 1 2 3 4 5 6 
#
# 1 146.9886 45.2670 48.9873 0.0000 0.0000 0.0000
# 2 45.2670 91.8616 32.9250 0.0000 0.0000 0.0000
# 3 48.9873 32.9250 71.8861 0.0000 0.0000 0.0000
# 4 0.0000 0.0000 0.0000 18.3972 0.0000 0.0000
# 5 0.0000 0.0000 0.0000 0.0000 32.6434 0.0000
# 6 0.0000 0.0000 0.0000 0.0000 0.0000 55.6244
#
#
#
# Elastic Compliance Matrix: (Units=1/GPa)
#
#
# Indices 1 2 3 4 5 6 
#
# 1 0.009362 -0.002784 -0.005105 0.000000 0.000000 0.000000
# 2 -0.002784 0.013852 -0.004447 0.000000 0.000000 0.000000
# 3 -0.005105 -0.004447 0.019427 0.000000 0.000000 0.000000
# 4 0.000000 0.000000 0.000000 0.054356 0.000000 0.000000
# 5 0.000000 0.000000 0.000000 0.000000 0.030634 0.000000
# 6 0.000000 0.000000 0.000000 0.000000 0.000000 0.017978
#
#
# Mechanical properties :
#
#
# Convention : Reuss Voigt Hill
#
# Bulk Modulus (GPa) = 55.65279 62.78833 59.22056
# Shear Modulus (GPa) = 28.36579 33.57013 30.96796
#
# Velocity S-wave (km/s) = 3.47754 3.78313 3.63355
# Velocity P-wave (km/s) = 6.31277 6.77138 6.54609
#
# Compressibility (1/GPa) = 0.01796855
#
# Stress axis : x y z
#
# Youngs Moduli (GPa) = 106.81760 72.19356 51.47603
#
# Poissons Ratio (x) = 0.20096 0.26277
# Poissons Ratio (y) = 0.29734 0.22893
# Poissons Ratio (z) = 0.54527 0.32107
#
# Static dielectric constant tensor:
#      x y z
#    x 1.815080 0.000000 0.000000 
#    y 0.000000 1.977020 0.000000 
#    z 0.000000 0.000000 2.018580 
# 
# From -- ./inp_files/4582.got.cif
#   From: 2010.05.17/outbox.cif.g08.bks.cpg/sg24_3_cif.got.tgz:4582.got - 2010.06.04 00:33:39.
