data_PCOD9336833
_publ_section_title
;
Structure prediction by ZEFSAII (Michael W. Deem and Ramdas Pophale) SiO2 
 PCOD9336833
Probable space group: I 21 21 21
;
_chemical_formula_sum "Si O2"
_cell_formula_units_Z 40
_cell_length_a 4.928138
_cell_length_b 29.965011
_cell_length_c 12.634079
_cell_angle_alpha 90.000000
_cell_angle_beta 90.000000
_cell_angle_gamma 90.000000
_cell_volume 1865.696042
_symmetry_space_group_name_H-M "I 21 21 21"
_symmetry_group_IT_number 24
_symmetry_cell_setting 'orthorhombic'
loop_
_space_group_symop_operation_xyz
x,y,z
-x,1/2-y,z
x,-y,1/2-z
1/2-x,y,-z
1/2+x,1/2+y,1/2+z
1/2-x,-y,1/2+z
1/2+x,1/2-y,-z
-x,1/2+y,1/2-z
loop_
_atom_site_type_symbol
_atom_site_label
_atom_site_fract_x
_atom_site_fract_y
_atom_site_fract_z
Si Si1 0.344852 0.032855 0.658196
Si Si2 0.166239 0.405486 0.622484
Si Si3 0.763116 0.834245 0.702005
Si Si4 0.750000 0.102075 0.000000
Si Si5 0.250000 0.960162 0.500000
Si Si6 0.713561 0.290413 0.881593
O O1 0.608369 0.062608 0.677389
O O2 0.111567 0.066909 0.624769
O O3 0.244331 0.000000 0.750000
O O4 0.409193 0.995358 0.572441
O O5 0.250000 0.397605 0.500000
O O6 0.149458 0.361539 0.694855
O O7 0.713970 0.867408 0.603036
O O8 0.465975 0.813242 0.710217
O O9 0.982315 0.797011 0.665028
O O10 0.490999 0.072450 0.033410
O O11 0.500000 0.250000 0.909322
O O12 0.750000 0.311200 0.000000
#
# Coordination Sequence:
#
# PCOD9336833 Si02
#       6
#     8   8   8   4   4   8
#     4  12  23  41  61  87 122 174 235 286 330 373
#     4  12  24  44  64  92 131 180 231 275 325 393
#     4  12  24  41  66  98 139 168 218 267 329 409
#     4  12  22  38  56  97 130 170 212 279 330 376
#     4  12  22  36  58  83 124 168 220 277 324 370
#     4  12  23  43  69 104 136 167 200 264 342 419
#
# _framework density 21.439720999999999
#
# number of rings (size 3 to 8) (size 9 to 14) (size 15 to 20)
#    0.000    0.000    4.000    8.400    0.000    0.000 
#    0.000    0.000    0.000    2.400    0.000    1.400 
#    0.000    0.000    0.000    0.000    0.000    0.000 
#
# Total GULP energy -111396.214907 kJ/mol
# GULP energy per Si atom -5569.810745 kJ/mol
# Density = 2.139092 g / cm^3
# Si number density = 21.439721 Si / 1000 Ang^3
#
#
#
# Elastic Constant Matrix: (Units=GPa)
#
#
# Indices 1 2 3 4 5 6 
#
# 1 134.0466 17.9511 -14.3643 0.0000 0.0000 0.0000
# 2 17.9511 63.2109 19.4448 0.0000 0.0000 0.0000
# 3 -14.3643 19.4448 63.6755 0.0000 0.0000 0.0000
# 4 0.0000 0.0000 0.0000 17.0625 0.0000 0.0000
# 5 0.0000 0.0000 0.0000 0.0000 18.0064 0.0000
# 6 0.0000 0.0000 0.0000 0.0000 0.0000 118.2285
#
#
#
# Elastic Compliance Matrix: (Units=1/GPa)
#
#
# Indices 1 2 3 4 5 6 
#
# 1 0.008190 -0.003194 0.002823 0.000000 0.000000 0.000000
# 2 -0.003194 0.018706 -0.006433 0.000000 0.000000 0.000000
# 3 0.002823 -0.006433 0.018306 0.000000 0.000000 0.000000
# 4 0.000000 0.000000 0.000000 0.058608 0.000000 0.000000
# 5 0.000000 0.000000 0.000000 0.000000 0.055536 0.000000
# 6 0.000000 0.000000 0.000000 0.000000 0.000000 0.008458
#
#
# Mechanical properties :
#
#
# Convention : Reuss Voigt Hill
#
# Bulk Modulus (GPa) = 31.65161 34.11068 32.88115
# Shear Modulus (GPa) = 26.04922 46.51958 36.28440
#
# Velocity S-wave (km/s) = 3.48946 4.66315 4.11833
# Velocity P-wave (km/s) = 5.57048 6.70357 6.16312
#
# Compressibility (1/GPa) = 0.03159397
#
# Stress axis : x y z
#
# Youngs Moduli (GPa) = 122.09414 53.45841 54.62705
#
# Poissons Ratio (x) = 0.17077 -0.15422
# Poissons Ratio (y) = 0.39002 0.35141
# Poissons Ratio (z) = -0.34469 0.34390
#
# Static dielectric constant tensor:
#      x y z
#    x 1.754280 0.000000 0.000000 
#    y 0.000000 1.819030 0.000000 
#    z 0.000000 0.000000 1.494200 
# 
# From -- ./inp_files/17639.got.cif
#   From: 2010.05.17/outbox.cif.g08.bks.cpg/sg24_9_cif.got.tgz:17639.got - 2010.06.04 00:33:39.
