data_PCOD9336597
_publ_section_title
;
Structure prediction by ZEFSAII (Michael W. Deem and Ramdas Pophale) SiO2 
 PCOD9336597
Probable space group: I 21 21 21
;
_chemical_formula_sum "Si O2"
_cell_formula_units_Z 28
_cell_length_a 13.896489
_cell_length_b 5.266019
_cell_length_c 17.078386
_cell_angle_alpha 90.000000
_cell_angle_beta 90.000000
_cell_angle_gamma 90.000000
_cell_volume 1249.782200
_symmetry_space_group_name_H-M "I 21 21 21"
_symmetry_group_IT_number 24
_symmetry_cell_setting 'orthorhombic'
loop_
_space_group_symop_operation_xyz
x,y,z
-x,1/2-y,z
x,-y,1/2-z
1/2-x,y,-z
1/2+x,1/2+y,1/2+z
1/2-x,-y,1/2+z
1/2+x,1/2-y,-z
-x,1/2+y,1/2-z
loop_
_atom_site_type_symbol
_atom_site_label
_atom_site_fract_x
_atom_site_fract_y
_atom_site_fract_z
Si Si1 0.661075 0.525335 0.938487
Si Si2 0.500000 0.750000 0.037799
Si Si3 0.192109 0.454236 0.160308
Si Si4 0.086582 0.429355 0.838607
O O1 0.561227 0.566061 0.983781
O O2 0.645088 0.278303 0.885192
O O3 0.682630 0.781931 0.887885
O O4 0.750000 0.485901 0.000000
O O5 0.419663 0.647672 0.097504
O O6 0.160776 0.500000 0.250000
O O7 0.303054 0.352697 0.164448
O O8 0.060922 0.500000 0.750000
O O9 0.000000 0.250000 0.864661
#
# Coordination Sequence:
#
# PCOD9336597 Si02
#       4
#     8   4   8   8
#     4  12  25  46  70 108 143 183 236 295 354 418
#     4  12  26  42  70 104 142 184 236 298 356 414
#     4  11  26  47  72  99 143 191 236 287 356 423
#     4  11  23  40  68 104 144 184 230 291 367 436
#
# _framework density 22.403904000000001
#
# number of rings (size 3 to 8) (size 9 to 14) (size 15 to 20)
#    0.000    0.571    4.286    3.429    4.000    0.000 
#    0.000    2.857    0.000    0.000    0.000    0.000 
#    0.000    0.000    0.000    0.000    0.000    0.000 
#
# Total GULP energy -78182.430710 kJ/mol
# GULP energy per Si atom -5584.459336 kJ/mol
# Density = 2.235291 g / cm^3
# Si number density = 22.403904 Si / 1000 Ang^3
#
#
#
# Elastic Constant Matrix: (Units=GPa)
#
#
# Indices 1 2 3 4 5 6 
#
# 1 50.7385 8.8769 38.8918 0.0000 0.0000 0.0000
# 2 8.8769 121.5258 86.6862 0.0000 0.0000 0.0000
# 3 38.8918 86.6862 184.4096 0.0000 0.0000 0.0000
# 4 0.0000 0.0000 0.0000 8.9325 0.0000 0.0000
# 5 0.0000 0.0000 0.0000 0.0000 43.8587 0.0000
# 6 0.0000 0.0000 0.0000 0.0000 0.0000 25.6286
#
#
#
# Elastic Compliance Matrix: (Units=1/GPa)
#
#
# Indices 1 2 3 4 5 6 
#
# 1 0.024131 0.002810 -0.006410 0.000000 0.000000 0.000000
# 2 0.002810 0.012707 -0.006566 0.000000 0.000000 0.000000
# 3 -0.006410 -0.006566 0.009861 0.000000 0.000000 0.000000
# 4 0.000000 0.000000 0.000000 0.111951 0.000000 0.000000
# 5 0.000000 0.000000 0.000000 0.000000 0.022800 0.000000
# 6 0.000000 0.000000 0.000000 0.000000 0.000000 0.039019
#
#
# Mechanical properties :
#
#
# Convention : Reuss Voigt Hill
#
# Bulk Modulus (GPa) = 37.92696 69.50931 53.71813
# Shear Modulus (GPa) = 20.03287 30.49855 25.26571
#
# Velocity S-wave (km/s) = 2.99351 3.69359 3.36182
# Velocity P-wave (km/s) = 5.37714 7.02019 6.25286
#
# Compressibility (1/GPa) = 0.02636647
#
# Stress axis : x y z
#
# Youngs Moduli (GPa) = 41.44121 78.69727 101.41034
#
# Poissons Ratio (x) = -0.22111 0.65002
# Poissons Ratio (y) = -0.11643 0.66583
# Poissons Ratio (z) = 0.26563 0.51671
#
# Static dielectric constant tensor:
#      x y z
#    x 1.918090 0.000000 0.000000 
#    y 0.000000 2.021970 0.000000 
#    z 0.000000 0.000000 1.804820 
# 
# From -- ./inp_files/23441.got.cif
#   From: 2010.05.17/outbox.cif.g08.bks.cpg/sg24_12_cif.got.tgz:23441.got - 2010.06.04 00:33:39.
