data_PCOD9336140
_publ_section_title
;
Structure prediction by ZEFSAII (Michael W. Deem and Ramdas Pophale) SiO2 
 PCOD9336140
Probable space group: I 21 21 21
;
_chemical_formula_sum "Si O2"
_cell_formula_units_Z 36
_cell_length_a 28.398049
_cell_length_b 7.783549
_cell_length_c 7.590574
_cell_angle_alpha 90.000000
_cell_angle_beta 90.000000
_cell_angle_gamma 90.000000
_cell_volume 1677.802304
_symmetry_space_group_name_H-M "I 21 21 21"
_symmetry_group_IT_number 24
_symmetry_cell_setting 'orthorhombic'
loop_
_space_group_symop_operation_xyz
x,y,z
-x,1/2-y,z
x,-y,1/2-z
1/2-x,y,-z
1/2+x,1/2+y,1/2+z
1/2-x,-y,1/2+z
1/2+x,1/2-y,-z
-x,1/2+y,1/2-z
loop_
_atom_site_type_symbol
_atom_site_label
_atom_site_fract_x
_atom_site_fract_y
_atom_site_fract_z
Si Si1 0.457338 0.872848 0.605891
Si Si2 0.860971 0.801055 0.308788
Si Si3 0.760368 0.796215 0.290647
Si Si4 0.411470 0.000000 0.250000
Si Si5 0.841616 0.795996 0.724535
O O1 0.500000 0.750000 0.559074
O O2 0.411242 0.790770 0.702704
O O3 0.477824 0.000000 0.750000
O O4 0.440495 0.954946 0.423502
O O5 0.811490 0.728992 0.228576
O O6 0.848579 0.784111 0.514862
O O7 0.865855 0.000000 0.250000
O O8 0.750000 0.774105 0.500000
O O9 0.710436 0.740912 0.210009
O O10 0.763005 0.000000 0.250000
O O11 0.379372 0.164569 0.300371
O O12 0.848100 0.000000 0.750000
#
# Coordination Sequence:
#
# PCOD9336140 Si02
#       5
#     8   8   8   4   8
#     4  11  25  45  65  93 126 165 218 276 332 384
#     4   9  18  34  59  88 121 163 210 257 316 382
#     4   8  14  28  52  83 122 160 203 246 306 383
#     4  10  24  44  64  98 128 160 222 268 326 396
#     4   9  18  34  60  89 126 168 202 258 320 380
#
# _framework density 21.45664
#
# number of rings (size 3 to 8) (size 9 to 14) (size 15 to 20)
#    0.000    2.667    0.000    0.667    3.111    0.889 
#   10.000    0.000    0.000    0.000    0.000    0.000 
#    0.000    0.000    0.000    0.000    0.000    0.000 
#
# Total GULP energy -100235.037761 kJ/mol
# GULP energy per Si atom -5568.613209 kJ/mol
# Density = 2.140780 g / cm^3
# Si number density = 21.456640 Si / 1000 Ang^3
#
#
#
# Elastic Constant Matrix: (Units=GPa)
#
#
# Indices 1 2 3 4 5 6 
#
# 1 125.3196 59.3515 50.1930 0.0000 0.0000 0.0000
# 2 59.3515 69.1430 25.0314 0.0000 0.0000 0.0000
# 3 50.1930 25.0314 61.2387 0.0000 0.0000 0.0000
# 4 0.0000 0.0000 0.0000 32.1141 0.0000 0.0000
# 5 0.0000 0.0000 0.0000 0.0000 56.6185 0.0000
# 6 0.0000 0.0000 0.0000 0.0000 0.0000 -77.5765
#
#
#
# Elastic Compliance Matrix: (Units=1/GPa)
#
#
# Indices 1 2 3 4 5 6 
#
# 1 0.017071 -0.011253 -0.009392 0.000000 0.000000 0.000000
# 2 -0.011253 0.024393 -0.000747 0.000000 0.000000 0.000000
# 3 -0.009392 -0.000747 0.024333 0.000000 0.000000 0.000000
# 4 0.000000 0.000000 0.000000 0.031139 0.000000 0.000000
# 5 0.000000 0.000000 0.000000 0.000000 0.017662 0.000000
# 6 0.000000 0.000000 0.000000 0.000000 0.000000 -0.012891
#
#
# Mechanical properties :
#
#
# Convention : Reuss Voigt Hill
#
# Bulk Modulus (GPa) = 43.45581 58.31702 50.88641
# Shear Modulus (GPa) = 32.85961 10.30625 21.58293
#
# Velocity S-wave (km/s) = 3.91761 2.19402 3.17501
# Velocity P-wave (km/s) = 6.38439 5.80141 6.09986
#
# Compressibility (1/GPa) = 0.02301188
#
# Stress axis : x y z
#
# Youngs Moduli (GPa) = 58.57951 40.99549 41.09667
#
# Poissons Ratio (x) = 0.46133 0.38598
# Poissons Ratio (y) = 0.65921 0.03071
# Poissons Ratio (z) = 0.55018 0.03063
#
# Static dielectric constant tensor:
#      x y z
#    x 1.855560 0.000000 0.000000 
#    y 0.000000 1.764280 0.000000 
#    z 0.000000 0.000000 1.807220 
# 
# From -- ./inp_files/16668.got.cif
#   From: 2010.05.17/outbox.cif.g08.bks.cpg/sg24_9_cif.got.tgz:16668.got - 2010.06.04 00:33:39.
