data_PCOD9336261
_publ_section_title
;
Structure prediction by ZEFSAII (Michael W. Deem and Ramdas Pophale) SiO2 
 PCOD9336261
Probable space group: I 21 21 21
;
_chemical_formula_sum "Si O2"
_cell_formula_units_Z 32
_cell_length_a 21.269027
_cell_length_b 7.716514
_cell_length_c 8.239018
_cell_angle_alpha 90.000000
_cell_angle_beta 90.000000
_cell_angle_gamma 90.000000
_cell_volume 1352.210247
_symmetry_space_group_name_H-M "I 21 21 21"
_symmetry_group_IT_number 24
_symmetry_cell_setting 'orthorhombic'
loop_
_space_group_symop_operation_xyz
x,y,z
-x,1/2-y,z
x,-y,1/2-z
1/2-x,y,-z
1/2+x,1/2+y,1/2+z
1/2-x,-y,1/2+z
1/2+x,1/2-y,-z
-x,1/2+y,1/2-z
loop_
_atom_site_type_symbol
_atom_site_label
_atom_site_fract_x
_atom_site_fract_y
_atom_site_fract_z
Si Si1 0.500000 0.750000 0.156906
Si Si2 0.183923 0.064383 0.067339
Si Si3 0.316421 0.526072 0.559290
Si Si4 0.403381 0.500000 0.250000
Si Si5 0.961449 0.566096 0.435535
O O1 0.441613 0.681892 0.261912
O O2 0.507590 0.580481 0.047284
O O3 0.190503 0.268953 0.054385
O O4 0.111873 0.044970 0.008024
O O5 0.181985 0.000000 0.250000
O O6 0.250000 0.988249 0.000000
O O7 0.332906 0.500000 0.750000
O O8 0.250000 0.446533 0.500000
O O9 0.364402 0.477084 0.416802
O O10 0.963753 0.500000 0.250000
O O11 0.000000 0.750000 0.434469
#
# Coordination Sequence:
#
# PCOD9336261 Si02
#       5
#     4   8   8   4   8
#     4  12  30  48  72 114 166 216 262 336 388 488
#     4  10  25  44  72 113 151 201 253 322 399 474
#     4  11  25  49  79 115 156 202 260 328 399 474
#     4  12  30  50  76 122 156 210 270 326 402 476
#     4  11  24  47  80 117 159 211 273 331 402 480
#
# _framework density 23.664956
#
# number of rings (size 3 to 8) (size 9 to 14) (size 15 to 20)
#    0.000    1.000    2.500    1.500   12.250    7.000 
#    0.000    1.250    0.000    0.000    0.000    0.000 
#    0.000    0.000    0.000    0.000    0.000    0.000 
#
# Total GULP energy -89135.383199 kJ/mol
# GULP energy per Si atom -5570.961450 kJ/mol
# Density = 2.361109 g / cm^3
# Si number density = 23.664956 Si / 1000 Ang^3
#
#
#
# Elastic Constant Matrix: (Units=GPa)
#
#
# Indices 1 2 3 4 5 6 
#
# 1 182.5710 52.0906 74.6021 0.0000 0.0000 0.0000
# 2 52.0906 93.7369 17.5416 0.0000 0.0000 0.0000
# 3 74.6021 17.5416 147.9939 0.0000 0.0000 0.0000
# 4 0.0000 0.0000 0.0000 41.9060 0.0000 0.0000
# 5 0.0000 0.0000 0.0000 0.0000 52.4080 0.0000
# 6 0.0000 0.0000 0.0000 0.0000 0.0000 0.1252
#
#
#
# Elastic Compliance Matrix: (Units=1/GPa)
#
#
# Indices 1 2 3 4 5 6 
#
# 1 0.008028 -0.003788 -0.003598 0.000000 0.000000 0.000000
# 2 -0.003788 0.012698 0.000405 0.000000 0.000000 0.000000
# 3 -0.003598 0.000405 0.008523 0.000000 0.000000 0.000000
# 4 0.000000 0.000000 0.000000 0.023863 0.000000 0.000000
# 5 0.000000 0.000000 0.000000 0.000000 0.019081 0.000000
# 6 0.000000 0.000000 0.000000 0.000000 0.000000 7.989006
#
#
# Mechanical properties :
#
#
# Convention : Reuss Voigt Hill
#
# Bulk Modulus (GPa) = 65.42146 79.19669 72.30907
# Shear Modulus (GPa) = 0.61879 37.55899 19.08889
#
# Velocity S-wave (km/s) = 0.51191 3.98818 2.84321
# Velocity P-wave (km/s) = 5.29663 7.39905 6.43429
#
# Compressibility (1/GPa) = 0.01528550
#
# Stress axis : x y z
#
# Youngs Moduli (GPa) = 124.55857 78.75531 117.33229
#
# Poissons Ratio (x) = 0.29833 0.42216
# Poissons Ratio (y) = 0.47184 -0.04746
# Poissons Ratio (z) = 0.44816 -0.03186
#
# Static dielectric constant tensor:
#      x y z
#    x 2.174970 0.000000 0.000000 
#    y 0.000000 1.848830 0.000000 
#    z 0.000000 0.000000 2.129820 
# 
# From -- ./inp_files/8972.got.cif
#   From: 2010.05.17/outbox.cif.g08.bks.cpg/sg24_5_cif.got.tgz:8972.got - 2010.06.04 00:33:39.
