data_PCOD9336871
_publ_section_title
;
Structure prediction by ZEFSAII (Michael W. Deem and Ramdas Pophale) SiO2 
 PCOD9336871
Probable space group: I 21 21 21
;
_chemical_formula_sum "Si O2"
_cell_formula_units_Z 40
_cell_length_a 20.350040
_cell_length_b 4.855957
_cell_length_c 18.087594
_cell_angle_alpha 90.000000
_cell_angle_beta 90.000000
_cell_angle_gamma 90.000000
_cell_volume 1787.396490
_symmetry_space_group_name_H-M "I 21 21 21"
_symmetry_group_IT_number 24
_symmetry_cell_setting 'orthorhombic'
loop_
_space_group_symop_operation_xyz
x,y,z
-x,1/2-y,z
x,-y,1/2-z
1/2-x,y,-z
1/2+x,1/2+y,1/2+z
1/2-x,-y,1/2+z
1/2+x,1/2-y,-z
-x,1/2+y,1/2-z
loop_
_atom_site_type_symbol
_atom_site_label
_atom_site_fract_x
_atom_site_fract_y
_atom_site_fract_z
Si Si1 0.048154 0.000000 0.750000
Si Si2 0.455725 0.500000 0.750000
Si Si3 0.874191 0.718424 0.120203
Si Si4 0.732887 0.075625 0.413252
Si Si5 0.077484 0.288660 0.036739
Si Si6 0.355671 0.907900 0.386589
O O1 0.095395 0.919553 0.682211
O O2 0.000000 0.250000 0.729153
O O3 0.500000 0.750000 0.716954
O O4 0.412318 0.334754 0.690950
O O5 0.887217 0.402955 0.098719
O O6 0.798092 0.797808 0.122830
O O7 0.905406 0.896978 0.053758
O O8 0.750000 0.025084 0.500000
O O9 0.705803 0.798842 0.376555
O O10 0.675382 0.297722 0.404806
O O11 0.000000 0.250000 0.039264
O O12 0.105988 0.201433 0.958145
#
# Coordination Sequence:
#
# PCOD9336871 Si02
#       6
#     4   4   8   8   8   8
#     4  12  28  50  70 104 150 186 234 296 356 426
#     4  12  26  46  62  92 136 174 216 274 334 398
#     4  12  25  41  68  95 134 177 220 282 340 400
#     4  12  23  45  72 103 139 172 235 291 344 410
#     4  12  23  40  66  99 128 176 232 274 333 408
#     4  12  25  44  73 101 139 186 225 291 351 409
#
# _framework density 22.378917999999999
#
# number of rings (size 3 to 8) (size 9 to 14) (size 15 to 20)
#    0.000    0.000    4.000    7.200    0.000    3.200 
#    0.000    0.000    0.000    0.000    0.000    0.000 
#    0.000    0.000    0.000    0.000    0.000    0.000 
#
# Total GULP energy -112063.536506 kJ/mol
# GULP energy per Si atom -5603.176825 kJ/mol
# Density = 2.232798 g / cm^3
# Si number density = 22.378918 Si / 1000 Ang^3
#
#
#
# Elastic Constant Matrix: (Units=GPa)
#
#
# Indices 1 2 3 4 5 6 
#
# 1 119.5951 4.9222 30.4916 0.0000 0.0000 0.0000
# 2 4.9222 73.3004 -20.4023 0.0000 0.0000 0.0000
# 3 30.4916 -20.4023 84.3728 0.0000 0.0000 0.0000
# 4 0.0000 0.0000 0.0000 14.7537 0.0000 0.0000
# 5 0.0000 0.0000 0.0000 0.0000 36.0424 0.0000
# 6 0.0000 0.0000 0.0000 0.0000 0.0000 49.8383
#
#
#
# Elastic Compliance Matrix: (Units=1/GPa)
#
#
# Indices 1 2 3 4 5 6 
#
# 1 0.009402 -0.001691 -0.003807 0.000000 0.000000 0.000000
# 2 -0.001691 0.014931 0.004222 0.000000 0.000000 0.000000
# 3 -0.003807 0.004222 0.014249 0.000000 0.000000 0.000000
# 4 0.000000 0.000000 0.000000 0.067780 0.000000 0.000000
# 5 0.000000 0.000000 0.000000 0.000000 0.027745 0.000000
# 6 0.000000 0.000000 0.000000 0.000000 0.000000 0.020065
#
#
# Mechanical properties :
#
#
# Convention : Reuss Voigt Hill
#
# Bulk Modulus (GPa) = 27.75490 34.14347 30.94919
# Shear Modulus (GPa) = 29.63273 37.61068 33.62170
#
# Velocity S-wave (km/s) = 3.64282 4.10400 3.88026
# Velocity P-wave (km/s) = 5.48841 6.14387 5.82537
#
# Compressibility (1/GPa) = 0.03602967
#
# Stress axis : x y z
#
# Youngs Moduli (GPa) = 106.36447 66.97458 70.18226
#
# Poissons Ratio (x) = 0.11324 0.26715
# Poissons Ratio (y) = 0.17984 -0.29628
# Poissons Ratio (z) = 0.40488 -0.28274
#
# Static dielectric constant tensor:
#      x y z
#    x 1.816800 0.000000 0.000000 
#    y 0.000000 1.863360 0.000000 
#    z 0.000000 0.000000 1.818210 
# 
# From -- ./inp_files/31315.got.cif
#   From: 2010.05.17/outbox.cif.g08.bks.cpg/sg24_16_cif.got.tgz:31315.got - 2010.06.04 00:33:39.
