data_PCOD9336950
_publ_section_title
;
Structure prediction by ZEFSAII (Michael W. Deem and Ramdas Pophale) SiO2 
 PCOD9336950
Probable space group: I 21 21 21
;
_chemical_formula_sum "Si O2"
_cell_formula_units_Z 48
_cell_length_a 23.592598
_cell_length_b 4.792471
_cell_length_c 16.186847
_cell_angle_alpha 90.000000
_cell_angle_beta 90.000000
_cell_angle_gamma 90.000000
_cell_volume 1830.195668
_symmetry_space_group_name_H-M "I 21 21 21"
_symmetry_group_IT_number 24
_symmetry_cell_setting 'orthorhombic'
loop_
_space_group_symop_operation_xyz
x,y,z
-x,1/2-y,z
x,-y,1/2-z
1/2-x,y,-z
1/2+x,1/2+y,1/2+z
1/2-x,-y,1/2+z
1/2+x,1/2-y,-z
-x,1/2+y,1/2-z
loop_
_atom_site_type_symbol
_atom_site_label
_atom_site_fract_x
_atom_site_fract_y
_atom_site_fract_z
Si Si1 0.000000 0.250000 0.542637
Si Si2 0.869685 0.376509 0.381309
Si Si3 0.304994 0.146358 0.460336
Si Si4 0.273355 0.000000 0.750000
Si Si5 0.688459 0.136151 0.146912
Si Si6 0.947242 0.095707 0.107228
Si Si7 0.421121 0.731764 0.193911
O O1 0.951435 0.323962 0.609316
O O2 0.026629 0.475977 0.479302
O O3 0.847667 0.262615 0.468809
O O4 0.816491 0.402824 0.321022
O O5 0.898436 0.672841 0.399776
O O6 0.917945 0.167691 0.349363
O O7 0.250000 0.003997 0.500000
O O8 0.330913 0.909204 0.402634
O O9 0.281428 0.412021 0.411600
O O10 0.231295 0.234627 0.786189
O O11 0.634033 0.951243 0.170506
O O12 0.000000 0.250000 0.149491
O O13 0.455167 0.500000 0.250000
O O14 0.408222 0.000000 0.250000
#
# Coordination Sequence:
#
# PCOD9336950 Si02
#       7
#     4   8   8   4   8   8   8
#     4  12  26  52  88 116 162 220 286 370 416 510
#     4  12  27  52  85 124 164 223 278 356 437 518
#     4  12  25  48  80 119 163 214 292 340 410 509
#     4  12  32  56  88 122 182 224 290 348 450 516
#     4  12  29  51  78 121 176 229 279 349 415 522
#     4  12  27  51  86 119 157 206 292 358 426 503
#     4  12  29  47  75 120 173 222 281 339 433 517
#
# _framework density 26.226704000000002
#
# number of rings (size 3 to 8) (size 9 to 14) (size 15 to 20)
#    0.000    0.000    3.333    5.000    8.167    2.000 
#    0.000    1.667    1.833    0.000    0.000    0.000 
#    0.000    0.000    0.000    0.000    0.000    0.000 
#
# Total GULP energy -134453.572485 kJ/mol
# GULP energy per Si atom -5602.232187 kJ/mol
# Density = 2.616701 g / cm^3
# Si number density = 26.226704 Si / 1000 Ang^3
#
#
#
# Elastic Constant Matrix: (Units=GPa)
#
#
# Indices 1 2 3 4 5 6 
#
# 1 164.1189 70.4883 66.5341 0.0000 0.0000 0.0000
# 2 70.4883 199.3288 59.1766 0.0000 0.0000 0.0000
# 3 66.5341 59.1766 100.9180 0.0000 0.0000 0.0000
# 4 0.0000 0.0000 0.0000 36.3068 0.0000 0.0000
# 5 0.0000 0.0000 0.0000 0.0000 40.1088 0.0000
# 6 0.0000 0.0000 0.0000 0.0000 0.0000 43.6714
#
#
#
# Elastic Compliance Matrix: (Units=1/GPa)
#
#
# Indices 1 2 3 4 5 6 
#
# 1 0.008754 -0.001674 -0.004790 0.000000 0.000000 0.000000
# 2 -0.001674 0.006394 -0.002646 0.000000 0.000000 0.000000
# 3 -0.004790 -0.002646 0.014619 0.000000 0.000000 0.000000
# 4 0.000000 0.000000 0.000000 0.027543 0.000000 0.000000
# 5 0.000000 0.000000 0.000000 0.000000 0.024932 0.000000
# 6 0.000000 0.000000 0.000000 0.000000 0.000000 0.022898
#
#
# Mechanical properties :
#
#
# Convention : Reuss Voigt Hill
#
# Bulk Modulus (GPa) = 86.59928 95.19596 90.89762
# Shear Modulus (GPa) = 39.30557 41.89518 40.60037
#
# Velocity S-wave (km/s) = 3.87549 4.00112 3.93880
# Velocity P-wave (km/s) = 7.28814 7.59746 7.44441
#
# Compressibility (1/GPa) = 0.01154744
#
# Stress axis : x y z
#
# Youngs Moduli (GPa) = 114.23650 156.39104 68.40598
#
# Poissons Ratio (x) = 0.26173 0.32766
# Poissons Ratio (y) = 0.19118 0.18101
# Poissons Ratio (z) = 0.54718 0.41383
#
# Static dielectric constant tensor:
#      x y z
#    x 2.115220 0.000000 0.000000 
#    y 0.000000 2.033450 0.000000 
#    z 0.000000 0.000000 2.230690 
# 
# From -- ./inp_files/31528.got.cif
#   From: 2010.05.17/outbox.cif.g08.bks.cpg/sg24_16_cif.got.tgz:31528.got - 2010.06.04 00:33:39.
