data_PCOD9336038
_publ_section_title
;
Structure prediction by ZEFSAII (Michael W. Deem and Ramdas Pophale) SiO2 
 PCOD9336038
Probable space group: I 21 21 21
;
_chemical_formula_sum "Si O2"
_cell_formula_units_Z 60
_cell_length_a 12.268063
_cell_length_b 25.858555
_cell_length_c 8.929080
_cell_angle_alpha 90.000000
_cell_angle_beta 90.000000
_cell_angle_gamma 90.000000
_cell_volume 2832.611174
_symmetry_space_group_name_H-M "I 21 21 21"
_symmetry_group_IT_number 24
_symmetry_cell_setting 'orthorhombic'
loop_
_space_group_symop_operation_xyz
x,y,z
-x,1/2-y,z
x,-y,1/2-z
1/2-x,y,-z
1/2+x,1/2+y,1/2+z
1/2-x,-y,1/2+z
1/2+x,1/2-y,-z
-x,1/2+y,1/2-z
loop_
_atom_site_type_symbol
_atom_site_label
_atom_site_fract_x
_atom_site_fract_y
_atom_site_fract_z
Si Si1 0.976128 0.806529 0.799038
Si Si2 0.941536 0.652785 0.506239
Si Si3 0.753953 0.220100 0.325642
Si Si4 0.750000 0.403558 0.500000
Si Si5 0.245077 0.833305 0.287742
Si Si6 0.982381 0.594823 0.966792
Si Si7 0.299294 0.445410 0.331594
Si Si8 0.107650 0.374201 0.232088
O O1 0.849300 0.817566 0.815364
O O2 0.039525 0.848780 0.894422
O O3 0.000000 0.750000 0.859755
O O4 0.000105 0.809946 0.623388
O O5 0.870582 0.673233 0.369443
O O6 0.838174 0.637040 0.614137
O O7 0.037713 0.621690 0.421320
O O8 0.750000 0.234473 0.500000
O O9 0.725571 0.273153 0.240022
O O10 0.855628 0.185544 0.269199
O O11 0.726868 0.366855 0.641316
O O12 0.635153 0.432712 0.474153
O O13 0.074765 0.570750 0.859397
O O14 0.034948 0.604550 0.129599
O O15 0.296346 0.500000 0.250000
O O16 0.250000 0.447553 0.500000
O O17 0.218278 0.407853 0.238520
#
# Coordination Sequence:
#
# PCOD9336038 Si02
#       8
#     8   8   8   4   8   8   8   8
#     4  12  23  38  54  85 133 173 224 273 316 388
#     4  11  25  37  52  88 136 168 224 271 328 387
#     4  12  22  37  60  85 124 175 239 275 321 386
#     4  12  20  42  66  92 126 178 224 266 314 392
#     4  11  24  37  56  87 128 187 230 263 319 386
#     4  11  22  42  67  97 126 175 230 266 325 407
#     4  10  23  46  73 103 133 164 217 279 348 417
#     4  11  23  40  66  94 130 173 217 280 339 399
#
# _framework density 21.181868000000001
#
# number of rings (size 3 to 8) (size 9 to 14) (size 15 to 20)
#    0.000    0.800    7.333    0.400    1.867    1.600 
#    0.000    0.000    0.000    3.200    0.000    0.000 
#    0.000    0.000    0.000    0.000    0.000    0.000 
#
# Total GULP energy -167031.428337 kJ/mol
# GULP energy per Si atom -5567.714278 kJ/mol
# Density = 2.113366 g / cm^3
# Si number density = 21.181868 Si / 1000 Ang^3
#
#
#
# Elastic Constant Matrix: (Units=GPa)
#
#
# Indices 1 2 3 4 5 6 
#
# 1 145.0390 20.7558 22.6763 0.0001 0.0002 0.0000
# 2 20.7558 53.1481 12.5964 -0.0001 0.0004 -0.0001
# 3 22.6763 12.5964 68.2857 -0.0001 0.0027 -0.0003
# 4 0.0001 -0.0001 -0.0001 20.2155 0.0004 -0.0004
# 5 0.0002 0.0004 0.0027 0.0004 25.3191 -0.0001
# 6 0.0000 -0.0001 -0.0003 -0.0004 -0.0001 12.1397
#
#
#
# Elastic Compliance Matrix: (Units=1/GPa)
#
#
# Indices 1 2 3 4 5 6 
#
# 1 0.007570 -0.002468 -0.002058 0.000000 0.000000 0.000000
# 2 -0.002468 0.020480 -0.002958 0.000000 0.000000 0.000000
# 3 -0.002058 -0.002958 0.015874 0.000000 -0.000002 0.000000
# 4 0.000000 0.000000 0.000000 0.049467 -0.000001 0.000002
# 5 0.000000 0.000000 -0.000002 -0.000001 0.039496 0.000000
# 6 0.000000 0.000000 0.000000 0.000002 0.000000 0.082375
#
#
# Mechanical properties :
#
#
# Convention : Reuss Voigt Hill
#
# Bulk Modulus (GPa) = 34.53786 42.05888 38.29837
# Shear Modulus (GPa) = 20.84353 25.56447 23.20400
#
# Velocity S-wave (km/s) = 3.14032 3.47782 3.31337
# Velocity P-wave (km/s) = 5.43044 6.00218 5.72345
#
# Compressibility (1/GPa) = 0.02895373
#
# Stress axis : x y z
#
# Youngs Moduli (GPa) = 132.10454 48.82711 62.99762
#
# Poissons Ratio (x) = 0.12052 0.12968
# Poissons Ratio (y) = 0.32608 0.18636
# Poissons Ratio (z) = 0.27193 0.14444
#
# Static dielectric constant tensor:
#      x y z
#    x 1.899960 0.000000 0.000000 
#    y 0.000000 1.722430 0.000000 
#    z 0.000000 0.000000 1.808810 
# 
# From -- ./inp_files/11517.got.cif
#   From: 2010.05.17/outbox.cif.g08.bks.cpg/sg24_6_cif.got.tgz:11517.got - 2010.06.04 00:33:39.
