data_PCOD9336379
_publ_section_title
;
Structure prediction by ZEFSAII (Michael W. Deem and Ramdas Pophale) SiO2 
 PCOD9336379
Probable space group: I 21 21 21
;
_chemical_formula_sum "Si O2"
_cell_formula_units_Z 48
_cell_length_a 12.570836
_cell_length_b 22.080867
_cell_length_c 8.025067
_cell_angle_alpha 90.000000
_cell_angle_beta 90.000000
_cell_angle_gamma 90.000000
_cell_volume 2227.557634
_symmetry_space_group_name_H-M "I 21 21 21"
_symmetry_group_IT_number 24
_symmetry_cell_setting 'orthorhombic'
loop_
_space_group_symop_operation_xyz
x,y,z
-x,1/2-y,z
x,-y,1/2-z
1/2-x,y,-z
1/2+x,1/2+y,1/2+z
1/2-x,-y,1/2+z
1/2+x,1/2-y,-z
-x,1/2+y,1/2-z
loop_
_atom_site_type_symbol
_atom_site_label
_atom_site_fract_x
_atom_site_fract_y
_atom_site_fract_z
Si Si1 0.166049 0.316265 0.353453
Si Si2 0.072952 0.809914 0.730408
Si Si3 0.060850 0.852288 0.063438
Si Si4 0.615227 0.714186 0.626626
Si Si5 0.527650 0.933970 0.186993
Si Si6 0.767978 0.062736 0.197577
O O1 0.250000 0.316618 0.500000
O O2 0.185695 0.263192 0.222837
O O3 0.169359 0.378578 0.252215
O O4 0.049570 0.314545 0.433082
O O5 0.138931 0.803595 0.561674
O O6 0.000000 0.750000 0.740621
O O7 0.006134 0.873217 0.711242
O O8 0.126450 0.822313 0.910496
O O9 0.106537 0.842189 0.245909
O O10 0.023485 0.917364 0.992527
O O11 0.500000 0.750000 0.617949
O O12 0.655633 0.935221 0.201289
O O13 0.491847 0.000000 0.250000
O O14 0.821516 0.000000 0.250000
O O15 0.750000 0.062994 0.000000
#
# Coordination Sequence:
#
# PCOD9336379 Si02
#       6
#     8   8   8   8   8   8
#     4  11  19  35  50  74 108 144 187 225 271 327
#     4   9  17  31  51  70 101 133 179 220 265 310
#     4   9  19  33  54  69 104 138 176 225 270 304
#     4   9  19  31  51  76  94 137 184 223 272 312
#     4   9  20  35  51  73 106 145 183 218 267 320
#     4  11  24  34  49  72 108 156 193 221 261 325
#
# _framework density 21.548262999999999
#
# number of rings (size 3 to 8) (size 9 to 14) (size 15 to 20)
#    1.000    1.333    1.667    2.000    9.333    0.000 
#    0.000    0.833    0.000    0.000    0.000    0.000 
#    0.000    2.667    0.000    0.333    0.000    0.000 
#
# Total GULP energy -133726.771279 kJ/mol
# GULP energy per Si atom -5571.948803 kJ/mol
# Density = 2.149922 g / cm^3
# Si number density = 21.548263 Si / 1000 Ang^3
#
#
#
# Elastic Constant Matrix: (Units=GPa)
#
#
# Indices 1 2 3 4 5 6 
#
# 1 22.4613 19.1425 16.6066 -0.0004 0.0001 0.0001
# 2 19.1425 142.2349 35.2625 -0.0007 0.0003 0.0001
# 3 16.6066 35.2625 145.7217 -0.0013 0.0003 0.0002
# 4 -0.0004 -0.0007 -0.0013 27.9012 -0.0002 -0.0001
# 5 0.0001 0.0003 0.0003 -0.0002 23.2645 0.0000
# 6 0.0001 0.0001 0.0002 -0.0001 0.0000 26.0170
#
#
#
# Elastic Compliance Matrix: (Units=1/GPa)
#
#
# Indices 1 2 3 4 5 6 
#
# 1 0.053028 -0.005998 -0.004592 0.000000 0.000000 0.000000
# 2 -0.005998 0.008158 -0.001290 0.000000 0.000000 0.000000
# 3 -0.004592 -0.001290 0.007698 0.000000 0.000000 0.000000
# 4 0.000000 0.000000 0.000000 0.035841 0.000000 0.000000
# 5 0.000000 0.000000 0.000000 0.000000 0.042984 0.000000
# 6 0.000000 0.000000 0.000000 0.000000 0.000000 0.038436
#
#
# Mechanical properties :
#
#
# Convention : Reuss Voigt Hill
#
# Bulk Modulus (GPa) = 22.16176 50.27123 36.21650
# Shear Modulus (GPa) = 22.22752 31.39699 26.81225
#
# Velocity S-wave (km/s) = 3.21522 3.82128 3.53127
# Velocity P-wave (km/s) = 4.90821 6.54598 5.78534
#
# Compressibility (1/GPa) = 0.04512277
#
# Stress axis : x y z
#
# Youngs Moduli (GPa) = 18.85800 122.58151 129.90489
#
# Poissons Ratio (x) = 0.73529 0.59647
# Poissons Ratio (y) = 0.11312 0.16764
# Poissons Ratio (z) = 0.08659 0.15819
#
# Static dielectric constant tensor:
#      x y z
#    x 1.829770 0.000000 0.000000 
#    y 0.000000 1.794070 0.000000 
#    z 0.000000 0.000000 1.829610 
# 
# From -- ./inp_files/14486.got.cif
#   From: 2010.05.17/outbox.cif.g08.bks.cpg/sg24_8_cif.got.tgz:14486.got - 2010.06.04 00:33:39.
