data_PCOD9336772
_publ_section_title
;
Structure prediction by ZEFSAII (Michael W. Deem and Ramdas Pophale) SiO2 
 PCOD9336772
Probable space group: I 21 21 21
;
_chemical_formula_sum "Si O2"
_cell_formula_units_Z 24
_cell_length_a 5.166076
_cell_length_b 14.287097
_cell_length_c 13.427362
_cell_angle_alpha 90.000000
_cell_angle_beta 90.000000
_cell_angle_gamma 90.000000
_cell_volume 991.049808
_symmetry_space_group_name_H-M "I 21 21 21"
_symmetry_group_IT_number 24
_symmetry_cell_setting 'orthorhombic'
loop_
_space_group_symop_operation_xyz
x,y,z
-x,1/2-y,z
x,-y,1/2-z
1/2-x,y,-z
1/2+x,1/2+y,1/2+z
1/2-x,-y,1/2+z
1/2+x,1/2-y,-z
-x,1/2+y,1/2-z
loop_
_atom_site_type_symbol
_atom_site_label
_atom_site_fract_x
_atom_site_fract_y
_atom_site_fract_z
Si Si1 0.750000 0.491288 0.000000
Si Si2 0.500000 0.250000 0.833128
Si Si3 0.750000 0.862098 0.500000
Si Si4 0.500000 0.750000 0.940796
Si Si5 0.458522 0.088572 0.689209
O O1 0.497687 0.427629 0.006012
O O2 0.730763 0.544490 0.893435
O O3 0.290631 0.297950 0.903966
O O4 0.369086 0.166082 0.769638
O O5 0.617792 0.838205 0.879063
O O6 0.750000 0.716280 0.000000
O O7 0.571064 0.000000 0.750000
#
# Coordination Sequence:
#
# PCOD9336772 Si02
#       5
#     4   4   4   4   8
#     4  12  27  54  79 110 160 202 257 320 377 456
#     4  11  26  50  81 114 156 201 258 314 387 454
#     4  12  27  54  77 114 154 204 253 324 375 458
#     4  11  26  50  75 104 154 201 250 318 377 446
#     4  11  25  51  75 118 149 207 254 316 382 456
#
# _framework density 24.216746000000001
#
# number of rings (size 3 to 8) (size 9 to 14) (size 15 to 20)
#    0.000    0.667    5.000    1.000    2.333    0.000 
#   18.000    0.000    0.000    0.000    0.000    0.000 
#    0.000    0.000    0.000    0.000    0.000    0.000 
#
# Total GULP energy -66899.712885 kJ/mol
# GULP energy per Si atom -5574.976074 kJ/mol
# Density = 2.416163 g / cm^3
# Si number density = 24.216746 Si / 1000 Ang^3
#
#
#
# Elastic Constant Matrix: (Units=GPa)
#
#
# Indices 1 2 3 4 5 6 
#
# 1 110.5029 53.7727 47.2741 0.0000 0.0000 0.0000
# 2 53.7727 203.3744 94.5814 0.0000 0.0000 0.0000
# 3 47.2741 94.5814 162.5236 0.0000 0.0000 0.0000
# 4 0.0000 0.0000 0.0000 217.9628 0.0000 0.0000
# 5 0.0000 0.0000 0.0000 0.0000 7.4743 0.0000
# 6 0.0000 0.0000 0.0000 0.0000 0.0000 26.5462
#
#
#
# Elastic Compliance Matrix: (Units=1/GPa)
#
#
# Indices 1 2 3 4 5 6 
#
# 1 0.010857 -0.001922 -0.002040 0.000000 0.000000 0.000000
# 2 -0.001922 0.007082 -0.003562 0.000000 0.000000 0.000000
# 3 -0.002040 -0.003562 0.008819 0.000000 0.000000 0.000000
# 4 0.000000 0.000000 0.000000 0.004588 0.000000 0.000000
# 5 0.000000 0.000000 0.000000 0.000000 0.133791 0.000000
# 6 0.000000 0.000000 0.000000 0.000000 0.000000 0.037670
#
#
# Mechanical properties :
#
#
# Convention : Reuss Voigt Hill
#
# Bulk Modulus (GPa) = 85.39216 96.40636 90.89926
# Shear Modulus (GPa) = 22.54696 69.11485 45.83091
#
# Velocity S-wave (km/s) = 3.05462 5.34809 4.35504
# Velocity P-wave (km/s) = 6.91224 8.83359 7.93131
#
# Compressibility (1/GPa) = 0.01171068
#
# Stress axis : x y z
#
# Youngs Moduli (GPa) = 92.10260 141.20422 113.38824
#
# Poissons Ratio (x) = 0.27143 0.23126
# Poissons Ratio (y) = 0.17704 0.40392
# Poissons Ratio (z) = 0.18784 0.50300
#
# Static dielectric constant tensor:
#      x y z
#    x 1.791180 0.000000 0.000000 
#    y 0.000000 1.985620 0.000000 
#    z 0.000000 0.000000 2.055960 
# 
# From -- ./inp_files/2883.got.cif
#   From: 2010.05.17/outbox.cif.g08.bks.cpg/sg24_2_cif.got.tgz:2883.got - 2010.06.04 00:33:39.
