data_PCOD9336292
_publ_section_title
;
Structure prediction by ZEFSAII (Michael W. Deem and Ramdas Pophale) SiO2 
 PCOD9336292
Probable space group: I 21 21 21
;
_chemical_formula_sum "Si O2"
_cell_formula_units_Z 60
_cell_length_a 17.411994
_cell_length_b 26.117140
_cell_length_c 5.885170
_cell_angle_alpha 90.000000
_cell_angle_beta 90.000000
_cell_angle_gamma 90.000000
_cell_volume 2676.289797
_symmetry_space_group_name_H-M "I 21 21 21"
_symmetry_group_IT_number 24
_symmetry_cell_setting 'orthorhombic'
loop_
_space_group_symop_operation_xyz
x,y,z
-x,1/2-y,z
x,-y,1/2-z
1/2-x,y,-z
1/2+x,1/2+y,1/2+z
1/2-x,-y,1/2+z
1/2+x,1/2-y,-z
-x,1/2+y,1/2-z
loop_
_atom_site_type_symbol
_atom_site_label
_atom_site_fract_x
_atom_site_fract_y
_atom_site_fract_z
Si Si1 0.072809 0.875953 0.571827
Si Si2 0.939446 0.000000 0.250000
Si Si3 0.449187 0.420297 0.417563
Si Si4 0.841839 0.477557 0.001253
Si Si5 0.073642 0.225603 0.696194
Si Si6 0.031341 0.322408 0.303079
Si Si7 0.660356 0.196265 0.037433
Si Si8 0.162835 0.427256 0.942566
O O1 0.132135 0.918411 0.496673
O O2 0.106776 0.826271 0.698305
O O3 0.022149 0.851526 0.374727
O O4 0.011122 0.904017 0.732273
O O5 0.983016 0.034050 0.432589
O O6 0.888884 0.957383 0.377629
O O7 0.431499 0.368226 0.550899
O O8 0.371426 0.441040 0.303185
O O9 0.865659 0.500000 0.250000
O O10 0.866700 0.500000 0.750000
O O11 0.750000 0.482028 0.000000
O O12 0.030142 0.205977 0.468270
O O13 0.132836 0.271789 0.739944
O O14 0.000000 0.250000 0.827065
O O15 0.100600 0.292963 0.172241
O O16 0.654195 0.134617 0.055743
O O17 0.750000 0.208402 0.000000
O O18 0.250000 0.439542 0.000000
#
# Coordination Sequence:
#
# PCOD9336292 Si02
#       8
#     8   4   8   8   8   8   8   8
#     4  11  24  45  75 104 142 190 245 301 382 461
#     4  12  24  40  66  98 148 196 246 304 358 436
#     4  11  23  43  64 102 140 183 248 297 365 438
#     4  10  25  49  77 111 154 198 246 316 396 470
#     4  11  24  43  75 100 142 190 251 313 383 457
#     4  11  23  45  73 104 140 191 243 314 377 452
#     4  11  23  49  73 104 149 194 252 316 388 462
#     4  11  25  44  64  94 144 197 249 300 366 439
#
# _framework density 22.419097000000001
#
# number of rings (size 3 to 8) (size 9 to 14) (size 15 to 20)
#    0.000    1.067    4.000    1.200    7.467    2.667 
#    1.200    2.000    2.933    0.000    0.000    0.000 
#    0.000    0.000    0.000    0.000    0.000    0.000 
#
# Total GULP energy -167307.076285 kJ/mol
# GULP energy per Si atom -5576.902543 kJ/mol
# Density = 2.236807 g / cm^3
# Si number density = 22.419097 Si / 1000 Ang^3
#
#
#
# Elastic Constant Matrix: (Units=GPa)
#
#
# Indices 1 2 3 4 5 6 
#
# 1 76.0309 29.6976 54.9118 0.0000 0.0000 0.0000
# 2 29.6976 139.8014 71.2891 0.0000 0.0000 0.0000
# 3 54.9118 71.2891 135.0892 0.0000 0.0001 0.0000
# 4 0.0000 0.0000 0.0000 55.6899 0.0000 0.0000
# 5 0.0000 0.0000 0.0001 0.0000 20.3521 0.0000
# 6 0.0000 0.0000 0.0000 0.0000 0.0000 31.0366
#
#
#
# Elastic Compliance Matrix: (Units=1/GPa)
#
#
# Indices 1 2 3 4 5 6 
#
# 1 0.018620 -0.000131 -0.007500 0.000000 0.000000 0.000000
# 2 -0.000131 0.009787 -0.005112 0.000000 0.000000 0.000000
# 3 -0.007500 -0.005112 0.013149 0.000000 0.000000 0.000000
# 4 0.000000 0.000000 0.000000 0.017957 0.000000 0.000000
# 5 0.000000 0.000000 0.000000 0.000000 0.049135 0.000000
# 6 0.000000 0.000000 0.000000 0.000000 0.000000 0.032220
#
#
# Mechanical properties :
#
#
# Convention : Reuss Voigt Hill
#
# Bulk Modulus (GPa) = 62.22289 73.63540 67.92914
# Shear Modulus (GPa) = 29.11888 34.41727 31.76808
#
# Velocity S-wave (km/s) = 3.60786 3.92238 3.76840
# Velocity P-wave (km/s) = 6.72088 7.30956 7.02139
#
# Compressibility (1/GPa) = 0.01607126
#
# Stress axis : x y z
#
# Youngs Moduli (GPa) = 53.70500 102.17116 76.05390
#
# Poissons Ratio (x) = 0.01340 0.57038
# Poissons Ratio (y) = 0.00704 0.38877
# Poissons Ratio (z) = 0.40277 0.52227
#
# Static dielectric constant tensor:
#      x y z
#    x 1.796070 0.000000 0.000000 
#    y 0.000000 1.868560 0.000000 
#    z 0.000000 0.000000 1.965110 
# 
# From -- ./inp_files/5010.got.cif
#   From: 2010.05.17/outbox.cif.g08.bks.cpg/sg24_3_cif.got.tgz:5010.got - 2010.06.04 00:33:39.
