data_PCOD9336114
_publ_section_title
;
Structure prediction by ZEFSAII (Michael W. Deem and Ramdas Pophale) SiO2 
 PCOD9336114
Probable space group: I 21 21 21
;
_chemical_formula_sum "Si O2"
_cell_formula_units_Z 48
_cell_length_a 15.883025
_cell_length_b 8.895542
_cell_length_c 13.789203
_cell_angle_alpha 90.000000
_cell_angle_beta 90.000000
_cell_angle_gamma 90.000000
_cell_volume 1948.250513
_symmetry_space_group_name_H-M "I 21 21 21"
_symmetry_group_IT_number 24
_symmetry_cell_setting 'orthorhombic'
loop_
_space_group_symop_operation_xyz
x,y,z
-x,1/2-y,z
x,-y,1/2-z
1/2-x,y,-z
1/2+x,1/2+y,1/2+z
1/2-x,-y,1/2+z
1/2+x,1/2-y,-z
-x,1/2+y,1/2-z
loop_
_atom_site_type_symbol
_atom_site_label
_atom_site_fract_x
_atom_site_fract_y
_atom_site_fract_z
Si Si1 0.181812 0.247339 0.759978
Si Si2 0.495187 0.425366 0.450796
Si Si3 0.079138 0.150281 0.102529
Si Si4 0.180807 0.500000 0.250000
Si Si5 0.751937 0.499218 0.884860
Si Si6 0.039593 0.500000 0.750000
Si Si7 0.656685 0.046410 0.961582
O O1 0.259125 0.361425 0.771909
O O2 0.188077 0.136162 0.850792
O O3 0.098804 0.350856 0.756637
O O4 0.209548 0.145704 0.667781
O O5 0.500000 0.250000 0.469253
O O6 0.537469 0.530208 0.530690
O O7 0.518476 0.472683 0.342847
O O8 0.397117 0.464346 0.457563
O O9 0.157227 0.055098 0.148416
O O10 0.127225 0.282616 0.046663
O O11 0.000000 0.250000 0.150425
O O12 0.137569 0.475920 0.354436
O O13 0.750000 0.520631 0.000000
O O14 0.750000 0.034822 0.000000
#
# Coordination Sequence:
#
# PCOD9336114 Si02
#       7
#     8   8   8   4   8   4   8
#     4  10  24  42  73 113 136 188 252 315 367 424
#     4  11  28  49  71 112 151 198 245 308 392 458
#     4  10  24  44  71 102 147 198 236 295 386 449
#     4  11  22  40  68 104 138 183 244 310 369 420
#     4  11  24  43  73 108 146 186 254 311 367 446
#     4  11  26  50  74 110 156 191 252 316 385 464
#     4  11  23  46  75 104 145 200 257 305 369 454
#
# _framework density 24.637491000000001
#
# number of rings (size 3 to 8) (size 9 to 14) (size 15 to 20)
#    0.000    1.333    1.667    2.500    9.333    2.667 
#    0.000   10.000    0.000    0.000    0.000    0.000 
#    0.000    0.000    0.000    0.000    0.000    0.000 
#
# Total GULP energy -134139.261185 kJ/mol
# GULP energy per Si atom -5589.135883 kJ/mol
# Density = 2.458141 g / cm^3
# Si number density = 24.637491 Si / 1000 Ang^3
#
#
#
# Elastic Constant Matrix: (Units=GPa)
#
#
# Indices 1 2 3 4 5 6 
#
# 1 132.1651 34.3225 3.5036 0.0000 0.0000 0.0000
# 2 34.3225 113.9275 27.3668 0.0000 0.0000 0.0000
# 3 3.5036 27.3668 112.3214 0.0000 0.0000 0.0000
# 4 0.0000 0.0000 0.0000 35.2687 0.0000 0.0000
# 5 0.0000 0.0000 0.0000 0.0000 -2.1603 0.0000
# 6 0.0000 0.0000 0.0000 0.0000 0.0000 16.7183
#
#
#
# Elastic Compliance Matrix: (Units=1/GPa)
#
#
# Indices 1 2 3 4 5 6 
#
# 1 0.008223 -0.002566 0.000369 0.000000 0.000000 0.000000
# 2 -0.002566 0.010124 -0.002387 0.000000 0.000000 0.000000
# 3 0.000369 -0.002387 0.009473 0.000000 0.000000 0.000000
# 4 0.000000 0.000000 0.000000 0.028354 0.000000 0.000000
# 5 0.000000 0.000000 0.000000 0.000000 -0.462896 0.000000
# 6 0.000000 0.000000 0.000000 0.000000 0.000000 0.059815
#
#
# Mechanical properties :
#
#
# Convention : Reuss Voigt Hill
#
# Bulk Modulus (GPa) = 53.61313 54.31106 53.96210
# Shear Modulus (GPa) = -15.08192 29.51342 7.21575
#
# Velocity S-wave (km/s) = -2.47686 3.46483 1.71322
# Velocity P-wave (km/s) = 3.69165 6.17241 5.08562
#
# Compressibility (1/GPa) = 0.01865215
#
# Stress axis : x y z
#
# Youngs Moduli (GPa) = 121.61229 98.77712 105.56302
#
# Poissons Ratio (x) = 0.25345 -0.03892
# Poissons Ratio (y) = 0.31204 0.25194
# Poissons Ratio (z) = -0.04483 0.23574
#
# Static dielectric constant tensor:
#      x y z
#    x 2.018560 0.000000 0.000000 
#    y 0.000000 1.918090 0.000000 
#    z 0.000000 0.000000 2.106570 
# 
# From -- ./inp_files/27083.got.cif
#   From: 2010.05.17/outbox.cif.g08.bks.cpg/sg24_14_cif.got.tgz:27083.got - 2010.06.04 00:33:39.
