data_PCOD9336235
_publ_section_title
;
Structure prediction by ZEFSAII (Michael W. Deem and Ramdas Pophale) SiO2 
 PCOD9336235
Probable space group: I 21 21 21
;
_chemical_formula_sum "Si O2"
_cell_formula_units_Z 32
_cell_length_a 31.006304
_cell_length_b 8.868759
_cell_length_c 4.953791
_cell_angle_alpha 90.000000
_cell_angle_beta 90.000000
_cell_angle_gamma 90.000000
_cell_volume 1362.230294
_symmetry_space_group_name_H-M "I 21 21 21"
_symmetry_group_IT_number 24
_symmetry_cell_setting 'orthorhombic'
loop_
_space_group_symop_operation_xyz
x,y,z
-x,1/2-y,z
x,-y,1/2-z
1/2-x,y,-z
1/2+x,1/2+y,1/2+z
1/2-x,-y,1/2+z
1/2+x,1/2-y,-z
-x,1/2+y,1/2-z
loop_
_atom_site_type_symbol
_atom_site_label
_atom_site_fract_x
_atom_site_fract_y
_atom_site_fract_z
Si Si1 0.990741 0.500000 0.250000
Si Si2 0.062952 0.290965 0.366432
Si Si3 0.878949 0.836034 0.634382
Si Si4 0.794868 0.328500 0.834263
Si Si5 0.250000 0.606398 0.000000
O O1 0.958797 0.357083 0.227359
O O2 0.025510 0.412674 0.443670
O O3 0.092455 0.260178 0.627170
O O4 0.092029 0.354329 0.127121
O O5 0.838183 0.736993 0.542173
O O6 0.865781 0.000000 0.750000
O O7 0.800019 0.500000 0.750000
O O8 0.788066 0.218663 0.579480
O O9 0.750000 0.317266 0.000000
O O10 0.260372 0.500000 0.750000
#
# Coordination Sequence:
#
# PCOD9336235 Si02
#       5
#     4   8   8   8   4
#     4  10  24  48  76 106 150 194 246 296 388 446
#     4  11  26  46  75 109 147 195 241 309 365 459
#     4  12  27  48  73 111 151 189 253 304 378 444
#     4  12  29  50  79 110 155 204 260 324 384 461
#     4  12  26  48  78 110 142 200 250 306 386 456
#
# _framework density 23.490891000000001
#
# number of rings (size 3 to 8) (size 9 to 14) (size 15 to 20)
#    0.000    0.500    5.000    0.750    7.000    6.000 
#    0.000    0.000    0.000    0.000    0.000    0.000 
#    0.000    0.000    0.000    0.000    0.000    0.000 
#
# Total GULP energy -89259.353956 kJ/mol
# GULP energy per Si atom -5578.709622 kJ/mol
# Density = 2.343742 g / cm^3
# Si number density = 23.490891 Si / 1000 Ang^3
#
#
#
# Elastic Constant Matrix: (Units=GPa)
#
#
# Indices 1 2 3 4 5 6 
#
# 1 141.4462 86.5305 38.6694 -0.0001 -0.0014 -0.0002
# 2 86.5305 181.8337 47.1089 0.0007 0.0044 0.0003
# 3 38.6694 47.1089 108.4975 0.0011 0.0037 0.0001
# 4 -0.0001 0.0007 0.0011 12.2823 0.0030 0.0001
# 5 -0.0014 0.0044 0.0037 0.0030 -15.6194 0.0020
# 6 -0.0002 0.0003 0.0001 0.0001 0.0020 31.9655
#
#
#
# Elastic Compliance Matrix: (Units=1/GPa)
#
#
# Indices 1 2 3 4 5 6 
#
# 1 0.010254 -0.004431 -0.001731 0.000000 -0.000003 0.000000
# 2 -0.004431 0.008112 -0.001943 0.000000 0.000002 0.000000
# 3 -0.001731 -0.001943 0.010677 -0.000001 0.000002 0.000000
# 4 0.000000 0.000000 -0.000001 0.081418 0.000016 0.000000
# 5 -0.000003 0.000002 0.000002 0.000016 -0.064023 0.000004
# 6 0.000000 0.000000 0.000000 0.000000 0.000004 0.031284
#
#
# Mechanical properties :
#
#
# Convention : Reuss Voigt Hill
#
# Bulk Modulus (GPa) = 77.92055 86.26613 82.09334
# Shear Modulus (GPa) = 50.91235 23.02357 36.96796
#
# Velocity S-wave (km/s) = 4.66050 3.13406 3.97131
# Velocity P-wave (km/s) = 7.88688 7.06395 7.48673
#
# Compressibility (1/GPa) = 0.01283359
#
# Stress axis : x y z
#
# Youngs Moduli (GPa) = 97.52560 123.28141 93.65869
#
# Poissons Ratio (x) = 0.54628 0.16208
# Poissons Ratio (y) = 0.43215 0.18195
# Poissons Ratio (z) = 0.16877 0.23949
#
# Static dielectric constant tensor:
#      x y z
#    x 1.958710 0.000000 0.000000 
#    y 0.000000 1.989160 -0.000010 
#    z 0.000000 -0.000010 2.031770 
# 
# From -- ./inp_files/7529.got.cif
#   From: 2010.05.17/outbox.cif.g08.bks.cpg/sg24_4_cif.got.tgz:7529.got - 2010.06.04 00:33:39.
