data_PCOD9336311
_publ_section_title
;
Structure prediction by ZEFSAII (Michael W. Deem and Ramdas Pophale) SiO2 
 PCOD9336311
Probable space group: I 21 21 21
;
_chemical_formula_sum "Si O2"
_cell_formula_units_Z 28
_cell_length_a 5.517585
_cell_length_b 7.534101
_cell_length_c 27.987429
_cell_angle_alpha 90.000000
_cell_angle_beta 90.000000
_cell_angle_gamma 90.000000
_cell_volume 1163.438618
_symmetry_space_group_name_H-M "I 21 21 21"
_symmetry_group_IT_number 24
_symmetry_cell_setting 'orthorhombic'
loop_
_space_group_symop_operation_xyz
x,y,z
-x,1/2-y,z
x,-y,1/2-z
1/2-x,y,-z
1/2+x,1/2+y,1/2+z
1/2-x,-y,1/2+z
1/2+x,1/2-y,-z
-x,1/2+y,1/2-z
loop_
_atom_site_type_symbol
_atom_site_label
_atom_site_fract_x
_atom_site_fract_y
_atom_site_fract_z
Si Si1 0.750062 0.641856 0.207854
Si Si2 0.411922 0.926915 0.381433
Si Si3 0.500000 0.250000 0.945551
Si Si4 0.309570 0.384734 0.549939
O O1 0.500000 0.750000 0.214666
O O2 0.765901 0.500000 0.250000
O O3 0.719422 0.549000 0.156511
O O4 0.000000 0.750000 0.208257
O O5 0.500000 0.750000 0.352992
O O6 0.226428 0.823141 0.415660
O O7 0.602432 0.044999 0.413138
O O8 0.431150 0.433405 0.969481
O O9 0.500000 0.250000 0.574232
O O10 0.250000 0.287802 0.500000
#
# Coordination Sequence:
#
# PCOD9336311 Si02
#       4
#     8   8   4   8
#     4  12  29  49  83 117 159 205 262 330 400 488
#     4  10  26  49  75 109 155 206 261 324 401 475
#     4  10  26  44  76 102 156 202 268 322 398 472
#     4  11  28  45  74 113 160 213 269 332 396 482
#
# _framework density 24.066586999999998
#
# number of rings (size 3 to 8) (size 9 to 14) (size 15 to 20)
#    0.000    1.143    0.000    1.714   24.000    0.000 
#    0.000    0.000    0.000    0.000    0.000    0.000 
#    0.000    0.000    0.000    0.000    0.000    0.000 
#
# Total GULP energy -78098.269725 kJ/mol
# GULP energy per Si atom -5578.447838 kJ/mol
# Density = 2.401181 g / cm^3
# Si number density = 24.066587 Si / 1000 Ang^3
#
#
#
# Elastic Constant Matrix: (Units=GPa)
#
#
# Indices 1 2 3 4 5 6 
#
# 1 168.0077 106.3988 43.6395 0.0000 0.0000 0.0000
# 2 106.3988 166.7550 63.5323 0.0000 0.0000 0.0000
# 3 43.6395 63.5323 91.9389 0.0000 0.0000 0.0000
# 4 0.0000 0.0000 0.0000 9.2678 0.0000 0.0000
# 5 0.0000 0.0000 0.0000 0.0000 -36.3918 0.0000
# 6 0.0000 0.0000 0.0000 0.0000 0.0000 70.2189
#
#
#
# Elastic Compliance Matrix: (Units=1/GPa)
#
#
# Indices 1 2 3 4 5 6 
#
# 1 0.010002 -0.006207 -0.000458 0.000000 0.000000 0.000000
# 2 -0.006207 0.011992 -0.005341 0.000000 0.000000 0.000000
# 3 -0.000458 -0.005341 0.014785 0.000000 0.000000 0.000000
# 4 0.000000 0.000000 0.000000 0.107901 0.000000 0.000000
# 5 0.000000 0.000000 0.000000 0.000000 -0.027479 0.000000
# 6 0.000000 0.000000 0.000000 0.000000 0.000000 0.014241
#
#
# Mechanical properties :
#
#
# Convention : Reuss Voigt Hill
#
# Bulk Modulus (GPa) = 78.32729 94.87142 86.59935
# Shear Modulus (GPa) = 31.30670 22.82770 27.06720
#
# Velocity S-wave (km/s) = 3.61062 3.08315 3.35726
# Velocity P-wave (km/s) = 7.07099 7.22360 7.14770
#
# Compressibility (1/GPa) = 0.01276694
#
# Stress axis : x y z
#
# Youngs Moduli (GPa) = 99.97742 83.38745 67.63752
#
# Poissons Ratio (x) = 0.51762 0.03099
# Poissons Ratio (y) = 0.62060 0.36122
# Poissons Ratio (z) = 0.04580 0.44533
#
# Static dielectric constant tensor:
#      x y z
#    x 3.537640 0.000000 0.000000 
#    y 0.000000 1.977680 0.000000 
#    z 0.000000 0.000000 1.905770 
# 
# From -- ./inp_files/36258.got.cif
#   From: 2010.05.17/outbox.cif.g08.bks.cpg/sg24_19_cif.got.tgz:36258.got - 2010.06.04 00:33:39.
