data_PCOD9336424
_publ_section_title
;
Structure prediction by ZEFSAII (Michael W. Deem and Ramdas Pophale) SiO2 
 PCOD9336424
Probable space group: I 21 21 21
;
_chemical_formula_sum "Si O2"
_cell_formula_units_Z 40
_cell_length_a 18.535731
_cell_length_b 9.697536
_cell_length_c 11.615536
_cell_angle_alpha 90.000000
_cell_angle_beta 90.000000
_cell_angle_gamma 90.000000
_cell_volume 2087.903267
_symmetry_space_group_name_H-M "I 21 21 21"
_symmetry_group_IT_number 24
_symmetry_cell_setting 'orthorhombic'
loop_
_space_group_symop_operation_xyz
x,y,z
-x,1/2-y,z
x,-y,1/2-z
1/2-x,y,-z
1/2+x,1/2+y,1/2+z
1/2-x,-y,1/2+z
1/2+x,1/2-y,-z
-x,1/2+y,1/2-z
loop_
_atom_site_type_symbol
_atom_site_label
_atom_site_fract_x
_atom_site_fract_y
_atom_site_fract_z
Si Si1 0.556973 0.538892 0.114927
Si Si2 0.634881 0.703752 0.487020
Si Si3 0.894678 0.005836 0.611235
Si Si4 0.807490 0.741887 0.910066
Si Si5 0.736159 0.647862 0.688114
O O1 0.561741 0.500000 0.250000
O O2 0.572444 0.405778 0.036367
O O3 0.473572 0.573809 0.093139
O O4 0.620553 0.648797 0.095668
O O5 0.612476 0.854650 0.443354
O O6 0.667162 0.697149 0.615529
O O7 0.698416 0.647457 0.403031
O O8 0.885357 0.000000 0.750000
O O9 0.834382 0.105927 0.559903
O O10 0.765765 0.744614 0.789132
O O11 0.750000 0.684380 0.000000
O O12 0.725681 0.500000 0.750000
#
# Coordination Sequence:
#
# PCOD9336424 Si02
#       5
#     8   8   8   8   8
#     4  11  20  38  61  88 121 160 210 259 315 375
#     4  11  21  37  63  87 126 158 207 264 311 373
#     4  11  23  37  59  93 128 159 199 267 320 372
#     4  12  23  37  60  88 128 164 207 256 313 374
#     4  11  21  37  60  92 122 161 217 252 309 376
#
# _framework density 19.157973999999999
#
# number of rings (size 3 to 8) (size 9 to 14) (size 15 to 20)
#    0.000    0.800    6.000    2.400    2.800    3.200 
#    0.000    0.000    0.000   12.000    0.000    0.000 
#    0.000    0.000    0.000    0.000    0.000    0.000 
#
# Total GULP energy -111625.559359 kJ/mol
# GULP energy per Si atom -5581.277968 kJ/mol
# Density = 1.911437 g / cm^3
# Si number density = 19.157974 Si / 1000 Ang^3
#
#
#
# Elastic Constant Matrix: (Units=GPa)
#
#
# Indices 1 2 3 4 5 6 
#
# 1 99.4612 33.2407 44.8346 0.0000 0.0000 0.0000
# 2 33.2407 77.0668 27.8365 0.0000 0.0000 0.0000
# 3 44.8346 27.8365 75.4684 0.0000 0.0000 0.0000
# 4 0.0000 0.0000 0.0000 21.8600 0.0000 0.0000
# 5 0.0000 0.0000 0.0000 0.0000 19.7159 0.0000
# 6 0.0000 0.0000 0.0000 0.0000 0.0000 18.4498
#
#
#
# Elastic Compliance Matrix: (Units=1/GPa)
#
#
# Indices 1 2 3 4 5 6 
#
# 1 0.014567 -0.003643 -0.007310 0.000000 0.000000 0.000000
# 2 -0.003643 0.015881 -0.003694 0.000000 0.000000 0.000000
# 3 -0.007310 -0.003694 0.018956 0.000000 0.000000 0.000000
# 4 0.000000 0.000000 0.000000 0.045746 0.000000 0.000000
# 5 0.000000 0.000000 0.000000 0.000000 0.050721 0.000000
# 6 0.000000 0.000000 0.000000 0.000000 0.000000 0.054201
#
#
# Mechanical properties :
#
#
# Convention : Reuss Voigt Hill
#
# Bulk Modulus (GPa) = 49.72509 51.53556 50.63033
# Shear Modulus (GPa) = 21.18034 21.74412 21.46223
#
# Velocity S-wave (km/s) = 3.32861 3.37262 3.35068
# Velocity P-wave (km/s) = 6.38627 6.49036 6.43853
#
# Compressibility (1/GPa) = 0.02011057
#
# Stress axis : x y z
#
# Youngs Moduli (GPa) = 68.64889 62.96826 52.75370
#
# Poissons Ratio (x) = 0.22936 0.38565
# Poissons Ratio (y) = 0.25005 0.19486
# Poissons Ratio (z) = 0.50185 0.23259
#
# Static dielectric constant tensor:
#      x y z
#    x 1.681250 0.000000 0.000000 
#    y 0.000000 1.696250 0.000000 
#    z 0.000000 0.000000 1.673430 
# 
# From -- ./inp_files/10669.got.cif
#   From: 2010.05.17/outbox.cif.g08.bks.cpg/sg24_6_cif.got.tgz:10669.got - 2010.06.04 00:33:39.
