data_PCOD9336141
_publ_section_title
;
Structure prediction by ZEFSAII (Michael W. Deem and Ramdas Pophale) SiO2 
 PCOD9336141
Probable space group: I 21 21 21
;
_chemical_formula_sum "Si O2"
_cell_formula_units_Z 28
_cell_length_a 21.193838
_cell_length_b 9.524225
_cell_length_c 6.040585
_cell_angle_alpha 90.000000
_cell_angle_beta 90.000000
_cell_angle_gamma 90.000000
_cell_volume 1219.321571
_symmetry_space_group_name_H-M "I 21 21 21"
_symmetry_group_IT_number 24
_symmetry_cell_setting 'orthorhombic'
loop_
_space_group_symop_operation_xyz
x,y,z
-x,1/2-y,z
x,-y,1/2-z
1/2-x,y,-z
1/2+x,1/2+y,1/2+z
1/2-x,-y,1/2+z
1/2+x,1/2-y,-z
-x,1/2+y,1/2-z
loop_
_atom_site_type_symbol
_atom_site_label
_atom_site_fract_x
_atom_site_fract_y
_atom_site_fract_z
Si Si1 0.463427 0.500000 0.250000
Si Si2 0.941331 0.370223 0.417015
Si Si3 0.613703 0.856829 0.626877
Si Si4 0.303050 0.850575 0.843746
O O1 0.510441 0.401473 0.388827
O O2 0.418584 0.597705 0.400040
O O3 0.950529 0.500000 0.250000
O O4 0.937746 0.225354 0.277739
O O5 0.867199 0.377872 0.485659
O O6 0.672214 0.749882 0.645639
O O7 0.631322 0.000000 0.750000
O O8 0.281433 0.000000 0.750000
O O9 0.250000 0.786803 0.000000
#
# Coordination Sequence:
#
# PCOD9336141 Si02
#       4
#     4   8   8   8
#     4  12  24  42  78 106 168 210 242 332 396 462
#     4   9  23  43  66 110 148 197 265 306 390 471
#     4  10  24  44  65 112 155 195 257 319 394 465
#     4   9  21  48  74 102 150 196 267 326 368 461
#
# _framework density 22.963588000000001
#
# number of rings (size 3 to 8) (size 9 to 14) (size 15 to 20)
#    1.714    0.571    0.000    0.857    2.000    9.143 
#    5.143    1.429    0.000    0.000    0.000    0.000 
#    0.000    0.000    0.000    0.000    0.000    0.000 
#
# Total GULP energy -78088.811755 kJ/mol
# GULP energy per Si atom -5577.772268 kJ/mol
# Density = 2.291132 g / cm^3
# Si number density = 22.963588 Si / 1000 Ang^3
#
#
#
# Elastic Constant Matrix: (Units=GPa)
#
#
# Indices 1 2 3 4 5 6 
#
# 1 85.4991 16.2755 61.3572 0.0000 0.0000 0.0000
# 2 16.2755 140.6903 40.6372 0.0000 0.0000 0.0000
# 3 61.3572 40.6372 108.5417 0.0000 0.0000 0.0000
# 4 0.0000 0.0000 0.0000 30.3820 0.0000 0.0000
# 5 0.0000 0.0000 0.0000 0.0000 0.4007 0.0000
# 6 0.0000 0.0000 0.0000 0.0000 0.0000 7.0130
#
#
#
# Elastic Compliance Matrix: (Units=1/GPa)
#
#
# Indices 1 2 3 4 5 6 
#
# 1 0.019819 0.001058 -0.011599 0.000000 0.000000 0.000000
# 2 0.001058 0.008026 -0.003603 0.000000 0.000000 0.000000
# 3 -0.011599 -0.003603 0.017119 0.000000 0.000000 0.000000
# 4 0.000000 0.000000 0.000000 0.032914 0.000000 0.000000
# 5 0.000000 0.000000 0.000000 0.000000 2.495438 0.000000
# 6 0.000000 0.000000 0.000000 0.000000 0.000000 0.142592
#
#
# Mechanical properties :
#
#
# Convention : Reuss Voigt Hill
#
# Bulk Modulus (GPa) = 59.97050 63.47456 61.72253
# Shear Modulus (GPa) = 1.81834 21.98989 11.90412
#
# Velocity S-wave (km/s) = 0.89082 3.09787 2.27929
# Velocity P-wave (km/s) = 5.21826 6.36373 5.81925
#
# Compressibility (1/GPa) = 0.01667487
#
# Stress axis : x y z
#
# Youngs Moduli (GPa) = 50.45734 124.59363 58.41531
#
# Poissons Ratio (x) = -0.13178 0.67757
# Poissons Ratio (y) = -0.05337 0.21046
# Poissons Ratio (z) = 0.58527 0.44888
#
# Static dielectric constant tensor:
#      x y z
#    x 1.935090 0.000000 0.000000 
#    y 0.000000 1.944970 0.000000 
#    z 0.000000 0.000000 1.899780 
# 
# From -- ./inp_files/6083.got.cif
#   From: 2010.05.17/outbox.cif.g08.bks.cpg/sg24_4_cif.got.tgz:6083.got - 2010.06.04 00:33:39.
