data_PCOD9336672
_publ_section_title
;
Structure prediction by ZEFSAII (Michael W. Deem and Ramdas Pophale) SiO2 
 PCOD9336672
Probable space group: I 21 21 21
;
_chemical_formula_sum "Si O2"
_cell_formula_units_Z 60
_cell_length_a 18.929191
_cell_length_b 18.197672
_cell_length_c 7.670543
_cell_angle_alpha 90.000000
_cell_angle_beta 90.000000
_cell_angle_gamma 90.000000
_cell_volume 2642.250539
_symmetry_space_group_name_H-M "I 21 21 21"
_symmetry_group_IT_number 24
_symmetry_cell_setting 'orthorhombic'
loop_
_space_group_symop_operation_xyz
x,y,z
-x,1/2-y,z
x,-y,1/2-z
1/2-x,y,-z
1/2+x,1/2+y,1/2+z
1/2-x,-y,1/2+z
1/2+x,1/2-y,-z
-x,1/2+y,1/2-z
loop_
_atom_site_type_symbol
_atom_site_label
_atom_site_fract_x
_atom_site_fract_y
_atom_site_fract_z
Si Si1 0.030291 0.603950 0.052766
Si Si2 0.668128 0.511589 0.045469
Si Si3 0.170126 0.272528 0.939531
Si Si4 0.885754 0.330443 0.417881
Si Si5 0.327149 0.678999 0.056096
Si Si6 0.595515 0.637317 0.522457
Si Si7 0.450596 0.500000 0.250000
Si Si8 0.437445 0.611376 0.546847
O O1 0.040047 0.582517 0.258607
O O2 0.969592 0.665547 0.042594
O O3 0.108256 0.629307 0.003569
O O4 0.008498 0.548554 0.895423
O O5 0.659863 0.500000 0.250000
O O6 0.750000 0.498774 0.000000
O O7 0.646491 0.592452 0.983176
O O8 0.620576 0.446495 0.967221
O O9 0.172071 0.316533 0.761693
O O10 0.250000 0.263504 0.000000
O O11 0.137823 0.192164 0.898313
O O12 0.119364 0.323084 0.060634
O O13 0.843910 0.260648 0.485724
O O14 0.884567 0.329838 0.209534
O O15 0.250000 0.653639 0.000000
O O16 0.512940 0.641833 0.480933
O O17 0.413918 0.553575 0.395478
#
# Coordination Sequence:
#
# PCOD9336672 Si02
#       8
#     8   8   8   8   8   8   4   8
#     4  11  25  45  72 104 142 180 234 293 350 416
#     4  12  25  40  62  94 139 181 228 278 340 416
#     4  12  25  44  71 100 139 183 234 291 350 417
#     4  11  24  42  67 101 138 183 227 284 344 414
#     4  12  25  44  71 100 139 183 234 291 350 417
#     4  11  24  42  67 101 138 183 227 284 344 414
#     4  12  24  44  72 102 136 184 226 290 348 416
#     4  11  25  45  72 104 142 180 234 293 350 416
#
# _framework density 22.707915
#
# number of rings (size 3 to 8) (size 9 to 14) (size 15 to 20)
#    0.000    0.533    1.333    7.200    5.600    5.333 
#    0.000    0.667    0.000    0.000    0.000    0.000 
#    0.000    0.000    0.000    0.000    0.000    0.000 
#
# Total GULP energy -167565.338051 kJ/mol
# GULP energy per Si atom -5585.511268 kJ/mol
# Density = 2.265623 g / cm^3
# Si number density = 22.707915 Si / 1000 Ang^3
#
#
#
# Elastic Constant Matrix: (Units=GPa)
#
#
# Indices 1 2 3 4 5 6 
#
# 1 139.6904 14.0880 -5.3224 0.0000 0.0000 0.0000
# 2 14.0880 52.8354 -3.0313 0.0000 0.0000 0.0000
# 3 -5.3224 -3.0313 94.8922 0.0000 0.0000 0.0000
# 4 0.0000 0.0000 0.0000 37.3247 0.0000 0.0000
# 5 0.0000 0.0000 0.0000 0.0000 22.9536 0.0000
# 6 0.0000 0.0000 0.0000 0.0000 0.0000 -5.5294
#
#
#
# Elastic Compliance Matrix: (Units=1/GPa)
#
#
# Indices 1 2 3 4 5 6 
#
# 1 0.007368 -0.001944 0.000351 0.000000 0.000000 0.000000
# 2 -0.001944 0.019475 0.000513 0.000000 0.000000 0.000000
# 3 0.000351 0.000513 0.010574 0.000000 0.000000 0.000000
# 4 0.000000 0.000000 0.000000 0.026792 0.000000 0.000000
# 5 0.000000 0.000000 0.000000 0.000000 0.043566 0.000000
# 6 0.000000 0.000000 0.000000 0.000000 0.000000 -0.180850
#
#
# Mechanical properties :
#
#
# Convention : Reuss Voigt Hill
#
# Bulk Modulus (GPa) = 28.36353 33.20964 30.78658
# Shear Modulus (GPa) = -84.51346 29.72868 -27.39239
#
# Velocity S-wave (km/s) = -6.10724 3.62218 -3.47694
# Velocity P-wave (km/s) = 6.10029 5.67010 1.59115
#
# Compressibility (1/GPa) = 0.03525655
#
# Stress axis : x y z
#
# Youngs Moduli (GPa) = 135.71887 51.34889 94.56840
#
# Poissons Ratio (x) = 0.09985 -0.03321
# Poissons Ratio (y) = 0.26391 -0.04852
# Poissons Ratio (z) = -0.04766 -0.02634
#
# Static dielectric constant tensor:
#      x y z
#    x 1.872400 0.000000 0.000000 
#    y 0.000000 1.909920 0.000000 
#    z 0.000000 0.000000 1.908830 
# 
# From -- ./inp_files/14452.got.cif
#   From: 2010.05.17/outbox.cif.g08.bks.cpg/sg24_8_cif.got.tgz:14452.got - 2010.06.04 00:33:39.
