data_PCOD9336190
_publ_section_title
;
Structure prediction by ZEFSAII (Michael W. Deem and Ramdas Pophale) SiO2 
 PCOD9336190
Probable space group: I 21 21 21
;
_chemical_formula_sum "Si O2"
_cell_formula_units_Z 20
_cell_length_a 12.299853
_cell_length_b 9.544861
_cell_length_c 7.893400
_cell_angle_alpha 90.000000
_cell_angle_beta 90.000000
_cell_angle_gamma 90.000000
_cell_volume 926.688216
_symmetry_space_group_name_H-M "I 21 21 21"
_symmetry_group_IT_number 24
_symmetry_cell_setting 'orthorhombic'
loop_
_space_group_symop_operation_xyz
x,y,z
-x,1/2-y,z
x,-y,1/2-z
1/2-x,y,-z
1/2+x,1/2+y,1/2+z
1/2-x,-y,1/2+z
1/2+x,1/2-y,-z
-x,1/2+y,1/2-z
loop_
_atom_site_type_symbol
_atom_site_label
_atom_site_fract_x
_atom_site_fract_y
_atom_site_fract_z
Si Si1 0.776849 0.157824 0.303839
Si Si2 0.093950 0.849461 0.666644
Si Si3 0.000000 0.250000 0.162709
O O1 0.750000 0.178949 0.500000
O O2 0.704884 0.265480 0.194856
O O3 0.903645 0.182729 0.268426
O O4 0.747469 0.000000 0.250000
O O5 0.056690 0.857398 0.470556
O O6 0.000000 0.750000 0.746251
O O7 0.098141 0.000000 0.750000
#
# Coordination Sequence:
#
# PCOD9336190 Si02
#       3
#     8   8   4
#     4  12  27  45  71 105 143 185 235 288 350 412
#     4  10  24  45  74 101 144 178 235 284 350 412
#     4  10  26  44  74 100 142 182 234 288 346 414
#
# _framework density 21.582232999999999
#
# number of rings (size 3 to 8) (size 9 to 14) (size 15 to 20)
#    1.200    0.000    0.000    4.800    8.400    4.800 
#    0.000    0.000    0.000    0.000    0.000    0.000 
#    0.000    0.000    0.000    0.000    0.000    0.000 
#
# Total GULP energy -55895.974922 kJ/mol
# GULP energy per Si atom -5589.597492 kJ/mol
# Density = 2.153311 g / cm^3
# Si number density = 21.582233 Si / 1000 Ang^3
#
#
#
# Elastic Constant Matrix: (Units=GPa)
#
#
# Indices 1 2 3 4 5 6 
#
# 1 155.3254 65.0176 70.4961 0.0000 0.0000 0.0000
# 2 65.0176 148.6148 35.8156 0.0000 0.0000 0.0000
# 3 70.4961 35.8156 143.9720 0.0000 0.0000 0.0000
# 4 0.0000 0.0000 0.0000 7.6929 0.0000 0.0000
# 5 0.0000 0.0000 0.0000 0.0000 36.1790 0.0000
# 6 0.0000 0.0000 0.0000 0.0000 0.0000 29.1087
#
#
#
# Elastic Compliance Matrix: (Units=1/GPa)
#
#
# Indices 1 2 3 4 5 6 
#
# 1 0.009554 -0.003247 -0.003870 0.000000 0.000000 0.000000
# 2 -0.003247 0.008261 -0.000465 0.000000 0.000000 0.000000
# 3 -0.003870 -0.000465 0.008957 0.000000 0.000000 0.000000
# 4 0.000000 0.000000 0.000000 0.129990 0.000000 0.000000
# 5 0.000000 0.000000 0.000000 0.000000 0.027640 0.000000
# 6 0.000000 0.000000 0.000000 0.000000 0.000000 0.034354
#
#
# Mechanical properties :
#
#
# Convention : Reuss Voigt Hill
#
# Bulk Modulus (GPa) = 86.15657 87.84120 86.99889
# Shear Modulus (GPa) = 21.02689 33.03497 27.03093
#
# Velocity S-wave (km/s) = 3.12471 3.91660 3.54285
# Velocity P-wave (km/s) = 7.28184 7.82573 7.55868
#
# Compressibility (1/GPa) = 0.01160678
#
# Stress axis : x y z
#
# Youngs Moduli (GPa) = 104.67006 121.04382 111.64898
#
# Poissons Ratio (x) = 0.39303 0.43211
# Poissons Ratio (y) = 0.33986 0.05195
# Poissons Ratio (z) = 0.40510 0.05632
#
# Static dielectric constant tensor:
#      x y z
#    x 1.786430 0.000000 0.000000 
#    y 0.000000 1.741420 0.000000 
#    z 0.000000 0.000000 1.800960 
# 
# From -- ./inp_files/8413.got.cif
#   From: 2010.05.17/outbox.cif.g08.bks.cpg/sg24_5_cif.got.tgz:8413.got - 2010.06.04 00:33:39.
