data_PCOD9336129
_publ_section_title
;
Structure prediction by ZEFSAII (Michael W. Deem and Ramdas Pophale) SiO2 
 PCOD9336129
Probable space group: I 21 21 21
;
_chemical_formula_sum "Si O2"
_cell_formula_units_Z 60
_cell_length_a 12.952827
_cell_length_b 9.034385
_cell_length_c 23.395061
_cell_angle_alpha 90.000000
_cell_angle_beta 90.000000
_cell_angle_gamma 90.000000
_cell_volume 2737.709362
_symmetry_space_group_name_H-M "I 21 21 21"
_symmetry_group_IT_number 24
_symmetry_cell_setting 'orthorhombic'
loop_
_space_group_symop_operation_xyz
x,y,z
-x,1/2-y,z
x,-y,1/2-z
1/2-x,y,-z
1/2+x,1/2+y,1/2+z
1/2-x,-y,1/2+z
1/2+x,1/2-y,-z
-x,1/2+y,1/2-z
loop_
_atom_site_type_symbol
_atom_site_label
_atom_site_fract_x
_atom_site_fract_y
_atom_site_fract_z
Si Si1 0.500000 0.750000 0.849147
Si Si2 0.226653 0.787100 0.185676
Si Si3 0.000668 0.036128 0.070748
Si Si4 0.680436 0.996459 0.133395
Si Si5 0.169632 0.055914 0.872995
Si Si6 0.671714 0.240493 0.909084
Si Si7 0.108402 0.290066 0.780149
Si Si8 0.501129 0.575848 0.051026
O O1 0.396510 0.771296 0.812085
O O2 0.484649 0.608071 0.890584
O O3 0.268254 0.662772 0.141613
O O4 0.292478 0.747246 0.241692
O O5 0.256320 0.949918 0.163709
O O6 0.080853 0.141570 0.104438
O O7 0.895646 0.125004 0.055008
O O8 0.039402 0.995132 0.008057
O O9 0.770498 0.120915 0.131281
O O10 0.616099 0.049771 0.189243
O O11 0.605769 0.987385 0.078201
O O12 0.233605 0.148832 0.920451
O O13 0.113912 0.173476 0.832432
O O14 0.085291 0.955037 0.901327
O O15 0.000000 0.250000 0.749872
O O16 0.500000 0.750000 0.040907
#
# Coordination Sequence:
#
# PCOD9336129 Si02
#       8
#     4   8   8   8   8   8   8   8
#     4  12  24  50  68 104 142 190 246 304 350 430
#     4  12  25  44  72 100 143 193 237 295 365 425
#     4  11  24  45  71  98 140 191 239 301 354 427
#     4  11  24  44  68 104 142 182 232 305 358 437
#     4  11  24  44  68 104 142 182 232 305 358 437
#     4  10  24  43  67  98 136 188 238 285 360 417
#     4  11  25  43  72 107 145 184 237 297 378 429
#     4  12  25  41  71 109 143 184 241 292 372 435
#
# _framework density 21.916132999999999
#
# number of rings (size 3 to 8) (size 9 to 14) (size 15 to 20)
#    0.000    0.800    6.000    0.800    1.867    7.467 
#    0.000   10.667    0.000    0.000    0.000    0.000 
#    0.000    0.000    0.000    0.000    0.000    0.000 
#
# Total GULP energy -167123.012935 kJ/mol
# GULP energy per Si atom -5570.767098 kJ/mol
# Density = 2.186625 g / cm^3
# Si number density = 21.916133 Si / 1000 Ang^3
#
#
#
# Elastic Constant Matrix: (Units=GPa)
#
#
# Indices 1 2 3 4 5 6 
#
# 1 113.9827 13.3134 25.1438 0.0000 0.0000 0.0000
# 2 13.3134 91.5550 -0.6936 0.0000 0.0000 0.0000
# 3 25.1438 -0.6936 38.0538 0.0000 0.0000 0.0000
# 4 0.0000 0.0000 0.0000 4.5420 0.0000 0.0000
# 5 0.0000 0.0000 0.0000 0.0000 9.2921 0.0000
# 6 0.0000 0.0000 0.0000 0.0000 0.0000 27.9208
#
#
#
# Elastic Compliance Matrix: (Units=1/GPa)
#
#
# Indices 1 2 3 4 5 6 
#
# 1 0.010493 -0.001579 -0.006962 0.000000 0.000000 0.000000
# 2 -0.001579 0.011161 0.001247 0.000000 0.000000 0.000000
# 3 -0.006962 0.001247 0.030902 0.000000 0.000000 0.000000
# 4 0.000000 0.000000 0.000000 0.220167 0.000000 0.000000
# 5 0.000000 0.000000 0.000000 0.000000 0.107618 0.000000
# 6 0.000000 0.000000 0.000000 0.000000 0.000000 0.035816
#
#
# Mechanical properties :
#
#
# Convention : Reuss Voigt Hill
#
# Bulk Modulus (GPa) = 26.33823 35.45764 30.89793
# Shear Modulus (GPa) = 11.27644 22.07285 16.67464
#
# Velocity S-wave (km/s) = 2.27078 3.17701 2.76132
# Velocity P-wave (km/s) = 4.34961 5.44718 4.92904
#
# Compressibility (1/GPa) = 0.03796763
#
# Stress axis : x y z
#
# Youngs Moduli (GPa) = 95.29726 89.59451 32.36085
#
# Poissons Ratio (x) = 0.14144 0.22530
# Poissons Ratio (y) = 0.15044 -0.04034
# Poissons Ratio (z) = 0.66348 -0.11168
#
# Static dielectric constant tensor:
#      x y z
#    x 1.849760 0.000000 0.000000 
#    y 0.000000 1.815570 0.000000 
#    z 0.000000 0.000000 1.790280 
# 
# From -- ./inp_files/22960.got.cif
#   From: 2010.05.17/outbox.cif.g08.bks.cpg/sg24_12_cif.got.tgz:22960.got - 2010.06.04 00:33:39.
