data_PCOD9336796
_publ_section_title
;
Structure prediction by ZEFSAII (Michael W. Deem and Ramdas Pophale) SiO2 
 PCOD9336796
Probable space group: I 21 21 21
;
_chemical_formula_sum "Si O2"
_cell_formula_units_Z 32
_cell_length_a 5.279863
_cell_length_b 29.460199
_cell_length_c 7.858758
_cell_angle_alpha 90.000000
_cell_angle_beta 90.000000
_cell_angle_gamma 90.000000
_cell_volume 1222.396915
_symmetry_space_group_name_H-M "I 21 21 21"
_symmetry_group_IT_number 24
_symmetry_cell_setting 'orthorhombic'
loop_
_space_group_symop_operation_xyz
x,y,z
-x,1/2-y,z
x,-y,1/2-z
1/2-x,y,-z
1/2+x,1/2+y,1/2+z
1/2-x,-y,1/2+z
1/2+x,1/2-y,-z
-x,1/2+y,1/2-z
loop_
_atom_site_type_symbol
_atom_site_label
_atom_site_fract_x
_atom_site_fract_y
_atom_site_fract_z
Si Si1 0.953506 0.408653 0.797707
Si Si2 0.250000 0.552138 0.000000
Si Si3 0.250000 0.991959 0.500000
Si Si4 0.000000 0.250000 0.793193
Si Si5 0.750000 0.645458 0.000000
Si Si6 0.750000 0.666469 0.500000
Si Si7 0.250000 0.295479 0.500000
O O1 0.760447 0.383770 0.670036
O O2 0.185886 0.418864 0.669673
O O3 0.846195 0.456788 0.856552
O O4 0.963033 0.373642 0.955444
O O5 0.500388 0.522020 0.965376
O O6 0.103758 0.205884 0.889148
O O7 0.222839 0.266099 0.668594
O O8 0.499952 0.674948 0.993340
#
# Coordination Sequence:
#
# PCOD9336796 Si02
#       7
#     8   4   4   4   4   4   4
#     4  11  27  52  82 122 175 221 286 357 427 520
#     4  12  27  52  88 122 174 228 285 353 442 531
#     4  11  29  54  85 128 168 224 294 361 436 506
#     4  12  28  50  88 122 180 224 300 360 422 520
#     4  12  26  50  80 122 162 228 284 344 434 519
#     4  11  28  50  76 130 169 227 281 363 422 487
#     4  12  28  50  85 114 167 229 292 345 430 509
#
# _framework density 26.178076000000001
#
# number of rings (size 3 to 8) (size 9 to 14) (size 15 to 20)
#    0.000    0.500    2.500    3.000    3.500   10.000 
#    0.000    0.000    0.000    0.000    0.000    0.000 
#    0.000    0.000    0.000    0.000    0.000    0.000 
#
# Total GULP energy -89287.069733 kJ/mol
# GULP energy per Si atom -5580.441858 kJ/mol
# Density = 2.611849 g / cm^3
# Si number density = 26.178076 Si / 1000 Ang^3
#
#
#
# Elastic Constant Matrix: (Units=GPa)
#
#
# Indices 1 2 3 4 5 6 
#
# 1 214.1259 111.1752 65.4696 0.0000 0.0000 0.0000
# 2 111.1752 219.4978 59.6271 -0.0001 0.0000 -0.0002
# 3 65.4696 59.6271 94.8323 -0.0002 -0.0001 -0.0004
# 4 0.0000 -0.0001 -0.0002 51.5405 -0.0001 -0.0003
# 5 0.0000 0.0000 -0.0001 -0.0001 55.0691 -0.0001
# 6 0.0000 -0.0002 -0.0004 -0.0003 -0.0001 37.9520
#
#
#
# Elastic Compliance Matrix: (Units=1/GPa)
#
#
# Indices 1 2 3 4 5 6 
#
# 1 0.007042 -0.002709 -0.003159 0.000000 0.000000 0.000000
# 2 -0.002709 0.006536 -0.002240 0.000000 0.000000 0.000000
# 3 -0.003159 -0.002240 0.014134 0.000000 0.000000 0.000000
# 4 0.000000 0.000000 0.000000 0.019402 0.000000 0.000000
# 5 0.000000 0.000000 0.000000 0.000000 0.018159 0.000000
# 6 0.000000 0.000000 0.000000 0.000000 0.000000 0.026349
#
#
# Mechanical properties :
#
#
# Convention : Reuss Voigt Hill
#
# Bulk Modulus (GPa) = 86.97061 111.22222 99.09641
# Shear Modulus (GPa) = 44.77489 48.39126 46.58308
#
# Velocity S-wave (km/s) = 4.14018 4.30413 4.22295
# Velocity P-wave (km/s) = 7.49330 8.20242 7.85587
#
# Compressibility (1/GPa) = 0.01149814
#
# Stress axis : x y z
#
# Youngs Moduli (GPa) = 141.99745 152.99140 70.75266
#
# Poissons Ratio (x) = 0.41444 0.22348
# Poissons Ratio (y) = 0.38466 0.15846
# Poissons Ratio (z) = 0.44851 0.34265
#
# Static dielectric constant tensor:
#      x y z
#    x 2.019520 0.000000 0.000000 
#    y 0.000000 2.094270 0.000000 
#    z 0.000000 0.000000 4.424180 
# 
# From -- ./inp_files/8280.got.cif
#   From: 2010.05.17/outbox.cif.g08.bks.cpg/sg24_5_cif.got.tgz:8280.got - 2010.06.04 00:33:39.
