data_PCOD9336509
_publ_section_title
;
Structure prediction by ZEFSAII (Michael W. Deem and Ramdas Pophale) SiO2 
 PCOD9336509
Probable space group: I 21 21 21
;
_chemical_formula_sum "Si O2"
_cell_formula_units_Z 32
_cell_length_a 4.994272
_cell_length_b 28.210479
_cell_length_c 11.055982
_cell_angle_alpha 90.000000
_cell_angle_beta 90.000000
_cell_angle_gamma 90.000000
_cell_volume 1557.686208
_symmetry_space_group_name_H-M "I 21 21 21"
_symmetry_group_IT_number 24
_symmetry_cell_setting 'orthorhombic'
loop_
_space_group_symop_operation_xyz
x,y,z
-x,1/2-y,z
x,-y,1/2-z
1/2-x,y,-z
1/2+x,1/2+y,1/2+z
1/2-x,-y,1/2+z
1/2+x,1/2-y,-z
-x,1/2+y,1/2-z
loop_
_atom_site_type_symbol
_atom_site_label
_atom_site_fract_x
_atom_site_fract_y
_atom_site_fract_z
Si Si1 0.750000 0.551284 0.000000
Si Si2 0.546896 0.136163 0.383741
Si Si3 0.666180 0.901776 0.367546
Si Si4 0.750000 0.717480 0.000000
Si Si5 0.844042 0.468306 0.143302
O O1 0.556508 0.511631 0.943308
O O2 0.886064 0.587265 0.906879
O O3 0.750000 0.138829 0.500000
O O4 0.649561 0.133267 0.246918
O O5 0.355506 0.181442 0.398094
O O6 0.750000 0.882319 0.500000
O O7 0.391748 0.931248 0.388229
O O8 0.896622 0.938247 0.327964
O O9 0.500000 0.750000 0.963198
O O10 0.726679 0.500000 0.250000
#
# Coordination Sequence:
#
# PCOD9336509 Si02
#       5
#     4   8   8   4   8
#     4  11  22  36  56  90 136 192 238 278 306 367
#     4  11  25  42  69 101 135 169 226 286 340 399
#     4  12  25  40  59  93 134 186 225 270 324 384
#     4  11  24  48  76 108 126 158 214 294 370 429
#     4  12  23  37  56  82 134 192 243 270 306 364
#
# _framework density 20.543289000000001
#
# number of rings (size 3 to 8) (size 9 to 14) (size 15 to 20)
#    0.000    0.500    6.250    2.250    7.000    0.000 
#    0.000    0.000    0.000    0.000    6.500    0.000 
#    0.000    0.000    0.000    0.000    0.000    0.000 
#
# Total GULP energy -89138.018511 kJ/mol
# GULP energy per Si atom -5571.126157 kJ/mol
# Density = 2.049653 g / cm^3
# Si number density = 20.543289 Si / 1000 Ang^3
#
#
#
# Elastic Constant Matrix: (Units=GPa)
#
#
# Indices 1 2 3 4 5 6 
#
# 1 121.2661 51.7231 33.7161 0.0000 0.0000 0.0000
# 2 51.7231 121.6485 49.9177 0.0000 0.0000 0.0000
# 3 33.7161 49.9177 153.4548 0.0000 0.0000 0.0000
# 4 0.0000 0.0000 0.0000 7.4810 0.0000 0.0000
# 5 0.0000 0.0000 0.0000 0.0000 28.5941 0.0000
# 6 0.0000 0.0000 0.0000 0.0000 0.0000 26.7510
#
#
#
# Elastic Compliance Matrix: (Units=1/GPa)
#
#
# Indices 1 2 3 4 5 6 
#
# 1 0.010194 -0.003941 -0.000958 0.000000 0.000000 0.000000
# 2 -0.003941 0.011011 -0.002716 0.000000 0.000000 0.000000
# 3 -0.000958 -0.002716 0.007610 0.000000 0.000000 0.000000
# 4 0.000000 0.000000 0.000000 0.133672 0.000000 0.000000
# 5 0.000000 0.000000 0.000000 0.000000 0.034972 0.000000
# 6 0.000000 0.000000 0.000000 0.000000 0.000000 0.037382
#
#
# Mechanical properties :
#
#
# Convention : Reuss Voigt Hill
#
# Bulk Modulus (GPa) = 73.60832 74.12038 73.86435
# Shear Modulus (GPa) = 19.63878 29.96604 24.80241
#
# Velocity S-wave (km/s) = 3.09523 3.82341 3.47843
# Velocity P-wave (km/s) = 6.97729 7.45987 7.22261
#
# Compressibility (1/GPa) = 0.01358542
#
# Stress axis : x y z
#
# Youngs Moduli (GPa) = 98.10070 90.82225 131.39950
#
# Poissons Ratio (x) = 0.35795 0.12583
# Poissons Ratio (y) = 0.38664 0.35684
# Poissons Ratio (z) = 0.09394 0.24665
#
# Static dielectric constant tensor:
#      x y z
#    x 1.939330 0.000000 0.000000 
#    y 0.000000 1.676540 0.000000 
#    z 0.000000 0.000000 2.076600 
# 
# From -- ./inp_files/17496.got.cif
#   From: 2010.05.17/outbox.cif.g08.bks.cpg/sg24_9_cif.got.tgz:17496.got - 2010.06.04 00:33:39.
