data_PCOD9336371
_publ_section_title
;
Structure prediction by ZEFSAII (Michael W. Deem and Ramdas Pophale) SiO2 
 PCOD9336371
Probable space group: I 21 21 21
;
_chemical_formula_sum "Si O2"
_cell_formula_units_Z 48
_cell_length_a 32.643847
_cell_length_b 8.938126
_cell_length_c 8.135222
_cell_angle_alpha 90.000000
_cell_angle_beta 90.000000
_cell_angle_gamma 90.000000
_cell_volume 2373.652915
_symmetry_space_group_name_H-M "I 21 21 21"
_symmetry_group_IT_number 24
_symmetry_cell_setting 'orthorhombic'
loop_
_space_group_symop_operation_xyz
x,y,z
-x,1/2-y,z
x,-y,1/2-z
1/2-x,y,-z
1/2+x,1/2+y,1/2+z
1/2-x,-y,1/2+z
1/2+x,1/2-y,-z
-x,1/2+y,1/2-z
loop_
_atom_site_type_symbol
_atom_site_label
_atom_site_fract_x
_atom_site_fract_y
_atom_site_fract_z
Si Si1 0.783079 0.612732 0.617944
Si Si2 0.854621 0.166698 0.824816
Si Si3 0.920046 0.364475 0.643491
Si Si4 0.125656 0.670694 0.292519
Si Si5 0.155025 0.915162 0.083365
Si Si6 0.042277 0.827697 0.196833
O O1 0.763479 0.500000 0.750000
O O2 0.750000 0.690843 0.500000
O O3 0.815198 0.725177 0.705382
O O4 0.807662 0.498383 0.500297
O O5 0.896399 0.237855 0.748724
O O6 0.849439 0.000000 0.750000
O O7 0.857854 0.174982 0.022448
O O8 0.938008 0.500000 0.750000
O O9 0.882094 0.434523 0.542094
O O10 0.950109 0.310773 0.499939
O O11 0.119060 0.500000 0.250000
O O12 0.154867 0.745683 0.152140
O O13 0.081973 0.752811 0.279263
O O14 0.145043 0.000000 0.250000
O O15 0.000000 0.750000 0.244125
O O16 0.040846 0.000000 0.250000
#
# Coordination Sequence:
#
# PCOD9336371 Si02
#       6
#     8   8   8   8   8   8
#     4  12  25  42  66  96 130 170 221 275 329 392
#     4  12  23  41  66  96 130 166 219 277 326 388
#     4  11  19  39  66  95 124 167 219 266 310 384
#     4  11  23  39  67  96 126 168 219 270 323 395
#     4  11  18  37  65  94 121 163 218 258 314 381
#     4  11  24  41  64  93 134 173 213 266 329 394
#
# _framework density 20.221996000000001
#
# number of rings (size 3 to 8) (size 9 to 14) (size 15 to 20)
#    0.000    0.667    5.000    6.000    0.000    0.000 
#    0.000    7.500    0.000    0.000    0.000    0.000 
#    0.000    0.000    0.000    0.000    0.000    0.000 
#
# Total GULP energy -133918.976019 kJ/mol
# GULP energy per Si atom -5579.957334 kJ/mol
# Density = 2.017597 g / cm^3
# Si number density = 20.221996 Si / 1000 Ang^3
#
#
#
# Elastic Constant Matrix: (Units=GPa)
#
#
# Indices 1 2 3 4 5 6 
#
# 1 44.7446 24.2370 2.1278 0.0000 0.0000 0.0000
# 2 24.2370 135.5876 14.5174 0.0000 0.0000 0.0000
# 3 2.1278 14.5174 57.2247 0.0000 0.0000 0.0000
# 4 0.0000 0.0000 0.0000 40.0165 0.0000 0.0000
# 5 0.0000 0.0000 0.0000 0.0000 16.2534 0.0000
# 6 0.0000 0.0000 0.0000 0.0000 0.0000 15.1420
#
#
#
# Elastic Compliance Matrix: (Units=1/GPa)
#
#
# Indices 1 2 3 4 5 6 
#
# 1 0.024747 -0.004446 0.000208 0.000000 0.000000 0.000000
# 2 -0.004446 0.008380 -0.001961 0.000000 0.000000 0.000000
# 3 0.000208 -0.001961 0.017965 0.000000 0.000000 0.000000
# 4 0.000000 0.000000 0.000000 0.024990 0.000000 0.000000
# 5 0.000000 0.000000 0.000000 0.000000 0.061526 0.000000
# 6 0.000000 0.000000 0.000000 0.000000 0.000000 0.066042
#
#
# Mechanical properties :
#
#
# Convention : Reuss Voigt Hill
#
# Bulk Modulus (GPa) = 25.84360 35.48016 30.66188
# Shear Modulus (GPa) = 21.83930 27.39401 24.61666
#
# Velocity S-wave (km/s) = 3.28987 3.68457 3.49280
# Velocity P-wave (km/s) = 5.21907 5.97368 5.60908
#
# Compressibility (1/GPa) = 0.03869430
#
# Stress axis : x y z
#
# Youngs Moduli (GPa) = 40.40818 119.33212 55.66494
#
# Poissons Ratio (x) = 0.53055 -0.01156
# Poissons Ratio (y) = 0.17965 0.10914
# Poissons Ratio (z) = -0.00839 0.23396
#
# Static dielectric constant tensor:
#      x y z
#    x 1.702480 0.000000 0.000000 
#    y 0.000000 1.792210 0.000000 
#    z 0.000000 0.000000 1.831670 
# 
# From -- ./inp_files/16797.got.cif
#   From: 2010.05.17/outbox.cif.g08.bks.cpg/sg24_9_cif.got.tgz:16797.got - 2010.06.04 00:33:39.
