data_PCOD9336753
_publ_section_title
;
Structure prediction by ZEFSAII (Michael W. Deem and Ramdas Pophale) SiO2 
 PCOD9336753
Probable space group: I 21 21 21
;
_chemical_formula_sum "Si O2"
_cell_formula_units_Z 36
_cell_length_a 7.466943
_cell_length_b 9.129547
_cell_length_c 22.681434
_cell_angle_alpha 90.000000
_cell_angle_beta 90.000000
_cell_angle_gamma 90.000000
_cell_volume 1546.188980
_symmetry_space_group_name_H-M "I 21 21 21"
_symmetry_group_IT_number 24
_symmetry_cell_setting 'orthorhombic'
loop_
_space_group_symop_operation_xyz
x,y,z
-x,1/2-y,z
x,-y,1/2-z
1/2-x,y,-z
1/2+x,1/2+y,1/2+z
1/2-x,-y,1/2+z
1/2+x,1/2-y,-z
-x,1/2+y,1/2-z
loop_
_atom_site_type_symbol
_atom_site_label
_atom_site_fract_x
_atom_site_fract_y
_atom_site_fract_z
Si Si1 0.627393 0.392110 0.075417
Si Si2 0.500000 0.250000 0.895963
Si Si3 0.500000 0.250000 0.595714
Si Si4 0.496562 0.426857 0.310855
Si Si5 0.419239 0.507497 0.815413
Si Si6 0.750000 0.359782 0.500000
O O1 0.500000 0.250000 0.067522
O O2 0.833433 0.330917 0.072159
O O3 0.582277 0.474847 0.136961
O O4 0.608667 0.526338 0.029026
O O5 0.407343 0.359376 0.850942
O O6 0.517238 0.384269 0.640080
O O7 0.667160 0.261483 0.551528
O O8 0.500000 0.250000 0.315965
O O9 0.565423 0.500000 0.250000
O O10 0.283593 0.444683 0.309913
O O11 0.499034 0.500000 0.750000
#
# Coordination Sequence:
#
# PCOD9336753 Si02
#       6
#     8   4   4   8   8   4
#     4  12  27  50  75 109 152 202 254 322 384 468
#     4  12  25  48  74 110 148 197 258 310 400 456
#     4  12  27  50  74 118 154 213 262 320 394 470
#     4  11  25  45  77 110 151 200 255 325 401 467
#     4  11  25  46  77 114 153 194 261 331 397 464
#     4  12  30  46  78 108 158 210 258 318 382 482
#
# _framework density 23.283052999999999
#
# number of rings (size 3 to 8) (size 9 to 14) (size 15 to 20)
#    0.000    0.444    4.444    2.667    9.333    0.889 
#    0.000    0.000    0.000    0.000    0.000    0.000 
#    0.000    0.000    0.000    0.000    0.000    0.000 
#
# Total GULP energy -100494.863742 kJ/mol
# GULP energy per Si atom -5583.047986 kJ/mol
# Density = 2.323006 g / cm^3
# Si number density = 23.283053 Si / 1000 Ang^3
#
#
#
# Elastic Constant Matrix: (Units=GPa)
#
#
# Indices 1 2 3 4 5 6 
#
# 1 74.9493 -13.9255 -2.0409 0.0000 0.0000 0.0000
# 2 -13.9255 70.7977 3.2753 0.0000 0.0000 0.0000
# 3 -2.0409 3.2753 127.1780 0.0000 0.0000 0.0000
# 4 0.0000 0.0000 0.0000 40.9345 0.0000 0.0000
# 5 0.0000 0.0000 0.0000 0.0000 17.1499 0.0000
# 6 0.0000 0.0000 0.0000 0.0000 0.0000 25.0187
#
#
#
# Elastic Compliance Matrix: (Units=1/GPa)
#
#
# Indices 1 2 3 4 5 6 
#
# 1 0.013851 0.002717 0.000152 0.000000 0.000000 0.000000
# 2 0.002717 0.014675 -0.000334 0.000000 0.000000 0.000000
# 3 0.000152 -0.000334 0.007874 0.000000 0.000000 0.000000
# 4 0.000000 0.000000 0.000000 0.024429 0.000000 0.000000
# 5 0.000000 0.000000 0.000000 0.000000 0.058310 0.000000
# 6 0.000000 0.000000 0.000000 0.000000 0.000000 0.039970
#
#
# Mechanical properties :
#
#
# Convention : Reuss Voigt Hill
#
# Bulk Modulus (GPa) = 24.11321 27.50474 25.80897
# Shear Modulus (GPa) = 29.78639 35.66169 32.72404
#
# Velocity S-wave (km/s) = 3.58063 3.91789 3.75305
# Velocity P-wave (km/s) = 5.24153 5.68377 5.46712
#
# Compressibility (1/GPa) = 0.04147104
#
# Stress axis : x y z
#
# Youngs Moduli (GPa) = 72.19487 68.14440 126.99942
#
# Poissons Ratio (x) = -0.18518 -0.01934
# Poissons Ratio (y) = -0.19619 0.04246
# Poissons Ratio (z) = -0.01100 0.02278
#
# Static dielectric constant tensor:
#      x y z
#    x 1.870880 0.000000 0.000000 
#    y 0.000000 1.928940 0.000000 
#    z 0.000000 0.000000 1.906860 
# 
# From -- ./inp_files/9103.got.cif
#   From: 2010.05.17/outbox.cif.g08.bks.cpg/sg24_5_cif.got.tgz:9103.got - 2010.06.04 00:33:39.
