data_PCOD9336336
_publ_section_title
;
Structure prediction by ZEFSAII (Michael W. Deem and Ramdas Pophale) SiO2 
 PCOD9336336
Probable space group: I 21 21 21
;
_chemical_formula_sum "Si O2"
_cell_formula_units_Z 32
_cell_length_a 12.049451
_cell_length_b 10.020430
_cell_length_c 11.213062
_cell_angle_alpha 90.000000
_cell_angle_beta 90.000000
_cell_angle_gamma 90.000000
_cell_volume 1353.872734
_symmetry_space_group_name_H-M "I 21 21 21"
_symmetry_group_IT_number 24
_symmetry_cell_setting 'orthorhombic'
loop_
_space_group_symop_operation_xyz
x,y,z
-x,1/2-y,z
x,-y,1/2-z
1/2-x,y,-z
1/2+x,1/2+y,1/2+z
1/2-x,-y,1/2+z
1/2+x,1/2-y,-z
-x,1/2+y,1/2-z
loop_
_atom_site_type_symbol
_atom_site_label
_atom_site_fract_x
_atom_site_fract_y
_atom_site_fract_z
Si Si1 0.000000 0.750000 0.143383
Si Si2 0.673971 0.280183 0.829512
Si Si3 0.245496 0.500000 0.750000
Si Si4 0.406222 0.144155 0.094578
Si Si5 0.446405 0.613273 0.084908
O O1 0.088998 0.822611 0.226937
O O2 0.065135 0.649208 0.055371
O O3 0.687601 0.879789 0.688092
O O4 0.796916 0.340765 0.825673
O O5 0.628200 0.318652 0.958962
O O6 0.163728 0.567035 0.848291
O O7 0.500000 0.250000 0.125649
O O8 0.462473 0.001129 0.098722
O O9 0.500000 0.750000 0.131099
#
# Coordination Sequence:
#
# PCOD9336336 Si02
#       5
#     4   8   4   8   8
#     4  10  26  50  72 114 156 198 256 326 390 456
#     4  11  26  43  81 111 153 204 257 322 385 463
#     4  12  26  48  80 108 150 212 262 320 396 474
#     4  11  23  49  76 113 152 204 263 307 387 472
#     4  10  27  51  75 111 154 199 264 327 392 465
#
# _framework density 23.635899999999999
#
# number of rings (size 3 to 8) (size 9 to 14) (size 15 to 20)
#    0.750    0.500    3.750    0.000    7.000    2.000 
#   13.500    0.000    0.000    0.000    0.000    0.000 
#    0.000    0.000    0.000    0.000    0.000    0.000 
#
# Total GULP energy -89578.469594 kJ/mol
# GULP energy per Si atom -5598.654350 kJ/mol
# Density = 2.358210 g / cm^3
# Si number density = 23.635900 Si / 1000 Ang^3
#
#
#
# Elastic Constant Matrix: (Units=GPa)
#
#
# Indices 1 2 3 4 5 6 
#
# 1 103.4326 23.7436 48.7179 0.0000 0.0000 0.0000
# 2 23.7436 155.0981 22.6998 0.0000 0.0000 0.0000
# 3 48.7179 22.6998 131.0444 0.0000 0.0000 0.0000
# 4 0.0000 0.0000 0.0000 12.2073 0.0000 0.0000
# 5 0.0000 0.0000 0.0000 0.0000 40.2143 0.0000
# 6 0.0000 0.0000 0.0000 0.0000 0.0000 39.1116
#
#
#
# Elastic Compliance Matrix: (Units=1/GPa)
#
#
# Indices 1 2 3 4 5 6 
#
# 1 0.011937 -0.001209 -0.004229 0.000000 0.000000 0.000000
# 2 -0.001209 0.006738 -0.000718 0.000000 0.000000 0.000000
# 3 -0.004229 -0.000718 0.009327 0.000000 0.000000 0.000000
# 4 0.000000 0.000000 0.000000 0.081918 0.000000 0.000000
# 5 0.000000 0.000000 0.000000 0.000000 0.024867 0.000000
# 6 0.000000 0.000000 0.000000 0.000000 0.000000 0.025568
#
#
# Mechanical properties :
#
#
# Convention : Reuss Voigt Hill
#
# Bulk Modulus (GPa) = 63.72493 64.43308 64.07900
# Shear Modulus (GPa) = 28.10635 37.93421 33.02028
#
# Velocity S-wave (km/s) = 3.45213 4.01052 3.74175
# Velocity P-wave (km/s) = 6.55051 6.98323 6.77033
#
# Compressibility (1/GPa) = 0.01569245
#
# Stress axis : x y z
#
# Youngs Moduli (GPa) = 83.77140 148.42066 107.21149
#
# Poissons Ratio (x) = 0.17938 0.45335
# Poissons Ratio (y) = 0.10124 0.07696
# Poissons Ratio (z) = 0.35423 0.10654
#
# Static dielectric constant tensor:
#      x y z
#    x 1.853290 0.000000 0.000000 
#    y 0.000000 1.758000 0.000000 
#    z 0.000000 0.000000 1.952630 
# 
# From -- ./inp_files/20381.got.cif
#   From: 2010.05.17/outbox.cif.g08.bks.cpg/sg24_11_cif.got.tgz:20381.got - 2010.06.04 00:33:39.
