data_PCOD9336469
_publ_section_title
;
Structure prediction by ZEFSAII (Michael W. Deem and Ramdas Pophale) SiO2 
 PCOD9336469
Probable space group: I 21 21 21
;
_chemical_formula_sum "Si O2"
_cell_formula_units_Z 40
_cell_length_a 23.080198
_cell_length_b 8.347907
_cell_length_c 9.755941
_cell_angle_alpha 90.000000
_cell_angle_beta 90.000000
_cell_angle_gamma 90.000000
_cell_volume 1879.690288
_symmetry_space_group_name_H-M "I 21 21 21"
_symmetry_group_IT_number 24
_symmetry_cell_setting 'orthorhombic'
loop_
_space_group_symop_operation_xyz
x,y,z
-x,1/2-y,z
x,-y,1/2-z
1/2-x,y,-z
1/2+x,1/2+y,1/2+z
1/2-x,-y,1/2+z
1/2+x,1/2-y,-z
-x,1/2+y,1/2-z
loop_
_atom_site_type_symbol
_atom_site_label
_atom_site_fract_x
_atom_site_fract_y
_atom_site_fract_z
Si Si1 0.229703 0.159157 0.341250
Si Si2 0.152313 0.804826 0.733501
Si Si3 0.107290 0.315835 0.286190
Si Si4 0.936105 0.675913 0.496796
Si Si5 0.441239 0.203297 0.448600
O O1 0.250000 0.128205 0.500000
O O2 0.282095 0.248579 0.260944
O O3 0.168930 0.249140 0.337342
O O4 0.220232 0.000000 0.250000
O O5 0.116210 0.766524 0.596984
O O6 0.154682 0.000000 0.750000
O O7 0.112630 0.747268 0.857106
O O8 0.113017 0.500000 0.250000
O O9 0.083961 0.217962 0.156128
O O10 0.062637 0.296952 0.409983
O O11 0.939607 0.485483 0.521479
O O12 0.000000 0.750000 0.522131
O O13 0.500000 0.250000 0.373136
#
# Coordination Sequence:
#
# PCOD9336469 Si02
#       5
#     8   8   8   8   8
#     4  11  23  44  72  99 128 171 220 267 322 393
#     4   9  21  39  65  95 128 165 213 262 326 389
#     4  12  26  43  62  94 132 172 216 268 323 382
#     4  11  23  42  65  97 128 169 218 267 325 392
#     4  11  21  40  67  93 127 170 212 269 325 389
#
# _framework density 21.280103
#
# number of rings (size 3 to 8) (size 9 to 14) (size 15 to 20)
#    0.000    1.200    2.000    4.200    5.600    0.000 
#    3.600    3.000    0.000    0.000    0.000    0.000 
#    0.000    0.000    0.000    0.000    0.000    0.000 
#
# Total GULP energy -111738.942859 kJ/mol
# GULP energy per Si atom -5586.947143 kJ/mol
# Density = 2.123167 g / cm^3
# Si number density = 21.280103 Si / 1000 Ang^3
#
#
#
# Elastic Constant Matrix: (Units=GPa)
#
#
# Indices 1 2 3 4 5 6 
#
# 1 116.7562 -5.1599 -5.8385 0.0000 0.0000 0.0000
# 2 -5.1599 40.1779 -11.3530 0.0000 0.0000 0.0000
# 3 -5.8385 -11.3530 72.0534 0.0000 0.0000 0.0000
# 4 0.0000 0.0000 0.0000 -53.5336 0.0000 0.0000
# 5 0.0000 0.0000 0.0000 0.0000 36.2272 0.0000
# 6 0.0000 0.0000 0.0000 0.0000 0.0000 31.9456
#
#
#
# Elastic Compliance Matrix: (Units=1/GPa)
#
#
# Indices 1 2 3 4 5 6 
#
# 1 0.008672 0.001373 0.000919 0.000000 0.000000 0.000000
# 2 0.001373 0.026267 0.004250 0.000000 0.000000 0.000000
# 3 0.000919 0.004250 0.014623 0.000000 0.000000 0.000000
# 4 0.000000 0.000000 0.000000 -0.018680 0.000000 0.000000
# 5 0.000000 0.000000 0.000000 0.000000 0.027604 0.000000
# 6 0.000000 0.000000 0.000000 0.000000 0.000000 0.031303
#
#
# Mechanical properties :
#
#
# Convention : Reuss Voigt Hill
#
# Bulk Modulus (GPa) = 15.96288 20.47610 18.21949
# Shear Modulus (GPa) = 51.23744 19.68375 35.46059
#
# Velocity S-wave (km/s) = 4.91222 3.04465 4.08655
# Velocity P-wave (km/s) = 6.30006 4.69073 5.55400
#
# Compressibility (1/GPa) = 0.06264532
#
# Stress axis : x y z
#
# Youngs Moduli (GPa) = 115.32019 38.07123 68.38688
#
# Poissons Ratio (x) = -0.05228 -0.06285
# Poissons Ratio (y) = -0.15837 -0.29064
# Poissons Ratio (z) = -0.10598 -0.16180
#
# Static dielectric constant tensor:
#      x y z
#    x 1.841260 0.000000 0.000000 
#    y 0.000000 1.697720 0.000000 
#    z 0.000000 0.000000 1.769390 
# 
# From -- ./inp_files/9223.got.cif
#   From: 2010.05.17/outbox.cif.g08.bks.cpg/sg24_5_cif.got.tgz:9223.got - 2010.06.04 00:33:39.
