data_PCOD9336428
_publ_section_title
;
Structure prediction by ZEFSAII (Michael W. Deem and Ramdas Pophale) SiO2 
 PCOD9336428
Probable space group: I 21 21 21
;
_chemical_formula_sum "Si O2"
_cell_formula_units_Z 44
_cell_length_a 9.913344
_cell_length_b 14.374840
_cell_length_c 16.192210
_cell_angle_alpha 90.000000
_cell_angle_beta 90.000000
_cell_angle_gamma 90.000000
_cell_volume 2307.434192
_symmetry_space_group_name_H-M "I 21 21 21"
_symmetry_group_IT_number 24
_symmetry_cell_setting 'orthorhombic'
loop_
_space_group_symop_operation_xyz
x,y,z
-x,1/2-y,z
x,-y,1/2-z
1/2-x,y,-z
1/2+x,1/2+y,1/2+z
1/2-x,-y,1/2+z
1/2+x,1/2-y,-z
-x,1/2+y,1/2-z
loop_
_atom_site_type_symbol
_atom_site_label
_atom_site_fract_x
_atom_site_fract_y
_atom_site_fract_z
Si Si1 0.100200 0.991873 0.464422
Si Si2 0.505989 0.638206 0.684439
Si Si3 0.847544 0.013974 0.573353
Si Si4 0.342627 0.733042 0.074531
Si Si5 0.118728 0.170464 0.347062
Si Si6 0.279776 0.500000 0.750000
O O1 0.250000 0.976797 0.500000
O O2 0.093406 0.089662 0.414147
O O3 0.997234 0.994766 0.541178
O O4 0.046666 0.916093 0.398247
O O5 0.500000 0.750000 0.669443
O O6 0.614145 0.626509 0.756713
O O7 0.378466 0.588839 0.731499
O O8 0.750000 0.975330 0.500000
O O9 0.824381 0.123964 0.575254
O O10 0.809701 0.991674 0.667268
O O11 0.500000 0.750000 0.067089
O O12 0.264926 0.782143 0.148027
O O13 0.250000 0.769165 0.000000
O O14 0.000000 0.250000 0.355322
#
# Coordination Sequence:
#
# PCOD9336428 Si02
#       6
#     8   8   8   8   8   4
#     4  12  24  42  62  96 136 174 210 266 334 395
#     4  11  23  44  70  92 126 175 223 268 327 393
#     4  11  21  39  66  94 127 167 220 265 317 388
#     4  11  21  34  58  98 134 164 203 266 340 394
#     4  11  20  38  69  97 129 168 216 271 332 394
#     4  12  22  44  72  98 122 172 228 280 320 382
#
# _framework density 19.068798999999999
#
# number of rings (size 3 to 8) (size 9 to 14) (size 15 to 20)
#    0.000    0.727    3.636    7.636    0.000    0.000 
#    9.818    0.000    0.000    0.000    0.000    0.000 
#    0.000    0.000    0.000    0.000    0.000    0.000 
#
# Total GULP energy -122539.877071 kJ/mol
# GULP energy per Si atom -5569.994412 kJ/mol
# Density = 1.902540 g / cm^3
# Si number density = 19.068799 Si / 1000 Ang^3
#
#
#
# Elastic Constant Matrix: (Units=GPa)
#
#
# Indices 1 2 3 4 5 6 
#
# 1 121.1782 36.8320 77.2773 0.0000 0.0000 0.0000
# 2 36.8320 90.5687 36.5535 0.0000 0.0000 0.0000
# 3 77.2773 36.5535 151.7172 0.0000 0.0000 0.0000
# 4 0.0000 0.0000 0.0000 -122.1318 0.0000 0.0000
# 5 0.0000 0.0000 0.0000 0.0000 36.0603 0.0000
# 6 0.0000 0.0000 0.0000 0.0000 0.0000 5.5972
#
#
#
# Elastic Compliance Matrix: (Units=1/GPa)
#
#
# Indices 1 2 3 4 5 6 
#
# 1 0.012860 -0.002865 -0.005860 0.000000 0.000000 0.000000
# 2 -0.002865 0.012869 -0.001641 0.000000 0.000000 0.000000
# 3 -0.005860 -0.001641 0.009972 0.000000 0.000000 0.000000
# 4 0.000000 0.000000 0.000000 -0.008188 0.000000 0.000000
# 5 0.000000 0.000000 0.000000 0.000000 0.027731 0.000000
# 6 0.000000 0.000000 0.000000 0.000000 0.000000 0.178661
#
#
# Mechanical properties :
#
#
# Convention : Reuss Voigt Hill
#
# Bulk Modulus (GPa) = 66.80899 73.86553 70.33726
# Shear Modulus (GPa) = 19.25841 -1.90809 8.67516
#
# Velocity S-wave (km/s) = 3.18141 -1.00140 2.13525
# Velocity P-wave (km/s) = 6.97187 6.12236 6.56088
#
# Compressibility (1/GPa) = 0.01496804
#
# Stress axis : x y z
#
# Youngs Moduli (GPa) = 77.75967 77.70729 100.28564
#
# Poissons Ratio (x) = 0.22261 0.58769
# Poissons Ratio (y) = 0.22276 0.16460
# Poissons Ratio (z) = 0.45568 0.12754
#
# Static dielectric constant tensor:
#      x y z
#    x 2.274990 0.000000 0.000000 
#    y 0.000000 1.695720 0.000000 
#    z 0.000000 0.000000 1.787280 
# 
# From -- ./inp_files/26955.got.cif
#   From: 2010.05.17/outbox.cif.g08.bks.cpg/sg24_14_cif.got.tgz:26955.got - 2010.06.04 00:33:39.
