data_PCOD9336714
_publ_section_title
;
Structure prediction by ZEFSAII (Michael W. Deem and Ramdas Pophale) SiO2 
 PCOD9336714
Probable space group: I 21 21 21
;
_chemical_formula_sum "Si O2"
_cell_formula_units_Z 40
_cell_length_a 26.644185
_cell_length_b 8.119583
_cell_length_c 8.506069
_cell_angle_alpha 90.000000
_cell_angle_beta 90.000000
_cell_angle_gamma 90.000000
_cell_volume 1840.200174
_symmetry_space_group_name_H-M "I 21 21 21"
_symmetry_group_IT_number 24
_symmetry_cell_setting 'orthorhombic'
loop_
_space_group_symop_operation_xyz
x,y,z
-x,1/2-y,z
x,-y,1/2-z
1/2-x,y,-z
1/2+x,1/2+y,1/2+z
1/2-x,-y,1/2+z
1/2+x,1/2-y,-z
-x,1/2+y,1/2-z
loop_
_atom_site_type_symbol
_atom_site_label
_atom_site_fract_x
_atom_site_fract_y
_atom_site_fract_z
Si Si1 0.441868 0.295293 0.085544
Si Si2 0.098269 0.364759 0.561446
Si Si3 0.709028 0.128821 0.370678
Si Si4 0.118338 0.009787 0.435392
Si Si5 0.787405 0.611641 0.623660
O O1 0.500000 0.250000 0.096906
O O2 0.419676 0.320950 0.261274
O O3 0.433281 0.475596 0.007535
O O4 0.414400 0.144085 0.998345
O O5 0.156567 0.425454 0.553393
O O6 0.095903 0.190181 0.472822
O O7 0.750000 0.179746 0.500000
O O8 0.689570 0.260360 0.243186
O O9 0.733683 0.000000 0.250000
O O10 0.170844 0.987726 0.528908
O O11 0.126088 0.000000 0.250000
O O12 0.757775 0.500000 0.750000
O O13 0.750000 0.690177 0.500000
#
# Coordination Sequence:
#
# PCOD9336714 Si02
#       5
#     8   8   8   8   8
#     4  11  25  48  78 106 137 194 248 313 378 444
#     4  11  24  47  74 108 145 182 259 310 360 460
#     4  12  24  44  68 104 148 199 245 312 374 446
#     4  12  26  45  71 106 152 193 241 314 378 448
#     4  12  23  41  66  99 141 192 254 295 362 443
#
# _framework density 21.736764000000001
#
# number of rings (size 3 to 8) (size 9 to 14) (size 15 to 20)
#    0.000    0.400    6.000    2.400    8.400    0.800 
#    3.600    0.000    0.000    0.000    0.000    0.000 
#    0.000    0.000    0.000    0.000    0.000    0.000 
#
# Total GULP energy -111543.782516 kJ/mol
# GULP energy per Si atom -5577.189126 kJ/mol
# Density = 2.168729 g / cm^3
# Si number density = 21.736764 Si / 1000 Ang^3
#
#
#
# Elastic Constant Matrix: (Units=GPa)
#
#
# Indices 1 2 3 4 5 6 
#
# 1 135.9140 44.2378 48.5480 0.0000 0.0000 0.0000
# 2 44.2378 150.9521 63.1210 0.0000 0.0000 0.0000
# 3 48.5480 63.1210 122.9295 0.0000 0.0000 0.0000
# 4 0.0000 0.0000 0.0000 21.8539 0.0000 0.0000
# 5 0.0000 0.0000 0.0000 0.0000 21.6488 0.0000
# 6 0.0000 0.0000 0.0000 0.0000 0.0000 26.7665
#
#
#
# Elastic Compliance Matrix: (Units=1/GPa)
#
#
# Indices 1 2 3 4 5 6 
#
# 1 0.008803 -0.001434 -0.002740 0.000000 0.000000 0.000000
# 2 -0.001434 0.008669 -0.003885 0.000000 0.000000 0.000000
# 3 -0.002740 -0.003885 0.011212 0.000000 0.000000 0.000000
# 4 0.000000 0.000000 0.000000 0.045758 0.000000 0.000000
# 5 0.000000 0.000000 0.000000 0.000000 0.046192 0.000000
# 6 0.000000 0.000000 0.000000 0.000000 0.000000 0.037360
#
#
# Mechanical properties :
#
#
# Convention : Reuss Voigt Hill
#
# Bulk Modulus (GPa) = 79.58260 80.17879 79.88070
# Shear Modulus (GPa) = 28.04223 30.97976 29.51100
#
# Velocity S-wave (km/s) = 3.59567 3.77931 3.68863
# Velocity P-wave (km/s) = 7.34370 7.48402 7.41419
#
# Compressibility (1/GPa) = 0.01256556
#
# Stress axis : x y z
#
# Youngs Moduli (GPa) = 113.59571 115.34715 89.19088
#
# Poissons Ratio (x) = 0.16541 0.24441
# Poissons Ratio (y) = 0.16289 0.34653
# Poissons Ratio (z) = 0.31128 0.44815
#
# Static dielectric constant tensor:
#      x y z
#    x 1.755320 0.000000 0.000000 
#    y 0.000000 1.984640 0.000000 
#    z 0.000000 0.000000 1.730110 
# 
# From -- ./inp_files/16268.got.cif
#   From: 2010.05.17/outbox.cif.g08.bks.cpg/sg24_9_cif.got.tgz:16268.got - 2010.06.04 00:33:39.
