data_PCOD9336308
_publ_section_title
;
Structure prediction by ZEFSAII (Michael W. Deem and Ramdas Pophale) SiO2 
 PCOD9336308
Probable space group: I 21 21 21
;
_chemical_formula_sum "Si O2"
_cell_formula_units_Z 52
_cell_length_a 18.589443
_cell_length_b 5.311057
_cell_length_c 22.059991
_cell_angle_alpha 90.000000
_cell_angle_beta 90.000000
_cell_angle_gamma 90.000000
_cell_volume 2177.973897
_symmetry_space_group_name_H-M "I 21 21 21"
_symmetry_group_IT_number 24
_symmetry_cell_setting 'orthorhombic'
loop_
_space_group_symop_operation_xyz
x,y,z
-x,1/2-y,z
x,-y,1/2-z
1/2-x,y,-z
1/2+x,1/2+y,1/2+z
1/2-x,-y,1/2+z
1/2+x,1/2-y,-z
-x,1/2+y,1/2-z
loop_
_atom_site_type_symbol
_atom_site_label
_atom_site_fract_x
_atom_site_fract_y
_atom_site_fract_z
Si Si1 0.866434 0.248270 0.287752
Si Si2 0.570032 0.080090 0.321319
Si Si3 0.250000 0.376275 0.500000
Si Si4 0.387200 0.675278 0.926398
Si Si5 0.660831 0.224509 0.093934
Si Si6 0.706631 0.591417 0.185594
Si Si7 0.425432 0.150758 0.989334
O O1 0.886980 0.500000 0.250000
O O2 0.895531 0.210308 0.354994
O O3 0.780524 0.271580 0.299667
O O4 0.882655 0.000000 0.250000
O O5 0.500000 0.250000 0.333914
O O6 0.642713 0.234315 0.336109
O O7 0.567426 0.000000 0.250000
O O8 0.590744 0.850365 0.365499
O O9 0.308105 0.252866 0.545715
O O10 0.202004 0.529353 0.549872
O O11 0.399313 0.386415 0.947566
O O12 0.435749 0.894824 0.953968
O O13 0.715189 0.359227 0.139998
O O14 0.628776 0.408505 0.043515
O O15 0.678177 0.500000 0.250000
O O16 0.500000 0.250000 0.015298
#
# Coordination Sequence:
#
# PCOD9336308 Si02
#       7
#     8   8   4   8   8   8   8
#     4  11  25  42  75 107 142 177 226 290 365 429
#     4  12  26  42  64  97 141 193 248 297 353 420
#     4  10  26  44  70 102 142 184 248 298 368 418
#     4  11  25  46  73 102 142 182 228 299 344 431
#     4  11  27  43  67 100 139 187 244 302 352 432
#     4  11  24  40  66  93 143 182 233 291 354 412
#     4  11  27  46  72 100 141 190 237 283 352 418
#
# _framework density 23.875399999999999
#
# number of rings (size 3 to 8) (size 9 to 14) (size 15 to 20)
#    0.000    0.923    1.538    3.231   19.385    0.615 
#    0.000    0.000    0.000    9.231    0.000    0.000 
#    0.000    0.000    0.000    0.000    0.000    0.000 
#
# Total GULP energy -145174.602222 kJ/mol
# GULP energy per Si atom -5583.638547 kJ/mol
# Density = 2.382106 g / cm^3
# Si number density = 23.875400 Si / 1000 Ang^3
#
#
#
# Elastic Constant Matrix: (Units=GPa)
#
#
# Indices 1 2 3 4 5 6 
#
# 1 22.3307 7.7036 10.2485 0.0000 0.0000 0.0000
# 2 7.7036 114.5377 68.8476 0.0000 0.0000 0.0000
# 3 10.2485 68.8476 180.6628 0.0000 0.0000 0.0000
# 4 0.0000 0.0000 0.0000 29.3031 0.0000 0.0000
# 5 0.0000 0.0000 0.0000 0.0000 11.0822 0.0000
# 6 0.0000 0.0000 0.0000 0.0000 0.0000 10.4658
#
#
#
# Elastic Compliance Matrix: (Units=1/GPa)
#
#
# Indices 1 2 3 4 5 6 
#
# 1 0.046326 -0.001993 -0.001869 0.000000 0.000000 0.000000
# 2 -0.001993 0.011411 -0.004235 0.000000 0.000000 0.000000
# 3 -0.001869 -0.004235 0.007255 0.000000 0.000000 0.000000
# 4 0.000000 0.000000 0.000000 0.034126 0.000000 0.000000
# 5 0.000000 0.000000 0.000000 0.000000 0.090235 0.000000
# 6 0.000000 0.000000 0.000000 0.000000 0.000000 0.095549
#
#
# Mechanical properties :
#
#
# Convention : Reuss Voigt Hill
#
# Bulk Modulus (GPa) = 20.49222 54.57008 37.53115
# Shear Modulus (GPa) = 15.75487 25.55231 20.65359
#
# Velocity S-wave (km/s) = 2.57160 3.27499 2.94438
# Velocity P-wave (km/s) = 4.17362 6.09972 5.22617
#
# Compressibility (1/GPa) = 0.04879901
#
# Stress axis : x y z
#
# Youngs Moduli (GPa) = 21.58596 87.63777 137.83216
#
# Poissons Ratio (x) = 0.17463 0.25756
# Poissons Ratio (y) = 0.04301 0.58377
# Poissons Ratio (z) = 0.04034 0.37118
#
# Static dielectric constant tensor:
#      x y z
#    x 2.084830 0.000000 0.000000 
#    y 0.000000 2.217360 0.000000 
#    z 0.000000 0.000000 1.872850 
# 
# From -- ./inp_files/34129.got.cif
#   From: 2010.05.17/outbox.cif.g08.bks.cpg/sg24_18_cif.got.tgz:34129.got - 2010.06.04 00:33:39.
