data_PCOD9336651
_publ_section_title
;
Structure prediction by ZEFSAII (Michael W. Deem and Ramdas Pophale) SiO2 
 PCOD9336651
Probable space group: I 21 21 21
;
_chemical_formula_sum "Si O2"
_cell_formula_units_Z 40
_cell_length_a 14.934180
_cell_length_b 9.137894
_cell_length_c 14.441041
_cell_angle_alpha 90.000000
_cell_angle_beta 90.000000
_cell_angle_gamma 90.000000
_cell_volume 1970.724875
_symmetry_space_group_name_H-M "I 21 21 21"
_symmetry_group_IT_number 24
_symmetry_cell_setting 'orthorhombic'
loop_
_space_group_symop_operation_xyz
x,y,z
-x,1/2-y,z
x,-y,1/2-z
1/2-x,y,-z
1/2+x,1/2+y,1/2+z
1/2-x,-y,1/2+z
1/2+x,1/2-y,-z
-x,1/2+y,1/2-z
loop_
_atom_site_type_symbol
_atom_site_label
_atom_site_fract_x
_atom_site_fract_y
_atom_site_fract_z
Si Si1 0.177959 0.000000 0.750000
Si Si2 0.750000 0.849084 0.000000
Si Si3 0.965958 0.414843 0.393357
Si Si4 0.648240 0.947514 0.647273
Si Si5 0.298616 0.879583 0.602299
Si Si6 0.084043 0.830864 0.909554
O O1 0.234625 0.115830 0.808546
O O2 0.122291 0.070565 0.669310
O O3 0.669101 0.755763 0.046438
O O4 0.798318 0.948484 0.076481
O O5 0.868515 0.486933 0.376115
O O6 0.963730 0.410361 0.504511
O O7 0.000000 0.250000 0.364635
O O8 0.042701 0.519666 0.357562
O O9 0.659848 0.781549 0.611855
O O10 0.677495 0.000000 0.750000
O O11 0.250000 0.898221 0.500000
O O12 0.000000 0.750000 0.865271
#
# Coordination Sequence:
#
# PCOD9336651 Si02
#       6
#     4   4   8   8   8   8
#     4  12  26  46  74 104 142 188 252 284 364 450
#     4  12  22  48  74  98 154 180 246 304 360 428
#     4  11  24  45  72 101 144 188 232 296 368 425
#     4  12  27  45  73 108 139 190 240 299 365 433
#     4  12  26  47  73 106 146 187 241 305 360 431
#     4  11  23  46  72 105 139 199 236 294 369 425
#
# _framework density 20.297097999999998
#
# number of rings (size 3 to 8) (size 9 to 14) (size 15 to 20)
#    0.000    0.400    7.000    3.000    4.200    0.000 
#    9.000    0.000    0.000    0.000    0.000    0.000 
#    0.000    0.000    0.000    0.000    0.000    0.000 
#
# Total GULP energy -111454.158029 kJ/mol
# GULP energy per Si atom -5572.707901 kJ/mol
# Density = 2.025090 g / cm^3
# Si number density = 20.297098 Si / 1000 Ang^3
#
#
#
# Elastic Constant Matrix: (Units=GPa)
#
#
# Indices 1 2 3 4 5 6 
#
# 1 81.5207 38.9498 5.8403 0.0000 0.0000 0.0000
# 2 38.9498 100.0170 28.6416 0.0000 0.0000 0.0000
# 3 5.8403 28.6416 56.4081 0.0000 0.0000 0.0000
# 4 0.0000 0.0000 0.0000 -19.1802 0.0000 0.0000
# 5 0.0000 0.0000 0.0000 0.0000 38.7896 0.0000
# 6 0.0000 0.0000 0.0000 0.0000 0.0000 10.7219
#
#
#
# Elastic Compliance Matrix: (Units=1/GPa)
#
#
# Indices 1 2 3 4 5 6 
#
# 1 0.015205 -0.006401 0.001676 0.000000 0.000000 0.000000
# 2 -0.006401 0.014394 -0.006646 0.000000 0.000000 0.000000
# 3 0.001676 -0.006646 0.020929 0.000000 0.000000 0.000000
# 4 0.000000 0.000000 0.000000 -0.052137 0.000000 0.000000
# 5 0.000000 0.000000 0.000000 0.000000 0.025780 0.000000
# 6 0.000000 0.000000 0.000000 0.000000 0.000000 0.093267
#
#
# Mechanical properties :
#
#
# Convention : Reuss Voigt Hill
#
# Bulk Modulus (GPa) = 35.98954 42.75657 39.37305
# Shear Modulus (GPa) = 33.45753 17.03388 25.24570
#
# Velocity S-wave (km/s) = 4.06444 2.90008 3.53059
# Velocity P-wave (km/s) = 6.30842 5.68551 6.00505
#
# Compressibility (1/GPa) = 0.02778585
#
# Stress axis : x y z
#
# Youngs Moduli (GPa) = 65.76668 69.47141 47.78062
#
# Poissons Ratio (x) = 0.44471 -0.08008
# Poissons Ratio (y) = 0.42100 0.31755
# Poissons Ratio (z) = -0.11023 0.46171
#
# Static dielectric constant tensor:
#      x y z
#    x 1.898030 0.000000 0.000000 
#    y 0.000000 1.652200 0.000000 
#    z 0.000000 0.000000 1.747250 
# 
# From -- ./inp_files/12362.got.cif
#   From: 2010.05.17/outbox.cif.g08.bks.cpg/sg24_7_cif.got.tgz:12362.got - 2010.06.04 00:33:39.
