data_PCOD9336829
_publ_section_title
;
Structure prediction by ZEFSAII (Michael W. Deem and Ramdas Pophale) SiO2 
 PCOD9336829
Probable space group: I 21 21 21
;
_chemical_formula_sum "Si O2"
_cell_formula_units_Z 48
_cell_length_a 15.259592
_cell_length_b 13.903363
_cell_length_c 11.412089
_cell_angle_alpha 90.000000
_cell_angle_beta 90.000000
_cell_angle_gamma 90.000000
_cell_volume 2421.184772
_symmetry_space_group_name_H-M "I 21 21 21"
_symmetry_group_IT_number 24
_symmetry_cell_setting 'orthorhombic'
loop_
_space_group_symop_operation_xyz
x,y,z
-x,1/2-y,z
x,-y,1/2-z
1/2-x,y,-z
1/2+x,1/2+y,1/2+z
1/2-x,-y,1/2+z
1/2+x,1/2-y,-z
-x,1/2+y,1/2-z
loop_
_atom_site_type_symbol
_atom_site_label
_atom_site_fract_x
_atom_site_fract_y
_atom_site_fract_z
Si Si1 0.102735 0.964518 0.117733
Si Si2 0.750000 0.402646 0.000000
Si Si3 0.000000 0.750000 0.807853
Si Si4 0.321088 0.249189 0.602503
Si Si5 0.297074 0.526638 0.378793
Si Si6 0.687760 0.757741 0.317876
Si Si7 0.445002 0.594518 0.019266
O O1 0.129327 0.852064 0.115308
O O2 0.099797 0.000000 0.250000
O O3 0.174056 0.028800 0.050303
O O4 0.007800 0.971065 0.058180
O O5 0.711502 0.332184 0.100091
O O6 0.909561 0.749212 0.736262
O O7 0.002489 0.840176 0.894968
O O8 0.250000 0.240020 0.500000
O O9 0.262699 0.266090 0.718014
O O10 0.387098 0.334194 0.562918
O O11 0.258456 0.500000 0.250000
O O12 0.250000 0.497908 0.500000
O O13 0.310421 0.640414 0.383381
O O14 0.385778 0.467129 0.393042
#
# Coordination Sequence:
#
# PCOD9336829 Si02
#       7
#     8   4   4   8   8   8   8
#     4  12  26  44  69 105 139 189 242 288 357 428
#     4  12  28  48  70  98 144 188 232 288 358 428
#     4  12  24  44  72 104 140 178 236 288 352 420
#     4  12  21  46  74 101 140 184 237 293 349 424
#     4  12  25  46  73 107 139 186 241 293 364 429
#     4  12  26  46  72 104 144 186 230 295 360 415
#     4  12  25  43  71 108 139 181 241 295 349 427
#
# _framework density 19.825004
#
# number of rings (size 3 to 8) (size 9 to 14) (size 15 to 20)
#    0.000    0.000    8.333    1.500    2.333    2.000 
#    0.000    0.000    0.000    0.000    0.000    0.000 
#    0.000    0.000    0.000    0.000    0.000    0.000 
#
# Total GULP energy -134137.723633 kJ/mol
# GULP energy per Si atom -5589.071818 kJ/mol
# Density = 1.977988 g / cm^3
# Si number density = 19.825004 Si / 1000 Ang^3
#
#
#
# Elastic Constant Matrix: (Units=GPa)
#
#
# Indices 1 2 3 4 5 6 
#
# 1 64.7662 17.8493 48.4435 0.0000 0.0000 0.0000
# 2 17.8493 101.7321 34.4698 0.0000 0.0000 0.0000
# 3 48.4435 34.4698 128.8001 0.0000 0.0000 0.0000
# 4 0.0000 0.0000 0.0000 23.6321 0.0000 0.0000
# 5 0.0000 0.0000 0.0000 0.0000 32.0942 0.0000
# 6 0.0000 0.0000 0.0000 0.0000 0.0000 31.5085
#
#
#
# Elastic Compliance Matrix: (Units=1/GPa)
#
#
# Indices 1 2 3 4 5 6 
#
# 1 0.021604 -0.001141 -0.007820 0.000000 0.000000 0.000000
# 2 -0.001141 0.010870 -0.002480 0.000000 0.000000 0.000000
# 3 -0.007820 -0.002480 0.011369 0.000000 0.000000 0.000000
# 4 0.000000 0.000000 0.000000 0.042315 0.000000 0.000000
# 5 0.000000 0.000000 0.000000 0.000000 0.031158 0.000000
# 6 0.000000 0.000000 0.000000 0.000000 0.000000 0.031738
#
#
# Mechanical properties :
#
#
# Convention : Reuss Voigt Hill
#
# Bulk Modulus (GPa) = 47.70768 55.20262 51.45515
# Shear Modulus (GPa) = 27.94495 30.41601 29.18048
#
# Velocity S-wave (km/s) = 3.75851 3.92117 3.84070
# Velocity P-wave (km/s) = 6.55377 6.95745 6.75862
#
# Compressibility (1/GPa) = 0.02096099
#
# Stress axis : x y z
#
# Youngs Moduli (GPa) = 46.28798 91.99456 87.95858
#
# Poissons Ratio (x) = 0.10494 0.68786
# Poissons Ratio (y) = 0.05280 0.21814
# Poissons Ratio (z) = 0.36198 0.22815
#
# Static dielectric constant tensor:
#      x y z
#    x 1.711030 0.000000 0.000000 
#    y 0.000000 1.683180 0.000000 
#    z 0.000000 0.000000 1.719590 
# 
# From -- ./inp_files/20769.got.cif
#   From: 2010.05.17/outbox.cif.g08.bks.cpg/sg24_11_cif.got.tgz:20769.got - 2010.06.04 00:33:39.
