data_PCOD9336331
_publ_section_title
;
Structure prediction by ZEFSAII (Michael W. Deem and Ramdas Pophale) SiO2 
 PCOD9336331
Probable space group: I 21 21 21
;
_chemical_formula_sum "Si O2"
_cell_formula_units_Z 40
_cell_length_a 16.298500
_cell_length_b 6.230564
_cell_length_c 17.963894
_cell_angle_alpha 90.000000
_cell_angle_beta 90.000000
_cell_angle_gamma 90.000000
_cell_volume 1824.212730
_symmetry_space_group_name_H-M "I 21 21 21"
_symmetry_group_IT_number 24
_symmetry_cell_setting 'orthorhombic'
loop_
_space_group_symop_operation_xyz
x,y,z
-x,1/2-y,z
x,-y,1/2-z
1/2-x,y,-z
1/2+x,1/2+y,1/2+z
1/2-x,-y,1/2+z
1/2+x,1/2-y,-z
-x,1/2+y,1/2-z
loop_
_atom_site_type_symbol
_atom_site_label
_atom_site_fract_x
_atom_site_fract_y
_atom_site_fract_z
Si Si1 0.363920 0.964286 0.458815
Si Si2 0.464125 0.000000 0.750000
Si Si3 0.909406 0.338887 0.389503
Si Si4 0.879055 0.000000 0.750000
Si Si5 0.750000 0.101623 0.000000
Si Si6 0.762203 0.782696 0.864263
Si Si7 0.000000 0.250000 0.861574
O O1 0.328431 0.756394 0.500483
O O2 0.445370 0.905333 0.413373
O O3 0.378443 0.123588 0.526979
O O4 0.297109 0.064553 0.402063
O O5 0.500000 0.250000 0.741026
O O6 0.420563 0.970754 0.670043
O O7 0.834772 0.216335 0.348762
O O8 0.000000 0.250000 0.401951
O O9 0.819745 0.840158 0.795259
O O10 0.937167 0.879600 0.690932
O O11 0.767770 0.961144 0.928012
#
# Coordination Sequence:
#
# PCOD9336331 Si02
#       7
#     8   4   8   4   4   8   4
#     4  12  26  46  74 111 151 196 257 314 377 472
#     4  10  26  49  69 112 156 194 258 322 389 457
#     4  11  26  45  77 110 150 199 257 325 385 475
#     4  12  28  49  77 108 158 202 250 326 387 469
#     4  12  22  48  72 106 148 196 252 304 390 456
#     4  12  26  49  71 110 152 198 250 312 391 456
#     4  12  28  46  76 118 144 204 258 314 384 456
#
# _framework density 21.927268999999999
#
# number of rings (size 3 to 8) (size 9 to 14) (size 15 to 20)
#    0.000    0.400    6.000    1.200    7.000    8.000 
#    0.000    0.000    0.000    0.000    0.000    0.000 
#    0.000    0.000    0.000    0.000    0.000    0.000 
#
# Total GULP energy -111379.495956 kJ/mol
# GULP energy per Si atom -5568.974798 kJ/mol
# Density = 2.187736 g / cm^3
# Si number density = 21.927269 Si / 1000 Ang^3
#
#
#
# Elastic Constant Matrix: (Units=GPa)
#
#
# Indices 1 2 3 4 5 6 
#
# 1 146.6573 21.9129 30.7883 0.0000 0.0000 0.0000
# 2 21.9129 47.0314 4.0715 0.0000 0.0000 0.0000
# 3 30.7883 4.0715 87.7667 0.0000 0.0000 0.0000
# 4 0.0000 0.0000 0.0000 38.0333 0.0000 0.0000
# 5 0.0000 0.0000 0.0000 0.0000 20.9150 0.0000
# 6 0.0000 0.0000 0.0000 0.0000 0.0000 35.1444
#
#
#
# Elastic Compliance Matrix: (Units=1/GPa)
#
#
# Indices 1 2 3 4 5 6 
#
# 1 0.007880 -0.003446 -0.002605 0.000000 0.000000 0.000000
# 2 -0.003446 0.022855 0.000149 0.000000 0.000000 0.000000
# 3 -0.002605 0.000149 0.012301 0.000000 0.000000 0.000000
# 4 0.000000 0.000000 0.000000 0.026293 0.000000 0.000000
# 5 0.000000 0.000000 0.000000 0.000000 0.047813 0.000000
# 6 0.000000 0.000000 0.000000 0.000000 0.000000 0.028454
#
#
# Mechanical properties :
#
#
# Convention : Reuss Voigt Hill
#
# Bulk Modulus (GPa) = 32.01841 43.88898 37.95370
# Shear Modulus (GPa) = 29.79558 33.79739 31.79649
#
# Velocity S-wave (km/s) = 3.69024 3.93025 3.81213
# Velocity P-wave (km/s) = 5.72634 6.37613 6.05995
#
# Compressibility (1/GPa) = 0.03123203
#
# Stress axis : x y z
#
# Youngs Moduli (GPa) = 126.89881 43.75381 81.29686
#
# Poissons Ratio (x) = 0.15078 0.21174
# Poissons Ratio (y) = 0.43731 -0.01208
# Poissons Ratio (z) = 0.33051 -0.00650
#
# Static dielectric constant tensor:
#      x y z
#    x 1.819550 0.000000 0.000000 
#    y 0.000000 1.878190 0.000000 
#    z 0.000000 0.000000 1.848550 
# 
# From -- ./inp_files/4579.got.cif
#   From: 2010.05.17/outbox.cif.g08.bks.cpg/sg24_3_cif.got.tgz:4579.got - 2010.06.04 00:33:39.
