data_PCOD9336676
_publ_section_title
;
Structure prediction by ZEFSAII (Michael W. Deem and Ramdas Pophale) SiO2 
 PCOD9336676
Probable space group: I 21 21 21
;
_chemical_formula_sum "Si O2"
_cell_formula_units_Z 60
_cell_length_a 11.986291
_cell_length_b 16.132795
_cell_length_c 14.956271
_cell_angle_alpha 90.000000
_cell_angle_beta 90.000000
_cell_angle_gamma 90.000000
_cell_volume 2892.129652
_symmetry_space_group_name_H-M "I 21 21 21"
_symmetry_group_IT_number 24
_symmetry_cell_setting 'orthorhombic'
loop_
_space_group_symop_operation_xyz
x,y,z
-x,1/2-y,z
x,-y,1/2-z
1/2-x,y,-z
1/2+x,1/2+y,1/2+z
1/2-x,-y,1/2+z
1/2+x,1/2-y,-z
-x,1/2+y,1/2-z
loop_
_atom_site_type_symbol
_atom_site_label
_atom_site_fract_x
_atom_site_fract_y
_atom_site_fract_z
Si Si1 0.034544 0.411208 0.093255
Si Si2 0.353020 0.424524 0.564746
Si Si3 0.600675 0.185298 0.739094
Si Si4 0.702460 0.289604 0.172567
Si Si5 0.430814 0.833731 0.972412
Si Si6 0.219652 0.865133 0.856923
Si Si7 0.288295 0.963066 0.600024
Si Si8 0.000000 0.750000 0.538081
O O1 0.135345 0.476088 0.077440
O O2 0.046249 0.378702 0.193110
O O3 0.920478 0.462531 0.096737
O O4 0.019043 0.332399 0.024782
O O5 0.250000 0.404590 0.500000
O O6 0.352409 0.366439 0.654097
O O7 0.471206 0.400426 0.522051
O O8 0.500000 0.250000 0.720335
O O9 0.698881 0.226873 0.799064
O O10 0.667451 0.321498 0.270823
O O11 0.752934 0.371467 0.127248
O O12 0.607073 0.258713 0.104535
O O13 0.500000 0.750000 0.972869
O O14 0.355797 0.843400 0.059238
O O15 0.345005 0.838430 0.888387
O O16 0.234458 0.963226 0.843356
O O17 0.250000 0.981111 0.500000
#
# Coordination Sequence:
#
# PCOD9336676 Si02
#       8
#     8   8   8   8   8   8   8   4
#     4  12  25  48  74 103 144 188 244 302 359 431
#     4  12  28  45  73 105 148 190 235 296 370 438
#     4  12  26  47  74 110 140 191 248 302 352 438
#     4  12  27  42  72 105 148 183 243 297 373 435
#     4  11  24  42  70  99 142 188 240 291 367 426
#     4  11  24  44  70 102 138 188 241 308 348 442
#     4  12  21  45  73 105 135 184 246 308 366 413
#     4  12  28  46  74 108 146 200 234 304 374 436
#
# _framework density 20.745958999999999
#
# number of rings (size 3 to 8) (size 9 to 14) (size 15 to 20)
#    0.000    0.267    6.000    2.800    6.533    1.067 
#    0.000    0.000    0.000    0.000    0.000    0.000 
#    0.000    0.000    0.000    0.000    0.000    0.000 
#
# Total GULP energy -167430.806414 kJ/mol
# GULP energy per Si atom -5581.026880 kJ/mol
# Density = 2.069874 g / cm^3
# Si number density = 20.745959 Si / 1000 Ang^3
#
#
#
# Elastic Constant Matrix: (Units=GPa)
#
#
# Indices 1 2 3 4 5 6 
#
# 1 101.5168 35.9351 39.1835 0.0000 0.0000 0.0000
# 2 35.9351 101.9671 31.4720 0.0000 0.0000 0.0000
# 3 39.1835 31.4720 109.1981 0.0000 0.0000 0.0000
# 4 0.0000 0.0000 0.0000 11.2917 0.0000 0.0000
# 5 0.0000 0.0000 0.0000 0.0000 31.0947 0.0000
# 6 0.0000 0.0000 0.0000 0.0000 0.0000 26.9121
#
#
#
# Elastic Compliance Matrix: (Units=1/GPa)
#
#
# Indices 1 2 3 4 5 6 
#
# 1 0.012358 -0.003278 -0.003490 0.000000 0.000000 0.000000
# 2 -0.003278 0.011634 -0.002177 0.000000 0.000000 0.000000
# 3 -0.003490 -0.002177 0.011037 0.000000 0.000000 0.000000
# 4 0.000000 0.000000 0.000000 0.088560 0.000000 0.000000
# 5 0.000000 0.000000 0.000000 0.000000 0.032160 0.000000
# 6 0.000000 0.000000 0.000000 0.000000 0.000000 0.037158
#
#
# Mechanical properties :
#
#
# Convention : Reuss Voigt Hill
#
# Bulk Modulus (GPa) = 58.34202 58.42925 58.38563
# Shear Modulus (GPa) = 23.09362 27.59912 25.34637
#
# Velocity S-wave (km/s) = 3.34003 3.65134 3.49915
# Velocity P-wave (km/s) = 6.56183 6.78245 6.67305
#
# Compressibility (1/GPa) = 0.01714030
#
# Stress axis : x y z
#
# Youngs Moduli (GPa) = 80.92001 85.95332 90.60247
#
# Poissons Ratio (x) = 0.28176 0.31617
# Poissons Ratio (y) = 0.26526 0.19723
# Poissons Ratio (z) = 0.28238 0.18711
#
# Static dielectric constant tensor:
#      x y z
#    x 1.733770 0.000000 0.000000 
#    y 0.000000 1.831390 0.000000 
#    z 0.000000 0.000000 1.765020 
# 
# From -- ./inp_files/25978.got.cif
#   From: 2010.05.17/outbox.cif.g08.bks.cpg/sg24_13_cif.got.tgz:25978.got - 2010.06.04 00:33:39.
