data_PCOD9336797
_publ_section_title
;
Structure prediction by ZEFSAII (Michael W. Deem and Ramdas Pophale) SiO2 
 PCOD9336797
Probable space group: I 21 21 21
;
_chemical_formula_sum "Si O2"
_cell_formula_units_Z 32
_cell_length_a 10.676842
_cell_length_b 11.832093
_cell_length_c 9.362868
_cell_angle_alpha 90.000000
_cell_angle_beta 90.000000
_cell_angle_gamma 90.000000
_cell_volume 1182.805380
_symmetry_space_group_name_H-M "I 21 21 21"
_symmetry_group_IT_number 24
_symmetry_cell_setting 'orthorhombic'
loop_
_space_group_symop_operation_xyz
x,y,z
-x,1/2-y,z
x,-y,1/2-z
1/2-x,y,-z
1/2+x,1/2+y,1/2+z
1/2-x,-y,1/2+z
1/2+x,1/2-y,-z
-x,1/2+y,1/2-z
loop_
_atom_site_type_symbol
_atom_site_label
_atom_site_fract_x
_atom_site_fract_y
_atom_site_fract_z
Si Si1 0.614242 0.839230 0.061319
Si Si2 0.754040 0.819374 0.333288
Si Si3 0.335475 0.924174 0.381450
Si Si4 0.488171 0.552094 0.615252
O O1 0.500000 0.750000 0.056072
O O2 0.650698 0.866455 0.225481
O O3 0.750000 0.798515 0.000000
O O4 0.572662 0.949772 0.975127
O O5 0.750000 0.849679 0.500000
O O6 0.736045 0.685290 0.324036
O O7 0.889802 0.869328 0.301536
O O8 0.250000 0.988223 0.500000
O O9 0.375239 0.000000 0.250000
O O10 0.442865 0.881268 0.488993
O O11 0.565024 0.500000 0.750000
#
# Coordination Sequence:
#
# PCOD9336797 Si02
#       4
#     8   8   8   8
#     4  12  28  53  84 127 173 230 288 362 435 520
#     4  11  28  48  79 118 163 221 288 348 433 509
#     4  11  27  52  84 121 170 226 296 360 439 518
#     4  12  27  52  83 119 174 222 292 355 445 518
#
# _framework density 27.054324000000001
#
# number of rings (size 3 to 8) (size 9 to 14) (size 15 to 20)
#    0.000    0.500    2.500    3.000    7.000   11.000 
#    0.000    0.000    0.000    0.000    0.000    0.000 
#    0.000    0.000    0.000    0.000    0.000    0.000 
#
# Total GULP energy -89529.127174 kJ/mol
# GULP energy per Si atom -5595.570448 kJ/mol
# Density = 2.699275 g / cm^3
# Si number density = 27.054324 Si / 1000 Ang^3
#
#
#
# Elastic Constant Matrix: (Units=GPa)
#
#
# Indices 1 2 3 4 5 6 
#
# 1 120.9161 65.8490 37.0430 0.0000 0.0000 0.0000
# 2 65.8490 138.9747 59.7847 0.0000 0.0000 0.0000
# 3 37.0430 59.7847 188.8498 0.0000 0.0000 0.0000
# 4 0.0000 0.0000 0.0000 27.6345 0.0000 0.0000
# 5 0.0000 0.0000 0.0000 0.0000 49.6827 0.0000
# 6 0.0000 0.0000 0.0000 0.0000 0.0000 44.8655
#
#
#
# Elastic Compliance Matrix: (Units=1/GPa)
#
#
# Indices 1 2 3 4 5 6 
#
# 1 0.011205 -0.005051 -0.000599 0.000000 0.000000 0.000000
# 2 -0.005051 0.010607 -0.002367 0.000000 0.000000 0.000000
# 3 -0.000599 -0.002367 0.006162 0.000000 0.000000 0.000000
# 4 0.000000 0.000000 0.000000 0.036187 0.000000 0.000000
# 5 0.000000 0.000000 0.000000 0.000000 0.020128 0.000000
# 6 0.000000 0.000000 0.000000 0.000000 0.000000 0.022289
#
#
# Mechanical properties :
#
#
# Convention : Reuss Voigt Hill
#
# Bulk Modulus (GPa) = 83.75586 86.01045 84.88316
# Shear Modulus (GPa) = 39.49719 43.50746 41.50233
#
# Velocity S-wave (km/s) = 3.82504 4.01453 3.92093
# Velocity P-wave (km/s) = 7.10869 7.30406 7.20704
#
# Compressibility (1/GPa) = 0.01193946
#
# Stress axis : x y z
#
# Youngs Moduli (GPa) = 89.24980 94.27450 162.28464
#
# Poissons Ratio (x) = 0.47622 0.09715
# Poissons Ratio (y) = 0.45084 0.38415
# Poissons Ratio (z) = 0.05343 0.22316
#
# Static dielectric constant tensor:
#      x y z
#    x 2.379030 0.000000 0.000000 
#    y 0.000000 2.032680 0.000000 
#    z 0.000000 0.000000 2.122610 
# 
# From -- ./inp_files/10400.got.cif
#   From: 2010.05.17/outbox.cif.g08.bks.cpg/sg24_6_cif.got.tgz:10400.got - 2010.06.04 00:33:39.
