data_PCOD9336313
_publ_section_title
;
Structure prediction by ZEFSAII (Michael W. Deem and Ramdas Pophale) SiO2 
 PCOD9336313
Probable space group: I 21 21 21
;
_chemical_formula_sum "Si O2"
_cell_formula_units_Z 48
_cell_length_a 7.846445
_cell_length_b 25.313004
_cell_length_c 11.289671
_cell_angle_alpha 90.000000
_cell_angle_beta 90.000000
_cell_angle_gamma 90.000000
_cell_volume 2242.321643
_symmetry_space_group_name_H-M "I 21 21 21"
_symmetry_group_IT_number 24
_symmetry_cell_setting 'orthorhombic'
loop_
_space_group_symop_operation_xyz
x,y,z
-x,1/2-y,z
x,-y,1/2-z
1/2-x,y,-z
1/2+x,1/2+y,1/2+z
1/2-x,-y,1/2+z
1/2+x,1/2-y,-z
-x,1/2+y,1/2-z
loop_
_atom_site_type_symbol
_atom_site_label
_atom_site_fract_x
_atom_site_fract_y
_atom_site_fract_z
Si Si1 0.822022 0.909235 0.864981
Si Si2 0.056842 0.450907 0.016740
Si Si3 0.822965 0.216376 0.632771
Si Si4 0.620177 0.357685 0.890857
Si Si5 0.353499 0.941403 0.270628
Si Si6 0.909080 0.000000 0.250000
Si Si7 0.500000 0.250000 0.783974
O O1 0.831970 0.846396 0.837115
O O2 0.013684 0.928477 0.834846
O O3 0.705384 0.947970 0.783327
O O4 0.750000 0.913266 0.000000
O O5 0.998845 0.487502 0.125278
O O6 0.037975 0.392278 0.066239
O O7 0.250000 0.466423 0.000000
O O8 0.955245 0.448816 0.894888
O O9 0.750000 0.220132 0.500000
O O10 0.670892 0.239521 0.710362
O O11 0.000000 0.250000 0.644662
O O12 0.719975 0.393633 0.792671
O O13 0.549008 0.301982 0.854645
O O14 0.750000 0.352434 0.000000
O O15 0.286524 0.000000 0.250000
#
# Coordination Sequence:
#
# PCOD9336313 Si02
#       7
#     8   8   8   8   8   4   4
#     4  11  22  37  65 102 137 182 238 279 345 436
#     4  11  22  39  65  95 138 181 228 291 346 425
#     4  11  24  45  72 102 141 186 242 302 360 425
#     4  10  26  45  66 105 139 178 242 291 361 429
#     4  11  21  42  67  99 144 185 227 295 362 423
#     4  12  20  36  62 102 132 180 234 276 348 422
#     4  12  24  48  74  98 140 190 236 312 358 428
#
# _framework density 21.406383999999999
#
# number of rings (size 3 to 8) (size 9 to 14) (size 15 to 20)
#    0.000    1.000    3.333    3.500    1.167    0.667 
#    4.500    0.000    0.000    0.000    0.000    0.000 
#    0.000    0.000    0.000    0.000    0.000    0.000 
#
# Total GULP energy -133877.883445 kJ/mol
# GULP energy per Si atom -5578.245144 kJ/mol
# Density = 2.135766 g / cm^3
# Si number density = 21.406384 Si / 1000 Ang^3
#
#
#
# Elastic Constant Matrix: (Units=GPa)
#
#
# Indices 1 2 3 4 5 6 
#
# 1 103.5378 52.2592 36.0859 0.0000 0.0000 0.0000
# 2 52.2592 178.3961 42.9427 0.0000 0.0000 0.0000
# 3 36.0859 42.9427 76.8342 0.0000 -0.0002 0.0003
# 4 0.0000 0.0000 0.0000 36.1527 0.0000 0.0000
# 5 0.0000 0.0000 -0.0002 0.0000 22.5358 0.0000
# 6 0.0000 0.0000 0.0003 0.0000 0.0000 19.7490
#
#
#
# Elastic Compliance Matrix: (Units=1/GPa)
#
#
# Indices 1 2 3 4 5 6 
#
# 1 0.012513 -0.002601 -0.004423 0.000000 0.000000 0.000000
# 2 -0.002601 0.007017 -0.002701 0.000000 0.000000 0.000000
# 3 -0.004423 -0.002701 0.016602 0.000000 0.000000 0.000000
# 4 0.000000 0.000000 0.000000 0.027660 0.000000 0.000000
# 5 0.000000 0.000000 0.000000 0.000000 0.044374 0.000000
# 6 0.000000 0.000000 0.000000 0.000000 0.000000 0.050636
#
#
# Mechanical properties :
#
#
# Convention : Reuss Voigt Hill
#
# Bulk Modulus (GPa) = 59.94152 69.03818 64.48985
# Shear Modulus (GPa) = 27.20180 30.85285 29.02732
#
# Velocity S-wave (km/s) = 3.56860 3.80055 3.68640
# Velocity P-wave (km/s) = 6.71136 7.18193 6.95063
#
# Compressibility (1/GPa) = 0.01668293
#
# Stress axis : x y z
#
# Youngs Moduli (GPa) = 79.91971 142.50221 60.23461
#
# Poissons Ratio (x) = 0.37061 0.26642
# Poissons Ratio (y) = 0.20785 0.16267
# Poissons Ratio (z) = 0.35349 0.38484
#
# Static dielectric constant tensor:
#      x y z
#    x 1.809190 0.000000 0.000000 
#    y 0.000000 1.795600 0.000000 
#    z 0.000000 0.000000 1.814320 
# 
# From -- ./inp_files/18641.got.cif
#   From: 2010.05.17/outbox.cif.g08.bks.cpg/sg24_10_cif.got.tgz:18641.got - 2010.06.04 00:33:39.
