data_PCOD9336811
_publ_section_title
;
Structure prediction by ZEFSAII (Michael W. Deem and Ramdas Pophale) SiO2 
 PCOD9336811
Probable space group: I 21 21 21
;
_chemical_formula_sum "Si O2"
_cell_formula_units_Z 44
_cell_length_a 11.577830
_cell_length_b 9.814619
_cell_length_c 15.704662
_cell_angle_alpha 90.000000
_cell_angle_beta 90.000000
_cell_angle_gamma 90.000000
_cell_volume 1784.552000
_symmetry_space_group_name_H-M "I 21 21 21"
_symmetry_group_IT_number 24
_symmetry_cell_setting 'orthorhombic'
loop_
_space_group_symop_operation_xyz
x,y,z
-x,1/2-y,z
x,-y,1/2-z
1/2-x,y,-z
1/2+x,1/2+y,1/2+z
1/2-x,-y,1/2+z
1/2+x,1/2-y,-z
-x,1/2+y,1/2-z
loop_
_atom_site_type_symbol
_atom_site_label
_atom_site_fract_x
_atom_site_fract_y
_atom_site_fract_z
Si Si1 0.500000 0.750000 0.030109
Si Si2 0.256260 0.171347 0.099427
Si Si3 0.057112 0.037467 0.340003
Si Si4 0.061310 0.961769 0.837104
Si Si5 0.759241 0.247014 0.278374
Si Si6 0.331258 0.399144 0.568832
O O1 0.503349 0.880060 0.090808
O O2 0.380670 0.740640 0.977195
O O3 0.245042 0.278972 0.177404
O O4 0.153471 0.065400 0.124159
O O5 0.373950 0.088277 0.119115
O O6 0.250000 0.208613 0.000000
O O7 0.124747 0.172423 0.307934
O O8 0.954568 0.040485 0.406917
O O9 0.999870 0.000000 0.250000
O O10 0.158595 0.855129 0.801897
O O11 0.995922 0.000000 0.750000
O O12 0.760357 0.126603 0.345581
O O13 0.250000 0.468385 0.500000
#
# Coordination Sequence:
#
# PCOD9336811 Si02
#       6
#     4   8   8   8   8   8
#     4  12  20  30  56  80 110 144 180 230 276 326
#     4   9  17  30  54  78 107 132 173 223 273 319
#     4   9  18  32  50  76 108 141 174 218 270 320
#     4   9  19  32  48  79 110 138 176 223 275 322
#     4   9  17  31  48  79 105 131 173 228 267 306
#     4  12  21  30  52  83 109 134 181 227 274 319
#
# _framework density 24.65605
#
# number of rings (size 3 to 8) (size 9 to 14) (size 15 to 20)
#    0.000    2.182    3.636    3.273    2.545    0.000 
#    0.000    0.909    0.000    1.091   42.545    0.000 
#    0.000    0.000    0.000    0.000    0.000    0.000 
#
# Total GULP energy -122755.320804 kJ/mol
# GULP energy per Si atom -5579.787309 kJ/mol
# Density = 2.459993 g / cm^3
# Si number density = 24.656050 Si / 1000 Ang^3
#
#
#
# Elastic Constant Matrix: (Units=GPa)
#
#
# Indices 1 2 3 4 5 6 
#
# 1 69.4012 2.0099 39.7696 0.0000 0.0000 0.0000
# 2 2.0099 36.8552 35.9815 0.0000 0.0000 0.0000
# 3 39.7696 35.9815 257.9201 0.0000 0.0000 0.0000
# 4 0.0000 0.0000 0.0000 18.8372 0.0000 0.0000
# 5 0.0000 0.0000 0.0000 0.0000 45.3932 0.0000
# 6 0.0000 0.0000 0.0000 0.0000 0.0000 8.8586
#
#
#
# Elastic Compliance Matrix: (Units=1/GPa)
#
#
# Indices 1 2 3 4 5 6 
#
# 1 0.015904 0.001768 -0.002699 0.000000 0.000000 0.000000
# 2 0.001768 0.031608 -0.004682 0.000000 0.000000 0.000000
# 3 -0.002699 -0.004682 0.004947 0.000000 0.000000 0.000000
# 4 0.000000 0.000000 0.000000 0.053087 0.000000 0.000000
# 5 0.000000 0.000000 0.000000 0.000000 0.022030 0.000000
# 6 0.000000 0.000000 0.000000 0.000000 0.000000 0.112885
#
#
# Mechanical properties :
#
#
# Convention : Reuss Voigt Hill
#
# Bulk Modulus (GPa) = 24.25302 57.74427 40.99865
# Shear Modulus (GPa) = 18.83731 33.71216 26.27473
#
# Velocity S-wave (km/s) = 2.76706 3.70171 3.26797
# Velocity P-wave (km/s) = 4.47959 6.46073 5.55912
#
# Compressibility (1/GPa) = 0.04123198
#
# Stress axis : x y z
#
# Youngs Moduli (GPa) = 62.87574 31.63769 202.16294
#
# Poissons Ratio (x) = -0.05592 0.54563
# Poissons Ratio (y) = -0.11114 0.94654
# Poissons Ratio (z) = 0.16970 0.14813
#
# Static dielectric constant tensor:
#      x y z
#    x 1.930420 0.000000 0.000000 
#    y 0.000000 2.056320 0.000000 
#    z 0.000000 0.000000 2.067520 
# 
# From -- ./inp_files/25686.got.cif
#   From: 2010.05.17/outbox.cif.g08.bks.cpg/sg24_13_cif.got.tgz:25686.got - 2010.06.04 00:33:39.
