data_PCOD9336425
_publ_section_title
;
Structure prediction by ZEFSAII (Michael W. Deem and Ramdas Pophale) SiO2 
 PCOD9336425
Probable space group: I 21 21 21
;
_chemical_formula_sum "Si O2"
_cell_formula_units_Z 40
_cell_length_a 17.953766
_cell_length_b 13.218983
_cell_length_c 7.713723
_cell_angle_alpha 90.000000
_cell_angle_beta 90.000000
_cell_angle_gamma 90.000000
_cell_volume 1830.701949
_symmetry_space_group_name_H-M "I 21 21 21"
_symmetry_group_IT_number 24
_symmetry_cell_setting 'orthorhombic'
loop_
_space_group_symop_operation_xyz
x,y,z
-x,1/2-y,z
x,-y,1/2-z
1/2-x,y,-z
1/2+x,1/2+y,1/2+z
1/2-x,-y,1/2+z
1/2+x,1/2-y,-z
-x,1/2+y,1/2-z
loop_
_atom_site_type_symbol
_atom_site_label
_atom_site_fract_x
_atom_site_fract_y
_atom_site_fract_z
Si Si1 0.021236 0.633674 0.505265
Si Si2 0.583733 0.093200 0.657597
Si Si3 0.169033 0.765859 0.965605
Si Si4 0.687507 0.892267 0.349764
Si Si5 0.972887 0.630996 0.863069
O O1 0.020351 0.607670 0.303256
O O2 0.106598 0.617219 0.561971
O O3 0.000000 0.750000 0.502666
O O4 0.972065 0.594084 0.665091
O O5 0.636935 0.187288 0.611930
O O6 0.535675 0.077963 0.482211
O O7 0.627029 0.000000 0.750000
O O8 0.182864 0.694773 0.796710
O O9 0.108762 0.853791 0.939167
O O10 0.250000 0.808854 0.000000
O O11 0.750000 0.881680 0.500000
O O12 0.694115 0.000000 0.250000
O O13 0.000000 0.750000 0.862326
#
# Coordination Sequence:
#
# PCOD9336425 Si02
#       5
#     8   8   8   8   8
#     4  11  20  38  62  81 121 168 214 246 286 372
#     4  11  22  36  61  92 120 161 200 249 312 365
#     4  11  21  39  57  87 128 161 202 252 308 366
#     4  12  24  37  56  91 134 167 197 248 320 376
#     4   9  19  39  57  81 117 158 209 254 285 357
#
# _framework density 21.849543000000001
#
# number of rings (size 3 to 8) (size 9 to 14) (size 15 to 20)
#    0.000    1.200    6.000    4.800    0.000    1.600 
#    0.000    0.000    0.000    0.000    5.200    0.000 
#    0.000    0.000    0.000    0.000    0.000    0.000 
#
# Total GULP energy -111499.721525 kJ/mol
# GULP energy per Si atom -5574.986076 kJ/mol
# Density = 2.179981 g / cm^3
# Si number density = 21.849543 Si / 1000 Ang^3
#
#
#
# Elastic Constant Matrix: (Units=GPa)
#
#
# Indices 1 2 3 4 5 6 
#
# 1 140.3050 22.5588 16.9161 0.0000 0.0000 0.0000
# 2 22.5588 39.2714 21.7915 0.0000 0.0000 0.0000
# 3 16.9161 21.7915 106.6800 0.0000 0.0000 0.0000
# 4 0.0000 0.0000 0.0000 36.5455 0.0000 0.0000
# 5 0.0000 0.0000 0.0000 0.0000 26.3367 0.0000
# 6 0.0000 0.0000 0.0000 0.0000 0.0000 24.7214
#
#
#
# Elastic Compliance Matrix: (Units=1/GPa)
#
#
# Indices 1 2 3 4 5 6 
#
# 1 0.007865 -0.004315 -0.000366 0.000000 0.000000 0.000000
# 2 -0.004315 0.031086 -0.005666 0.000000 0.000000 0.000000
# 3 -0.000366 -0.005666 0.010589 0.000000 0.000000 0.000000
# 4 0.000000 0.000000 0.000000 0.027363 0.000000 0.000000
# 5 0.000000 0.000000 0.000000 0.000000 0.037970 0.000000
# 6 0.000000 0.000000 0.000000 0.000000 0.000000 0.040451
#
#
# Mechanical properties :
#
#
# Convention : Reuss Voigt Hill
#
# Bulk Modulus (GPa) = 34.66492 45.42104 40.04298
# Shear Modulus (GPa) = 26.93474 32.52004 29.72739
#
# Velocity S-wave (km/s) = 3.51484 3.86212 3.69256
# Velocity P-wave (km/s) = 5.68963 6.38131 6.04537
#
# Compressibility (1/GPa) = 0.02884761
#
# Stress axis : x y z
#
# Youngs Moduli (GPa) = 127.14195 32.16831 94.43607
#
# Poissons Ratio (x) = 0.13881 0.03454
# Poissons Ratio (y) = 0.54863 0.53506
# Poissons Ratio (z) = 0.04650 0.18226
#
# Static dielectric constant tensor:
#      x y z
#    x 1.783240 0.000000 0.000000 
#    y 0.000000 2.111960 0.000000 
#    z 0.000000 0.000000 1.905690 
# 
# From -- ./inp_files/14270.got.cif
#   From: 2010.05.17/outbox.cif.g08.bks.cpg/sg24_8_cif.got.tgz:14270.got - 2010.06.04 00:33:39.
