data_PCOD9336686
_publ_section_title
;
Structure prediction by ZEFSAII (Michael W. Deem and Ramdas Pophale) SiO2 
 PCOD9336686
Probable space group: I 21 21 21
;
_chemical_formula_sum "Si O2"
_cell_formula_units_Z 32
_cell_length_a 11.560073
_cell_length_b 5.054874
_cell_length_c 25.590829
_cell_angle_alpha 90.000000
_cell_angle_beta 90.000000
_cell_angle_gamma 90.000000
_cell_volume 1495.392734
_symmetry_space_group_name_H-M "I 21 21 21"
_symmetry_group_IT_number 24
_symmetry_cell_setting 'orthorhombic'
loop_
_space_group_symop_operation_xyz
x,y,z
-x,1/2-y,z
x,-y,1/2-z
1/2-x,y,-z
1/2+x,1/2+y,1/2+z
1/2-x,-y,1/2+z
1/2+x,1/2-y,-z
-x,1/2+y,1/2-z
loop_
_atom_site_type_symbol
_atom_site_label
_atom_site_fract_x
_atom_site_fract_y
_atom_site_fract_z
Si Si1 0.738416 0.588064 0.343487
Si Si2 0.084970 0.000000 0.250000
Si Si3 0.731633 0.923016 0.912148
Si Si4 0.926792 0.989656 0.993244
Si Si5 0.000000 0.750000 0.713408
O O1 0.827857 0.497703 0.299074
O O2 0.732291 0.350929 0.385401
O O3 0.611825 0.660376 0.320155
O O4 0.788948 0.854224 0.369118
O O5 0.000000 0.750000 0.250692
O O6 0.829785 0.042136 0.950135
O O7 0.626770 0.888059 0.952355
O O8 0.000000 0.750000 0.970787
O O9 0.000000 0.250000 0.002624
O O10 0.032534 0.500000 0.750000
#
# Coordination Sequence:
#
# PCOD9336686 Si02
#       5
#     8   4   8   8   4
#     4  12  26  46  71 104 136 183 237 285 362 410
#     4  12  28  48  70 100 142 184 236 288 342 428
#     4  11  26  43  68 104 135 177 236 284 339 425
#     4  11  24  44  68  98 140 182 226 284 346 408
#     4  12  26  46  74 102 148 178 232 304 356 424
#
# _framework density 21.399059999999999
#
# number of rings (size 3 to 8) (size 9 to 14) (size 15 to 20)
#    0.000    0.500    1.250    6.000    7.000   10.000 
#    0.000    0.000    0.000    0.000    0.000    0.000 
#    0.000    0.000    0.000    0.000    0.000    0.000 
#
# Total GULP energy -89528.422869 kJ/mol
# GULP energy per Si atom -5595.526429 kJ/mol
# Density = 2.135035 g / cm^3
# Si number density = 21.399060 Si / 1000 Ang^3
#
#
#
# Elastic Constant Matrix: (Units=GPa)
#
#
# Indices 1 2 3 4 5 6 
#
# 1 107.5648 21.2755 39.6748 0.0000 0.0000 0.0000
# 2 21.2755 126.3847 26.5885 0.0000 0.0000 0.0000
# 3 39.6748 26.5885 63.1321 0.0000 0.0000 0.0000
# 4 0.0000 0.0000 0.0000 55.0174 0.0000 0.0000
# 5 0.0000 0.0000 0.0000 0.0000 11.9718 0.0000
# 6 0.0000 0.0000 0.0000 0.0000 0.0000 36.7463
#
#
#
# Elastic Compliance Matrix: (Units=1/GPa)
#
#
# Indices 1 2 3 4 5 6 
#
# 1 0.012128 -0.000481 -0.007420 0.000000 0.000000 0.000000
# 2 -0.000481 0.008701 -0.003362 0.000000 0.000000 0.000000
# 3 -0.007420 -0.003362 0.021919 0.000000 0.000000 0.000000
# 4 0.000000 0.000000 0.000000 0.018176 0.000000 0.000000
# 5 0.000000 0.000000 0.000000 0.000000 0.083529 0.000000
# 6 0.000000 0.000000 0.000000 0.000000 0.000000 0.027214
#
#
# Mechanical properties :
#
#
# Convention : Reuss Voigt Hill
#
# Bulk Modulus (GPa) = 49.44955 52.46212 50.95584
# Shear Modulus (GPa) = 24.88398 34.71662 29.80030
#
# Velocity S-wave (km/s) = 3.41376 4.03220 3.73580
# Velocity P-wave (km/s) = 6.22068 6.80055 6.51707
#
# Compressibility (1/GPa) = 0.02022263
#
# Stress axis : x y z
#
# Youngs Moduli (GPa) = 82.45051 114.93446 45.62349
#
# Poissons Ratio (x) = 0.05526 0.33851
# Poissons Ratio (y) = 0.03964 0.15339
# Poissons Ratio (z) = 0.61174 0.38643
#
# Static dielectric constant tensor:
#      x y z
#    x 1.776080 0.000000 0.000000 
#    y 0.000000 1.730320 0.000000 
#    z 0.000000 0.000000 1.753690 
# 
# From -- ./inp_files/1993.got.cif
#   From: 2010.05.17/outbox.cif.g08.bks.cpg/sg24_1_cif.got.tgz:1993.got - 2010.06.04 00:33:39.
