data_PCOD9336823
_publ_section_title
;
Structure prediction by ZEFSAII (Michael W. Deem and Ramdas Pophale) SiO2 
 PCOD9336823
Probable space group: I 21 21 21
;
_chemical_formula_sum "Si O2"
_cell_formula_units_Z 44
_cell_length_a 9.912687
_cell_length_b 17.329047
_cell_length_c 12.436041
_cell_angle_alpha 90.000000
_cell_angle_beta 90.000000
_cell_angle_gamma 90.000000
_cell_volume 2136.231025
_symmetry_space_group_name_H-M "I 21 21 21"
_symmetry_group_IT_number 24
_symmetry_cell_setting 'orthorhombic'
loop_
_space_group_symop_operation_xyz
x,y,z
-x,1/2-y,z
x,-y,1/2-z
1/2-x,y,-z
1/2+x,1/2+y,1/2+z
1/2-x,-y,1/2+z
1/2+x,1/2-y,-z
-x,1/2+y,1/2-z
loop_
_atom_site_type_symbol
_atom_site_label
_atom_site_fract_x
_atom_site_fract_y
_atom_site_fract_z
Si Si1 0.199898 0.000000 0.750000
Si Si2 0.595173 0.610455 0.644534
Si Si3 0.581547 0.820703 0.323779
Si Si4 0.668583 0.091889 0.721767
Si Si5 0.985963 0.468797 0.930483
Si Si6 0.750000 0.051660 0.500000
Si Si7 0.750000 0.733106 0.500000
O O1 0.296492 0.070991 0.778474
O O2 0.107604 0.980745 0.853540
O O3 0.458715 0.624774 0.711652
O O4 0.564791 0.548052 0.550120
O O5 0.661545 0.681608 0.581730
O O6 0.500000 0.750000 0.271355
O O7 0.697160 0.863104 0.256888
O O8 0.485087 0.887356 0.368005
O O9 0.652756 0.785250 0.428773
O O10 0.668897 0.096704 0.592375
O O11 0.671231 0.000000 0.750000
O O12 0.137497 0.499951 0.940475
#
# Coordination Sequence:
#
# PCOD9336823 Si02
#       7
#     4   8   8   8   8   4   4
#     4  12  22  36  62  98 148 176 232 304 364 428
#     4  12  22  42  63 105 142 189 236 295 373 430
#     4  12  24  41  66 103 140 184 230 296 364 425
#     4  12  24  41  71 102 142 185 238 299 364 433
#     4  12  21  38  64  98 145 181 229 295 365 430
#     4  12  23  42  68 102 133 188 238 296 357 436
#     4  12  25  40  68 102 145 184 234 306 353 432
#
# _framework density 20.597023
#
# number of rings (size 3 to 8) (size 9 to 14) (size 15 to 20)
#    0.000    0.000    8.182    2.727    0.000    0.000 
#    0.000    0.000    4.000    0.000    4.727    0.000 
#    0.000    0.000    0.000    0.000    0.000    0.000 
#
# Total GULP energy -123008.428673 kJ/mol
# GULP energy per Si atom -5591.292212 kJ/mol
# Density = 2.055014 g / cm^3
# Si number density = 20.597023 Si / 1000 Ang^3
#
#
#
# Elastic Constant Matrix: (Units=GPa)
#
#
# Indices 1 2 3 4 5 6 
#
# 1 101.8169 25.6361 32.2430 0.0000 0.0000 0.0000
# 2 25.6361 61.3984 17.7655 0.0001 0.0000 0.0000
# 3 32.2430 17.7655 106.7453 0.0000 0.0000 0.0000
# 4 0.0000 0.0001 0.0000 26.3964 0.0000 0.0000
# 5 0.0000 0.0000 0.0000 0.0000 51.9977 0.0000
# 6 0.0000 0.0000 0.0000 0.0000 0.0000 29.1691
#
#
#
# Elastic Compliance Matrix: (Units=1/GPa)
#
#
# Indices 1 2 3 4 5 6 
#
# 1 0.011758 -0.004078 -0.002873 0.000000 0.000000 0.000000
# 2 -0.004078 0.018526 -0.001851 0.000000 0.000000 0.000000
# 3 -0.002873 -0.001851 0.010544 0.000000 0.000000 0.000000
# 4 0.000000 0.000000 0.000000 0.037884 0.000000 0.000000
# 5 0.000000 0.000000 0.000000 0.000000 0.019232 0.000000
# 6 0.000000 0.000000 0.000000 0.000000 0.000000 0.034283
#
#
# Mechanical properties :
#
#
# Convention : Reuss Voigt Hill
#
# Bulk Modulus (GPa) = 43.06109 46.80553 44.93331
# Shear Modulus (GPa) = 31.73154 34.46704 33.09929
#
# Velocity S-wave (km/s) = 3.92929 4.09516 4.01308
# Velocity P-wave (km/s) = 6.44497 6.71820 6.58300
#
# Compressibility (1/GPa) = 0.02322282
#
# Stress axis : x y z
#
# Youngs Moduli (GPa) = 85.04730 53.97953 94.84087
#
# Poissons Ratio (x) = 0.22014 0.27247
# Poissons Ratio (y) = 0.34684 0.17558
# Poissons Ratio (z) = 0.24433 0.09993
#
# Static dielectric constant tensor:
#      x y z
#    x 1.794060 0.000000 0.000000 
#    y 0.000000 1.743600 0.000000 
#    z 0.000000 0.000000 1.753650 
# 
# From -- ./inp_files/24761.got.cif
#   From: 2010.05.17/outbox.cif.g08.bks.cpg/sg24_13_cif.got.tgz:24761.got - 2010.06.04 00:33:39.
