data_PCOD9336285
_publ_section_title
;
Structure prediction by ZEFSAII (Michael W. Deem and Ramdas Pophale) SiO2 
 PCOD9336285
Probable space group: I 21 21 21
;
_chemical_formula_sum "Si O2"
_cell_formula_units_Z 48
_cell_length_a 18.268787
_cell_length_b 12.037614
_cell_length_c 8.704538
_cell_angle_alpha 90.000000
_cell_angle_beta 90.000000
_cell_angle_gamma 90.000000
_cell_volume 1914.237637
_symmetry_space_group_name_H-M "I 21 21 21"
_symmetry_group_IT_number 24
_symmetry_cell_setting 'orthorhombic'
loop_
_space_group_symop_operation_xyz
x,y,z
-x,1/2-y,z
x,-y,1/2-z
1/2-x,y,-z
1/2+x,1/2+y,1/2+z
1/2-x,-y,1/2+z
1/2+x,1/2-y,-z
-x,1/2+y,1/2-z
loop_
_atom_site_type_symbol
_atom_site_label
_atom_site_fract_x
_atom_site_fract_y
_atom_site_fract_z
Si Si1 0.137619 0.869040 0.216754
Si Si2 0.932927 0.332342 0.987588
Si Si3 0.848702 0.794116 0.733099
Si Si4 0.250000 0.387293 0.000000
Si Si5 0.004408 0.572229 0.053078
Si Si6 0.860745 0.000000 0.250000
Si Si7 0.250000 0.246745 0.500000
Si Si8 0.561711 0.000000 0.250000
O O1 0.124118 0.807883 0.377430
O O2 0.205303 0.826289 0.120552
O O3 0.148504 0.000000 0.250000
O O4 0.061525 0.855595 0.120390
O O5 0.000000 0.250000 0.991733
O O6 0.967785 0.449049 0.039325
O O7 0.894902 0.313004 0.821692
O O8 0.780554 0.802649 0.624514
O O9 0.814787 0.805547 0.902423
O O10 0.889342 0.905976 0.673644
O O11 0.193707 0.458198 0.112000
O O12 0.077654 0.574751 0.157617
O O13 0.023457 0.580324 0.873821
#
# Coordination Sequence:
#
# PCOD9336285 Si02
#       8
#     8   8   8   4   8   4   4   4
#     4  10  25  48  75 106 140 201 250 314 384 455
#     4  11  21  45  73 105 140 190 253 305 379 442
#     4  12  28  44  68 106 150 199 241 315 382 458
#     4  12  26  41  69 102 146 196 236 306 379 465
#     4  11  24  45  76 107 144 194 252 311 376 457
#     4  12  23  46  72 111 142 196 252 300 381 464
#     4  12  30  47  69 112 158 192 258 324 387 461
#     4  12  25  44  72 109 142 194 248 310 383 468
#
# _framework density 25.075256
#
# number of rings (size 3 to 8) (size 9 to 14) (size 15 to 20)
#    0.000    0.667    5.833    1.500    4.667    4.667 
#    0.000    0.000    0.000    0.000    0.000    0.000 
#    0.000    0.000    0.000    0.000    0.000    0.000 
#
# Total GULP energy -133760.555148 kJ/mol
# GULP energy per Si atom -5573.356465 kJ/mol
# Density = 2.501818 g / cm^3
# Si number density = 25.075256 Si / 1000 Ang^3
#
#
#
# Elastic Constant Matrix: (Units=GPa)
#
#
# Indices 1 2 3 4 5 6 
#
# 1 125.4408 34.5304 49.0943 0.0000 0.0000 0.0000
# 2 34.5304 40.7442 21.3960 0.0000 0.0000 0.0000
# 3 49.0943 21.3960 133.8235 0.0000 0.0000 0.0000
# 4 0.0000 0.0000 0.0000 28.4546 0.0000 0.0000
# 5 0.0000 0.0000 0.0000 0.0000 61.5612 0.0000
# 6 0.0000 0.0000 0.0000 0.0000 0.0000 26.4591
#
#
#
# Elastic Compliance Matrix: (Units=1/GPa)
#
#
# Indices 1 2 3 4 5 6 
#
# 1 0.011318 -0.008091 -0.002858 0.000000 0.000000 0.000000
# 2 -0.008091 0.032577 -0.002240 0.000000 0.000000 0.000000
# 3 -0.002858 -0.002240 0.008879 0.000000 0.000000 0.000000
# 4 0.000000 0.000000 0.000000 0.035144 0.000000 0.000000
# 5 0.000000 0.000000 0.000000 0.000000 0.016244 0.000000
# 6 0.000000 0.000000 0.000000 0.000000 0.000000 0.037794
#
#
# Mechanical properties :
#
#
# Convention : Reuss Voigt Hill
#
# Bulk Modulus (GPa) = 37.88611 56.67222 47.27916
# Shear Modulus (GPa) = 28.22741 36.29415 32.26078
#
# Velocity S-wave (km/s) = 3.35880 3.80861 3.59075
# Velocity P-wave (km/s) = 5.49398 6.48002 6.00726
#
# Compressibility (1/GPa) = 0.02639490
#
# Stress axis : x y z
#
# Youngs Moduli (GPa) = 88.35686 30.69689 112.62064
#
# Poissons Ratio (x) = 0.24836 0.32192
# Poissons Ratio (y) = 0.71486 0.25230
# Poissons Ratio (z) = 0.25256 0.06877
#
# Static dielectric constant tensor:
#      x y z
#    x 2.348890 0.000000 0.000000 
#    y 0.000000 2.001500 0.000000 
#    z 0.000000 0.000000 2.173540 
# 
# From -- ./inp_files/14258.got.cif
#   From: 2010.05.17/outbox.cif.g08.bks.cpg/sg24_8_cif.got.tgz:14258.got - 2010.06.04 00:33:39.
