data_PCOD9336191
_publ_section_title
;
Structure prediction by ZEFSAII (Michael W. Deem and Ramdas Pophale) SiO2 
 PCOD9336191
Probable space group: I 21 21 21
;
_chemical_formula_sum "Si O2"
_cell_formula_units_Z 28
_cell_length_a 16.636817
_cell_length_b 9.808607
_cell_length_c 7.569595
_cell_angle_alpha 90.000000
_cell_angle_beta 90.000000
_cell_angle_gamma 90.000000
_cell_volume 1235.236788
_symmetry_space_group_name_H-M "I 21 21 21"
_symmetry_group_IT_number 24
_symmetry_cell_setting 'orthorhombic'
loop_
_space_group_symop_operation_xyz
x,y,z
-x,1/2-y,z
x,-y,1/2-z
1/2-x,y,-z
1/2+x,1/2+y,1/2+z
1/2-x,-y,1/2+z
1/2+x,1/2-y,-z
-x,1/2+y,1/2-z
loop_
_atom_site_type_symbol
_atom_site_label
_atom_site_fract_x
_atom_site_fract_y
_atom_site_fract_z
Si Si1 0.074364 0.849382 0.452865
Si Si2 0.076711 0.837179 0.024719
Si Si3 0.195213 0.372482 0.657757
Si Si4 0.750000 0.754360 0.500000
O O1 0.082445 0.837070 0.239095
O O2 0.163421 0.816056 0.521703
O O3 0.000000 0.750000 0.504063
O O4 0.061471 0.004361 0.514143
O O5 0.000000 0.750000 0.974292
O O6 0.147878 0.755996 0.925591
O O7 0.148103 0.500000 0.750000
O O8 0.250000 0.426692 0.500000
O O9 0.255175 0.326842 0.811716
#
# Coordination Sequence:
#
# PCOD9336191 Si02
#       4
#     8   8   8   4
#     4  10  24  45  77 113 151 201 255 315 380 452
#     4  10  24  46  74 106 157 198 252 314 382 452
#     4  12  26  46  73 110 149 198 257 313 382 452
#     4  12  26  44  78 108 150 200 248 318 376 452
#
# _framework density 22.667719000000002
#
# number of rings (size 3 to 8) (size 9 to 14) (size 15 to 20)
#    0.000    1.143    4.286    0.000    6.000    2.286 
#    0.000    0.000    0.000    0.000    0.000    0.000 
#    0.000    0.000    0.000    0.000    0.000    0.000 
#
# Total GULP energy -78013.564871 kJ/mol
# GULP energy per Si atom -5572.397491 kJ/mol
# Density = 2.261613 g / cm^3
# Si number density = 22.667719 Si / 1000 Ang^3
#
#
#
# Elastic Constant Matrix: (Units=GPa)
#
#
# Indices 1 2 3 4 5 6 
#
# 1 126.3292 89.7647 35.4169 0.0000 0.0000 0.0000
# 2 89.7647 202.1927 62.0691 0.0000 0.0000 0.0000
# 3 35.4169 62.0691 117.6832 0.0000 0.0000 0.0000
# 4 0.0000 0.0000 0.0000 26.3118 0.0000 0.0000
# 5 0.0000 0.0000 0.0000 0.0000 33.1484 0.0000
# 6 0.0000 0.0000 0.0000 0.0000 0.0000 31.6534
#
#
#
# Elastic Compliance Matrix: (Units=1/GPa)
#
#
# Indices 1 2 3 4 5 6 
#
# 1 0.011648 -0.004886 -0.000928 0.000000 0.000000 0.000000
# 2 -0.004886 0.007951 -0.002723 0.000000 0.000000 0.000000
# 3 -0.000928 -0.002723 0.010213 0.000000 0.000000 0.000000
# 4 0.000000 0.000000 0.000000 0.038006 0.000000 0.000000
# 5 0.000000 0.000000 0.000000 0.000000 0.030167 0.000000
# 6 0.000000 0.000000 0.000000 0.000000 0.000000 0.031592
#
#
# Mechanical properties :
#
#
# Convention : Reuss Voigt Hill
#
# Bulk Modulus (GPa) = 78.51298 91.18959 84.85129
# Shear Modulus (GPa) = 33.13493 35.48636 34.31064
#
# Velocity S-wave (km/s) = 3.82745 3.96093 3.89477
# Velocity P-wave (km/s) = 7.36507 7.82527 7.59865
#
# Compressibility (1/GPa) = 0.01273675
#
# Stress axis : x y z
#
# Youngs Moduli (GPa) = 85.85108 125.77087 97.91463
#
# Poissons Ratio (x) = 0.61455 0.09090
# Poissons Ratio (y) = 0.41949 0.26662
# Poissons Ratio (z) = 0.07970 0.34248
#
# Static dielectric constant tensor:
#      x y z
#    x 2.282650 0.000000 0.000000 
#    y 0.000000 2.065150 0.000000 
#    z 0.000000 0.000000 1.873160 
# 
# From -- ./inp_files/8771.got.cif
#   From: 2010.05.17/outbox.cif.g08.bks.cpg/sg24_5_cif.got.tgz:8771.got - 2010.06.04 00:33:39.
