data_PCOD9336148
_publ_section_title
;
Structure prediction by ZEFSAII (Michael W. Deem and Ramdas Pophale) SiO2 
 PCOD9336148
Probable space group: I 21 21 21
;
_chemical_formula_sum "Si O2"
_cell_formula_units_Z 40
_cell_length_a 12.049335
_cell_length_b 24.477747
_cell_length_c 5.095587
_cell_angle_alpha 90.000000
_cell_angle_beta 90.000000
_cell_angle_gamma 90.000000
_cell_volume 1502.895353
_symmetry_space_group_name_H-M "I 21 21 21"
_symmetry_group_IT_number 24
_symmetry_cell_setting 'orthorhombic'
loop_
_space_group_symop_operation_xyz
x,y,z
-x,1/2-y,z
x,-y,1/2-z
1/2-x,y,-z
1/2+x,1/2+y,1/2+z
1/2-x,-y,1/2+z
1/2+x,1/2-y,-z
-x,1/2+y,1/2-z
loop_
_atom_site_type_symbol
_atom_site_label
_atom_site_fract_x
_atom_site_fract_y
_atom_site_fract_z
Si Si1 0.423989 0.206495 0.322863
Si Si2 0.607696 0.939595 0.836049
Si Si3 0.250000 0.721910 0.000000
Si Si4 0.750000 0.646270 0.500000
Si Si5 0.149936 0.060460 0.321786
Si Si6 0.123852 0.631800 0.696330
O O1 0.500000 0.250000 0.169720
O O2 0.365035 0.243331 0.551408
O O3 0.312775 0.185494 0.194900
O O4 0.508552 0.155960 0.323471
O O5 0.475660 0.946333 0.903977
O O6 0.616865 0.895121 0.594649
O O7 0.645104 0.000000 0.750000
O O8 0.653098 0.917973 0.112014
O O9 0.290628 0.681156 0.232605
O O10 0.654402 0.605132 0.595104
O O11 0.250000 0.082559 0.500000
O O12 0.188752 0.000000 0.250000
#
# Coordination Sequence:
#
# PCOD9336148 Si02
#       6
#     8   8   4   4   8   8
#     4  10  24  44  67 105 142 193 257 315 377 453
#     4  11  25  44  73 107 150 193 245 312 388 470
#     4  10  26  46  75 102 139 198 262 324 378 462
#     4  12  22  40  69  98 143 194 238 312 382 458
#     4  11  23  37  63 101 147 196 246 300 382 477
#     4  11  24  49  73 107 147 195 249 321 391 453
#
# _framework density 26.615293000000001
#
# number of rings (size 3 to 8) (size 9 to 14) (size 15 to 20)
#    0.000    1.200    3.000    1.800    4.200    4.000 
#    0.000    7.000    0.000    0.000    0.000    0.000 
#    0.000    0.000    0.000    0.000    0.000    0.000 
#
# Total GULP energy -111470.925673 kJ/mol
# GULP energy per Si atom -5573.546284 kJ/mol
# Density = 2.655472 g / cm^3
# Si number density = 26.615293 Si / 1000 Ang^3
#
#
#
# Elastic Constant Matrix: (Units=GPa)
#
#
# Indices 1 2 3 4 5 6 
#
# 1 100.3535 26.9027 21.8769 -0.0076 -0.0003 0.0082
# 2 26.9027 141.9652 27.5670 0.0206 -0.0055 -0.0085
# 3 21.8769 27.5670 88.2212 0.0781 -0.0236 -0.0112
# 4 -0.0076 0.0206 0.0781 13.6717 -0.0101 0.0011
# 5 -0.0003 -0.0055 -0.0236 -0.0101 25.4142 0.0048
# 6 0.0082 -0.0085 -0.0112 0.0011 0.0048 102.8829
#
#
#
# Elastic Compliance Matrix: (Units=1/GPa)
#
#
# Indices 1 2 3 4 5 6 
#
# 1 0.010880 -0.001637 -0.002186 0.000021 -0.000002 -0.000001
# 2 -0.001637 0.007745 -0.002014 -0.000001 0.000000 0.000001
# 3 -0.002186 -0.002014 0.012507 -0.000070 0.000011 0.000001
# 4 0.000021 -0.000001 -0.000070 0.073144 0.000029 -0.000001
# 5 -0.000002 0.000000 0.000011 0.000029 0.039348 -0.000002
# 6 -0.000001 0.000001 0.000001 -0.000001 -0.000002 0.009720
#
#
# Mechanical properties :
#
#
# Convention : Reuss Voigt Hill
#
# Bulk Modulus (GPa) = 51.39665 53.69258 52.54461
# Shear Modulus (GPa) = 29.15350 45.33999 37.24674
#
# Velocity S-wave (km/s) = 3.31322 4.13186 3.74498
# Velocity P-wave (km/s) = 5.83005 6.55595 6.20362
#
# Compressibility (1/GPa) = 0.01945652
#
# Stress axis : x y z
#
# Youngs Moduli (GPa) = 91.90888 129.10932 79.95648
#
# Poissons Ratio (x) = 0.21139 0.17482
# Poissons Ratio (y) = 0.15048 0.16105
# Poissons Ratio (z) = 0.20096 0.26006
#
# Static dielectric constant tensor:
#      x y z
#    x 2.204370 0.000010 0.000020 
#    y 0.000010 2.107060 -0.000040 
#    z 0.000020 -0.000040 2.272430 
# 
# From -- ./inp_files/2484.got.cif
#   From: 2010.05.17/outbox.cif.g08.bks.cpg/sg24_2_cif.got.tgz:2484.got - 2010.06.04 00:33:39.
