data_PCOD9336905
_publ_section_title
;
Structure prediction by ZEFSAII (Michael W. Deem and Ramdas Pophale) SiO2 
 PCOD9336905
Probable space group: I 21 21 21
;
_chemical_formula_sum "Si O2"
_cell_formula_units_Z 36
_cell_length_a 11.245979
_cell_length_b 5.052723
_cell_length_c 24.247491
_cell_angle_alpha 90.000000
_cell_angle_beta 90.000000
_cell_angle_gamma 90.000000
_cell_volume 1377.810738
_symmetry_space_group_name_H-M "I 21 21 21"
_symmetry_group_IT_number 24
_symmetry_cell_setting 'orthorhombic'
loop_
_space_group_symop_operation_xyz
x,y,z
-x,1/2-y,z
x,-y,1/2-z
1/2-x,y,-z
1/2+x,1/2+y,1/2+z
1/2-x,-y,1/2+z
1/2+x,1/2-y,-z
-x,1/2+y,1/2-z
loop_
_atom_site_type_symbol
_atom_site_label
_atom_site_fract_x
_atom_site_fract_y
_atom_site_fract_z
Si Si1 0.078135 0.000000 0.750000
Si Si2 0.119453 0.417373 0.016878
Si Si3 0.419309 0.500000 0.750000
Si Si4 0.669265 0.622151 0.366524
Si Si5 0.500000 0.750000 0.067297
Si Si6 0.809252 0.123488 0.369566
O O1 0.152940 0.908807 0.698530
O O2 0.000000 0.250000 0.732479
O O3 0.113522 0.516080 0.079875
O O4 0.000000 0.250000 0.007114
O O5 0.250000 0.298844 0.000000
O O6 0.103337 0.658632 0.974593
O O7 0.500000 0.750000 0.734818
O O8 0.352060 0.580122 0.806694
O O9 0.558696 0.482547 0.396260
O O10 0.695089 0.929000 0.375316
O O11 0.779765 0.429729 0.379967
#
# Coordination Sequence:
#
# PCOD9336905 Si02
#       6
#     4   8   4   8   4   8
#     4  12  24  42  76 110 156 208 264 330 416 484
#     4  12  28  50  81 117 161 219 273 337 405 487
#     4  12  26  48  78 114 154 206 266 336 398 484
#     4  12  26  48  75 116 157 208 264 336 405 485
#     4  12  28  46  80 112 164 204 280 330 406 480
#     4  12  27  49  78 113 160 209 266 332 408 482
#
# _framework density 26.128406999999999
#
# number of rings (size 3 to 8) (size 9 to 14) (size 15 to 20)
#    0.000    0.000    3.333    6.000    4.667    0.889 
#    0.000    0.000    0.000    0.000    0.000    0.000 
#    0.000    0.000    0.000    0.000    0.000    0.000 
#
# Total GULP energy -100856.511464 kJ/mol
# GULP energy per Si atom -5603.139526 kJ/mol
# Density = 2.606894 g / cm^3
# Si number density = 26.128407 Si / 1000 Ang^3
#
#
#
# Elastic Constant Matrix: (Units=GPa)
#
#
# Indices 1 2 3 4 5 6 
#
# 1 103.1422 16.1842 19.3420 0.0000 0.0000 0.0000
# 2 16.1842 77.2806 -9.0648 0.0000 0.0000 0.0000
# 3 19.3420 -9.0648 179.2313 0.0000 0.0000 0.0000
# 4 0.0000 0.0000 0.0000 30.7872 0.0000 0.0000
# 5 0.0000 0.0000 0.0000 0.0000 57.7155 0.0000
# 6 0.0000 0.0000 0.0000 0.0000 0.0000 38.3444
#
#
#
# Elastic Compliance Matrix: (Units=1/GPa)
#
#
# Indices 1 2 3 4 5 6 
#
# 1 0.010286 -0.002298 -0.001226 0.000000 0.000000 0.000000
# 2 -0.002298 0.013530 0.000932 0.000000 0.000000 0.000000
# 3 -0.001226 0.000932 0.005759 0.000000 0.000000 0.000000
# 4 0.000000 0.000000 0.000000 0.032481 0.000000 0.000000
# 5 0.000000 0.000000 0.000000 0.000000 0.017326 0.000000
# 6 0.000000 0.000000 0.000000 0.000000 0.000000 0.026079
#
#
# Mechanical properties :
#
#
# Convention : Reuss Voigt Hill
#
# Bulk Modulus (GPa) = 40.99790 45.84188 43.41989
# Shear Modulus (GPa) = 42.09596 47.58225 44.83910
#
# Velocity S-wave (km/s) = 4.01823 4.27206 4.14708
# Velocity P-wave (km/s) = 6.10354 6.47432 6.29166
#
# Compressibility (1/GPa) = 0.02439149
#
# Stress axis : x y z
#
# Youngs Moduli (GPa) = 97.22069 73.90736 173.64537
#
# Poissons Ratio (x) = 0.16983 0.21293
# Poissons Ratio (y) = 0.22340 -0.16189
# Poissons Ratio (z) = 0.11922 -0.06890
#
# Static dielectric constant tensor:
#      x y z
#    x 2.134330 0.000000 0.000000 
#    y 0.000000 1.963210 0.000000 
#    z 0.000000 0.000000 2.025720 
# 
# From -- ./inp_files/35417.got.cif
#   From: 2010.05.17/outbox.cif.g08.bks.cpg/sg24_18_cif.got.tgz:35417.got - 2010.06.04 00:33:39.
