data_PCOD9336449
_publ_section_title
;
Structure prediction by ZEFSAII (Michael W. Deem and Ramdas Pophale) SiO2 
 PCOD9336449
Probable space group: I 21 21 21
;
_chemical_formula_sum "Si O2"
_cell_formula_units_Z 52
_cell_length_a 12.023041
_cell_length_b 9.470834
_cell_length_c 23.373068
_cell_angle_alpha 90.000000
_cell_angle_beta 90.000000
_cell_angle_gamma 90.000000
_cell_volume 2661.449777
_symmetry_space_group_name_H-M "I 21 21 21"
_symmetry_group_IT_number 24
_symmetry_cell_setting 'orthorhombic'
loop_
_space_group_symop_operation_xyz
x,y,z
-x,1/2-y,z
x,-y,1/2-z
1/2-x,y,-z
1/2+x,1/2+y,1/2+z
1/2-x,-y,1/2+z
1/2+x,1/2-y,-z
-x,1/2+y,1/2-z
loop_
_atom_site_type_symbol
_atom_site_label
_atom_site_fract_x
_atom_site_fract_y
_atom_site_fract_z
Si Si1 0.136016 0.223104 0.315822
Si Si2 0.027867 0.416968 0.470001
Si Si3 0.416131 0.637225 0.440402
Si Si4 0.335529 0.963297 0.609322
Si Si5 0.782520 0.968937 0.114517
Si Si6 0.871389 0.210669 0.186565
Si Si7 0.250000 0.155508 0.000000
O O1 0.213953 0.315454 0.357395
O O2 0.166935 0.258760 0.250734
O O3 0.000000 0.250000 0.323385
O O4 0.165216 0.066407 0.336394
O O5 0.021211 0.510162 0.526916
O O6 0.149951 0.443839 0.444000
O O7 0.000000 0.250000 0.475601
O O8 0.947474 0.488319 0.423151
O O9 0.500000 0.750000 0.411942
O O10 0.327529 0.557224 0.400102
O O11 0.351777 0.736021 0.487491
O O12 0.325388 0.810434 0.637149
O O13 0.255354 0.946876 0.554895
O O14 0.849921 0.055665 0.163078
O O15 0.000000 0.250000 0.187929
#
# Coordination Sequence:
#
# PCOD9336449 Si02
#       7
#     8   8   8   8   8   8   4
#     4  11  22  38  58  96 134 167 206 258 337 393
#     4  12  22  37  58  91 134 169 210 260 320 382
#     4  12  25  41  61  91 124 174 228 260 316 391
#     4  12  21  37  58  92 131 160 210 262 317 393
#     4  12  21  39  59  89 127 172 212 261 319 387
#     4  11  21  34  63  95 128 168 208 262 321 401
#     4  12  24  36  66  88 118 174 212 262 324 372
#
# _framework density 19.538224
#
# number of rings (size 3 to 8) (size 9 to 14) (size 15 to 20)
#    0.000    0.308    9.231    0.923    0.000    3.692 
#    0.000    0.000    0.000    0.000    8.000    0.000 
#    0.000    0.000    0.000    0.000    0.000    0.000 
#
# Total GULP energy -144818.934806 kJ/mol
# GULP energy per Si atom -5569.959031 kJ/mol
# Density = 1.949375 g / cm^3
# Si number density = 19.538224 Si / 1000 Ang^3
#
#
#
# Elastic Constant Matrix: (Units=GPa)
#
#
# Indices 1 2 3 4 5 6 
#
# 1 53.6951 17.3955 11.3170 0.0000 0.0000 0.0000
# 2 17.3955 35.2178 -0.3750 0.0000 0.0000 0.0000
# 3 11.3170 -0.3750 68.5978 0.0000 0.0000 0.0000
# 4 0.0000 0.0000 0.0000 40.5741 0.0000 0.0000
# 5 0.0000 0.0000 0.0000 0.0000 19.5207 0.0000
# 6 0.0000 0.0000 0.0000 0.0000 0.0000 30.2988
#
#
#
# Elastic Compliance Matrix: (Units=1/GPa)
#
#
# Indices 1 2 3 4 5 6 
#
# 1 0.023162 -0.011482 -0.003884 0.000000 0.000000 0.000000
# 2 -0.011482 0.034088 0.002081 0.000000 0.000000 0.000000
# 3 -0.003884 0.002081 0.015230 0.000000 0.000000 0.000000
# 4 0.000000 0.000000 0.000000 0.024646 0.000000 0.000000
# 5 0.000000 0.000000 0.000000 0.000000 0.051228 0.000000
# 6 0.000000 0.000000 0.000000 0.000000 0.000000 0.033005
#
#
# Mechanical properties :
#
#
# Convention : Reuss Voigt Hill
#
# Bulk Modulus (GPa) = 21.78200 23.79842 22.79021
# Shear Modulus (GPa) = 22.39813 26.69026 24.54419
#
# Velocity S-wave (km/s) = 3.38949 3.70003 3.54816
# Velocity P-wave (km/s) = 5.14692 5.51910 5.33626
#
# Compressibility (1/GPa) = 0.04590947
#
# Stress axis : x y z
#
# Youngs Moduli (GPa) = 43.17399 29.33551 65.66055
#
# Poissons Ratio (x) = 0.33683 0.25502
# Poissons Ratio (y) = 0.49573 -0.13661
# Poissons Ratio (z) = 0.16769 -0.06104
#
# Static dielectric constant tensor:
#      x y z
#    x 1.749650 0.000000 0.000000 
#    y 0.000000 1.667430 0.000000 
#    z 0.000000 0.000000 1.736300 
# 
# From -- ./inp_files/18753.got.cif
#   From: 2010.05.17/outbox.cif.g08.bks.cpg/sg24_10_cif.got.tgz:18753.got - 2010.06.04 00:33:39.
