data_PCOD9336883
_publ_section_title
;
Structure prediction by ZEFSAII (Michael W. Deem and Ramdas Pophale) SiO2 
 PCOD9336883
Probable space group: I 21 21 21
;
_chemical_formula_sum "Si O2"
_cell_formula_units_Z 36
_cell_length_a 19.097280
_cell_length_b 16.509952
_cell_length_c 4.876868
_cell_angle_alpha 90.000000
_cell_angle_beta 90.000000
_cell_angle_gamma 90.000000
_cell_volume 1537.652955
_symmetry_space_group_name_H-M "I 21 21 21"
_symmetry_group_IT_number 24
_symmetry_cell_setting 'orthorhombic'
loop_
_space_group_symop_operation_xyz
x,y,z
-x,1/2-y,z
x,-y,1/2-z
1/2-x,y,-z
1/2+x,1/2+y,1/2+z
1/2-x,-y,1/2+z
1/2+x,1/2-y,-z
-x,1/2+y,1/2-z
loop_
_atom_site_type_symbol
_atom_site_label
_atom_site_fract_x
_atom_site_fract_y
_atom_site_fract_z
Si Si1 0.406349 0.913588 0.389774
Si Si2 0.250000 0.445539 0.000000
Si Si3 0.675413 0.646430 0.911621
Si Si4 0.544218 0.826329 0.268750
Si Si5 0.857924 0.178528 0.266231
O O1 0.369744 0.901431 0.683601
O O2 0.488561 0.894122 0.365465
O O3 0.392460 0.000000 0.250000
O O4 0.368939 0.850592 0.187832
O O5 0.278393 0.500000 0.250000
O O6 0.191289 0.389732 0.139543
O O7 0.684584 0.738695 0.814401
O O8 0.750000 0.609865 0.000000
O O9 0.500000 0.750000 0.157923
O O10 0.583619 0.800124 0.542756
O O11 0.601100 0.849196 0.039444
#
# Coordination Sequence:
#
# PCOD9336883 Si02
#       5
#     8   4   8   8   8
#     4  12  27  46  71 108 152 190 244 317 373 428
#     4  12  30  50  72 112 156 192 244 314 378 440
#     4  12  26  45  76 106 140 198 253 296 367 446
#     4  12  23  45  76 111 142 194 255 305 364 443
#     4  12  26  45  80 106 146 197 253 298 367 452
#
# _framework density 23.412305
#
# number of rings (size 3 to 8) (size 9 to 14) (size 15 to 20)
#    0.000    0.000    4.444    4.667    7.778    4.444 
#    0.000    0.000    0.000    0.000    0.000    0.000 
#    0.000    0.000    0.000    0.000    0.000    0.000 
#
# Total GULP energy -100775.570545 kJ/mol
# GULP energy per Si atom -5598.642808 kJ/mol
# Density = 2.335902 g / cm^3
# Si number density = 23.412305 Si / 1000 Ang^3
#
#
#
# Elastic Constant Matrix: (Units=GPa)
#
#
# Indices 1 2 3 4 5 6 
#
# 1 98.1839 24.0514 39.1308 0.0000 0.0000 0.0000
# 2 24.0514 83.7148 15.8654 0.0000 0.0000 0.0000
# 3 39.1308 15.8654 145.0986 0.0000 0.0000 0.0000
# 4 0.0000 0.0000 0.0000 31.0219 0.0000 0.0000
# 5 0.0000 0.0000 0.0000 0.0000 63.8139 0.0000
# 6 0.0000 0.0000 0.0000 0.0000 0.0000 18.8438
#
#
#
# Elastic Compliance Matrix: (Units=1/GPa)
#
#
# Indices 1 2 3 4 5 6 
#
# 1 0.012068 -0.002911 -0.002936 0.000000 0.000000 0.000000
# 2 -0.002911 0.012900 -0.000626 0.000000 0.000000 0.000000
# 3 -0.002936 -0.000626 0.007752 0.000000 0.000000 0.000000
# 4 0.000000 0.000000 0.000000 0.032235 0.000000 0.000000
# 5 0.000000 0.000000 0.000000 0.000000 0.015671 0.000000
# 6 0.000000 0.000000 0.000000 0.000000 0.000000 0.053068
#
#
# Mechanical properties :
#
#
# Convention : Reuss Voigt Hill
#
# Bulk Modulus (GPa) = 50.56823 53.89917 52.23370
# Shear Modulus (GPa) = 32.63044 39.26593 35.94818
#
# Velocity S-wave (km/s) = 3.73732 4.09974 3.92272
# Velocity P-wave (km/s) = 6.34581 6.74405 6.54796
#
# Compressibility (1/GPa) = 0.01977526
#
# Stress axis : x y z
#
# Youngs Moduli (GPa) = 82.86202 77.51859 128.99651
#
# Poissons Ratio (x) = 0.22564 0.37878
# Poissons Ratio (y) = 0.24119 0.08069
# Poissons Ratio (z) = 0.24331 0.04849
#
# Static dielectric constant tensor:
#      x y z
#    x 1.926470 0.000000 0.000000 
#    y 0.000000 1.908340 0.000000 
#    z 0.000000 0.000000 1.858700 
# 
# From -- ./inp_files/3360.got.cif
#   From: 2010.05.17/outbox.cif.g08.bks.cpg/sg24_2_cif.got.tgz:3360.got - 2010.06.04 00:33:39.
