data_PCOD9336123
_publ_section_title
;
Structure prediction by ZEFSAII (Michael W. Deem and Ramdas Pophale) SiO2 
 PCOD9336123
Probable space group: I 21 21 21
;
_chemical_formula_sum "Si O2"
_cell_formula_units_Z 56
_cell_length_a 18.466148
_cell_length_b 14.005977
_cell_length_c 9.810565
_cell_angle_alpha 90.000000
_cell_angle_beta 90.000000
_cell_angle_gamma 90.000000
_cell_volume 2537.369647
_symmetry_space_group_name_H-M "I 21 21 21"
_symmetry_group_IT_number 24
_symmetry_cell_setting 'orthorhombic'
loop_
_space_group_symop_operation_xyz
x,y,z
-x,1/2-y,z
x,-y,1/2-z
1/2-x,y,-z
1/2+x,1/2+y,1/2+z
1/2-x,-y,1/2+z
1/2+x,1/2-y,-z
-x,1/2+y,1/2-z
loop_
_atom_site_type_symbol
_atom_site_label
_atom_site_fract_x
_atom_site_fract_y
_atom_site_fract_z
Si Si1 0.214524 0.114522 0.261133
Si Si2 0.905741 0.396159 0.481300
Si Si3 0.407965 0.875136 0.537571
Si Si4 0.830403 0.905746 0.157976
Si Si5 0.522742 0.883777 0.757285
Si Si6 0.626848 0.293338 0.248894
Si Si7 0.664851 0.094060 0.341841
O O1 0.168398 0.130038 0.399977
O O2 0.161097 0.140699 0.136399
O O3 0.289728 0.169487 0.252376
O O4 0.228311 0.000000 0.250000
O O5 0.907271 0.510940 0.491475
O O6 0.971602 0.363850 0.385514
O O7 0.909937 0.350091 0.628104
O O8 0.479876 0.854209 0.623694
O O9 0.402818 0.818450 0.398708
O O10 0.748637 0.869828 0.160567
O O11 0.896349 0.846114 0.221086
O O12 0.825709 0.000000 0.250000
O O13 0.850718 0.926662 0.000791
O O14 0.526876 0.000000 0.750000
O O15 0.620635 0.181901 0.282765
O O16 0.657383 0.000000 0.250000
#
# Coordination Sequence:
#
# PCOD9336123 Si02
#       7
#     8   8   8   8   8   8   8
#     4   9  18  32  52  85 128 172 204 234 292 383
#     4   9  18  31  57  91 130 162 197 237 298 394
#     4   9  18  34  54  95 130 160 200 233 298 395
#     4   9  19  43  71  87 112 159 217 270 329 369
#     4   8  16  36  65  90 119 161 199 243 307 381
#     4  12  21  32  57  90 132 160 198 254 320 349
#     4  10  24  43  62  93 119 154 221 281 323 364
#
# _framework density 22.070098000000002
#
# number of rings (size 3 to 8) (size 9 to 14) (size 15 to 20)
#    0.000    2.571    0.000    3.857    4.000    2.286 
#   10.286    5.000    0.000    1.714    0.000    0.000 
#    0.000    0.000    0.000    0.000    0.000    0.000 
#
# Total GULP energy -156548.259076 kJ/mol
# GULP energy per Si atom -5591.009253 kJ/mol
# Density = 2.201987 g / cm^3
# Si number density = 22.070098 Si / 1000 Ang^3
#
#
#
# Elastic Constant Matrix: (Units=GPa)
#
#
# Indices 1 2 3 4 5 6 
#
# 1 63.1937 15.8611 33.5582 0.0000 0.0000 0.0000
# 2 15.8611 89.9103 58.4023 0.0000 0.0000 0.0000
# 3 33.5582 58.4023 183.9415 0.0000 0.0000 0.0000
# 4 0.0000 0.0000 0.0000 -9.6591 0.0000 0.0000
# 5 0.0000 0.0000 0.0000 0.0000 95.7034 0.0000
# 6 0.0000 0.0000 0.0000 0.0000 0.0000 4.3422
#
#
#
# Elastic Compliance Matrix: (Units=1/GPa)
#
#
# Indices 1 2 3 4 5 6 
#
# 1 0.017639 -0.001287 -0.002810 0.000000 0.000000 0.000000
# 2 -0.001287 0.014106 -0.004244 0.000000 0.000000 0.000000
# 3 -0.002810 -0.004244 0.007297 0.000000 0.000000 0.000000
# 4 0.000000 0.000000 0.000000 -0.103529 0.000000 0.000000
# 5 0.000000 0.000000 0.000000 0.000000 0.010449 0.000000
# 6 0.000000 0.000000 0.000000 0.000000 0.000000 0.230300
#
#
# Mechanical properties :
#
#
# Convention : Reuss Voigt Hill
#
# Bulk Modulus (GPa) = 44.72026 61.40986 53.06506
# Shear Modulus (GPa) = 24.95070 33.35889 29.15479
#
# Velocity S-wave (km/s) = 3.36597 3.89202 3.63851
# Velocity P-wave (km/s) = 5.95089 6.93414 6.46125
#
# Compressibility (1/GPa) = 0.02236123
#
# Stress axis : x y z
#
# Youngs Moduli (GPa) = 56.69156 70.89233 137.05107
#
# Poissons Ratio (x) = 0.09122 0.38505
# Poissons Ratio (y) = 0.07295 0.58163
# Poissons Ratio (z) = 0.15928 0.30086
#
# Static dielectric constant tensor:
#      x y z
#    x 1.873040 0.000000 0.000000 
#    y 0.000000 1.781500 0.000000 
#    z 0.000000 0.000000 1.757980 
# 
# From -- ./inp_files/15264.got.cif
#   From: 2010.05.17/outbox.cif.g08.bks.cpg/sg24_8_cif.got.tgz:15264.got - 2010.06.04 00:33:39.
