data_PCOD9336022
_publ_section_title
;
Structure prediction by ZEFSAII (Michael W. Deem and Ramdas Pophale) SiO2 
 PCOD9336022
Probable space group: I 21 21 21
;
_chemical_formula_sum "Si O2"
_cell_formula_units_Z 48
_cell_length_a 8.726376
_cell_length_b 30.598256
_cell_length_c 8.926793
_cell_angle_alpha 90.000000
_cell_angle_beta 90.000000
_cell_angle_gamma 90.000000
_cell_volume 2383.559842
_symmetry_space_group_name_H-M "I 21 21 21"
_symmetry_group_IT_number 24
_symmetry_cell_setting 'orthorhombic'
loop_
_space_group_symop_operation_xyz
x,y,z
-x,1/2-y,z
x,-y,1/2-z
1/2-x,y,-z
1/2+x,1/2+y,1/2+z
1/2-x,-y,1/2+z
1/2+x,1/2-y,-z
-x,1/2+y,1/2-z
loop_
_atom_site_type_symbol
_atom_site_label
_atom_site_fract_x
_atom_site_fract_y
_atom_site_fract_z
Si Si1 0.005381 0.434569 0.906230
Si Si2 0.793877 0.351668 0.836315
Si Si3 0.479421 0.877550 0.895531
Si Si4 0.290100 0.000000 0.250000
Si Si5 0.164077 0.552311 0.276743
Si Si6 0.250000 0.937455 0.000000
Si Si7 0.419320 0.796416 0.073058
O O1 0.157541 0.438463 0.807075
O O2 0.903069 0.392459 0.875414
O O3 0.897059 0.475002 0.866784
O O4 0.065332 0.437784 0.074802
O O5 0.644864 0.367301 0.738220
O O6 0.886747 0.317706 0.734459
O O7 0.750000 0.333336 0.000000
O O8 0.607057 0.911245 0.840380
O O9 0.390470 0.905014 0.024474
O O10 0.514090 0.831105 0.970896
O O11 0.205944 0.965320 0.145731
O O12 0.147854 0.500000 0.250000
O O13 0.500000 0.750000 0.079849
O O14 0.250000 0.792696 0.000000
#
# Coordination Sequence:
#
# PCOD9336022 Si02
#       7
#     8   8   8   4   8   4   8
#     4  11  23  39  57  87 131 172 219 267 318 368
#     4  11  21  41  68  91 124 166 208 268 320 386
#     4  11  21  41  64  93 127 165 219 268 317 380
#     4  12  24  36  54  90 124 172 220 266 302 368
#     4  11  24  38  57  90 135 182 220 265 316 374
#     4  12  24  36  60  94 124 168 226 262 312 364
#     4  10  23  45  71 101 125 157 207 267 335 400
#
# _framework density 20.137945999999999
#
# number of rings (size 3 to 8) (size 9 to 14) (size 15 to 20)
#    0.000    1.000    6.667    1.000    4.667    1.333 
#    0.000    3.333    3.667    0.000    0.000    0.000 
#    0.000    0.000    0.000    0.000    0.000    0.000 
#
# Total GULP energy -134038.129619 kJ/mol
# GULP energy per Si atom -5584.922067 kJ/mol
# Density = 2.009211 g / cm^3
# Si number density = 20.137946 Si / 1000 Ang^3
#
#
#
# Elastic Constant Matrix: (Units=GPa)
#
#
# Indices 1 2 3 4 5 6 
#
# 1 37.7662 40.0436 26.4491 0.0000 0.0001 0.0001
# 2 40.0436 145.5807 47.2643 0.0001 0.0001 0.0001
# 3 26.4491 47.2643 90.4519 0.0004 0.0010 0.0005
# 4 0.0000 0.0001 0.0004 27.1392 0.0000 -0.0001
# 5 0.0001 0.0001 0.0010 0.0000 26.8649 0.0001
# 6 0.0001 0.0001 0.0005 -0.0001 0.0001 38.8408
#
#
#
# Elastic Compliance Matrix: (Units=1/GPa)
#
#
# Indices 1 2 3 4 5 6 
#
# 1 0.041078 -0.008911 -0.007355 0.000000 0.000000 0.000000
# 2 -0.008911 0.010205 -0.002727 0.000000 0.000000 0.000000
# 3 -0.007355 -0.002727 0.014631 0.000000 -0.000001 0.000000
# 4 0.000000 0.000000 0.000000 0.036847 0.000000 0.000000
# 5 0.000000 0.000000 -0.000001 0.000000 0.037223 0.000000
# 6 0.000000 0.000000 0.000000 0.000000 0.000000 0.025746
#
#
# Mechanical properties :
#
#
# Convention : Reuss Voigt Hill
#
# Bulk Modulus (GPa) = 35.80606 55.70140 45.75373
# Shear Modulus (GPa) = 23.47108 29.23843 26.35476
#
# Velocity S-wave (km/s) = 3.41767 3.81452 3.62154
# Velocity P-wave (km/s) = 5.77866 6.86446 6.34483
#
# Compressibility (1/GPa) = 0.02792823
#
# Stress axis : x y z
#
# Youngs Moduli (GPa) = 24.34373 97.98651 68.34634
#
# Poissons Ratio (x) = 0.87316 0.50271
# Poissons Ratio (y) = 0.21693 0.18638
# Poissons Ratio (z) = 0.17906 0.26721
#
# Static dielectric constant tensor:
#      x y z
#    x 1.724930 0.000000 0.000000 
#    y 0.000000 1.702130 0.000000 
#    z 0.000000 0.000000 1.819200 
# 
# From -- ./inp_files/9781.got.cif
#   From: 2010.05.17/outbox.cif.g08.bks.cpg/sg24_5_cif.got.tgz:9781.got - 2010.06.04 00:33:39.
