data_PCOD9336548
_publ_section_title
;
Structure prediction by ZEFSAII (Michael W. Deem and Ramdas Pophale) SiO2 
 PCOD9336548
Probable space group: I 21 21 21
;
_chemical_formula_sum "Si O2"
_cell_formula_units_Z 40
_cell_length_a 18.504874
_cell_length_b 10.453802
_cell_length_c 10.001282
_cell_angle_alpha 90.000000
_cell_angle_beta 90.000000
_cell_angle_gamma 90.000000
_cell_volume 1934.710886
_symmetry_space_group_name_H-M "I 21 21 21"
_symmetry_group_IT_number 24
_symmetry_cell_setting 'orthorhombic'
loop_
_space_group_symop_operation_xyz
x,y,z
-x,1/2-y,z
x,-y,1/2-z
1/2-x,y,-z
1/2+x,1/2+y,1/2+z
1/2-x,-y,1/2+z
1/2+x,1/2-y,-z
-x,1/2+y,1/2-z
loop_
_atom_site_type_symbol
_atom_site_label
_atom_site_fract_x
_atom_site_fract_y
_atom_site_fract_z
Si Si1 0.694064 0.348637 0.247098
Si Si2 0.581038 0.779272 0.455798
Si Si3 0.137857 0.151085 0.221705
Si Si4 0.104930 0.201338 0.515991
Si Si5 0.026029 0.457583 0.596415
O O1 0.679475 0.500000 0.250000
O O2 0.639527 0.272259 0.150163
O O3 0.776296 0.329107 0.202362
O O4 0.678131 0.311388 0.400172
O O5 0.500000 0.750000 0.406039
O O6 0.596383 0.707074 0.594631
O O7 0.573946 0.932080 0.473288
O O8 0.114714 0.218050 0.359072
O O9 0.126640 0.000000 0.250000
O O10 0.066735 0.324460 0.578183
O O11 0.053820 0.076795 0.541316
O O12 0.020052 0.500000 0.750000
#
# Coordination Sequence:
#
# PCOD9336548 Si02
#       5
#     8   8   8   8   8
#     4  11  22  42  69  96 132 181 234 282 339 412
#     4  12  24  41  68  97 136 175 224 280 341 405
#     4  11  25  43  64 102 139 177 225 285 351 413
#     4  11  23  42  69  94 135 175 227 283 344 399
#     4  11  23  42  67 102 129 174 236 279 331 410
#
# _framework density 20.674923
#
# number of rings (size 3 to 8) (size 9 to 14) (size 15 to 20)
#    0.000    0.800    2.000    6.600    2.800    4.000 
#    0.000    6.000    0.000    0.000    0.000    0.000 
#    0.000    0.000    0.000    0.000    0.000    0.000 
#
# Total GULP energy -111736.156677 kJ/mol
# GULP energy per Si atom -5586.807834 kJ/mol
# Density = 2.062787 g / cm^3
# Si number density = 20.674923 Si / 1000 Ang^3
#
#
#
# Elastic Constant Matrix: (Units=GPa)
#
#
# Indices 1 2 3 4 5 6 
#
# 1 79.0606 53.0052 30.5942 0.0000 0.0000 0.0000
# 2 53.0052 118.0903 46.6370 0.0000 0.0000 0.0000
# 3 30.5942 46.6370 129.3114 0.0000 0.0000 0.0000
# 4 0.0000 0.0000 0.0000 38.2237 0.0000 0.0000
# 5 0.0000 0.0000 0.0000 0.0000 49.1992 0.0000
# 6 0.0000 0.0000 0.0000 0.0000 0.0000 26.7261
#
#
#
# Elastic Compliance Matrix: (Units=1/GPa)
#
#
# Indices 1 2 3 4 5 6 
#
# 1 0.018373 -0.007615 -0.001601 0.000000 0.000000 0.000000
# 2 -0.007615 0.013030 -0.002898 0.000000 0.000000 0.000000
# 3 -0.001601 -0.002898 0.009157 0.000000 0.000000 0.000000
# 4 0.000000 0.000000 0.000000 0.026162 0.000000 0.000000
# 5 0.000000 0.000000 0.000000 0.000000 0.020326 0.000000
# 6 0.000000 0.000000 0.000000 0.000000 0.000000 0.037417
#
#
# Mechanical properties :
#
#
# Convention : Reuss Voigt Hill
#
# Bulk Modulus (GPa) = 61.22156 65.21503 63.21829
# Shear Modulus (GPa) = 32.43892 35.91154 34.17523
#
# Velocity S-wave (km/s) = 3.96536 4.17221 4.07010
# Velocity P-wave (km/s) = 7.11626 7.40414 7.26163
#
# Compressibility (1/GPa) = 0.01633412
#
# Stress axis : x y z
#
# Youngs Moduli (GPa) = 54.42740 76.74341 109.20447
#
# Poissons Ratio (x) = 0.58438 0.17480
# Poissons Ratio (y) = 0.41445 0.31647
# Poissons Ratio (z) = 0.08712 0.22240
#
# Static dielectric constant tensor:
#      x y z
#    x 1.750440 0.000000 0.000000 
#    y 0.000000 1.785010 0.000000 
#    z 0.000000 0.000000 1.731680 
# 
# From -- ./inp_files/14977.got.cif
#   From: 2010.05.17/outbox.cif.g08.bks.cpg/sg24_8_cif.got.tgz:14977.got - 2010.06.04 00:33:39.
