data_PCOD9336276
_publ_section_title
;
Structure prediction by ZEFSAII (Michael W. Deem and Ramdas Pophale) SiO2 
 PCOD9336276
Probable space group: I 21 21 21
;
_chemical_formula_sum "Si O2"
_cell_formula_units_Z 64
_cell_length_a 9.683494
_cell_length_b 21.300738
_cell_length_c 14.862805
_cell_angle_alpha 90.000000
_cell_angle_beta 90.000000
_cell_angle_gamma 90.000000
_cell_volume 3065.684925
_symmetry_space_group_name_H-M "I 21 21 21"
_symmetry_group_IT_number 24
_symmetry_cell_setting 'orthorhombic'
loop_
_space_group_symop_operation_xyz
x,y,z
-x,1/2-y,z
x,-y,1/2-z
1/2-x,y,-z
1/2+x,1/2+y,1/2+z
1/2-x,-y,1/2+z
1/2+x,1/2-y,-z
-x,1/2+y,1/2-z
loop_
_atom_site_type_symbol
_atom_site_label
_atom_site_fract_x
_atom_site_fract_y
_atom_site_fract_z
Si Si1 0.075676 0.932464 0.204182
Si Si2 0.611006 0.546988 0.468775
Si Si3 0.614918 0.571083 0.262671
Si Si4 0.207989 0.729267 0.398769
Si Si5 0.411513 0.313271 0.243442
Si Si6 0.436805 0.850235 0.625724
Si Si7 0.619453 0.801753 0.061657
Si Si8 0.915803 0.063650 0.486802
O O1 0.244053 0.923952 0.203684
O O2 0.030672 0.883401 0.280162
O O3 0.985635 0.931127 0.113083
O O4 0.056323 0.000000 0.250000
O O5 0.750000 0.511920 0.500000
O O6 0.641283 0.574317 0.370218
O O7 0.587979 0.600616 0.544430
O O8 0.489075 0.496577 0.469003
O O9 0.560882 0.500000 0.250000
O O10 0.507615 0.626180 0.244914
O O11 0.250000 0.740939 0.500000
O O12 0.316307 0.687970 0.343551
O O13 0.183437 0.798692 0.358259
O O14 0.068025 0.690463 0.400873
O O15 0.500000 0.250000 0.235669
O O16 0.327892 0.307064 0.335997
O O17 0.500000 0.750000 0.056511
O O18 0.750000 0.786802 0.000000
O O19 0.558276 0.869104 0.032733
O O20 0.750000 0.055314 0.500000
#
# Coordination Sequence:
#
# PCOD9336276 Si02
#       8
#     8   8   8   8   8   8   8   8
#     4  11  22  46  69 102 137 185 241 292 362 443
#     4  12  22  42  71 104 144 186 245 297 362 438
#     4  11  23  41  70 103 139 187 241 300 364 441
#     4  11  26  42  67 102 145 192 242 292 372 446
#     4  11  25  44  67 102 142 179 239 304 368 437
#     4  11  24  42  69 100 142 197 237 297 370 442
#     4  10  25  47  69  97 131 177 233 297 367 426
#     4  11  26  45  71 101 146 189 242 307 378 439
#
# _framework density 20.876246999999999
#
# number of rings (size 3 to 8) (size 9 to 14) (size 15 to 20)
#    0.000    1.000    2.500    3.375    7.000    5.000 
#    0.000    0.000    0.000    0.000    0.000    0.000 
#    0.000    0.000    0.000    0.000    0.000    0.000 
#
# Total GULP energy -178673.916759 kJ/mol
# GULP energy per Si atom -5583.559899 kJ/mol
# Density = 2.082873 g / cm^3
# Si number density = 20.876247 Si / 1000 Ang^3
#
#
#
# Elastic Constant Matrix: (Units=GPa)
#
#
# Indices 1 2 3 4 5 6 
#
# 1 88.9271 49.3506 41.1654 0.0000 0.0000 0.0000
# 2 49.3506 110.8679 3.2373 -0.0002 0.0001 0.0000
# 3 41.1654 3.2373 112.1208 -0.0002 0.0001 0.0000
# 4 0.0000 -0.0002 -0.0002 15.2295 0.0001 0.0000
# 5 0.0000 0.0001 0.0001 0.0001 18.5428 0.0000
# 6 0.0000 0.0000 0.0000 0.0000 0.0000 26.8864
#
#
#
# Elastic Compliance Matrix: (Units=1/GPa)
#
#
# Indices 1 2 3 4 5 6 
#
# 1 0.018913 -0.008223 -0.006707 0.000000 0.000000 0.000000
# 2 -0.008223 0.012602 0.002655 0.000000 0.000000 0.000000
# 3 -0.006707 0.002655 0.011305 0.000000 0.000000 0.000000
# 4 0.000000 0.000000 0.000000 0.065662 0.000000 0.000000
# 5 0.000000 0.000000 0.000000 0.000000 0.053929 0.000000
# 6 0.000000 0.000000 0.000000 0.000000 0.000000 0.037194
#
#
# Mechanical properties :
#
#
# Convention : Reuss Voigt Hill
#
# Bulk Modulus (GPa) = 54.72983 55.49140 55.11061
# Shear Modulus (GPa) = 21.71608 26.67591 24.19600
#
# Velocity S-wave (km/s) = 3.22876 3.57853 3.40813
# Velocity P-wave (km/s) = 6.33822 6.61160 6.47636
#
# Compressibility (1/GPa) = 0.01827157
#
# Stress axis : x y z
#
# Youngs Moduli (GPa) = 52.87347 79.34935 88.45949
#
# Poissons Ratio (x) = 0.65249 0.59326
# Poissons Ratio (y) = 0.43478 -0.23488
# Poissons Ratio (z) = 0.35460 -0.21069
#
# Static dielectric constant tensor:
#      x y z
#    x 1.756030 0.000000 0.000000 
#    y 0.000000 1.722050 0.000000 
#    z 0.000000 0.000000 1.780200 
# 
# From -- ./inp_files/25204.got.cif
#   From: 2010.05.17/outbox.cif.g08.bks.cpg/sg24_13_cif.got.tgz:25204.got - 2010.06.04 00:33:39.
