data_PCOD9336497
_publ_section_title
;
Structure prediction by ZEFSAII (Michael W. Deem and Ramdas Pophale) SiO2 
 PCOD9336497
Probable space group: I 21 21 21
;
_chemical_formula_sum "Si O2"
_cell_formula_units_Z 48
_cell_length_a 9.481136
_cell_length_b 14.042350
_cell_length_c 17.797209
_cell_angle_alpha 90.000000
_cell_angle_beta 90.000000
_cell_angle_gamma 90.000000
_cell_volume 2369.474669
_symmetry_space_group_name_H-M "I 21 21 21"
_symmetry_group_IT_number 24
_symmetry_cell_setting 'orthorhombic'
loop_
_space_group_symop_operation_xyz
x,y,z
-x,1/2-y,z
x,-y,1/2-z
1/2-x,y,-z
1/2+x,1/2+y,1/2+z
1/2-x,-y,1/2+z
1/2+x,1/2-y,-z
-x,1/2+y,1/2-z
loop_
_atom_site_type_symbol
_atom_site_label
_atom_site_fract_x
_atom_site_fract_y
_atom_site_fract_z
Si Si1 0.891598 0.940462 0.826767
Si Si2 0.253152 0.253499 0.266633
Si Si3 0.121416 0.416276 0.950582
Si Si4 0.869278 0.412931 0.057110
Si Si5 0.000000 0.250000 0.846343
Si Si6 0.500000 0.250000 0.837673
Si Si7 0.228330 0.943594 0.827886
O O1 0.822764 0.838262 0.813414
O O2 0.059921 0.935099 0.840043
O O3 0.871177 0.000000 0.750000
O O4 0.829315 0.999233 0.896183
O O5 0.373121 0.217697 0.207760
O O6 0.123070 0.288867 0.216430
O O7 0.212728 0.162595 0.316244
O O8 0.056408 0.335087 0.897327
O O9 0.250000 0.378532 0.000000
O O10 0.998365 0.448578 0.006447
O O11 0.799877 0.495634 0.106714
O O12 0.930073 0.330489 0.110514
O O13 0.750000 0.374799 0.000000
O O14 0.251030 0.000000 0.750000
#
# Coordination Sequence:
#
# PCOD9336497 Si02
#       7
#     8   8   8   8   4   4   8
#     4  11  22  44  72  99 138 184 240 283 342 425
#     4  12  23  43  77 105 133 184 244 293 341 409
#     4  12  26  43  66 104 145 182 224 293 363 419
#     4  12  25  45  69 101 150 187 228 287 361 430
#     4  12  21  44  70 100 139 182 236 282 353 432
#     4  12  27  42  66 114 143 178 226 310 365 412
#     4  11  21  45  73 100 134 186 241 286 335 433
#
# _framework density 20.257656000000001
#
# number of rings (size 3 to 8) (size 9 to 14) (size 15 to 20)
#    0.000    0.333    6.667    3.500    0.000    2.667 
#    0.000    0.833    0.000    0.000    0.000    0.000 
#    0.000    0.000    0.000    0.000    0.000    0.000 
#
# Total GULP energy -134364.330338 kJ/mol
# GULP energy per Si atom -5598.513764 kJ/mol
# Density = 2.021155 g / cm^3
# Si number density = 20.257656 Si / 1000 Ang^3
#
#
#
# Elastic Constant Matrix: (Units=GPa)
#
#
# Indices 1 2 3 4 5 6 
#
# 1 94.1232 36.4236 43.2063 0.0000 0.0000 0.0000
# 2 36.4236 152.5429 63.1799 0.0000 0.0000 0.0000
# 3 43.2063 63.1799 89.5575 0.0000 0.0000 0.0000
# 4 0.0000 0.0000 0.0000 5.8124 0.0000 0.0000
# 5 0.0000 0.0000 0.0000 0.0000 36.3579 0.0000
# 6 0.0000 0.0000 0.0000 0.0000 0.0000 20.1785
#
#
#
# Elastic Compliance Matrix: (Units=1/GPa)
#
#
# Indices 1 2 3 4 5 6 
#
# 1 0.013708 -0.000755 -0.006081 0.000000 0.000000 0.000000
# 2 -0.000755 0.009303 -0.006199 0.000000 0.000000 0.000000
# 3 -0.006081 -0.006199 0.018473 0.000000 0.000000 0.000000
# 4 0.000000 0.000000 0.000000 0.172045 0.000000 0.000000
# 5 0.000000 0.000000 0.000000 0.000000 0.027504 0.000000
# 6 0.000000 0.000000 0.000000 0.000000 0.000000 0.049558
#
#
# Mechanical properties :
#
#
# Convention : Reuss Voigt Hill
#
# Bulk Modulus (GPa) = 64.87244 69.09371 66.98307
# Shear Modulus (GPa) = 15.53769 25.36404 20.45086
#
# Velocity S-wave (km/s) = 2.77249 3.54230 3.18077
# Velocity P-wave (km/s) = 6.50708 7.13527 6.82840
#
# Compressibility (1/GPa) = 0.01541487
#
# Stress axis : x y z
#
# Youngs Moduli (GPa) = 72.95159 107.48960 54.13319
#
# Poissons Ratio (x) = 0.08110 0.32918
# Poissons Ratio (y) = 0.05504 0.33558
# Poissons Ratio (z) = 0.44361 0.66634
#
# Static dielectric constant tensor:
#      x y z
#    x 1.750570 0.000000 0.000000 
#    y 0.000000 1.735090 0.000000 
#    z 0.000000 0.000000 1.718180 
# 
# From -- ./inp_files/27067.got.cif
#   From: 2010.05.17/outbox.cif.g08.bks.cpg/sg24_14_cif.got.tgz:27067.got - 2010.06.04 00:33:39.
