data_PCOD9336933
_publ_section_title
;
Structure prediction by ZEFSAII (Michael W. Deem and Ramdas Pophale) SiO2 
 PCOD9336933
Probable space group: I 21 21 21
;
_chemical_formula_sum "Si O2"
_cell_formula_units_Z 32
_cell_length_a 7.948864
_cell_length_b 4.858716
_cell_length_c 35.553609
_cell_angle_alpha 90.000000
_cell_angle_beta 90.000000
_cell_angle_gamma 90.000000
_cell_volume 1373.125629
_symmetry_space_group_name_H-M "I 21 21 21"
_symmetry_group_IT_number 24
_symmetry_cell_setting 'orthorhombic'
loop_
_space_group_symop_operation_xyz
x,y,z
-x,1/2-y,z
x,-y,1/2-z
1/2-x,y,-z
1/2+x,1/2+y,1/2+z
1/2-x,-y,1/2+z
1/2+x,1/2-y,-z
-x,1/2+y,1/2-z
loop_
_atom_site_type_symbol
_atom_site_label
_atom_site_fract_x
_atom_site_fract_y
_atom_site_fract_z
Si Si1 0.688233 0.136606 0.333318
Si Si2 0.685557 0.876238 0.914987
Si Si3 0.811651 0.634180 0.289082
Si Si4 0.814376 0.623591 0.540992
O O1 0.500000 0.250000 0.335715
O O2 0.751842 0.037837 0.373818
O O3 0.802755 0.390021 0.319366
O O4 0.702792 0.888324 0.303888
O O5 0.500000 0.750000 0.913221
O O6 0.697005 0.634724 0.068668
O O7 0.697682 0.134737 0.942543
O O8 0.754100 0.500000 0.250000
O O9 0.000000 0.750000 0.284224
O O10 0.750000 0.537263 0.500000
O O11 0.000000 0.750000 0.538849
#
# Coordination Sequence:
#
# PCOD9336933 Si02
#       4
#     8   8   8   8
#     4  12  26  45  70 101 137 176 223 280 339 400
#     4  12  25  45  70 100 136 180 229 279 337 400
#     4  12  25  46  71  99 134 177 224 275 335 403
#     4  12  25  44  68 100 139 181 228 280 338 399
#
# _framework density 23.304493999999998
#
# number of rings (size 3 to 8) (size 9 to 14) (size 15 to 20)
#    0.000    0.000    0.000   12.000    0.000    2.000 
#    0.000    1.250    0.000    0.000    0.000    0.000 
#    0.000    0.000    0.000    0.000    0.000    0.000 
#
# Total GULP energy -89785.744602 kJ/mol
# GULP energy per Si atom -5611.609038 kJ/mol
# Density = 2.325145 g / cm^3
# Si number density = 23.304494 Si / 1000 Ang^3
#
#
#
# Elastic Constant Matrix: (Units=GPa)
#
#
# Indices 1 2 3 4 5 6 
#
# 1 99.4665 10.0593 32.3508 0.0000 0.0000 0.0000
# 2 10.0593 96.7881 18.9812 -0.0001 0.0000 0.0000
# 3 32.3508 18.9812 103.9547 -0.0001 0.0000 0.0000
# 4 0.0000 -0.0001 -0.0001 27.9059 0.0000 0.0000
# 5 0.0000 0.0000 0.0000 0.0000 25.3988 0.0000
# 6 0.0000 0.0000 0.0000 0.0000 0.0000 25.6188
#
#
#
# Elastic Compliance Matrix: (Units=1/GPa)
#
#
# Indices 1 2 3 4 5 6 
#
# 1 0.011209 -0.000499 -0.003397 0.000000 0.000000 0.000000
# 2 -0.000499 0.010738 -0.001805 0.000000 0.000000 0.000000
# 3 -0.003397 -0.001805 0.011006 0.000000 0.000000 0.000000
# 4 0.000000 0.000000 0.000000 0.035835 0.000000 0.000000
# 5 0.000000 0.000000 0.000000 0.000000 0.039372 0.000000
# 6 0.000000 0.000000 0.000000 0.000000 0.000000 0.039034
#
#
# Mechanical properties :
#
#
# Convention : Reuss Voigt Hill
#
# Bulk Modulus (GPa) = 46.40263 46.99910 46.70086
# Shear Modulus (GPa) = 30.16051 31.70591 30.93321
#
# Velocity S-wave (km/s) = 3.60139 3.69251 3.64723
# Velocity P-wave (km/s) = 6.10312 6.19602 6.14974
#
# Compressibility (1/GPa) = 0.02155050
#
# Stress axis : x y z
#
# Youngs Moduli (GPa) = 89.21416 93.12946 90.85595
#
# Poissons Ratio (x) = 0.04645 0.30865
# Poissons Ratio (y) = 0.04449 0.16403
# Poissons Ratio (z) = 0.30308 0.16814
#
# Static dielectric constant tensor:
#      x y z
#    x 1.863530 0.000000 0.000000 
#    y 0.000000 1.839680 0.000000 
#    z 0.000000 0.000000 1.822190 
# 
# From -- ./inp_files/38090.got.cif
#   From: 2010.05.17/outbox.cif.g08.bks.cpg/sg24_20_cif.got.tgz:38090.got - 2010.06.04 00:33:39.
