data_PCOD9336283
_publ_section_title
;
Structure prediction by ZEFSAII (Michael W. Deem and Ramdas Pophale) SiO2 
 PCOD9336283
Probable space group: I 21 21 21
;
_chemical_formula_sum "Si O2"
_cell_formula_units_Z 32
_cell_length_a 15.796315
_cell_length_b 13.772111
_cell_length_c 5.934653
_cell_angle_alpha 90.000000
_cell_angle_beta 90.000000
_cell_angle_gamma 90.000000
_cell_volume 1291.075473
_symmetry_space_group_name_H-M "I 21 21 21"
_symmetry_group_IT_number 24
_symmetry_cell_setting 'orthorhombic'
loop_
_space_group_symop_operation_xyz
x,y,z
-x,1/2-y,z
x,-y,1/2-z
1/2-x,y,-z
1/2+x,1/2+y,1/2+z
1/2-x,-y,1/2+z
1/2+x,1/2-y,-z
-x,1/2+y,1/2-z
loop_
_atom_site_type_symbol
_atom_site_label
_atom_site_fract_x
_atom_site_fract_y
_atom_site_fract_z
Si Si1 0.001583 0.070034 0.417556
Si Si2 0.750000 0.833174 0.000000
Si Si3 0.500000 0.750000 0.604025
Si Si4 0.125275 0.816532 0.759135
Si Si5 0.157746 0.500000 0.250000
Si Si6 0.775008 0.500000 0.750000
O O1 0.053592 0.117763 0.615461
O O2 0.913694 0.011181 0.451849
O O3 0.055667 0.000000 0.250000
O O4 0.980314 0.160746 0.262853
O O5 0.824446 0.761875 0.909508
O O6 0.716033 0.906585 0.803015
O O7 0.420450 0.764091 0.444270
O O8 0.182246 0.901222 0.662992
O O9 0.750000 0.459223 0.500000
#
# Coordination Sequence:
#
# PCOD9336283 Si02
#       6
#     8   4   4   8   4   4
#     4  10  25  48  72 104 153 208 267 334 419 524
#     4  12  26  46  74 112 162 208 284 348 438 494
#     4  12  24  42  80 106 148 206 270 340 416 502
#     4  12  27  48  77 116 156 212 278 354 419 519
#     4  10  26  45  71 104 162 208 266 342 420 509
#     4  12  30  53  85 122 170 216 274 352 444 495
#
# _framework density 24.785539
#
# number of rings (size 3 to 8) (size 9 to 14) (size 15 to 20)
#    0.750    0.000    1.250    5.250    8.750    2.000 
#    0.000    0.000    0.000    0.000    0.000    0.000 
#    0.000    0.000    0.000    0.000    0.000    0.000 
#
# Total GULP energy -89096.655741 kJ/mol
# GULP energy per Si atom -5568.540984 kJ/mol
# Density = 2.472913 g / cm^3
# Si number density = 24.785539 Si / 1000 Ang^3
#
#
#
# Elastic Constant Matrix: (Units=GPa)
#
#
# Indices 1 2 3 4 5 6 
#
# 1 80.6401 28.5814 35.7989 0.0000 0.0000 0.0000
# 2 28.5814 141.8758 6.7189 0.0000 0.0000 0.0000
# 3 35.7989 6.7189 64.5825 0.0000 0.0000 0.0000
# 4 0.0000 0.0000 0.0000 290.0638 0.0000 0.0000
# 5 0.0000 0.0000 0.0000 0.0000 70.1416 0.0000
# 6 0.0000 0.0000 0.0000 0.0000 0.0000 16.0180
#
#
#
# Elastic Compliance Matrix: (Units=1/GPa)
#
#
# Indices 1 2 3 4 5 6 
#
# 1 0.017724 -0.003121 -0.009500 0.000000 0.000000 0.000000
# 2 -0.003121 0.007633 0.000936 0.000000 0.000000 0.000000
# 3 -0.009500 0.000936 0.020653 0.000000 0.000000 0.000000
# 4 0.000000 0.000000 0.000000 0.003448 0.000000 0.000000
# 5 0.000000 0.000000 0.000000 0.000000 0.014257 0.000000
# 6 0.000000 0.000000 0.000000 0.000000 0.000000 0.062430
#
#
# Mechanical properties :
#
#
# Convention : Reuss Voigt Hill
#
# Bulk Modulus (GPa) = 44.17024 47.69964 45.93494
# Shear Modulus (GPa) = 31.83482 89.64462 60.73972
#
# Velocity S-wave (km/s) = 3.58776 6.02052 4.95574
# Velocity P-wave (km/s) = 5.91797 8.22287 7.16372
#
# Compressibility (1/GPa) = 0.02263968
#
# Stress axis : x y z
#
# Youngs Moduli (GPa) = 56.41973 131.01384 48.41966
#
# Poissons Ratio (x) = 0.40886 0.45999
# Poissons Ratio (y) = 0.17607 -0.04531
# Poissons Ratio (z) = 0.53600 -0.12260
#
# Static dielectric constant tensor:
#      x y z
#    x 2.222540 0.000000 0.000000 
#    y 0.000000 1.878720 0.000000 
#    z 0.000000 0.000000 2.290030 
# 
# From -- ./inp_files/4331.got.cif
#   From: 2010.05.17/outbox.cif.g08.bks.cpg/sg24_3_cif.got.tgz:4331.got - 2010.06.04 00:33:39.
