data_PCOD9336316
_publ_section_title
;
Structure prediction by ZEFSAII (Michael W. Deem and Ramdas Pophale) SiO2 
 PCOD9336316
Probable space group: I 21 21 21
;
_chemical_formula_sum "Si O2"
_cell_formula_units_Z 40
_cell_length_a 8.622968
_cell_length_b 16.122575
_cell_length_c 12.143701
_cell_angle_alpha 90.000000
_cell_angle_beta 90.000000
_cell_angle_gamma 90.000000
_cell_volume 1688.271332
_symmetry_space_group_name_H-M "I 21 21 21"
_symmetry_group_IT_number 24
_symmetry_cell_setting 'orthorhombic'
loop_
_space_group_symop_operation_xyz
x,y,z
-x,1/2-y,z
x,-y,1/2-z
1/2-x,y,-z
1/2+x,1/2+y,1/2+z
1/2-x,-y,1/2+z
1/2+x,1/2-y,-z
-x,1/2+y,1/2-z
loop_
_atom_site_type_symbol
_atom_site_label
_atom_site_fract_x
_atom_site_fract_y
_atom_site_fract_z
Si Si1 0.750000 0.848922 0.500000
Si Si2 0.949251 0.409742 0.298207
Si Si3 0.990566 0.441098 0.860004
Si Si4 0.750000 0.451524 0.500000
Si Si5 0.167882 0.702599 0.114704
Si Si6 0.755437 0.290598 0.818660
O O1 0.633799 0.909660 0.433839
O O2 0.712653 0.779928 0.594229
O O3 0.935846 0.500000 0.250000
O O4 0.833505 0.402010 0.402387
O O5 0.893556 0.348739 0.202272
O O6 0.118384 0.387116 0.340350
O O7 0.015174 0.500000 0.750000
O O8 0.895153 0.355160 0.837173
O O9 0.879180 0.493905 0.939821
O O10 0.278470 0.743671 0.203902
O O11 0.000000 0.750000 0.110684
O O12 0.250000 0.699608 0.000000
#
# Coordination Sequence:
#
# PCOD9336316 Si02
#       6
#     4   8   8   4   8   8
#     4  12  31  50  86 121 168 210 276 364 415 496
#     4  11  24  45  78 114 152 211 278 329 413 505
#     4  12  27  53  84 120 165 220 284 342 430 508
#     4  12  23  46  86 105 158 216 270 328 413 508
#     4  10  26  45  77 111 156 202 267 339 415 498
#     4  11  24  48  79 116 153 216 270 336 420 500
#
# _framework density 23.692872999999999
#
# number of rings (size 3 to 8) (size 9 to 14) (size 15 to 20)
#    0.000    0.800    4.000    1.200    8.400    8.000 
#    5.400    0.000    0.000    0.000    0.000    0.000 
#    0.000    0.000    0.000    0.000    0.000    0.000 
#
# Total GULP energy -111764.025500 kJ/mol
# GULP energy per Si atom -5588.201275 kJ/mol
# Density = 2.363895 g / cm^3
# Si number density = 23.692873 Si / 1000 Ang^3
#
#
#
# Elastic Constant Matrix: (Units=GPa)
#
#
# Indices 1 2 3 4 5 6 
#
# 1 98.9149 63.4763 78.3904 0.0000 0.0000 0.0000
# 2 63.4763 123.7425 81.5501 0.0001 0.0000 0.0000
# 3 78.3904 81.5501 168.3450 0.0001 0.0000 0.0000
# 4 0.0000 0.0001 0.0001 35.5214 0.0000 0.0000
# 5 0.0000 0.0000 0.0000 0.0000 35.3128 0.0000
# 6 0.0000 0.0000 0.0000 0.0000 0.0000 -2.4308
#
#
#
# Elastic Compliance Matrix: (Units=1/GPa)
#
#
# Indices 1 2 3 4 5 6 
#
# 1 0.018284 -0.005535 -0.005833 0.000000 0.000000 0.000000
# 2 -0.005535 0.013547 -0.003985 0.000000 0.000000 0.000000
# 3 -0.005833 -0.003985 0.010587 0.000000 0.000000 0.000000
# 4 0.000000 0.000000 0.000000 0.028152 0.000000 0.000000
# 5 0.000000 0.000000 0.000000 0.000000 0.028318 0.000000
# 6 0.000000 0.000000 0.000000 0.000000 0.000000 -0.411392
#
#
# Mechanical properties :
#
#
# Convention : Reuss Voigt Hill
#
# Bulk Modulus (GPa) = 85.38315 93.09290 89.23803
# Shear Modulus (GPa) = -17.99251 24.85306 3.43027
#
# Velocity S-wave (km/s) = -2.75872 3.24229 1.20455
# Velocity P-wave (km/s) = 5.09591 7.30708 6.29928
#
# Compressibility (1/GPa) = 0.01171191
#
# Stress axis : x y z
#
# Youngs Moduli (GPa) = 54.69166 73.81733 94.45954
#
# Poissons Ratio (x) = 0.40861 0.55095
# Poissons Ratio (y) = 0.30274 0.37641
# Poissons Ratio (z) = 0.31900 0.29415
#
# Static dielectric constant tensor:
#      x y z
#    x 1.936660 0.000000 0.000000 
#    y 0.000000 2.041980 0.000000 
#    z 0.000000 0.000000 2.016260 
# 
# From -- ./inp_files/18255.got.cif
#   From: 2010.05.17/outbox.cif.g08.bks.cpg/sg24_10_cif.got.tgz:18255.got - 2010.06.04 00:33:39.
