data_PCOD9336080
_publ_section_title
;
Structure prediction by ZEFSAII (Michael W. Deem and Ramdas Pophale) SiO2 
 PCOD9336080
Probable space group: I 21 21 21
;
_chemical_formula_sum "Si O2"
_cell_formula_units_Z 60
_cell_length_a 12.520988
_cell_length_b 7.872798
_cell_length_c 25.010735
_cell_angle_alpha 90.000000
_cell_angle_beta 90.000000
_cell_angle_gamma 90.000000
_cell_volume 2465.438437
_symmetry_space_group_name_H-M "I 21 21 21"
_symmetry_group_IT_number 24
_symmetry_cell_setting 'orthorhombic'
loop_
_space_group_symop_operation_xyz
x,y,z
-x,1/2-y,z
x,-y,1/2-z
1/2-x,y,-z
1/2+x,1/2+y,1/2+z
1/2-x,-y,1/2+z
1/2+x,1/2-y,-z
-x,1/2+y,1/2-z
loop_
_atom_site_type_symbol
_atom_site_label
_atom_site_fract_x
_atom_site_fract_y
_atom_site_fract_z
Si Si1 0.077300 0.039633 0.171901
Si Si2 0.597396 0.034857 0.589139
Si Si3 0.821405 0.045142 0.876565
Si Si4 0.709937 0.451063 0.120965
Si Si5 0.511898 0.454353 0.189511
Si Si6 0.539987 0.937545 0.478918
Si Si7 0.000000 0.750000 0.246156
Si Si8 0.658041 0.632358 0.967590
O O1 0.009172 0.906101 0.206187
O O2 0.007236 0.042913 0.117994
O O3 0.197059 0.986510 0.160708
O O4 0.089151 0.207204 0.209021
O O5 0.604247 0.231072 0.571254
O O6 0.701948 0.020481 0.624781
O O7 0.607216 0.931131 0.533748
O O8 0.804703 0.248713 0.878317
O O9 0.888177 0.997516 0.930158
O O10 0.894912 0.983541 0.827955
O O11 0.597793 0.514920 0.144916
O O12 0.765233 0.502755 0.064959
O O13 0.500000 0.250000 0.186230
O O14 0.541520 0.500000 0.250000
O O15 0.500000 0.750000 0.464054
O O16 0.436109 0.048976 0.496775
O O17 0.750000 0.730511 0.000000
#
# Coordination Sequence:
#
# PCOD9336080 Si02
#       8
#     8   8   8   8   8   8   4   8
#     4  11  23  45  66 104 137 182 230 295 358 424
#     4  12  26  43  65 104 147 181 229 288 362 425
#     4  11  24  46  67 100 141 184 234 293 348 431
#     4  11  23  44  74  97 137 179 243 289 352 427
#     4  10  24  46  70 100 134 180 237 295 353 420
#     4  12  24  42  70 100 140 183 238 288 346 425
#     4  10  24  40  68  98 136 174 232 280 364 420
#     4  12  24  41  68 104 141 187 230 291 357 433
#
# _framework density 24.336442999999999
#
# number of rings (size 3 to 8) (size 9 to 14) (size 15 to 20)
#    0.000    0.800    1.333    6.800    2.800    1.067 
#    7.200    2.667    0.000    0.000    0.000    0.000 
#    0.000    0.000    0.000    0.000    0.000    0.000 
#
# Total GULP energy -167351.544951 kJ/mol
# GULP energy per Si atom -5578.384832 kJ/mol
# Density = 2.428105 g / cm^3
# Si number density = 24.336443 Si / 1000 Ang^3
#
#
#
# Elastic Constant Matrix: (Units=GPa)
#
#
# Indices 1 2 3 4 5 6 
#
# 1 156.6470 21.6162 20.6457 0.0000 0.0000 0.0000
# 2 21.6162 62.7248 6.0869 0.0000 0.0000 0.0000
# 3 20.6457 6.0869 70.2529 0.0000 0.0000 0.0000
# 4 0.0000 0.0000 0.0000 25.0947 0.0000 0.0000
# 5 0.0000 0.0000 0.0000 0.0000 -162.9669 0.0000
# 6 0.0000 0.0000 0.0000 0.0000 0.0000 21.3097
#
#
#
# Elastic Compliance Matrix: (Units=1/GPa)
#
#
# Indices 1 2 3 4 5 6 
#
# 1 0.006932 -0.002210 -0.001846 0.000000 0.000000 0.000000
# 2 -0.002210 0.016782 -0.000805 0.000000 0.000000 0.000000
# 3 -0.001846 -0.000805 0.014846 0.000000 0.000000 0.000000
# 4 0.000000 0.000000 0.000000 0.039849 0.000000 0.000000
# 5 0.000000 0.000000 0.000000 0.000000 -0.006136 0.000000
# 6 0.000000 0.000000 0.000000 0.000000 0.000000 0.046927
#
#
# Mechanical properties :
#
#
# Convention : Reuss Voigt Hill
#
# Bulk Modulus (GPa) = 34.67358 42.92470 38.79914
# Shear Modulus (GPa) = 36.09219 -7.22743 14.43238
#
# Velocity S-wave (km/s) = 3.85522 -1.72518 2.43787
# Velocity P-wave (km/s) = 5.83913 3.70243 4.88894
#
# Compressibility (1/GPa) = 0.02884040
#
# Stress axis : x y z
#
# Youngs Moduli (GPa) = 144.25914 59.58669 67.35639
#
# Poissons Ratio (x) = 0.13167 0.12432
# Poissons Ratio (y) = 0.31878 0.05420
# Poissons Ratio (z) = 0.26626 0.04795
#
# Static dielectric constant tensor:
#      x y z
#    x 1.939730 0.000000 0.000000 
#    y 0.000000 2.104690 0.000000 
#    z 0.000000 0.000000 2.045100 
# 
# From -- ./inp_files/37233.got.cif
#   From: 2010.05.17/outbox.cif.g08.bks.cpg/sg24_19_cif.got.tgz:37233.got - 2010.06.04 00:33:39.
