data_PCOD9336846
_publ_section_title
;
Structure prediction by ZEFSAII (Michael W. Deem and Ramdas Pophale) SiO2 
 PCOD9336846
Probable space group: I 21 21 21
;
_chemical_formula_sum "Si O2"
_cell_formula_units_Z 32
_cell_length_a 13.206972
_cell_length_b 5.055623
_cell_length_c 22.226390
_cell_angle_alpha 90.000000
_cell_angle_beta 90.000000
_cell_angle_gamma 90.000000
_cell_volume 1484.044312
_symmetry_space_group_name_H-M "I 21 21 21"
_symmetry_group_IT_number 24
_symmetry_cell_setting 'orthorhombic'
loop_
_space_group_symop_operation_xyz
x,y,z
-x,1/2-y,z
x,-y,1/2-z
1/2-x,y,-z
1/2+x,1/2+y,1/2+z
1/2-x,-y,1/2+z
1/2+x,1/2-y,-z
-x,1/2+y,1/2-z
loop_
_atom_site_type_symbol
_atom_site_label
_atom_site_fract_x
_atom_site_fract_y
_atom_site_fract_z
Si Si1 0.786347 0.500000 0.250000
Si Si2 0.141973 0.500000 0.750000
Si Si3 0.391146 0.896270 0.621671
Si Si4 0.215720 0.595869 0.067643
Si Si5 0.563772 0.004204 0.120521
O O1 0.714198 0.749617 0.238260
O O2 0.850162 0.426653 0.190316
O O3 0.074367 0.542976 0.691790
O O4 0.500000 0.750000 0.625619
O O5 0.332289 0.690887 0.578922
O O6 0.362957 0.183972 0.593158
O O7 0.322397 0.561552 0.101427
O O8 0.250000 0.654818 0.000000
O O9 0.500000 0.250000 0.094634
O O10 0.500000 0.750000 0.105381
#
# Coordination Sequence:
#
# PCOD9336846 Si02
#       5
#     4   4   8   8   8
#     4  12  22  44  74 104 146 182 228 304 374 434
#     4  12  22  42  70 100 148 184 224 294 366 428
#     4  12  26  47  76 106 142 189 242 302 374 434
#     4  12  27  49  71 102 146 192 245 304 353 430
#     4  12  24  42  70 103 138 184 231 285 358 427
#
# _framework density 21.562698999999999
#
# number of rings (size 3 to 8) (size 9 to 14) (size 15 to 20)
#    0.000    0.000    5.000    5.250    0.000    6.000 
#    0.000    0.000    0.000    0.000    0.000    0.000 
#    0.000    0.000    0.000    0.000    0.000    0.000 
#
# Total GULP energy -89315.628664 kJ/mol
# GULP energy per Si atom -5582.226792 kJ/mol
# Density = 2.151362 g / cm^3
# Si number density = 21.562699 Si / 1000 Ang^3
#
#
#
# Elastic Constant Matrix: (Units=GPa)
#
#
# Indices 1 2 3 4 5 6 
#
# 1 376.7418 -27.3162 198.9681 0.0000 0.0000 0.0000
# 2 -27.3162 182.1191 -36.9484 0.0000 0.0000 0.0000
# 3 198.9681 -36.9484 222.8519 0.0000 0.0000 0.0000
# 4 0.0000 0.0000 0.0000 -38.8142 0.0000 0.0000
# 5 0.0000 0.0000 0.0000 0.0000 -5.6434 0.0000
# 6 0.0000 0.0000 0.0000 0.0000 0.0000 47.9150
#
#
#
# Elastic Compliance Matrix: (Units=1/GPa)
#
#
# Indices 1 2 3 4 5 6 
#
# 1 0.005027 -0.000162 -0.004515 0.000000 0.000000 0.000000
# 2 -0.000162 0.005687 0.001088 0.000000 0.000000 0.000000
# 3 -0.004515 0.001088 0.008699 0.000000 0.000000 0.000000
# 4 0.000000 0.000000 0.000000 -0.025764 0.000000 0.000000
# 5 0.000000 0.000000 0.000000 0.000000 -0.177197 0.000000
# 6 0.000000 0.000000 0.000000 0.000000 0.000000 0.020870
#
#
# Mechanical properties :
#
#
# Convention : Reuss Voigt Hill
#
# Bulk Modulus (GPa) = 81.73934 116.79110 99.26522
# Shear Modulus (GPa) = -33.02082 43.82543 5.40230
#
# Velocity S-wave (km/s) = -3.91754 4.51318 1.58456
# Velocity P-wave (km/s) = 4.18655 9.02438 7.03444
#
# Compressibility (1/GPa) = 0.01223401
#
# Stress axis : x y z
#
# Youngs Moduli (GPa) = 198.91499 175.83155 114.95537
#
# Poissons Ratio (x) = 0.02849 0.51906
# Poissons Ratio (y) = 0.03223 -0.12503
# Poissons Ratio (z) = 0.89817 -0.19124
#
# Static dielectric constant tensor:
#      x y z
#    x 1.864740 0.000000 0.000000 
#    y 0.000000 1.763190 0.000000 
#    z 0.000000 0.000000 1.784910 
# 
# From -- ./inp_files/1974.got.cif
#   From: 2010.05.17/outbox.cif.g08.bks.cpg/sg24_1_cif.got.tgz:1974.got - 2010.06.04 00:33:39.
