data_PCOD9336882
_publ_section_title
;
Structure prediction by ZEFSAII (Michael W. Deem and Ramdas Pophale) SiO2 
 PCOD9336882
Probable space group: I 21 21 21
;
_chemical_formula_sum "Si O2"
_cell_formula_units_Z 48
_cell_length_a 14.307876
_cell_length_b 16.685193
_cell_length_c 9.247710
_cell_angle_alpha 90.000000
_cell_angle_beta 90.000000
_cell_angle_gamma 90.000000
_cell_volume 2207.702779
_symmetry_space_group_name_H-M "I 21 21 21"
_symmetry_group_IT_number 24
_symmetry_cell_setting 'orthorhombic'
loop_
_space_group_symop_operation_xyz
x,y,z
-x,1/2-y,z
x,-y,1/2-z
1/2-x,y,-z
1/2+x,1/2+y,1/2+z
1/2-x,-y,1/2+z
1/2+x,1/2-y,-z
-x,1/2+y,1/2-z
loop_
_atom_site_type_symbol
_atom_site_label
_atom_site_fract_x
_atom_site_fract_y
_atom_site_fract_z
Si Si1 0.469098 0.890968 0.995858
Si Si2 0.257741 0.297905 0.164028
Si Si3 0.078462 0.199443 0.213308
Si Si4 0.828334 0.065946 0.623030
Si Si5 0.637407 0.443937 0.988239
Si Si6 0.078860 0.181715 0.793685
O O1 0.572573 0.917478 0.046054
O O2 0.422489 0.841931 0.126584
O O3 0.407972 0.969735 0.963153
O O4 0.468239 0.833492 0.858256
O O5 0.162313 0.261826 0.224610
O O6 0.298378 0.356752 0.283869
O O7 0.327588 0.223505 0.150495
O O8 0.250000 0.332330 0.000000
O O9 0.000000 0.250000 0.128712
O O10 0.115671 0.120590 0.135080
O O11 0.750000 0.048095 0.500000
O O12 0.836507 0.000000 0.750000
O O13 0.581138 0.403087 0.122608
O O14 0.750000 0.451120 0.000000
O O15 0.000000 0.250000 0.812911
#
# Coordination Sequence:
#
# PCOD9336882 Si02
#       6
#     8   8   8   8   8   8
#     4  12  29  44  73 109 152 194 245 317 382 451
#     4  12  26  47  76 110 150 198 255 312 375 459
#     4  12  26  47  72 108 148 197 253 309 373 449
#     4  12  28  52  77 111 152 202 258 317 390 455
#     4  12  26  48  71 109 146 198 246 309 381 447
#     4  12  23  45  74 105 145 195 244 302 380 451
#
# _framework density 21.742058
#
# number of rings (size 3 to 8) (size 9 to 14) (size 15 to 20)
#    0.000    0.000    5.000    4.500    4.667    4.000 
#    0.000    0.000    0.000    0.000    0.000    0.000 
#    0.000    0.000    0.000    0.000    0.000    0.000 
#
# Total GULP energy -134169.956243 kJ/mol
# GULP energy per Si atom -5590.414843 kJ/mol
# Density = 2.169257 g / cm^3
# Si number density = 21.742058 Si / 1000 Ang^3
#
#
#
# Elastic Constant Matrix: (Units=GPa)
#
#
# Indices 1 2 3 4 5 6 
#
# 1 133.7003 56.7689 30.7191 0.0000 0.0000 0.0000
# 2 56.7689 125.8872 33.3572 0.0000 0.0000 0.0000
# 3 30.7191 33.3572 116.9130 0.0000 0.0000 0.0000
# 4 0.0000 0.0000 0.0000 36.6136 0.0000 0.0000
# 5 0.0000 0.0000 0.0000 0.0000 29.6738 0.0000
# 6 0.0000 0.0000 0.0000 0.0000 0.0000 20.6525
#
#
#
# Elastic Compliance Matrix: (Units=1/GPa)
#
#
# Indices 1 2 3 4 5 6 
#
# 1 0.009449 -0.003898 -0.001371 0.000000 0.000000 0.000000
# 2 -0.003898 0.010201 -0.001886 0.000000 0.000000 0.000000
# 3 -0.001371 -0.001886 0.009452 0.000000 0.000000 0.000000
# 4 0.000000 0.000000 0.000000 0.027312 0.000000 0.000000
# 5 0.000000 0.000000 0.000000 0.000000 0.033700 0.000000
# 6 0.000000 0.000000 0.000000 0.000000 0.000000 0.048420
#
#
# Mechanical properties :
#
#
# Convention : Reuss Voigt Hill
#
# Bulk Modulus (GPa) = 67.60289 68.68788 68.14538
# Shear Modulus (GPa) = 31.69057 34.43168 33.06112
#
# Velocity S-wave (km/s) = 3.82196 3.98382 3.90373
# Velocity P-wave (km/s) = 7.11597 7.26786 7.19232
#
# Compressibility (1/GPa) = 0.01479227
#
# Stress axis : x y z
#
# Youngs Moduli (GPa) = 105.82638 98.02687 105.80071
#
# Poissons Ratio (x) = 0.38211 0.14502
# Poissons Ratio (y) = 0.41251 0.19958
# Poissons Ratio (z) = 0.14505 0.18492
#
# Static dielectric constant tensor:
#      x y z
#    x 1.796110 0.000000 0.000000 
#    y 0.000000 1.775360 0.000000 
#    z 0.000000 0.000000 1.822260 
# 
# From -- ./inp_files/12809.got.cif
#   From: 2010.05.17/outbox.cif.g08.bks.cpg/sg24_7_cif.got.tgz:12809.got - 2010.06.04 00:33:39.
