data_PCOD9336519
_publ_section_title
;
Structure prediction by ZEFSAII (Michael W. Deem and Ramdas Pophale) SiO2 
 PCOD9336519
Probable space group: I 21 21 21
;
_chemical_formula_sum "Si O2"
_cell_formula_units_Z 32
_cell_length_a 4.955392
_cell_length_b 19.329453
_cell_length_c 16.609216
_cell_angle_alpha 90.000000
_cell_angle_beta 90.000000
_cell_angle_gamma 90.000000
_cell_volume 1590.914033
_symmetry_space_group_name_H-M "I 21 21 21"
_symmetry_group_IT_number 24
_symmetry_cell_setting 'orthorhombic'
loop_
_space_group_symop_operation_xyz
x,y,z
-x,1/2-y,z
x,-y,1/2-z
1/2-x,y,-z
1/2+x,1/2+y,1/2+z
1/2-x,-y,1/2+z
1/2+x,1/2-y,-z
-x,1/2+y,1/2-z
loop_
_atom_site_type_symbol
_atom_site_label
_atom_site_fract_x
_atom_site_fract_y
_atom_site_fract_z
Si Si1 0.377991 0.466744 0.582887
Si Si2 0.139846 0.937700 0.811882
Si Si3 0.896568 0.327626 0.819552
Si Si4 0.887936 0.128514 0.081171
O O1 0.250000 0.440321 0.500000
O O2 0.653814 0.435119 0.614331
O O3 0.449726 0.547796 0.568373
O O4 0.154355 0.454751 0.652255
O O5 0.170871 0.867043 0.762270
O O6 0.214418 0.000000 0.750000
O O7 0.648910 0.333609 0.882700
O O8 0.000000 0.250000 0.809354
O O9 0.149759 0.369211 0.854527
O O10 0.750000 0.157864 0.000000
#
# Coordination Sequence:
#
# PCOD9336519 Si02
#       4
#     8   8   8   8
#     4  11  22  38  64  95 122 158 209 263 318 366
#     4  12  21  39  64  90 126 163 207 262 311 363
#     4  12  25  39  59  90 125 170 210 251 308 372
#     4  11  22  39  60  88 126 166 207 251 304 377
#
# _framework density 20.114221000000001
#
# number of rings (size 3 to 8) (size 9 to 14) (size 15 to 20)
#    0.000    0.500    5.000    4.500    0.000    6.000 
#    0.000    0.000    0.000    3.000    0.000    0.000 
#    0.000    0.000    0.000    0.000    0.000    0.000 
#
# Total GULP energy -89449.167952 kJ/mol
# GULP energy per Si atom -5590.572997 kJ/mol
# Density = 2.006844 g / cm^3
# Si number density = 20.114221 Si / 1000 Ang^3
#
#
#
# Elastic Constant Matrix: (Units=GPa)
#
#
# Indices 1 2 3 4 5 6 
#
# 1 103.5132 23.6323 8.1958 0.0000 0.0000 0.0000
# 2 23.6323 65.6293 28.6848 0.0000 0.0000 0.0000
# 3 8.1958 28.6848 60.0823 0.0000 0.0000 0.0000
# 4 0.0000 0.0000 0.0000 12.4291 0.0000 0.0000
# 5 0.0000 0.0000 0.0000 0.0000 44.5252 0.0000
# 6 0.0000 0.0000 0.0000 0.0000 0.0000 14.0226
#
#
#
# Elastic Compliance Matrix: (Units=1/GPa)
#
#
# Indices 1 2 3 4 5 6 
#
# 1 0.010537 -0.004001 0.000473 0.000000 0.000000 0.000000
# 2 -0.004001 0.020774 -0.009372 0.000000 0.000000 0.000000
# 3 0.000473 -0.009372 0.021054 0.000000 0.000000 0.000000
# 4 0.000000 0.000000 0.000000 0.080456 0.000000 0.000000
# 5 0.000000 0.000000 0.000000 0.000000 0.022459 0.000000
# 6 0.000000 0.000000 0.000000 0.000000 0.000000 0.071313
#
#
# Mechanical properties :
#
#
# Convention : Reuss Voigt Hill
#
# Bulk Modulus (GPa) = 37.64495 38.91674 38.28084
# Shear Modulus (GPa) = 19.13887 25.44285 22.29086
#
# Velocity S-wave (km/s) = 3.08800 3.56043 3.33260
# Velocity P-wave (km/s) = 5.60986 6.02429 5.82077
#
# Compressibility (1/GPa) = 0.02656399
#
# Stress axis : x y z
#
# Youngs Moduli (GPa) = 94.90779 48.13688 47.49708
#
# Poissons Ratio (x) = 0.19258 -0.02245
# Poissons Ratio (y) = 0.37970 0.44516
# Poissons Ratio (z) = -0.04487 0.45115
#
# Static dielectric constant tensor:
#      x y z
#    x 1.705950 0.000000 0.000000 
#    y 0.000000 1.708210 0.000000 
#    z 0.000000 0.000000 1.758590 
# 
# From -- ./inp_files/3069.got.cif
#   From: 2010.05.17/outbox.cif.g08.bks.cpg/sg24_2_cif.got.tgz:3069.got - 2010.06.04 00:33:39.
