data_PCOD9336543
_publ_section_title
;
Structure prediction by ZEFSAII (Michael W. Deem and Ramdas Pophale) SiO2 
 PCOD9336543
Probable space group: I 21 21 21
;
_chemical_formula_sum "Si O2"
_cell_formula_units_Z 40
_cell_length_a 11.654111
_cell_length_b 9.480285
_cell_length_c 17.854060
_cell_angle_alpha 90.000000
_cell_angle_beta 90.000000
_cell_angle_gamma 90.000000
_cell_volume 1972.593209
_symmetry_space_group_name_H-M "I 21 21 21"
_symmetry_group_IT_number 24
_symmetry_cell_setting 'orthorhombic'
loop_
_space_group_symop_operation_xyz
x,y,z
-x,1/2-y,z
x,-y,1/2-z
1/2-x,y,-z
1/2+x,1/2+y,1/2+z
1/2-x,-y,1/2+z
1/2+x,1/2-y,-z
-x,1/2+y,1/2-z
loop_
_atom_site_type_symbol
_atom_site_label
_atom_site_fract_x
_atom_site_fract_y
_atom_site_fract_z
Si Si1 0.655242 0.794531 0.233340
Si Si2 0.140814 0.500000 0.250000
Si Si3 0.040077 0.910970 0.360747
Si Si4 0.500000 0.750000 0.368119
Si Si5 0.240373 0.000000 0.250000
Si Si6 0.500000 0.250000 0.398504
Si Si7 0.884996 0.482693 0.975941
O O1 0.584983 0.825474 0.308934
O O2 0.679728 0.628553 0.226925
O O3 0.585686 0.831384 0.158619
O O4 0.776212 0.868210 0.242382
O O5 0.058586 0.499973 0.321080
O O6 0.157591 0.947386 0.316961
O O7 0.000000 0.750000 0.350249
O O8 0.050948 0.946579 0.447021
O O9 0.574479 0.639559 0.417412
O O10 0.428739 0.134267 0.445559
O O11 0.750000 0.481557 0.000000
#
# Coordination Sequence:
#
# PCOD9336543 Si02
#       7
#     8   4   8   4   4   4   8
#     4  11  22  43  67  98 132 169 223 273 327 390
#     4  11  24  39  70  96 126 169 216 277 328 384
#     4  11  23  43  64  97 132 169 224 267 323 405
#     4  11  24  42  72  99 130 178 226 267 326 412
#     4  11  22  41  72  94 128 179 212 273 336 380
#     4  11  26  44  64  99 134 172 226 273 328 400
#     4  12  26  45  69  96 139 180 217 277 339 389
#
# _framework density 20.277875999999999
#
# number of rings (size 3 to 8) (size 9 to 14) (size 15 to 20)
#    0.000    0.800    3.000    4.800    0.000    6.400 
#    0.000    3.000    0.000    0.000    0.000    0.000 
#    0.000    0.000    0.000    0.000    0.000    0.000 
#
# Total GULP energy -111755.639970 kJ/mol
# GULP energy per Si atom -5587.781998 kJ/mol
# Density = 2.023172 g / cm^3
# Si number density = 20.277876 Si / 1000 Ang^3
#
#
#
# Elastic Constant Matrix: (Units=GPa)
#
#
# Indices 1 2 3 4 5 6 
#
# 1 127.5063 36.5513 45.4110 0.0000 0.0000 0.0000
# 2 36.5513 95.3233 23.6813 0.0000 0.0000 0.0000
# 3 45.4110 23.6813 117.7696 0.0000 0.0000 0.0000
# 4 0.0000 0.0000 0.0000 10.6748 0.0000 0.0000
# 5 0.0000 0.0000 0.0000 0.0000 16.9433 0.0000
# 6 0.0000 0.0000 0.0000 0.0000 0.0000 17.2312
#
#
#
# Elastic Compliance Matrix: (Units=1/GPa)
#
#
# Indices 1 2 3 4 5 6 
#
# 1 0.009833 -0.002977 -0.003193 0.000000 0.000000 0.000000
# 2 -0.002977 0.011944 -0.001254 0.000000 0.000000 0.000000
# 3 -0.003193 -0.001254 0.009974 0.000000 0.000000 0.000000
# 4 0.000000 0.000000 0.000000 0.093678 0.000000 0.000000
# 5 0.000000 0.000000 0.000000 0.000000 0.059020 0.000000
# 6 0.000000 0.000000 0.000000 0.000000 0.000000 0.058034
#
#
# Mechanical properties :
#
#
# Convention : Reuss Voigt Hill
#
# Bulk Modulus (GPa) = 59.15887 61.32070 60.23979
# Shear Modulus (GPa) = 19.01378 24.63356 21.82367
#
# Velocity S-wave (km/s) = 3.06545 3.48918 3.28415
# Velocity P-wave (km/s) = 6.46272 6.82190 6.64474
#
# Compressibility (1/GPa) = 0.01690364
#
# Stress axis : x y z
#
# Youngs Moduli (GPa) = 101.69399 83.72608 100.25632
#
# Poissons Ratio (x) = 0.24928 0.32012
# Poissons Ratio (y) = 0.30278 0.12568
# Poissons Ratio (z) = 0.32471 0.10496
#
# Static dielectric constant tensor:
#      x y z
#    x 1.695500 0.000000 0.000000 
#    y 0.000000 1.714090 0.000000 
#    z 0.000000 0.000000 1.733500 
# 
# From -- ./inp_files/13882.got.cif
#   From: 2010.05.17/outbox.cif.g08.bks.cpg/sg24_7_cif.got.tgz:13882.got - 2010.06.04 00:33:39.
