data_PCOD9336021
_publ_section_title
;
Structure prediction by ZEFSAII (Michael W. Deem and Ramdas Pophale) SiO2 
 PCOD9336021
Probable space group: I 21 21 21
;
_chemical_formula_sum "Si O2"
_cell_formula_units_Z 44
_cell_length_a 17.257334
_cell_length_b 14.464907
_cell_length_c 7.944811
_cell_angle_alpha 90.000000
_cell_angle_beta 90.000000
_cell_angle_gamma 90.000000
_cell_volume 1983.229257
_symmetry_space_group_name_H-M "I 21 21 21"
_symmetry_group_IT_number 24
_symmetry_cell_setting 'orthorhombic'
loop_
_space_group_symop_operation_xyz
x,y,z
-x,1/2-y,z
x,-y,1/2-z
1/2-x,y,-z
1/2+x,1/2+y,1/2+z
1/2-x,-y,1/2+z
1/2+x,1/2-y,-z
-x,1/2+y,1/2-z
loop_
_atom_site_type_symbol
_atom_site_label
_atom_site_fract_x
_atom_site_fract_y
_atom_site_fract_z
Si Si1 0.640842 0.212402 0.212085
Si Si2 0.500000 0.250000 0.975008
Si Si3 0.273038 0.903487 0.200417
Si Si4 0.396880 0.102986 0.771418
Si Si5 0.589104 0.234888 0.572293
Si Si6 0.216637 0.397341 0.307543
O O1 0.571772 0.208093 0.080234
O O2 0.678784 0.313622 0.242658
O O3 0.600332 0.192688 0.390731
O O4 0.713359 0.143462 0.195021
O O5 0.453413 0.165354 0.884399
O O6 0.194046 0.903221 0.315774
O O7 0.313473 0.000000 0.250000
O O8 0.250000 0.903280 0.000000
O O9 0.387488 0.159117 0.596807
O O10 0.427481 0.000000 0.750000
O O11 0.500000 0.250000 0.607329
O O12 0.643367 0.172616 0.692033
O O13 0.196039 0.500000 0.250000
O O14 0.250000 0.396968 0.500000
#
# Coordination Sequence:
#
# PCOD9336021 Si02
#       6
#     8   4   8   8   8   8
#     4  11  23  45  70 100 141 188 238 288 349 426
#     4  12  28  44  68 110 142 190 236 296 356 418
#     4  11  23  42  74 106 137 185 241 298 358 423
#     4  11  25  45  66 102 143 181 232 294 361 419
#     4  11  21  45  71  97 136 183 227 289 360 420
#     4  10  23  45  71 100 135 188 238 288 355 424
#
# _framework density 22.186039000000001
#
# number of rings (size 3 to 8) (size 9 to 14) (size 15 to 20)
#    0.000    1.091    5.455    0.545    5.091    2.182 
#    6.545    0.909    0.000    0.000    0.000    0.000 
#    0.000    0.000    0.000    0.000    0.000    0.000 
#
# Total GULP energy -122520.365754 kJ/mol
# GULP energy per Si atom -5569.107534 kJ/mol
# Density = 2.213554 g / cm^3
# Si number density = 22.186039 Si / 1000 Ang^3
#
#
#
# Elastic Constant Matrix: (Units=GPa)
#
#
# Indices 1 2 3 4 5 6 
#
# 1 160.9854 62.9120 45.4287 0.0000 0.0000 0.0000
# 2 62.9120 122.4933 23.2082 0.0000 0.0000 0.0000
# 3 45.4287 23.2082 70.7296 0.0000 0.0000 0.0000
# 4 0.0000 0.0000 0.0000 31.9875 0.0000 0.0000
# 5 0.0000 0.0000 0.0000 0.0000 16.7292 0.0000
# 6 0.0000 0.0000 0.0000 0.0000 0.0000 -2.9528
#
#
#
# Elastic Compliance Matrix: (Units=1/GPa)
#
#
# Indices 1 2 3 4 5 6 
#
# 1 0.008949 -0.003740 -0.004521 0.000000 0.000000 0.000000
# 2 -0.003740 0.010268 -0.000967 0.000000 0.000000 0.000000
# 3 -0.004521 -0.000967 0.017359 0.000000 0.000000 0.000000
# 4 0.000000 0.000000 0.000000 0.031262 0.000000 0.000000
# 5 0.000000 0.000000 0.000000 0.000000 0.059776 0.000000
# 6 0.000000 0.000000 0.000000 0.000000 0.000000 -0.338666
#
#
# Mechanical properties :
#
#
# Convention : Reuss Voigt Hill
#
# Bulk Modulus (GPa) = 55.18505 68.58957 61.88731
# Shear Modulus (GPa) = -26.80144 23.99675 -1.40234
#
# Velocity S-wave (km/s) = -3.47945 3.29236 -0.79590
# Velocity P-wave (km/s) = 2.96407 6.74059 5.20679
#
# Compressibility (1/GPa) = 0.01812085
#
# Stress axis : x y z
#
# Youngs Moduli (GPa) = 111.74627 97.39388 57.60612
#
# Poissons Ratio (x) = 0.36421 0.26042
# Poissons Ratio (y) = 0.41788 0.05571
# Poissons Ratio (z) = 0.50517 0.09420
#
# Static dielectric constant tensor:
#      x y z
#    x 1.268690 0.000000 0.000000 
#    y 0.000000 1.093130 0.000000 
#    z 0.000000 0.000000 1.964610 
# 
# From -- ./inp_files/14101.got.cif
#   From: 2010.05.17/outbox.cif.g08.bks.cpg/sg24_8_cif.got.tgz:14101.got - 2010.06.04 00:33:39.
