data_PCOD9336843
_publ_section_title
;
Structure prediction by ZEFSAII (Michael W. Deem and Ramdas Pophale) SiO2 
 PCOD9336843
Probable space group: I 21 21 21
;
_chemical_formula_sum "Si O2"
_cell_formula_units_Z 40
_cell_length_a 7.771575
_cell_length_b 9.774419
_cell_length_c 25.919198
_cell_angle_alpha 90.000000
_cell_angle_beta 90.000000
_cell_angle_gamma 90.000000
_cell_volume 1968.890456
_symmetry_space_group_name_H-M "I 21 21 21"
_symmetry_group_IT_number 24
_symmetry_cell_setting 'orthorhombic'
loop_
_space_group_symop_operation_xyz
x,y,z
-x,1/2-y,z
x,-y,1/2-z
1/2-x,y,-z
1/2+x,1/2+y,1/2+z
1/2-x,-y,1/2+z
1/2+x,1/2-y,-z
-x,1/2+y,1/2-z
loop_
_atom_site_type_symbol
_atom_site_label
_atom_site_fract_x
_atom_site_fract_y
_atom_site_fract_z
Si Si1 0.997931 0.083294 0.197269
Si Si2 0.798237 0.980864 0.881298
Si Si3 0.701085 0.717486 0.939859
Si Si4 0.202573 0.273533 0.057374
Si Si5 0.684467 0.462686 0.125967
O O1 0.000000 0.250000 0.202665
O O2 0.179574 0.039154 0.172154
O O3 0.974491 0.000000 0.250000
O O4 0.847551 0.031580 0.158526
O O5 0.788083 0.826847 0.901621
O O6 0.759909 0.072168 0.932082
O O7 0.988542 0.007007 0.860003
O O8 0.500000 0.750000 0.935854
O O9 0.750141 0.570183 0.917118
O O10 0.750000 0.729052 0.000000
O O11 0.302618 0.183761 0.098787
O O12 0.000000 0.250000 0.065851
O O13 0.250000 0.230768 0.000000
#
# Coordination Sequence:
#
# PCOD9336843 Si02
#       5
#     8   8   8   8   8
#     4  12  28  50  76 104 136 186 238 300 363 410
#     4  12  24  45  69 100 142 182 231 292 344 418
#     4  12  24  42  66 104 149 191 234 280 342 419
#     4  12  22  40  66 102 139 185 228 278 344 419
#     4  12  24  45  69 100 142 182 231 292 344 418
#
# _framework density 20.316009999999999
#
# number of rings (size 3 to 8) (size 9 to 14) (size 15 to 20)
#    0.000    0.000    6.000    4.800    2.800    0.800 
#    0.000    0.000    0.000    0.000    0.000    0.000 
#    0.000    0.000    0.000    0.000    0.000    0.000 
#
# Total GULP energy -111880.334134 kJ/mol
# GULP energy per Si atom -5594.016707 kJ/mol
# Density = 2.026977 g / cm^3
# Si number density = 20.316010 Si / 1000 Ang^3
#
#
#
# Elastic Constant Matrix: (Units=GPa)
#
#
# Indices 1 2 3 4 5 6 
#
# 1 154.9331 17.6888 24.8646 0.0000 0.0000 0.0000
# 2 17.6888 64.9003 30.0579 0.0000 0.0000 0.0000
# 3 24.8646 30.0579 86.5953 0.0000 0.0000 0.0000
# 4 0.0000 0.0000 0.0000 43.3909 0.0000 0.0000
# 5 0.0000 0.0000 0.0000 0.0000 18.4990 0.0000
# 6 0.0000 0.0000 0.0000 0.0000 0.0000 28.4867
#
#
#
# Elastic Compliance Matrix: (Units=1/GPa)
#
#
# Indices 1 2 3 4 5 6 
#
# 1 0.006836 -0.001137 -0.001568 0.000000 0.000000 0.000000
# 2 -0.001137 0.018549 -0.006112 0.000000 0.000000 0.000000
# 3 -0.001568 -0.006112 0.014120 0.000000 0.000000 0.000000
# 4 0.000000 0.000000 0.000000 0.023046 0.000000 0.000000
# 5 0.000000 0.000000 0.000000 0.000000 0.054057 0.000000
# 6 0.000000 0.000000 0.000000 0.000000 0.000000 0.035104
#
#
# Mechanical properties :
#
#
# Convention : Reuss Voigt Hill
#
# Bulk Modulus (GPa) = 45.72401 50.18347 47.95374
# Shear Modulus (GPa) = 28.30677 33.66315 30.98496
#
# Velocity S-wave (km/s) = 3.73677 4.07501 3.90955
# Velocity P-wave (km/s) = 6.41664 6.84807 6.63586
#
# Compressibility (1/GPa) = 0.02187035
#
# Stress axis : x y z
#
# Youngs Moduli (GPa) = 146.28720 53.91178 70.82255
#
# Poissons Ratio (x) = 0.06129 0.11107
# Poissons Ratio (y) = 0.16630 0.43287
# Poissons Ratio (z) = 0.22941 0.32951
#
# Static dielectric constant tensor:
#      x y z
#    x 1.539600 0.000000 0.000000 
#    y 0.000000 1.723420 0.000000 
#    z 0.000000 0.000000 1.671590 
# 
# From -- ./inp_files/35010.got.cif
#   From: 2010.05.17/outbox.cif.g08.bks.cpg/sg24_18_cif.got.tgz:35010.got - 2010.06.04 00:33:39.
