data_PCOD9336704
_publ_section_title
;
Structure prediction by ZEFSAII (Michael W. Deem and Ramdas Pophale) SiO2 
 PCOD9336704
Probable space group: I 21 21 21
;
_chemical_formula_sum "Si O2"
_cell_formula_units_Z 64
_cell_length_a 18.833053
_cell_length_b 11.520568
_cell_length_c 14.540784
_cell_angle_alpha 90.000000
_cell_angle_beta 90.000000
_cell_angle_gamma 90.000000
_cell_volume 3154.877083
_symmetry_space_group_name_H-M "I 21 21 21"
_symmetry_group_IT_number 24
_symmetry_cell_setting 'orthorhombic'
loop_
_space_group_symop_operation_xyz
x,y,z
-x,1/2-y,z
x,-y,1/2-z
1/2-x,y,-z
1/2+x,1/2+y,1/2+z
1/2-x,-y,1/2+z
1/2+x,1/2-y,-z
-x,1/2+y,1/2-z
loop_
_atom_site_type_symbol
_atom_site_label
_atom_site_fract_x
_atom_site_fract_y
_atom_site_fract_z
Si Si1 0.819384 0.862681 0.249675
Si Si2 0.329698 0.963587 0.519759
Si Si3 0.321217 0.220740 0.560370
Si Si4 0.558234 0.918851 0.420878
Si Si5 0.843666 0.812609 0.725707
Si Si6 0.594172 0.574073 0.341285
Si Si7 0.083291 0.255424 0.093392
Si Si8 0.072523 0.314011 0.585261
O O1 0.823883 0.799364 0.150927
O O2 0.738183 0.843485 0.279833
O O3 0.871998 0.804154 0.322110
O O4 0.833837 0.000000 0.250000
O O5 0.250000 0.918302 0.500000
O O6 0.363958 0.994535 0.420506
O O7 0.380454 0.866270 0.563507
O O8 0.322566 0.081976 0.577786
O O9 0.250000 0.243855 0.500000
O O10 0.388817 0.251318 0.498364
O O11 0.611514 0.899499 0.336990
O O12 0.480065 0.885100 0.385068
O O13 0.584471 0.842090 0.505876
O O14 0.555467 0.054496 0.443335
O O15 0.859477 0.684870 0.686176
O O16 0.874407 0.815089 0.828395
O O17 0.580032 0.500000 0.250000
O O18 0.000000 0.250000 0.117593
O O19 0.000000 0.250000 0.612762
#
# Coordination Sequence:
#
# PCOD9336704 Si02
#       8
#     8   8   8   8   8   8   8   8
#     4  12  28  50  71 104 138 188 246 295 362 435
#     4  11  24  46  71 105 138 188 242 293 371 431
#     4  11  25  48  72 100 144 181 238 307 358 426
#     4  12  23  42  66 105 148 186 233 293 354 430
#     4  12  23  41  68 107 144 183 235 284 365 436
#     4  12  23  40  70 107 151 190 235 297 358 434
#     4  12  26  49  73  98 142 190 239 300 354 432
#     4  12  24  40  70 105 140 190 233 291 370 425
#
# _framework density 20.286052000000002
#
# number of rings (size 3 to 8) (size 9 to 14) (size 15 to 20)
#    0.000    0.250    3.750    6.750    1.750    1.000 
#    2.250    0.000    0.000    0.000    0.000    0.000 
#    0.000    0.000    0.000    0.000    0.000    0.000 
#
# Total GULP energy -179111.529475 kJ/mol
# GULP energy per Si atom -5597.235296 kJ/mol
# Density = 2.023988 g / cm^3
# Si number density = 20.286052 Si / 1000 Ang^3
#
#
#
# Elastic Constant Matrix: (Units=GPa)
#
#
# Indices 1 2 3 4 5 6 
#
# 1 132.5146 23.5595 58.2203 0.0000 0.0000 0.0000
# 2 23.5595 133.2638 52.2512 0.0000 0.0000 0.0000
# 3 58.2203 52.2512 113.6082 0.0000 0.0000 0.0000
# 4 0.0000 0.0000 0.0000 36.9113 0.0000 0.0000
# 5 0.0000 0.0000 0.0000 0.0000 35.2522 0.0000
# 6 0.0000 0.0000 0.0000 0.0000 0.0000 28.2012
#
#
#
# Elastic Compliance Matrix: (Units=1/GPa)
#
#
# Indices 1 2 3 4 5 6 
#
# 1 0.009748 0.000287 -0.005128 0.000000 0.000000 0.000000
# 2 0.000287 0.009163 -0.004362 0.000000 0.000000 0.000000
# 3 -0.005128 -0.004362 0.013436 0.000000 0.000000 0.000000
# 4 0.000000 0.000000 0.000000 0.027092 0.000000 0.000000
# 5 0.000000 0.000000 0.000000 0.000000 0.028367 0.000000
# 6 0.000000 0.000000 0.000000 0.000000 0.000000 0.035459
#
#
# Mechanical properties :
#
#
# Convention : Reuss Voigt Hill
#
# Bulk Modulus (GPa) = 71.71970 71.93873 71.82921
# Shear Modulus (GPa) = 34.17223 36.42997 35.30110
#
# Velocity S-wave (km/s) = 4.10874 4.24230 4.17606
# Velocity P-wave (km/s) = 7.61183 7.71591 7.66405
#
# Compressibility (1/GPa) = 0.01394317
#
# Stress axis : x y z
#
# Youngs Moduli (GPa) = 102.58395 109.13137 74.42747
#
# Poissons Ratio (x) = -0.03133 0.38164
# Poissons Ratio (y) = -0.02945 0.32462
# Poissons Ratio (z) = 0.52601 0.47598
#
# Static dielectric constant tensor:
#      x y z
#    x 1.695640 0.000000 0.000000 
#    y 0.000000 1.751680 0.000000 
#    z 0.000000 0.000000 1.692830 
# 
# From -- ./inp_files/27231.got.cif
#   From: 2010.05.17/outbox.cif.g08.bks.cpg/sg24_14_cif.got.tgz:27231.got - 2010.06.04 00:33:39.
