data_PCOD9336315
_publ_section_title
;
Structure prediction by ZEFSAII (Michael W. Deem and Ramdas Pophale) SiO2 
 PCOD9336315
Probable space group: I 21 21 21
;
_chemical_formula_sum "Si O2"
_cell_formula_units_Z 24
_cell_length_a 7.705545
_cell_length_b 7.722538
_cell_length_c 16.712703
_cell_angle_alpha 90.000000
_cell_angle_beta 90.000000
_cell_angle_gamma 90.000000
_cell_volume 994.512189
_symmetry_space_group_name_H-M "I 21 21 21"
_symmetry_group_IT_number 24
_symmetry_cell_setting 'orthorhombic'
loop_
_space_group_symop_operation_xyz
x,y,z
-x,1/2-y,z
x,-y,1/2-z
1/2-x,y,-z
1/2+x,1/2+y,1/2+z
1/2-x,-y,1/2+z
1/2+x,1/2-y,-z
-x,1/2+y,1/2-z
loop_
_atom_site_type_symbol
_atom_site_label
_atom_site_fract_x
_atom_site_fract_y
_atom_site_fract_z
Si Si1 0.018792 0.443148 0.951357
Si Si2 0.221356 0.057218 0.334601
Si Si3 0.641568 0.052820 0.616546
O O1 0.182446 0.444328 0.890758
O O2 0.000000 0.250000 0.984268
O O3 0.070486 0.565155 0.025098
O O4 0.652946 0.498802 0.094357
O O5 0.193614 0.262802 0.346188
O O6 0.027338 0.978394 0.339944
O O7 0.298239 0.000000 0.250000
#
# Coordination Sequence:
#
# PCOD9336315 Si02
#       3
#     8   8   8
#     4  11  26  44  76 110 148 200 257 305 367 461
#     4  11  26  46  75 107 151 196 246 318 386 439
#     4  10  26  45  73 108 148 197 253 307 372 450
#
# _framework density 24.132434
#
# number of rings (size 3 to 8) (size 9 to 14) (size 15 to 20)
#    0.000    1.333    0.000    2.000   28.000    9.333 
#    0.000    0.000    0.000    0.000    0.000    0.000 
#    0.000    0.000    0.000    0.000    0.000    0.000 
#
# Total GULP energy -67123.362781 kJ/mol
# GULP energy per Si atom -5593.613565 kJ/mol
# Density = 2.407751 g / cm^3
# Si number density = 24.132434 Si / 1000 Ang^3
#
#
#
# Elastic Constant Matrix: (Units=GPa)
#
#
# Indices 1 2 3 4 5 6 
#
# 1 116.7483 20.5857 18.9575 0.0000 0.0000 0.0000
# 2 20.5857 94.4157 24.4399 0.0000 0.0000 0.0000
# 3 18.9575 24.4399 114.2693 0.0000 0.0000 0.0000
# 4 0.0000 0.0000 0.0000 -21.1738 0.0000 0.0000
# 5 0.0000 0.0000 0.0000 0.0000 24.6113 0.0000
# 6 0.0000 0.0000 0.0000 0.0000 0.0000 3.6579
#
#
#
# Elastic Compliance Matrix: (Units=1/GPa)
#
#
# Indices 1 2 3 4 5 6 
#
# 1 0.009047 -0.001677 -0.001142 0.000000 0.000000 0.000000
# 2 -0.001677 0.011523 -0.002186 0.000000 0.000000 0.000000
# 3 -0.001142 -0.002186 0.009408 0.000000 0.000000 0.000000
# 4 0.000000 0.000000 0.000000 -0.047228 0.000000 0.000000
# 5 0.000000 0.000000 0.000000 0.000000 0.040632 0.000000
# 6 0.000000 0.000000 0.000000 0.000000 0.000000 0.273381
#
#
# Mechanical properties :
#
#
# Convention : Reuss Voigt Hill
#
# Bulk Modulus (GPa) = 50.08203 50.37771 50.22987
# Shear Modulus (GPa) = 15.95259 18.84911 17.40085
#
# Velocity S-wave (km/s) = 2.57387 2.79779 2.68816
# Velocity P-wave (km/s) = 5.44345 5.59980 5.52217
#
# Compressibility (1/GPa) = 0.01996724
#
# Stress axis : x y z
#
# Youngs Moduli (GPa) = 110.53919 86.78299 106.28840
#
# Poissons Ratio (x) = 0.14552 0.12140
# Poissons Ratio (y) = 0.18535 0.23238
# Poissons Ratio (z) = 0.12626 0.18974
#
# Static dielectric constant tensor:
#      x y z
#    x 1.946700 0.000000 0.000000 
#    y 0.000000 1.888990 0.000000 
#    z 0.000000 0.000000 2.010090 
# 
# From -- ./inp_files/24219.got.cif
#   From: 2010.05.17/outbox.cif.g08.bks.cpg/sg24_13_cif.got.tgz:24219.got - 2010.06.04 00:33:39.
