data_PCOD9336023
_publ_section_title
;
Structure prediction by ZEFSAII (Michael W. Deem and Ramdas Pophale) SiO2 
 PCOD9336023
Probable space group: I 21 21 21
;
_chemical_formula_sum "Si O2"
_cell_formula_units_Z 40
_cell_length_a 15.185657
_cell_length_b 12.492466
_cell_length_c 8.797439
_cell_angle_alpha 90.000000
_cell_angle_beta 90.000000
_cell_angle_gamma 90.000000
_cell_volume 1668.929635
_symmetry_space_group_name_H-M "I 21 21 21"
_symmetry_group_IT_number 24
_symmetry_cell_setting 'orthorhombic'
loop_
_space_group_symop_operation_xyz
x,y,z
-x,1/2-y,z
x,-y,1/2-z
1/2-x,y,-z
1/2+x,1/2+y,1/2+z
1/2-x,-y,1/2+z
1/2+x,1/2-y,-z
-x,1/2+y,1/2-z
loop_
_atom_site_type_symbol
_atom_site_label
_atom_site_fract_x
_atom_site_fract_y
_atom_site_fract_z
Si Si1 0.255113 0.888913 0.317030
Si Si2 0.925643 0.593171 0.114069
Si Si3 0.510718 0.874099 0.588693
Si Si4 0.841844 0.247690 0.594181
Si Si5 0.845651 0.010846 0.571215
O O1 0.250000 0.892018 0.500000
O O2 0.161323 0.886599 0.223033
O O3 0.440963 0.971327 0.557011
O O4 0.311834 0.787144 0.260843
O O5 0.705613 0.500000 0.250000
O O6 0.005741 0.622633 0.227041
O O7 0.908181 0.666311 0.972205
O O8 0.500000 0.750000 0.543173
O O9 0.596817 0.922204 0.512020
O O10 0.750000 0.252050 0.500000
O O11 0.880870 0.131845 0.562406
O O12 0.750000 0.007851 0.500000
O O13 0.837979 0.000000 0.750000
#
# Coordination Sequence:
#
# PCOD9336023 Si02
#       5
#     8   8   8   8   8
#     4  11  21  40  70 116 152 191 249 309 375 454
#     4  10  23  45  71 109 148 200 247 309 385 435
#     4  11  26  45  73 107 147 199 250 303 377 445
#     4   9  22  44  76 108 147 194 247 306 376 444
#     4  11  28  53  77 110 146 198 256 314 380 456
#
# _framework density 23.967458000000001
#
# number of rings (size 3 to 8) (size 9 to 14) (size 15 to 20)
#    0.000    1.600    2.000    1.800    8.400    5.600 
#    7.200    1.000    0.000    0.000    0.000    0.000 
#    0.000    0.000    0.000    0.000    0.000    0.000 
#
# Total GULP energy -111577.936322 kJ/mol
# GULP energy per Si atom -5578.896816 kJ/mol
# Density = 2.391291 g / cm^3
# Si number density = 23.967458 Si / 1000 Ang^3
#
#
#
# Elastic Constant Matrix: (Units=GPa)
#
#
# Indices 1 2 3 4 5 6 
#
# 1 86.6827 68.4500 60.1989 0.0000 0.0000 0.0000
# 2 68.4500 222.8325 74.0759 0.0000 0.0000 0.0000
# 3 60.1989 74.0759 139.8067 0.0000 0.0000 0.0000
# 4 0.0000 0.0000 0.0000 26.2747 0.0000 0.0000
# 5 0.0000 0.0000 0.0000 0.0000 34.7409 0.0000
# 6 0.0000 0.0000 0.0000 0.0000 0.0000 35.5441
#
#
#
# Elastic Compliance Matrix: (Units=1/GPa)
#
#
# Indices 1 2 3 4 5 6 
#
# 1 0.018697 -0.003723 -0.006078 0.000000 0.000000 0.000000
# 2 -0.003723 0.006188 -0.001676 0.000000 0.000000 0.000000
# 3 -0.006078 -0.001676 0.010658 0.000000 0.000000 0.000000
# 4 0.000000 0.000000 0.000000 0.038059 0.000000 0.000000
# 5 0.000000 0.000000 0.000000 0.000000 0.028785 0.000000
# 6 0.000000 0.000000 0.000000 0.000000 0.000000 0.028134
#
#
# Mechanical properties :
#
#
# Convention : Reuss Voigt Hill
#
# Bulk Modulus (GPa) = 79.43069 94.97462 87.20265
# Shear Modulus (GPa) = 31.71135 35.75174 33.73154
#
# Velocity S-wave (km/s) = 3.64139 3.86642 3.75559
# Velocity P-wave (km/s) = 7.13391 7.72300 7.43429
#
# Compressibility (1/GPa) = 0.01258959
#
# Stress axis : x y z
#
# Youngs Moduli (GPa) = 53.48349 161.59320 93.82710
#
# Poissons Ratio (x) = 0.60159 0.57031
# Poissons Ratio (y) = 0.19911 0.15724
# Poissons Ratio (z) = 0.32509 0.27081
#
# Static dielectric constant tensor:
#      x y z
#    x 2.013050 0.000000 0.000000 
#    y 0.000000 1.993080 0.000000 
#    z 0.000000 0.000000 1.909230 
# 
# From -- ./inp_files/12318.got.cif
#   From: 2010.05.17/outbox.cif.g08.bks.cpg/sg24_7_cif.got.tgz:12318.got - 2010.06.04 00:33:39.
