data_PCOD9336073
_publ_section_title
;
Structure prediction by ZEFSAII (Michael W. Deem and Ramdas Pophale) SiO2 
 PCOD9336073
Probable space group: I 21 21 21
;
_chemical_formula_sum "Si O2"
_cell_formula_units_Z 44
_cell_length_a 7.944281
_cell_length_b 16.777210
_cell_length_c 15.605074
_cell_angle_alpha 90.000000
_cell_angle_beta 90.000000
_cell_angle_gamma 90.000000
_cell_volume 2079.889059
_symmetry_space_group_name_H-M "I 21 21 21"
_symmetry_group_IT_number 24
_symmetry_cell_setting 'orthorhombic'
loop_
_space_group_symop_operation_xyz
x,y,z
-x,1/2-y,z
x,-y,1/2-z
1/2-x,y,-z
1/2+x,1/2+y,1/2+z
1/2-x,-y,1/2+z
1/2+x,1/2-y,-z
-x,1/2+y,1/2-z
loop_
_atom_site_type_symbol
_atom_site_label
_atom_site_fract_x
_atom_site_fract_y
_atom_site_fract_z
Si Si1 0.046329 0.005131 0.510805
Si Si2 0.000000 0.750000 0.741461
Si Si3 0.486114 0.434273 0.677802
Si Si4 0.935977 0.339396 0.033924
Si Si5 0.589556 0.923573 0.187292
Si Si6 0.645523 0.686958 0.717967
O O1 0.250000 0.003863 0.500000
O O2 0.988970 0.040897 0.420717
O O3 0.979537 0.050938 0.593937
O O4 0.980044 0.913315 0.514493
O O5 0.977352 0.835337 0.788672
O O6 0.821008 0.730718 0.696322
O O7 0.521318 0.500000 0.750000
O O8 0.291192 0.411460 0.692457
O O9 0.629911 0.369146 0.699421
O O10 0.918155 0.360112 0.134192
O O11 0.000000 0.250000 0.025687
O O12 0.750000 0.335730 0.000000
O O13 0.547750 0.000000 0.250000
O O14 0.500000 0.750000 0.733395
#
# Coordination Sequence:
#
# PCOD9336073 Si02
#       6
#     8   4   8   8   8   8
#     4  11  24  43  66 100 138 187 239 296 366 439
#     4  12  26  44  76 106 140 190 244 304 362 444
#     4  11  22  46  71  99 141 191 238 303 361 435
#     4  10  24  39  63 101 140 183 236 298 370 433
#     4  11  27  45  71 106 140 189 250 295 369 444
#     4  11  23  44  68 104 141 187 238 293 365 434
#
# _framework density 21.154972999999998
#
# number of rings (size 3 to 8) (size 9 to 14) (size 15 to 20)
#    0.000    1.091    3.636    1.636    6.364    2.909 
#    1.636    0.000    0.000    0.000    0.000    0.000 
#    0.000    0.000    0.000    0.000    0.000    0.000 
#
# Total GULP energy -122571.503461 kJ/mol
# GULP energy per Si atom -5571.431976 kJ/mol
# Density = 2.110682 g / cm^3
# Si number density = 21.154973 Si / 1000 Ang^3
#
#
#
# Elastic Constant Matrix: (Units=GPa)
#
#
# Indices 1 2 3 4 5 6 
#
# 1 71.2745 29.1615 -5.1141 0.0000 0.0000 0.0000
# 2 29.1615 114.6051 46.7589 0.0000 0.0000 0.0000
# 3 -5.1141 46.7589 73.5505 0.0000 0.0000 0.0000
# 4 0.0000 0.0000 0.0000 24.8418 0.0000 0.0000
# 5 0.0000 0.0000 0.0000 0.0000 -2.8974 0.0000
# 6 0.0000 0.0000 0.0000 0.0000 0.0000 59.0203
#
#
#
# Elastic Compliance Matrix: (Units=1/GPa)
#
#
# Indices 1 2 3 4 5 6 
#
# 1 0.017082 -0.006523 0.005335 0.000000 0.000000 0.000000
# 2 -0.006523 0.014273 -0.009527 0.000000 0.000000 0.000000
# 3 0.005335 -0.009527 0.020024 0.000000 0.000000 0.000000
# 4 0.000000 0.000000 0.000000 0.040255 0.000000 0.000000
# 5 0.000000 0.000000 0.000000 0.000000 -0.345133 0.000000
# 6 0.000000 0.000000 0.000000 0.000000 0.000000 0.016943
#
#
# Mechanical properties :
#
#
# Convention : Reuss Voigt Hill
#
# Bulk Modulus (GPa) = 33.39212 44.56031 38.97621
# Shear Modulus (GPa) = -24.37320 28.76784 2.19732
#
# Velocity S-wave (km/s) = -3.39798 3.69163 1.02026
# Velocity P-wave (km/s) = 0.65097 6.26740 4.45556
#
# Compressibility (1/GPa) = 0.02994719
#
# Stress axis : x y z
#
# Youngs Moduli (GPa) = 58.54138 70.06472 49.94054
#
# Poissons Ratio (x) = 0.45704 -0.26642
# Poissons Ratio (y) = 0.38187 0.47579
# Poissons Ratio (z) = -0.31230 0.66752
#
# Static dielectric constant tensor:
#      x y z
#    x 1.812560 0.000000 0.000000 
#    y 0.000000 1.841970 0.000000 
#    z 0.000000 0.000000 1.181800 
# 
# From -- ./inp_files/24706.got.cif
#   From: 2010.05.17/outbox.cif.g08.bks.cpg/sg24_13_cif.got.tgz:24706.got - 2010.06.04 00:33:39.
