data_PCOD9336740
_publ_section_title
;
Structure prediction by ZEFSAII (Michael W. Deem and Ramdas Pophale) SiO2 
 PCOD9336740
Probable space group: I 21 21 21
;
_chemical_formula_sum "Si O2"
_cell_formula_units_Z 48
_cell_length_a 25.571435
_cell_length_b 9.354307
_cell_length_c 8.179352
_cell_angle_alpha 90.000000
_cell_angle_beta 90.000000
_cell_angle_gamma 90.000000
_cell_volume 1956.525973
_symmetry_space_group_name_H-M "I 21 21 21"
_symmetry_group_IT_number 24
_symmetry_cell_setting 'orthorhombic'
loop_
_space_group_symop_operation_xyz
x,y,z
-x,1/2-y,z
x,-y,1/2-z
1/2-x,y,-z
1/2+x,1/2+y,1/2+z
1/2-x,-y,1/2+z
1/2+x,1/2-y,-z
-x,1/2+y,1/2-z
loop_
_atom_site_type_symbol
_atom_site_label
_atom_site_fract_x
_atom_site_fract_y
_atom_site_fract_z
Si Si1 0.399302 0.347874 0.221073
Si Si2 0.221944 0.350293 0.675571
Si Si3 0.306439 0.844192 0.815380
Si Si4 0.611663 0.845898 0.670331
Si Si5 0.389751 0.915737 0.090505
Si Si6 0.536082 0.380126 0.870170
O O1 0.426424 0.500000 0.250000
O O2 0.339719 0.354679 0.290068
O O3 0.421223 0.217178 0.327381
O O4 0.394905 0.338413 0.025103
O O5 0.240502 0.500000 0.750000
O O6 0.250000 0.357512 0.500000
O O7 0.246200 0.196496 0.720254
O O8 0.332520 0.714757 0.716891
O O9 0.315662 0.000000 0.750000
O O10 0.341049 0.858111 0.981689
O O11 0.573503 0.721985 0.738570
O O12 0.604589 0.000000 0.750000
O O13 0.369438 0.000000 0.250000
O O14 0.427629 0.026188 0.991906
O O15 0.500000 0.250000 0.942335
O O16 0.510994 0.500000 0.750000
#
# Coordination Sequence:
#
# PCOD9336740 Si02
#       6
#     8   8   8   8   8   8
#     4  11  25  43  72 106 148 203 248 308 371 446
#     4  11  26  43  62 103 150 193 255 308 357 426
#     4  12  23  44  70 102 145 200 248 302 365 443
#     4  12  24  44  77 106 142 198 255 304 385 461
#     4  12  22  47  76 105 153 189 245 311 380 459
#     4  12  26  50  77 111 145 191 251 318 389 471
#
# _framework density 24.533282
#
# number of rings (size 3 to 8) (size 9 to 14) (size 15 to 20)
#    0.000    0.333    6.667    2.000    7.000    0.667 
#    3.000    1.667    0.000    0.000    0.000    0.000 
#    0.000    0.000    0.000    0.000    0.000    0.000 
#
# Total GULP energy -133622.211629 kJ/mol
# GULP energy per Si atom -5567.592151 kJ/mol
# Density = 2.447744 g / cm^3
# Si number density = 24.533282 Si / 1000 Ang^3
#
#
#
# Elastic Constant Matrix: (Units=GPa)
#
#
# Indices 1 2 3 4 5 6 
#
# 1 61.9793 21.8794 -7.7331 0.0000 0.0000 0.0000
# 2 21.8794 207.2868 47.2822 0.0000 0.0000 0.0000
# 3 -7.7331 47.2822 50.8764 0.0000 0.0000 0.0000
# 4 0.0000 0.0000 0.0000 42.6614 0.0000 0.0000
# 5 0.0000 0.0000 0.0000 0.0000 9.2038 0.0000
# 6 0.0000 0.0000 0.0000 0.0000 0.0000 50.4688
#
#
#
# Elastic Compliance Matrix: (Units=1/GPa)
#
#
# Indices 1 2 3 4 5 6 
#
# 1 0.017975 -0.003199 0.005705 0.000000 0.000000 0.000000
# 2 -0.003199 0.006691 -0.006705 0.000000 0.000000 0.000000
# 3 0.005705 -0.006705 0.026754 0.000000 0.000000 0.000000
# 4 0.000000 0.000000 0.000000 0.023440 0.000000 0.000000
# 5 0.000000 0.000000 0.000000 0.000000 0.108650 0.000000
# 6 0.000000 0.000000 0.000000 0.000000 0.000000 0.019814
#
#
# Mechanical properties :
#
#
# Convention : Reuss Voigt Hill
#
# Bulk Modulus (GPa) = 23.24320 49.22216 36.23268
# Shear Modulus (GPa) = 22.11771 37.71441 29.91606
#
# Velocity S-wave (km/s) = 3.00582 3.92506 3.49579
# Velocity P-wave (km/s) = 4.64126 6.37562 5.57628
#
# Compressibility (1/GPa) = 0.04302333
#
# Stress axis : x y z
#
# Youngs Moduli (GPa) = 55.63176 149.45035 37.37812
#
# Poissons Ratio (x) = 0.47803 -0.21324
# Poissons Ratio (y) = 0.17794 0.25061
# Poissons Ratio (z) = -0.31737 1.00201
#
# Static dielectric constant tensor:
#      x y z
#    x 2.183900 0.000000 0.000000 
#    y 0.000000 1.729660 0.000000 
#    z 0.000000 0.000000 2.110750 
# 
# From -- ./inp_files/16824.got.cif
#   From: 2010.05.17/outbox.cif.g08.bks.cpg/sg24_9_cif.got.tgz:16824.got - 2010.06.04 00:33:39.
