data_PCOD9336412
_publ_section_title
;
Structure prediction by ZEFSAII (Michael W. Deem and Ramdas Pophale) SiO2 
 PCOD9336412
Probable space group: I 21 21 21
;
_chemical_formula_sum "Si O2"
_cell_formula_units_Z 32
_cell_length_a 5.361629
_cell_length_b 10.955234
_cell_length_c 21.674512
_cell_angle_alpha 90.000000
_cell_angle_beta 90.000000
_cell_angle_gamma 90.000000
_cell_volume 1273.115325
_symmetry_space_group_name_H-M "I 21 21 21"
_symmetry_group_IT_number 24
_symmetry_cell_setting 'orthorhombic'
loop_
_space_group_symop_operation_xyz
x,y,z
-x,1/2-y,z
x,-y,1/2-z
1/2-x,y,-z
1/2+x,1/2+y,1/2+z
1/2-x,-y,1/2+z
1/2+x,1/2-y,-z
-x,1/2+y,1/2-z
loop_
_atom_site_type_symbol
_atom_site_label
_atom_site_fract_x
_atom_site_fract_y
_atom_site_fract_z
Si Si1 0.798212 0.409934 0.070048
Si Si2 0.750199 0.701260 0.069794
Si Si3 0.129381 0.378349 0.274987
Si Si4 0.805918 0.087838 0.853663
O O1 0.774504 0.557010 0.066675
O O2 0.562012 0.380642 0.112833
O O3 0.067490 0.383811 0.101677
O O4 0.750000 0.363447 0.000000
O O5 0.500000 0.750000 0.099154
O O6 0.000000 0.750000 0.097868
O O7 0.750000 0.754319 0.000000
O O8 0.970356 0.500000 0.250000
O O9 0.271955 0.445676 0.331217
O O10 0.290694 0.352608 0.213656
O O11 0.000000 0.250000 0.284842
#
# Coordination Sequence:
#
# PCOD9336412 Si02
#       4
#     8   8   8   8
#     4  11  20  36  56  90 135 178 222 275 339 420
#     4   9  17  27  41  66 106 158 205 245 302 374
#     4   8  20  42  70  98 136 174 237 295 357 405
#     4   9  22  36  63  94 130 174 225 282 346 407
#
# _framework density 25.135196000000001
#
# number of rings (size 3 to 8) (size 9 to 14) (size 15 to 20)
#    1.500    1.000    0.000    2.250    0.000   11.000 
#    0.000    3.750    0.000    3.000    0.000    0.000 
#    0.000    0.000    0.000    0.000    0.000    0.000 
#
# Total GULP energy -89140.223473 kJ/mol
# GULP energy per Si atom -5571.263967 kJ/mol
# Density = 2.507799 g / cm^3
# Si number density = 25.135196 Si / 1000 Ang^3
#
#
#
# Elastic Constant Matrix: (Units=GPa)
#
#
# Indices 1 2 3 4 5 6 
#
# 1 161.9758 -0.3642 53.8397 0.0000 0.0000 0.0000
# 2 -0.3642 103.5504 3.2428 0.0000 0.0000 0.0000
# 3 53.8397 3.2428 158.5430 0.0000 0.0000 0.0000
# 4 0.0000 0.0000 0.0000 15.0404 0.0000 0.0000
# 5 0.0000 0.0000 0.0000 0.0000 22.0000 0.0000
# 6 0.0000 0.0000 0.0000 0.0000 0.0000 11.8529
#
#
#
# Elastic Compliance Matrix: (Units=1/GPa)
#
#
# Indices 1 2 3 4 5 6 
#
# 1 0.006960 0.000099 -0.002366 0.000000 0.000000 0.000000
# 2 0.000099 0.009665 -0.000231 0.000000 0.000000 0.000000
# 3 -0.002366 -0.000231 0.007116 0.000000 0.000000 0.000000
# 4 0.000000 0.000000 0.000000 0.066488 0.000000 0.000000
# 5 0.000000 0.000000 0.000000 0.000000 0.045454 0.000000
# 6 0.000000 0.000000 0.000000 0.000000 0.000000 0.084367
#
#
# Mechanical properties :
#
#
# Convention : Reuss Voigt Hill
#
# Bulk Modulus (GPa) = 53.35028 59.72286 56.53657
# Shear Modulus (GPa) = 21.61745 34.26872 27.94308
#
# Velocity S-wave (km/s) = 2.93584 3.69640 3.33785
# Velocity P-wave (km/s) = 5.72395 6.48306 6.11529
#
# Compressibility (1/GPa) = 0.01874404
#
# Stress axis : x y z
#
# Youngs Moduli (GPa) = 143.67155 103.46908 140.53769
#
# Poissons Ratio (x) = -0.01020 0.33247
# Poissons Ratio (y) = -0.01416 0.03249
# Poissons Ratio (z) = 0.33988 0.02392
#
# Static dielectric constant tensor:
#      x y z
#    x 2.074250 0.000000 0.000000 
#    y 0.000000 2.041590 0.000000 
#    z 0.000000 0.000000 2.047910 
# 
# From -- ./inp_files/31892.got.cif
#   From: 2010.05.17/outbox.cif.g08.bks.cpg/sg24_16_cif.got.tgz:31892.got - 2010.06.04 00:33:39.
