data_PCOD9336122
_publ_section_title
;
Structure prediction by ZEFSAII (Michael W. Deem and Ramdas Pophale) SiO2 
 PCOD9336122
Probable space group: I 21 21 21
;
_chemical_formula_sum "Si O2"
_cell_formula_units_Z 28
_cell_length_a 27.141626
_cell_length_b 5.118975
_cell_length_c 8.875201
_cell_angle_alpha 90.000000
_cell_angle_beta 90.000000
_cell_angle_gamma 90.000000
_cell_volume 1233.096508
_symmetry_space_group_name_H-M "I 21 21 21"
_symmetry_group_IT_number 24
_symmetry_cell_setting 'orthorhombic'
loop_
_space_group_symop_operation_xyz
x,y,z
-x,1/2-y,z
x,-y,1/2-z
1/2-x,y,-z
1/2+x,1/2+y,1/2+z
1/2-x,-y,1/2+z
1/2+x,1/2-y,-z
-x,1/2+y,1/2-z
loop_
_atom_site_type_symbol
_atom_site_label
_atom_site_fract_x
_atom_site_fract_y
_atom_site_fract_z
Si Si1 0.897276 0.090397 0.576886
Si Si2 0.703804 0.418132 0.422211
Si Si3 0.347175 0.252847 0.852623
Si Si4 0.000000 0.750000 0.858499
O O1 0.847721 0.262655 0.568192
O O2 0.949297 0.229022 0.549523
O O3 0.898747 0.000000 0.750000
O O4 0.890875 0.854746 0.459795
O O5 0.712729 0.500000 0.250000
O O6 0.750000 0.276541 0.500000
O O7 0.694636 0.665525 0.530654
O O8 0.333487 0.500000 0.750000
O O9 0.358086 0.000000 0.750000
O O10 0.995113 0.500000 0.750000
#
# Coordination Sequence:
#
# PCOD9336122 Si02
#       4
#     8   8   8   4
#     4  11  24  48  81 113 152 195 263 315 379 448
#     4  12  26  47  76 111 151 204 257 314 378 450
#     4  12  26  47  75 107 154 197 245 313 377 451
#     4  10  24  42  82 118 148 192 258 322 374 444
#
# _framework density 22.707063999999999
#
# number of rings (size 3 to 8) (size 9 to 14) (size 15 to 20)
#    0.000    0.571    5.714    1.714    4.000    1.143 
#    5.143    0.000    6.286    0.000    0.000    0.000 
#    0.000    0.000    0.000    0.000    0.000    0.000 
#
# Total GULP energy -78280.965397 kJ/mol
# GULP energy per Si atom -5591.497528 kJ/mol
# Density = 2.265538 g / cm^3
# Si number density = 22.707064 Si / 1000 Ang^3
#
#
#
# Elastic Constant Matrix: (Units=GPa)
#
#
# Indices 1 2 3 4 5 6 
#
# 1 210.1623 54.5293 57.4420 0.0000 0.0000 0.0000
# 2 54.5293 137.3872 65.3660 0.0000 0.0000 0.0000
# 3 57.4420 65.3660 176.0374 0.0000 0.0000 0.0000
# 4 0.0000 0.0000 0.0000 35.6266 0.0000 0.0000
# 5 0.0000 0.0000 0.0000 0.0000 25.8948 0.0000
# 6 0.0000 0.0000 0.0000 0.0000 0.0000 36.5194
#
#
#
# Elastic Compliance Matrix: (Units=1/GPa)
#
#
# Indices 1 2 3 4 5 6 
#
# 1 0.005504 -0.001616 -0.001196 0.000000 0.000000 0.000000
# 2 -0.001616 0.009315 -0.002932 0.000000 0.000000 0.000000
# 3 -0.001196 -0.002932 0.007159 0.000000 0.000000 0.000000
# 4 0.000000 0.000000 0.000000 0.028069 0.000000 0.000000
# 5 0.000000 0.000000 0.000000 0.000000 0.038618 0.000000
# 6 0.000000 0.000000 0.000000 0.000000 0.000000 0.027383
#
#
# Mechanical properties :
#
#
# Convention : Reuss Voigt Hill
#
# Bulk Modulus (GPa) = 95.31181 97.58459 96.44820
# Shear Modulus (GPa) = 38.15864 42.69146 40.42505
#
# Velocity S-wave (km/s) = 4.10381 4.34071 4.22392
# Velocity P-wave (km/s) = 8.03247 8.25779 8.14591
#
# Compressibility (1/GPa) = 0.01049188
#
# Stress axis : x y z
#
# Youngs Moduli (GPa) = 181.67429 107.35731 139.67493
#
# Poissons Ratio (x) = 0.17344 0.16708
# Poissons Ratio (y) = 0.29351 0.40946
# Poissons Ratio (z) = 0.21732 0.31472
#
# Static dielectric constant tensor:
#      x y z
#    x 1.909900 0.000000 0.000000 
#    y 0.000000 1.924100 0.000000 
#    z 0.000000 0.000000 1.866290 
# 
# From -- ./inp_files/996.got.cif
#   From: 2010.05.17/outbox.cif.g08.bks.cpg/sg24_1_cif.got.tgz:996.got - 2010.06.04 00:33:39.
