data_PCOD9336105
_publ_section_title
;
Structure prediction by ZEFSAII (Michael W. Deem and Ramdas Pophale) SiO2 
 PCOD9336105
Probable space group: I 21 21 21
;
_chemical_formula_sum "Si O2"
_cell_formula_units_Z 40
_cell_length_a 16.462094
_cell_length_b 20.425036
_cell_length_c 4.879876
_cell_angle_alpha 90.000000
_cell_angle_beta 90.000000
_cell_angle_gamma 90.000000
_cell_volume 1640.803956
_symmetry_space_group_name_H-M "I 21 21 21"
_symmetry_group_IT_number 24
_symmetry_cell_setting 'orthorhombic'
loop_
_space_group_symop_operation_xyz
x,y,z
-x,1/2-y,z
x,-y,1/2-z
1/2-x,y,-z
1/2+x,1/2+y,1/2+z
1/2-x,-y,1/2+z
1/2+x,1/2-y,-z
-x,1/2+y,1/2-z
loop_
_atom_site_type_symbol
_atom_site_label
_atom_site_fract_x
_atom_site_fract_y
_atom_site_fract_z
Si Si1 0.750000 0.949875 0.000000
Si Si2 0.500000 0.750000 0.048858
Si Si3 0.952073 0.427081 0.298877
Si Si4 0.602030 0.639822 0.303842
Si Si5 0.750000 0.307082 0.500000
Si Si6 0.111686 0.640117 0.256585
Si Si7 0.750000 0.209949 0.000000
O O1 0.675833 0.900757 0.926373
O O2 0.766797 0.000000 0.750000
O O3 0.557226 0.707574 0.243960
O O4 0.441905 0.700168 0.876084
O O5 0.925791 0.500000 0.250000
O O6 0.947706 0.411547 0.619101
O O7 0.041110 0.411818 0.179858
O O8 0.896297 0.378457 0.119263
O O9 0.686960 0.646952 0.154972
O O10 0.769921 0.255874 0.257201
O O11 0.168218 0.666344 0.504341
#
# Coordination Sequence:
#
# PCOD9336105 Si02
#       7
#     4   4   8   8   4   8   4
#     4  12  28  50  74 106 156 216 278 316 384 468
#     4  10  24  42  68 110 148 192 246 310 396 450
#     4  11  26  47  71 102 143 197 251 307 365 444
#     4  11  25  44  72 102 146 184 246 306 378 450
#     4  12  25  44  68 106 144 187 232 304 376 466
#     4  11  26  45  73 111 149 203 250 321 379 468
#     4  12  25  42  70 106 150 185 238 294 384 454
#
# _framework density 24.378291999999998
#
# number of rings (size 3 to 8) (size 9 to 14) (size 15 to 20)
#    0.000    0.800    2.000    3.600    5.600    8.800 
#    0.000    2.000    0.000    0.000    0.000    0.000 
#    0.000    0.000    0.000    0.000    0.000    0.000 
#
# Total GULP energy -111823.986000 kJ/mol
# GULP energy per Si atom -5591.199300 kJ/mol
# Density = 2.432281 g / cm^3
# Si number density = 24.378292 Si / 1000 Ang^3
#
#
#
# Elastic Constant Matrix: (Units=GPa)
#
#
# Indices 1 2 3 4 5 6 
#
# 1 110.0764 19.3161 17.9337 0.0000 0.0000 0.0000
# 2 19.3161 88.3556 14.2067 0.0000 0.0000 0.0000
# 3 17.9337 14.2067 97.2835 0.0000 0.0000 0.0000
# 4 0.0000 0.0000 0.0000 21.4958 0.0000 0.0000
# 5 0.0000 0.0000 0.0000 0.0000 32.8163 0.0000
# 6 0.0000 0.0000 0.0000 0.0000 0.0000 15.7912
#
#
#
# Elastic Compliance Matrix: (Units=1/GPa)
#
#
# Indices 1 2 3 4 5 6 
#
# 1 0.009658 -0.001869 -0.001507 0.000000 0.000000 0.000000
# 2 -0.001869 0.011952 -0.001401 0.000000 0.000000 0.000000
# 3 -0.001507 -0.001401 0.010762 0.000000 0.000000 0.000000
# 4 0.000000 0.000000 0.000000 0.046521 0.000000 0.000000
# 5 0.000000 0.000000 0.000000 0.000000 0.030473 0.000000
# 6 0.000000 0.000000 0.000000 0.000000 0.000000 0.063327
#
#
# Mechanical properties :
#
#
# Convention : Reuss Voigt Hill
#
# Bulk Modulus (GPa) = 43.82714 44.29205 44.05960
# Shear Modulus (GPa) = 26.33632 30.30459 28.32045
#
# Velocity S-wave (km/s) = 3.29039 3.52958 3.41208
# Velocity P-wave (km/s) = 5.69671 5.90074 5.79962
#
# Compressibility (1/GPa) = 0.02281691
#
# Stress axis : x y z
#
# Youngs Moduli (GPa) = 103.53917 83.66978 92.92214
#
# Poissons Ratio (x) = 0.15638 0.14008
# Poissons Ratio (y) = 0.19352 0.13017
# Poissons Ratio (z) = 0.15608 0.11720
#
# Static dielectric constant tensor:
#      x y z
#    x 1.985470 0.000000 0.000000 
#    y 0.000000 1.942360 0.000000 
#    z 0.000000 0.000000 1.920210 
# 
# From -- ./inp_files/4716.got.cif
#   From: 2010.05.17/outbox.cif.g08.bks.cpg/sg24_3_cif.got.tgz:4716.got - 2010.06.04 00:33:39.
