data_PCOD9336773
_publ_section_title
;
Structure prediction by ZEFSAII (Michael W. Deem and Ramdas Pophale) SiO2 
 PCOD9336773
Probable space group: I 21 21 21
;
_chemical_formula_sum "Si O2"
_cell_formula_units_Z 60
_cell_length_a 27.651550
_cell_length_b 11.559668
_cell_length_c 8.703685
_cell_angle_alpha 90.000000
_cell_angle_beta 90.000000
_cell_angle_gamma 90.000000
_cell_volume 2782.069701
_symmetry_space_group_name_H-M "I 21 21 21"
_symmetry_group_IT_number 24
_symmetry_cell_setting 'orthorhombic'
loop_
_space_group_symop_operation_xyz
x,y,z
-x,1/2-y,z
x,-y,1/2-z
1/2-x,y,-z
1/2+x,1/2+y,1/2+z
1/2-x,-y,1/2+z
1/2+x,1/2-y,-z
-x,1/2+y,1/2-z
loop_
_atom_site_type_symbol
_atom_site_label
_atom_site_fract_x
_atom_site_fract_y
_atom_site_fract_z
Si Si1 0.521146 0.620534 0.812354
Si Si2 0.706081 0.195592 0.295552
Si Si3 0.655935 0.894489 0.509266
Si Si4 0.988487 0.876676 0.840541
Si Si5 0.276081 0.121518 0.832624
Si Si6 0.727741 0.000000 0.750000
Si Si7 0.884197 0.280413 0.200110
Si Si8 0.382459 0.650501 0.022008
O O1 0.500000 0.750000 0.777018
O O2 0.497591 0.500000 0.750000
O O3 0.573335 0.629126 0.729595
O O4 0.519074 0.613885 0.998788
O O5 0.744033 0.295724 0.273723
O O6 0.736759 0.083426 0.343404
O O7 0.660310 0.223042 0.399437
O O8 0.684076 0.161355 0.130812
O O9 0.612574 0.810835 0.561177
O O10 0.694002 0.918800 0.646489
O O11 0.635858 0.019615 0.472291
O O12 0.933299 0.855899 0.893595
O O13 0.000000 0.750000 0.764456
O O14 0.993206 0.000000 0.750000
O O15 0.331749 0.163620 0.831685
O O16 0.275192 0.000000 0.750000
O O17 0.250000 0.120114 0.000000
O O18 0.886482 0.200431 0.351958
#
# Coordination Sequence:
#
# PCOD9336773 Si02
#       8
#     8   8   8   8   8   4   8   8
#     4  11  26  50  77 112 141 186 250 311 376 448
#     4  12  24  41  63 102 144 181 236 289 352 432
#     4  12  22  39  67 104 143 187 230 293 358 436
#     4  11  25  51  76 108 151 190 248 309 383 459
#     4  12  27  48  68  99 142 198 250 293 361 443
#     4  12  20  34  66  96 138 174 222 280 348 410
#     4  12  24  45  73  99 149 183 241 305 364 437
#     4  12  24  42  71 110 140 189 233 304 369 443
#
# _framework density 21.566676000000001
#
# number of rings (size 3 to 8) (size 9 to 14) (size 15 to 20)
#    0.000    0.267    8.000    1.600    3.733    1.600 
#    2.400    0.667    0.000    0.000    0.000    0.000 
#    0.000    0.000    0.000    0.000    0.000    0.000 
#
# Total GULP energy -167516.553902 kJ/mol
# GULP energy per Si atom -5583.885130 kJ/mol
# Density = 2.151759 g / cm^3
# Si number density = 21.566676 Si / 1000 Ang^3
#
#
#
# Elastic Constant Matrix: (Units=GPa)
#
#
# Indices 1 2 3 4 5 6 
#
# 1 99.8469 24.9559 15.5744 0.0000 0.0000 0.0000
# 2 24.9559 140.8225 20.9002 0.0000 0.0000 0.0000
# 3 15.5744 20.9002 47.0792 0.0000 0.0000 0.0000
# 4 0.0000 0.0000 0.0000 31.1526 0.0000 0.0000
# 5 0.0000 0.0000 0.0000 0.0000 31.1859 0.0000
# 6 0.0000 0.0000 0.0000 0.0000 0.0000 28.4831
#
#
#
# Elastic Compliance Matrix: (Units=1/GPa)
#
#
# Indices 1 2 3 4 5 6 
#
# 1 0.010844 -0.001487 -0.002927 0.000000 0.000000 0.000000
# 2 -0.001487 0.007806 -0.002973 0.000000 0.000000 0.000000
# 3 -0.002927 -0.002973 0.023529 0.000000 0.000000 0.000000
# 4 0.000000 0.000000 0.000000 0.032100 0.000000 0.000000
# 5 0.000000 0.000000 0.000000 0.000000 0.032066 0.000000
# 6 0.000000 0.000000 0.000000 0.000000 0.000000 0.035109
#
#
# Mechanical properties :
#
#
# Convention : Reuss Voigt Hill
#
# Bulk Modulus (GPa) = 36.49169 45.62330 41.05749
# Shear Modulus (GPa) = 30.23658 33.25221 31.74439
#
# Velocity S-wave (km/s) = 3.74840 3.93088 3.84072
# Velocity P-wave (km/s) = 5.97420 6.46551 6.22471
#
# Compressibility (1/GPa) = 0.02740350
#
# Stress axis : x y z
#
# Youngs Moduli (GPa) = 92.22018 128.10665 42.50066
#
# Poissons Ratio (x) = 0.19053 0.12440
# Poissons Ratio (y) = 0.13715 0.12637
# Poissons Ratio (z) = 0.26992 0.38091
#
# Static dielectric constant tensor:
#      x y z
#    x 1.839970 0.000000 0.000000 
#    y 0.000000 1.762950 0.000000 
#    z 0.000000 0.000000 1.788440 
# 
# From -- ./inp_files/16442.got.cif
#   From: 2010.05.17/outbox.cif.g08.bks.cpg/sg24_9_cif.got.tgz:16442.got - 2010.06.04 00:33:39.
