data_PCOD9336689
_publ_section_title
;
Structure prediction by ZEFSAII (Michael W. Deem and Ramdas Pophale) SiO2 
 PCOD9336689
Probable space group: I 21 21 21
;
_chemical_formula_sum "Si O2"
_cell_formula_units_Z 64
_cell_length_a 11.318840
_cell_length_b 8.124176
_cell_length_c 30.682146
_cell_angle_alpha 90.000000
_cell_angle_beta 90.000000
_cell_angle_gamma 90.000000
_cell_volume 2821.415035
_symmetry_space_group_name_H-M "I 21 21 21"
_symmetry_group_IT_number 24
_symmetry_cell_setting 'orthorhombic'
loop_
_space_group_symop_operation_xyz
x,y,z
-x,1/2-y,z
x,-y,1/2-z
1/2-x,y,-z
1/2+x,1/2+y,1/2+z
1/2-x,-y,1/2+z
1/2+x,1/2-y,-z
-x,1/2+y,1/2-z
loop_
_atom_site_type_symbol
_atom_site_label
_atom_site_fract_x
_atom_site_fract_y
_atom_site_fract_z
Si Si1 0.120091 0.142528 0.876379
Si Si2 0.746662 0.546022 0.798808
Si Si3 0.981488 0.059833 0.079880
Si Si4 0.735411 0.472459 0.951160
Si Si5 0.723253 0.065821 0.296759
Si Si6 0.933472 0.909577 0.874837
Si Si7 0.015497 0.436531 0.184243
Si Si8 0.253102 0.357837 0.549873
O O1 0.000000 0.250000 0.868905
O O2 0.190354 0.076730 0.833704
O O3 0.214910 0.160674 0.915435
O O4 0.049187 0.988744 0.895424
O O5 0.782603 0.500000 0.750000
O O6 0.776296 0.737834 0.804080
O O7 0.604627 0.529201 0.802998
O O8 0.979643 0.065501 0.132109
O O9 0.000000 0.250000 0.064584
O O10 0.875136 0.940911 0.066175
O O11 0.102317 0.986696 0.062685
O O12 0.777481 0.662378 0.952094
O O13 0.750000 0.405088 0.000000
O O14 0.637985 0.003674 0.335290
O O15 0.680644 0.000000 0.250000
O O16 0.858810 0.006578 0.300881
O O17 0.840887 0.909699 0.913674
O O18 0.000000 0.750000 0.855587
O O19 0.000000 0.250000 0.200890
O O20 0.250000 0.416448 0.500000
#
# Coordination Sequence:
#
# PCOD9336689 Si02
#       8
#     8   8   8   8   8   8   8   8
#     4  12  29  47  74 103 146 200 241 305 367 439
#     4  12  26  47  71 105 142 186 246 303 367 436
#     4  11  25  42  71 104 142 184 235 299 360 428
#     4  11  25  46  72 107 143 187 244 300 366 439
#     4  12  26  45  74 105 141 188 240 305 370 440
#     4  12  25  49  70 101 144 192 245 292 366 438
#     4  11  24  44  73 104 141 182 235 297 365 431
#     4  11  25  44  75 106 141 189 242 301 362 443
#
# _framework density 22.683651999999999
#
# number of rings (size 3 to 8) (size 9 to 14) (size 15 to 20)
#    0.000    0.500    5.000    1.875    7.000    2.500 
#    0.000    0.000    0.000    0.000    0.000    0.000 
#    0.000    0.000    0.000    0.000    0.000    0.000 
#
# Total GULP energy -178182.844912 kJ/mol
# GULP energy per Si atom -5568.213903 kJ/mol
# Density = 2.263202 g / cm^3
# Si number density = 22.683652 Si / 1000 Ang^3
#
#
#
# Elastic Constant Matrix: (Units=GPa)
#
#
# Indices 1 2 3 4 5 6 
#
# 1 118.5545 7.6317 52.1213 0.0000 0.0000 0.0000
# 2 7.6317 50.6072 16.5372 0.0000 0.0000 0.0000
# 3 52.1213 16.5372 157.3909 0.0000 0.0000 0.0000
# 4 0.0000 0.0000 0.0000 24.8331 0.0000 0.0000
# 5 0.0000 0.0000 0.0000 0.0000 21.5264 0.0000
# 6 0.0000 0.0000 0.0000 0.0000 0.0000 50.2852
#
#
#
# Elastic Compliance Matrix: (Units=1/GPa)
#
#
# Indices 1 2 3 4 5 6 
#
# 1 0.009882 -0.000436 -0.003227 0.000000 0.000000 0.000000
# 2 -0.000436 0.020482 -0.002008 0.000000 0.000000 0.000000
# 3 -0.003227 -0.002008 0.007633 0.000000 0.000000 0.000000
# 4 0.000000 0.000000 0.000000 0.040269 0.000000 0.000000
# 5 0.000000 0.000000 0.000000 0.000000 0.046455 0.000000
# 6 0.000000 0.000000 0.000000 0.000000 0.000000 0.019887
#
#
# Mechanical properties :
#
#
# Convention : Reuss Voigt Hill
#
# Bulk Modulus (GPa) = 37.51469 53.23702 45.37585
# Shear Modulus (GPa) = 30.33393 36.01311 33.17352
#
# Velocity S-wave (km/s) = 3.66082 3.98882 3.82834
# Velocity P-wave (km/s) = 5.86881 6.68839 6.29196
#
# Compressibility (1/GPa) = 0.02665623
#
# Stress axis : x y z
#
# Youngs Moduli (GPa) = 101.19912 48.82379 131.00908
#
# Poissons Ratio (x) = 0.02128 0.42271
# Poissons Ratio (y) = 0.04410 0.26303
# Poissons Ratio (z) = 0.32652 0.09802
#
# Static dielectric constant tensor:
#      x y z
#    x 1.802270 0.000000 0.000000 
#    y 0.000000 1.921080 0.000000 
#    z 0.000000 0.000000 1.825570 
# 
# From -- ./inp_files/38612.got.cif
#   From: 2010.05.17/outbox.cif.g08.bks.cpg/sg24_20_cif.got.tgz:38612.got - 2010.06.04 00:33:39.
