data_PCOD9336667
_publ_section_title
;
Structure prediction by ZEFSAII (Michael W. Deem and Ramdas Pophale) SiO2 
 PCOD9336667
Probable space group: I 21 21 21
;
_chemical_formula_sum "Si O2"
_cell_formula_units_Z 56
_cell_length_a 8.304751
_cell_length_b 14.601962
_cell_length_c 19.979585
_cell_angle_alpha 90.000000
_cell_angle_beta 90.000000
_cell_angle_gamma 90.000000
_cell_volume 2422.837532
_symmetry_space_group_name_H-M "I 21 21 21"
_symmetry_group_IT_number 24
_symmetry_cell_setting 'orthorhombic'
loop_
_space_group_symop_operation_xyz
x,y,z
-x,1/2-y,z
x,-y,1/2-z
1/2-x,y,-z
1/2+x,1/2+y,1/2+z
1/2-x,-y,1/2+z
1/2+x,1/2-y,-z
-x,1/2+y,1/2-z
loop_
_atom_site_type_symbol
_atom_site_label
_atom_site_fract_x
_atom_site_fract_y
_atom_site_fract_z
Si Si1 0.442613 0.147675 0.370781
Si Si2 0.407306 0.842911 0.634503
Si Si3 0.456655 0.155444 0.097867
Si Si4 0.406827 0.608829 0.259925
Si Si5 0.402813 0.947939 0.901149
Si Si6 0.553620 0.847220 0.781469
Si Si7 0.574173 0.020873 0.471580
O O1 0.500000 0.250000 0.389565
O O2 0.453233 0.141187 0.290348
O O3 0.271854 0.101222 0.392461
O O4 0.575632 0.081576 0.404579
O O5 0.500000 0.750000 0.612023
O O6 0.218728 0.827598 0.627529
O O7 0.462017 0.858668 0.711078
O O8 0.420307 0.941295 0.598182
O O9 0.500000 0.250000 0.062607
O O10 0.563817 0.134404 0.163385
O O11 0.477881 0.070023 0.049387
O O12 0.396064 0.500000 0.250000
O O13 0.241046 0.651887 0.234926
O O14 0.505148 0.919998 0.836557
O O15 0.480559 0.921483 0.971846
O O16 0.500000 0.750000 0.810387
O O17 0.750000 0.998648 0.500000
#
# Coordination Sequence:
#
# PCOD9336667 Si02
#       7
#     8   8   8   8   8   8   8
#     4  12  26  48  77 112 148 197 255 317 388 460
#     4  11  24  43  74 111 147 190 250 308 388 454
#     4  12  26  47  73 107 150 198 252 317 378 453
#     4  12  22  43  76 108 151 193 244 316 389 447
#     4  12  25  47  73 102 157 200 250 312 382 449
#     4  11  24  41  71 114 147 191 249 313 384 459
#     4  12  29  48  71 104 151 207 261 310 376 453
#
# _framework density 23.113392999999999
#
# number of rings (size 3 to 8) (size 9 to 14) (size 15 to 20)
#    0.000    0.286    2.857    6.429    4.000    2.286 
#    0.000    0.000    0.000    0.000    0.000    0.000 
#    0.000    0.000    0.000    0.000    0.000    0.000 
#
# Total GULP energy -156571.792479 kJ/mol
# GULP energy per Si atom -5591.849731 kJ/mol
# Density = 2.306079 g / cm^3
# Si number density = 23.113393 Si / 1000 Ang^3
#
#
#
# Elastic Constant Matrix: (Units=GPa)
#
#
# Indices 1 2 3 4 5 6 
#
# 1 128.7735 25.9747 35.9431 0.0000 0.0000 0.0000
# 2 25.9747 151.9282 18.3076 0.0000 0.0000 0.0000
# 3 35.9431 18.3076 100.6390 0.0000 0.0000 0.0000
# 4 0.0000 0.0000 0.0000 -25.6482 0.0000 0.0000
# 5 0.0000 0.0000 0.0000 0.0000 -4.2307 0.0000
# 6 0.0000 0.0000 0.0000 0.0000 0.0000 38.0660
#
#
#
# Elastic Compliance Matrix: (Units=1/GPa)
#
#
# Indices 1 2 3 4 5 6 
#
# 1 0.008819 -0.001153 -0.002940 0.000000 0.000000 0.000000
# 2 -0.001153 0.006880 -0.000840 0.000000 0.000000 0.000000
# 3 -0.002940 -0.000840 0.011139 0.000000 0.000000 0.000000
# 4 0.000000 0.000000 0.000000 -0.038989 0.000000 0.000000
# 5 0.000000 0.000000 0.000000 0.000000 -0.236368 0.000000
# 6 0.000000 0.000000 0.000000 0.000000 0.000000 0.026270
#
#
# Mechanical properties :
#
#
# Convention : Reuss Voigt Hill
#
# Bulk Modulus (GPa) = 58.91871 60.19907 59.55889
# Shear Modulus (GPa) = -24.18672 21.71178 -1.23747
#
# Velocity S-wave (km/s) = -3.23838 3.06822 -0.73250
# Velocity P-wave (km/s) = 3.40055 6.21720 5.01085
#
# Compressibility (1/GPa) = 0.01697254
#
# Stress axis : x y z
#
# Youngs Moduli (GPa) = 113.39429 145.33946 89.77313
#
# Poissons Ratio (x) = 0.16764 0.26391
# Poissons Ratio (y) = 0.13080 0.07538
# Poissons Ratio (z) = 0.33335 0.12204
#
# Static dielectric constant tensor:
#      x y z
#    x 1.878560 0.000000 0.000000 
#    y 0.000000 1.942970 0.000000 
#    z 0.000000 0.000000 1.833810 
# 
# From -- ./inp_files/32821.got.cif
#   From: 2010.05.17/outbox.cif.g08.bks.cpg/sg24_17_cif.got.tgz:32821.got - 2010.06.04 00:33:39.
