data_PCOD9336595
_publ_section_title
;
Structure prediction by ZEFSAII (Michael W. Deem and Ramdas Pophale) SiO2 
 PCOD9336595
Probable space group: I 21 21 21
;
_chemical_formula_sum "Si O2"
_cell_formula_units_Z 44
_cell_length_a 14.696308
_cell_length_b 16.656460
_cell_length_c 9.931099
_cell_angle_alpha 90.000000
_cell_angle_beta 90.000000
_cell_angle_gamma 90.000000
_cell_volume 2431.018493
_symmetry_space_group_name_H-M "I 21 21 21"
_symmetry_group_IT_number 24
_symmetry_cell_setting 'orthorhombic'
loop_
_space_group_symop_operation_xyz
x,y,z
-x,1/2-y,z
x,-y,1/2-z
1/2-x,y,-z
1/2+x,1/2+y,1/2+z
1/2-x,-y,1/2+z
1/2+x,1/2-y,-z
-x,1/2+y,1/2-z
loop_
_atom_site_type_symbol
_atom_site_label
_atom_site_fract_x
_atom_site_fract_y
_atom_site_fract_z
Si Si1 0.576474 0.000000 0.750000
Si Si2 0.730636 0.125278 0.842438
Si Si3 0.000000 0.250000 0.442907
Si Si4 0.496828 0.577017 0.019475
Si Si5 0.300691 0.059856 0.372513
Si Si6 0.121065 0.500000 0.750000
Si Si7 0.297169 0.770919 0.857701
O O1 0.642082 0.069078 0.813413
O O2 0.518797 0.040718 0.629778
O O3 0.722800 0.206821 0.758065
O O4 0.814539 0.074098 0.785846
O O5 0.750000 0.138401 0.000000
O O6 0.031878 0.329597 0.520766
O O7 0.907176 0.276535 0.367927
O O8 0.599134 0.577836 0.073084
O O9 0.438587 0.524453 0.122358
O O10 0.250000 0.022070 0.500000
O O11 0.247973 0.141932 0.335195
O O12 0.303970 0.000000 0.250000
O O13 0.250000 0.744282 0.000000
#
# Coordination Sequence:
#
# PCOD9336595 Si02
#       7
#     4   8   4   8   8   4   8
#     4  11  24  40  67  98 134 172 217 274 327 406
#     4  11  23  40  63  99 136 167 210 279 341 380
#     4  12  22  40  72  96 124 176 228 270 322 398
#     4  12  23  43  67  97 130 173 226 269 330 396
#     4  11  25  44  66  96 131 178 224 270 325 392
#     4  11  24  38  65  98 132 170 217 270 327 400
#     4  11  23  43  67  97 129 176 225 271 326 400
#
# _framework density 18.099411
#
# number of rings (size 3 to 8) (size 9 to 14) (size 15 to 20)
#    0.000    0.727    8.182    1.091    1.273    0.727 
#    0.000    0.000    4.000    1.091    0.000    0.000 
#    0.000    0.000    0.000    0.000    0.000    0.000 
#
# Total GULP energy -122772.942316 kJ/mol
# GULP energy per Si atom -5580.588287 kJ/mol
# Density = 1.805822 g / cm^3
# Si number density = 18.099411 Si / 1000 Ang^3
#
#
#
# Elastic Constant Matrix: (Units=GPa)
#
#
# Indices 1 2 3 4 5 6 
#
# 1 128.7144 53.3248 38.4587 0.0000 0.0000 0.0000
# 2 53.3248 102.4019 75.8469 0.0000 0.0000 0.0000
# 3 38.4587 75.8469 129.7584 0.0000 0.0000 0.0000
# 4 0.0000 0.0000 0.0000 29.0411 0.0000 0.0000
# 5 0.0000 0.0000 0.0000 0.0000 23.9092 0.0000
# 6 0.0000 0.0000 0.0000 0.0000 0.0000 12.1207
#
#
#
# Elastic Compliance Matrix: (Units=1/GPa)
#
#
# Indices 1 2 3 4 5 6 
#
# 1 0.009908 -0.005263 0.000140 0.000000 0.000000 0.000000
# 2 -0.005263 0.020017 -0.010141 0.000000 0.000000 0.000000
# 3 0.000140 -0.010141 0.013593 0.000000 0.000000 0.000000
# 4 0.000000 0.000000 0.000000 0.034434 0.000000 0.000000
# 5 0.000000 0.000000 0.000000 0.000000 0.041825 0.000000
# 6 0.000000 0.000000 0.000000 0.000000 0.000000 0.082503
#
#
# Mechanical properties :
#
#
# Convention : Reuss Voigt Hill
#
# Bulk Modulus (GPa) = 76.98260 77.34839 77.16550
# Shear Modulus (GPa) = 21.08489 25.89716 23.49103
#
# Velocity S-wave (km/s) = 3.41684 3.78673 3.60653
# Velocity P-wave (km/s) = 7.62836 7.87066 7.75046
#
# Compressibility (1/GPa) = 0.01298995
#
# Stress axis : x y z
#
# Youngs Moduli (GPa) = 100.93139 49.95781 73.56954
#
# Poissons Ratio (x) = 0.26292 -0.01028
# Poissons Ratio (y) = 0.53119 0.74603
# Poissons Ratio (z) = -0.01411 0.50660
#
# Static dielectric constant tensor:
#      x y z
#    x 1.649630 0.000000 0.000000 
#    y 0.000000 1.608960 0.000000 
#    z 0.000000 0.000000 1.602930 
# 
# From -- ./inp_files/12709.got.cif
#   From: 2010.05.17/outbox.cif.g08.bks.cpg/sg24_7_cif.got.tgz:12709.got - 2010.06.04 00:33:39.
