data_PCOD9336327
_publ_section_title
;
Structure prediction by ZEFSAII (Michael W. Deem and Ramdas Pophale) SiO2 
 PCOD9336327
Probable space group: I 21 21 21
;
_chemical_formula_sum "Si O2"
_cell_formula_units_Z 32
_cell_length_a 4.919130
_cell_length_b 10.020946
_cell_length_c 26.131470
_cell_angle_alpha 90.000000
_cell_angle_beta 90.000000
_cell_angle_gamma 90.000000
_cell_volume 1288.133465
_symmetry_space_group_name_H-M "I 21 21 21"
_symmetry_group_IT_number 24
_symmetry_cell_setting 'orthorhombic'
loop_
_space_group_symop_operation_xyz
x,y,z
-x,1/2-y,z
x,-y,1/2-z
1/2-x,y,-z
1/2+x,1/2+y,1/2+z
1/2-x,-y,1/2+z
1/2+x,1/2-y,-z
-x,1/2+y,1/2-z
loop_
_atom_site_type_symbol
_atom_site_label
_atom_site_fract_x
_atom_site_fract_y
_atom_site_fract_z
Si Si1 0.498646 0.500000 0.250000
Si Si2 0.965392 0.967957 0.181610
Si Si3 0.500000 0.750000 0.644243
Si Si4 0.500000 0.250000 0.082063
Si Si5 0.750000 0.056628 0.000000
Si Si6 0.250000 0.865992 0.000000
Si Si7 0.500000 0.250000 0.593432
O O1 0.261444 0.590312 0.221211
O O2 0.732493 0.512514 0.205276
O O3 0.963351 0.875921 0.131364
O O4 0.870739 0.121168 0.171444
O O5 0.755412 0.687380 0.614198
O O6 0.662901 0.148045 0.046885
O O7 0.497402 0.964043 0.990705
O O8 0.236571 0.781184 0.052166
#
# Coordination Sequence:
#
# PCOD9336327 Si02
#       7
#     4   8   4   4   4   4   4
#     4  10  26  48  76 108 142 192 258 326 410 484
#     4  11  26  47  75 107 147 195 254 330 402 474
#     4  12  25  43  70 104 142 184 244 315 395 466
#     4  12  23  40  68 100 140 194 248 310 383 452
#     4  12  24  44  68 102 149 200 259 320 369 440
#     4  12  28  46  72 110 159 212 269 318 379 476
#     4  12  28  49  76 112 160 214 264 321 392 476
#
# _framework density 24.842146
#
# number of rings (size 3 to 8) (size 9 to 14) (size 15 to 20)
#    0.000    0.500    0.000    8.250    0.000   13.000 
#    0.000    0.000    0.000    0.000    0.000    0.000 
#    0.000    0.000    0.000    0.000    0.000    0.000 
#
# Total GULP energy -89068.477675 kJ/mol
# GULP energy per Si atom -5566.779855 kJ/mol
# Density = 2.478560 g / cm^3
# Si number density = 24.842146 Si / 1000 Ang^3
#
#
#
# Elastic Constant Matrix: (Units=GPa)
#
#
# Indices 1 2 3 4 5 6 
#
# 1 209.9743 33.3007 63.7530 0.0000 0.0000 0.0000
# 2 33.3007 124.5050 67.9384 0.0000 0.0000 0.0000
# 3 63.7530 67.9384 196.4424 0.0000 0.0000 0.0000
# 4 0.0000 0.0000 0.0000 23.0578 0.0000 0.0000
# 5 0.0000 0.0000 0.0000 0.0000 33.7020 0.0000
# 6 0.0000 0.0000 0.0000 0.0000 0.0000 37.6456
#
#
#
# Elastic Compliance Matrix: (Units=1/GPa)
#
#
# Indices 1 2 3 4 5 6 
#
# 1 0.005318 -0.000592 -0.001521 0.000000 0.000000 0.000000
# 2 -0.000592 0.009966 -0.003254 0.000000 0.000000 0.000000
# 3 -0.001521 -0.003254 0.006710 0.000000 0.000000 0.000000
# 4 0.000000 0.000000 0.000000 0.043369 0.000000 0.000000
# 5 0.000000 0.000000 0.000000 0.000000 0.029672 0.000000
# 6 0.000000 0.000000 0.000000 0.000000 0.000000 0.026564
#
#
# Mechanical properties :
#
#
# Convention : Reuss Voigt Hill
#
# Bulk Modulus (GPa) = 88.82443 95.65620 92.24031
# Shear Modulus (GPa) = 36.74108 43.27639 40.00873
#
# Velocity S-wave (km/s) = 3.84993 4.17832 4.01748
# Velocity P-wave (km/s) = 7.45625 7.86556 7.66364
#
# Compressibility (1/GPa) = 0.01125816
#
# Stress axis : x y z
#
# Youngs Moduli (GPa) = 188.03063 100.34008 149.03730
#
# Poissons Ratio (x) = 0.05945 0.22670
# Poissons Ratio (y) = 0.11140 0.48503
# Poissons Ratio (z) = 0.28601 0.32655
#
# Static dielectric constant tensor:
#      x y z
#    x 1.981890 0.000000 0.000000 
#    y 0.000000 2.055290 0.000000 
#    z 0.000000 0.000000 2.012030 
# 
# From -- ./inp_files/36317.got.cif
#   From: 2010.05.17/outbox.cif.g08.bks.cpg/sg24_19_cif.got.tgz:36317.got - 2010.06.04 00:33:39.
