data_PCOD9336482
_publ_section_title
;
Structure prediction by ZEFSAII (Michael W. Deem and Ramdas Pophale) SiO2 
 PCOD9336482
Probable space group: I 21 21 21
;
_chemical_formula_sum "Si O2"
_cell_formula_units_Z 64
_cell_length_a 15.080314
_cell_length_b 18.641486
_cell_length_c 11.177235
_cell_angle_alpha 90.000000
_cell_angle_beta 90.000000
_cell_angle_gamma 90.000000
_cell_volume 3142.138293
_symmetry_space_group_name_H-M "I 21 21 21"
_symmetry_group_IT_number 24
_symmetry_cell_setting 'orthorhombic'
loop_
_space_group_symop_operation_xyz
x,y,z
-x,1/2-y,z
x,-y,1/2-z
1/2-x,y,-z
1/2+x,1/2+y,1/2+z
1/2-x,-y,1/2+z
1/2+x,1/2-y,-z
-x,1/2+y,1/2-z
loop_
_atom_site_type_symbol
_atom_site_label
_atom_site_fract_x
_atom_site_fract_y
_atom_site_fract_z
Si Si1 0.374819 0.415473 0.733087
Si Si2 0.209088 0.830083 0.256086
Si Si3 0.393171 0.335071 0.488910
Si Si4 0.393171 0.164929 0.511090
Si Si5 0.475033 0.828974 0.638083
Si Si6 0.024967 0.328974 0.861917
Si Si7 0.125181 0.084527 0.733087
Si Si8 0.209088 0.669916 0.743914
O O1 0.374659 0.500000 0.750000
O O2 0.362585 0.384696 0.598488
O O3 0.465967 0.384101 0.786740
O O4 0.289454 0.380424 0.795181
O O5 0.157582 0.853621 0.133880
O O6 0.129813 0.833648 0.350122
O O7 0.289454 0.880424 0.295181
O O8 0.250000 0.750000 0.242856
O O9 0.373903 0.250000 0.500000
O O10 0.500000 0.341436 0.500000
O O11 0.342418 0.353621 0.366120
O O12 0.362585 0.115304 0.401512
O O13 0.500000 0.750000 0.686766
O O14 0.500000 0.833960 0.500000
O O15 0.129813 0.333648 0.850122
O O16 0.000000 0.250000 0.813234
O O17 0.965967 0.384102 0.786740
O O18 0.125341 0.000000 0.750000
#
# Coordination Sequence:
#
# PCOD9336482 Si02
#       8
#     8   8   8   8   8   8   8   8
#     4  12  27  45  67 108 149 181 232 311 371 411
#     4  12  23  44  77 106 133 182 252 303 345 433
#     4  11  21  41  77 104 135 183 242 301 356 428
#     4  11  21  41  77 104 135 183 242 301 356 428
#     4  11  24  47  73  96 136 194 243 281 356 447
#     4  11  24  47  73  96 136 194 243 281 356 447
#     4  12  27  45  67 108 149 181 232 311 371 411
#     4  12  23  44  77 106 133 182 252 303 345 433
#
# _framework density 20.368293999999999
#
# number of rings (size 3 to 8) (size 9 to 14) (size 15 to 20)
#    0.000    0.500    7.500    0.750    0.000    3.000 
#    9.000    0.000    0.000    0.000    0.000    0.000 
#    0.000    0.000    0.000    0.000    0.000    0.000 
#
# Total GULP energy -178708.270125 kJ/mol
# GULP energy per Si atom -5584.633441 kJ/mol
# Density = 2.032194 g / cm^3
# Si number density = 20.368294 Si / 1000 Ang^3
#
#
#
# Elastic Constant Matrix: (Units=GPa)
#
#
# Indices 1 2 3 4 5 6 
#
# 1 155.8535 52.3958 28.7663 0.0000 0.0000 0.0000
# 2 52.3958 156.5835 28.4790 0.0000 0.0000 0.0000
# 3 28.7663 28.4790 75.6724 0.0000 0.0000 0.0000
# 4 0.0000 0.0000 0.0000 12.8057 0.0000 0.0000
# 5 0.0000 0.0000 0.0000 0.0000 28.8650 0.0000
# 6 0.0000 0.0000 0.0000 0.0000 0.0000 26.8061
#
#
#
# Elastic Compliance Matrix: (Units=1/GPa)
#
#
# Indices 1 2 3 4 5 6 
#
# 1 0.007515 -0.002142 -0.002051 0.000000 0.000000 0.000000
# 2 -0.002142 0.007466 -0.001996 0.000000 0.000000 0.000000
# 3 -0.002051 -0.001996 0.014745 0.000000 0.000000 0.000000
# 4 0.000000 0.000000 0.000000 0.078090 0.000000 0.000000
# 5 0.000000 0.000000 0.000000 0.000000 0.034644 0.000000
# 6 0.000000 0.000000 0.000000 0.000000 0.000000 0.037305
#
#
# Mechanical properties :
#
#
# Convention : Reuss Voigt Hill
#
# Bulk Modulus (GPa) = 57.63603 67.48796 62.56199
# Shear Modulus (GPa) = 25.26211 32.25991 28.76101
#
# Velocity S-wave (km/s) = 3.52556 3.98405 3.76180
# Velocity P-wave (km/s) = 6.70307 7.37356 7.04629
#
# Compressibility (1/GPa) = 0.01735026
#
# Stress axis : x y z
#
# Youngs Moduli (GPa) = 133.07146 133.94131 67.81741
#
# Poissons Ratio (x) = 0.28685 0.13907
# Poissons Ratio (y) = 0.28499 0.13534
# Poissons Ratio (z) = 0.27289 0.26730
#
# Static dielectric constant tensor:
#      x y z
#    x 1.786840 0.000000 0.000000 
#    y 0.000000 1.710730 0.000000 
#    z 0.000000 0.000000 1.783200 
# 
# From -- ./inp_files/21069.got.cif
#   From: 2010.05.17/outbox.cif.g08.bks.cpg/sg24_11_cif.got.tgz:21069.got - 2010.06.04 00:33:39.
