data_PCOD9336184
_publ_section_title
;
Structure prediction by ZEFSAII (Michael W. Deem and Ramdas Pophale) SiO2 
 PCOD9336184
Probable space group: I 21 21 21
;
_chemical_formula_sum "Si O2"
_cell_formula_units_Z 40
_cell_length_a 12.321318
_cell_length_b 17.143326
_cell_length_c 8.145136
_cell_angle_alpha 90.000000
_cell_angle_beta 90.000000
_cell_angle_gamma 90.000000
_cell_volume 1720.483811
_symmetry_space_group_name_H-M "I 21 21 21"
_symmetry_group_IT_number 24
_symmetry_cell_setting 'orthorhombic'
loop_
_space_group_symop_operation_xyz
x,y,z
-x,1/2-y,z
x,-y,1/2-z
1/2-x,y,-z
1/2+x,1/2+y,1/2+z
1/2-x,-y,1/2+z
1/2+x,1/2-y,-z
-x,1/2+y,1/2-z
loop_
_atom_site_type_symbol
_atom_site_label
_atom_site_fract_x
_atom_site_fract_y
_atom_site_fract_z
Si Si1 0.421486 0.319123 0.807768
Si Si2 0.483966 0.597572 0.369329
Si Si3 0.801486 0.821415 0.825699
Si Si4 0.861298 0.651050 0.897763
Si Si5 0.004168 0.453912 0.392427
O O1 0.500000 0.250000 0.743429
O O2 0.296440 0.294436 0.793757
O O3 0.412115 0.405299 0.719733
O O4 0.469519 0.339547 0.985417
O O5 0.381966 0.616000 0.251802
O O6 0.597336 0.608905 0.270655
O O7 0.473927 0.515096 0.462907
O O8 0.866951 0.742489 0.863742
O O9 0.750000 0.845611 0.000000
O O10 0.750000 0.636545 0.000000
O O11 0.945677 0.618053 0.026224
O O12 0.938423 0.500000 0.250000
#
# Coordination Sequence:
#
# PCOD9336184 Si02
#       5
#     8   8   8   8   8
#     4  11  22  43  72 105 145 186 238 295 355 433
#     4  11  24  44  69 103 144 185 234 299 364 430
#     4  11  23  40  70 103 137 186 238 292 358 432
#     4  11  23  42  67  99 136 181 236 291 356 428
#     4  10  24  45  69 100 139 182 229 293 360 429
#
# _framework density 23.249275000000001
#
# number of rings (size 3 to 8) (size 9 to 14) (size 15 to 20)
#    0.000    1.200    0.000    6.600    0.000    3.200 
#    0.000   25.000    0.000    0.000    0.000    0.000 
#    0.000    0.000    0.000    0.000    0.000    0.000 
#
# Total GULP energy -111410.494179 kJ/mol
# GULP energy per Si atom -5570.524709 kJ/mol
# Density = 2.319636 g / cm^3
# Si number density = 23.249275 Si / 1000 Ang^3
#
#
#
# Elastic Constant Matrix: (Units=GPa)
#
#
# Indices 1 2 3 4 5 6 
#
# 1 93.9826 46.0666 50.0149 0.0000 0.0000 0.0000
# 2 46.0666 124.4649 95.1008 0.0000 0.0000 0.0000
# 3 50.0149 95.1008 123.3146 0.0000 0.0000 0.0000
# 4 0.0000 0.0000 0.0000 51.8516 0.0000 0.0000
# 5 0.0000 0.0000 0.0000 0.0000 39.3075 0.0000
# 6 0.0000 0.0000 0.0000 0.0000 0.0000 27.2352
#
#
#
# Elastic Compliance Matrix: (Units=1/GPa)
#
#
# Indices 1 2 3 4 5 6 
#
# 1 0.013774 -0.002019 -0.004029 0.000000 0.000000 0.000000
# 2 -0.002019 0.019857 -0.014495 0.000000 0.000000 0.000000
# 3 -0.004029 -0.014495 0.020922 0.000000 0.000000 0.000000
# 4 0.000000 0.000000 0.000000 0.019286 0.000000 0.000000
# 5 0.000000 0.000000 0.000000 0.000000 0.025440 0.000000
# 6 0.000000 0.000000 0.000000 0.000000 0.000000 0.036717
#
#
# Mechanical properties :
#
#
# Convention : Reuss Voigt Hill
#
# Bulk Modulus (GPa) = 74.25902 80.45851 77.35877
# Shear Modulus (GPa) = 27.53725 33.71751 30.62738
#
# Velocity S-wave (km/s) = 3.44530 3.81236 3.63347
# Velocity P-wave (km/s) = 6.91639 7.35261 7.13783
#
# Compressibility (1/GPa) = 0.01346638
#
# Stress axis : x y z
#
# Youngs Moduli (GPa) = 72.59833 50.36049 47.79673
#
# Poissons Ratio (x) = 0.10170 0.19259
# Poissons Ratio (y) = 0.14661 0.69280
# Poissons Ratio (z) = 0.29252 0.72996
#
# Static dielectric constant tensor:
#      x y z
#    x 1.918440 0.000000 0.000000 
#    y 0.000000 1.902080 0.000000 
#    z 0.000000 0.000000 1.991880 
# 
# From -- ./inp_files/10684.got.cif
#   From: 2010.05.17/outbox.cif.g08.bks.cpg/sg24_6_cif.got.tgz:10684.got - 2010.06.04 00:33:39.
