data_PCOD9336603
_publ_section_title
;
Structure prediction by ZEFSAII (Michael W. Deem and Ramdas Pophale) SiO2 
 PCOD9336603
Probable space group: I 21 21 21
;
_chemical_formula_sum "Si O2"
_cell_formula_units_Z 60
_cell_length_a 11.171422
_cell_length_b 12.322890
_cell_length_c 21.698790
_cell_angle_alpha 90.000000
_cell_angle_beta 90.000000
_cell_angle_gamma 90.000000
_cell_volume 2987.146663
_symmetry_space_group_name_H-M "I 21 21 21"
_symmetry_group_IT_number 24
_symmetry_cell_setting 'orthorhombic'
loop_
_space_group_symop_operation_xyz
x,y,z
-x,1/2-y,z
x,-y,1/2-z
1/2-x,y,-z
1/2+x,1/2+y,1/2+z
1/2-x,-y,1/2+z
1/2+x,1/2-y,-z
-x,1/2+y,1/2-z
loop_
_atom_site_type_symbol
_atom_site_label
_atom_site_fract_x
_atom_site_fract_y
_atom_site_fract_z
Si Si1 0.870580 0.005706 0.151309
Si Si2 0.206204 0.922574 0.659842
Si Si3 0.527660 0.377608 0.052003
Si Si4 0.665884 0.062822 0.441349
Si Si5 0.567958 0.635889 0.583888
Si Si6 0.388566 0.324277 0.746194
Si Si7 0.305071 0.845401 0.206240
Si Si8 0.500000 0.250000 0.385676
O O1 0.840177 0.107400 0.195853
O O2 0.972662 0.046473 0.105472
O O3 0.755043 0.962101 0.115546
O O4 0.923861 0.913220 0.195450
O O5 0.103909 0.921738 0.608797
O O6 0.319600 0.863522 0.629437
O O7 0.158171 0.870770 0.723183
O O8 0.246658 0.043372 0.678436
O O9 0.500000 0.250000 0.061951
O O10 0.410387 0.453144 0.046542
O O11 0.598584 0.385663 0.987393
O O12 0.750000 0.087568 0.500000
O O13 0.575833 0.161771 0.424943
O O14 0.500000 0.750000 0.585053
O O15 0.500000 0.250000 0.764928
O O16 0.291241 0.248445 0.714337
O O17 0.409092 0.810879 0.160207
#
# Coordination Sequence:
#
# PCOD9336603 Si02
#       8
#     8   8   8   8   8   8   8   4
#     4  11  23  41  70 100 133 185 231 291 349 413
#     4  11  24  43  66 100 140 182 227 288 349 421
#     4  11  26  42  70 101 137 186 231 293 353 422
#     4  12  26  52  74 102 142 182 242 291 351 421
#     4  11  23  42  68  99 140 180 230 292 347 417
#     4  11  23  41  67 102 140 180 231 288 348 419
#     4  11  24  43  68  98 139 180 227 289 346 420
#     4  12  26  52  72 104 138 184 238 290 348 422
#
# _framework density 20.086055999999999
#
# number of rings (size 3 to 8) (size 9 to 14) (size 15 to 20)
#    0.000    0.800    4.000    3.200    4.667    2.133 
#    3.600    0.000    0.000    0.000    0.000    0.000 
#    0.000    0.000    0.000    0.000    0.000    0.000 
#
# Total GULP energy -167658.155443 kJ/mol
# GULP energy per Si atom -5588.605181 kJ/mol
# Density = 2.004034 g / cm^3
# Si number density = 20.086056 Si / 1000 Ang^3
#
#
#
# Elastic Constant Matrix: (Units=GPa)
#
#
# Indices 1 2 3 4 5 6 
#
# 1 86.0764 37.1274 46.1330 0.0000 0.0000 0.0000
# 2 37.1274 110.9302 58.3635 0.0000 0.0000 0.0000
# 3 46.1330 58.3635 136.4124 0.0000 0.0000 0.0000
# 4 0.0000 0.0000 0.0000 21.1441 0.0000 0.0000
# 5 0.0000 0.0000 0.0000 0.0000 34.6031 0.0000
# 6 0.0000 0.0000 0.0000 0.0000 0.0000 35.2107
#
#
#
# Elastic Compliance Matrix: (Units=1/GPa)
#
#
# Indices 1 2 3 4 5 6 
#
# 1 0.014935 -0.003021 -0.003758 0.000000 0.000000 0.000000
# 2 -0.003021 0.012245 -0.004217 0.000000 0.000000 0.000000
# 3 -0.003758 -0.004217 0.010406 0.000000 0.000000 0.000000
# 4 0.000000 0.000000 0.000000 0.047294 0.000000 0.000000
# 5 0.000000 0.000000 0.000000 0.000000 0.028899 0.000000
# 6 0.000000 0.000000 0.000000 0.000000 0.000000 0.028400
#
#
# Mechanical properties :
#
#
# Convention : Reuss Voigt Hill
#
# Bulk Modulus (GPa) = 64.13363 68.51853 66.32608
# Shear Modulus (GPa) = 29.52116 30.97793 30.24955
#
# Velocity S-wave (km/s) = 3.83787 3.93142 3.88493
# Velocity P-wave (km/s) = 7.18594 7.40234 7.29494
#
# Compressibility (1/GPa) = 0.01559244
#
# Stress axis : x y z
#
# Youngs Moduli (GPa) = 66.95693 81.66875 96.09929
#
# Poissons Ratio (x) = 0.24675 0.36116
# Poissons Ratio (y) = 0.20230 0.40525
# Poissons Ratio (z) = 0.25163 0.34440
#
# Static dielectric constant tensor:
#      x y z
#    x 1.682850 0.000000 0.000000 
#    y 0.000000 1.721130 0.000000 
#    z 0.000000 0.000000 1.717390 
# 
# From -- ./inp_files/33442.got.cif
#   From: 2010.05.17/outbox.cif.g08.bks.cpg/sg24_17_cif.got.tgz:33442.got - 2010.06.04 00:33:39.
