data_PCOD9336680
_publ_section_title
;
Structure prediction by ZEFSAII (Michael W. Deem and Ramdas Pophale) SiO2 
 PCOD9336680
Probable space group: I 21 21 21
;
_chemical_formula_sum "Si O2"
_cell_formula_units_Z 32
_cell_length_a 8.995812
_cell_length_b 12.090715
_cell_length_c 12.666148
_cell_angle_alpha 90.000000
_cell_angle_beta 90.000000
_cell_angle_gamma 90.000000
_cell_volume 1377.643709
_symmetry_space_group_name_H-M "I 21 21 21"
_symmetry_group_IT_number 24
_symmetry_cell_setting 'orthorhombic'
loop_
_space_group_symop_operation_xyz
x,y,z
-x,1/2-y,z
x,-y,1/2-z
1/2-x,y,-z
1/2+x,1/2+y,1/2+z
1/2-x,-y,1/2+z
1/2+x,1/2-y,-z
-x,1/2+y,1/2-z
loop_
_atom_site_type_symbol
_atom_site_label
_atom_site_fract_x
_atom_site_fract_y
_atom_site_fract_z
Si Si1 0.074366 0.570697 0.005521
Si Si2 0.091033 0.140338 0.709504
Si Si3 0.059192 0.865855 0.216921
Si Si4 0.914029 0.364583 0.949532
O O1 0.030273 0.636000 0.108525
O O2 0.250000 0.569920 0.000000
O O3 0.993677 0.610943 0.899207
O O4 0.010401 0.447883 0.018359
O O5 0.266661 0.152089 0.692490
O O6 0.000000 0.250000 0.736812
O O7 0.090966 0.913124 0.671341
O O8 0.000000 0.750000 0.275039
O O9 0.045284 0.000000 0.250000
O O10 0.000000 0.250000 0.951849
O O11 0.750000 0.357238 0.000000
#
# Coordination Sequence:
#
# PCOD9336680 Si02
#       4
#     8   8   8   8
#     4  12  25  43  69 102 145 195 250 311 376 447
#     4  11  24  45  72 103 145 193 249 312 377 448
#     4  12  27  47  75 108 148 196 252 314 380 454
#     4  11  24  43  69 103 145 194 247 309 380 451
#
# _framework density 23.228066999999999
#
# number of rings (size 3 to 8) (size 9 to 14) (size 15 to 20)
#    0.000    0.500    0.000    9.000    0.000   10.000 
#    0.000    1.250    0.000    0.000    0.000    0.000 
#    0.000    0.000    0.000    0.000    0.000    0.000 
#
# Total GULP energy -89086.759120 kJ/mol
# GULP energy per Si atom -5567.922445 kJ/mol
# Density = 2.317520 g / cm^3
# Si number density = 23.228067 Si / 1000 Ang^3
#
#
#
# Elastic Constant Matrix: (Units=GPa)
#
#
# Indices 1 2 3 4 5 6 
#
# 1 203.8732 51.9464 39.4728 0.0000 0.0000 0.0000
# 2 51.9464 122.6124 37.8971 0.0000 0.0000 0.0000
# 3 39.4728 37.8971 98.5230 0.0000 0.0000 0.0000
# 4 0.0000 0.0000 0.0000 -105.6747 0.0000 0.0000
# 5 0.0000 0.0000 0.0000 0.0000 69.5187 0.0000
# 6 0.0000 0.0000 0.0000 0.0000 0.0000 44.4467
#
#
#
# Elastic Compliance Matrix: (Units=1/GPa)
#
#
# Indices 1 2 3 4 5 6 
#
# 1 0.005696 -0.001938 -0.001537 0.000000 0.000000 0.000000
# 2 -0.001938 0.009916 -0.003038 0.000000 0.000000 0.000000
# 3 -0.001537 -0.003038 0.011934 0.000000 0.000000 0.000000
# 4 0.000000 0.000000 0.000000 -0.009463 0.000000 0.000000
# 5 0.000000 0.000000 0.000000 0.000000 0.014385 0.000000
# 6 0.000000 0.000000 0.000000 0.000000 0.000000 0.022499
#
#
# Mechanical properties :
#
#
# Convention : Reuss Voigt Hill
#
# Bulk Modulus (GPa) = 68.86548 75.96012 72.41280
# Shear Modulus (GPa) = 68.65091 21.37097 45.01094
#
# Velocity S-wave (km/s) = 5.44236 3.03652 4.40680
# Velocity P-wave (km/s) = 8.31891 6.71318 7.55881
#
# Compressibility (1/GPa) = 0.01452106
#
# Stress axis : x y z
#
# Youngs Moduli (GPa) = 175.54856 100.84845 83.79453
#
# Poissons Ratio (x) = 0.19549 0.12876
# Poissons Ratio (y) = 0.34029 0.25453
# Poissons Ratio (z) = 0.26975 0.30633
#
# Static dielectric constant tensor:
#      x y z
#    x 1.748930 0.000000 0.000000 
#    y 0.000000 1.768220 0.000000 
#    z 0.000000 0.000000 1.926300 
# 
# From -- ./inp_files/24351.got.cif
#   From: 2010.05.17/outbox.cif.g08.bks.cpg/sg24_13_cif.got.tgz:24351.got - 2010.06.04 00:33:39.
