data_PCOD9336119
_publ_section_title
;
Structure prediction by ZEFSAII (Michael W. Deem and Ramdas Pophale) SiO2 
 PCOD9336119
Probable space group: I 21 21 21
;
_chemical_formula_sum "Si O2"
_cell_formula_units_Z 48
_cell_length_a 29.443532
_cell_length_b 8.808976
_cell_length_c 8.751859
_cell_angle_alpha 90.000000
_cell_angle_beta 90.000000
_cell_angle_gamma 90.000000
_cell_volume 2269.946623
_symmetry_space_group_name_H-M "I 21 21 21"
_symmetry_group_IT_number 24
_symmetry_cell_setting 'orthorhombic'
loop_
_space_group_symop_operation_xyz
x,y,z
-x,1/2-y,z
x,-y,1/2-z
1/2-x,y,-z
1/2+x,1/2+y,1/2+z
1/2-x,-y,1/2+z
1/2+x,1/2-y,-z
-x,1/2+y,1/2-z
loop_
_atom_site_type_symbol
_atom_site_label
_atom_site_fract_x
_atom_site_fract_y
_atom_site_fract_z
Si Si1 0.716172 0.644657 0.641979
Si Si2 0.550197 0.202212 0.978053
Si Si3 0.115664 0.960108 0.423683
Si Si4 0.389991 0.500000 0.750000
Si Si5 0.921966 0.000000 0.750000
Si Si6 0.229863 0.632852 0.846974
Si Si7 0.638534 0.208045 0.471000
O O1 0.723077 0.500000 0.750000
O O2 0.750000 0.639698 0.500000
O O3 0.663963 0.630163 0.588032
O O4 0.732133 0.785175 0.746321
O O5 0.500000 0.250000 0.929815
O O6 0.579809 0.352823 0.005105
O O7 0.577851 0.111146 0.848112
O O8 0.549598 0.097194 0.128119
O O9 0.120348 0.124393 0.498583
O O10 0.101709 0.000000 0.250000
O O11 0.362886 0.396440 0.625733
O O12 0.890886 0.115228 0.651693
O O13 0.208101 0.500000 0.750000
O O14 0.189218 0.736022 0.906930
O O15 0.250000 0.562562 0.000000
#
# Coordination Sequence:
#
# PCOD9336119 Si02
#       7
#     8   8   8   4   4   8   8
#     4  11  24  43  65 100 138 182 238 292 351 418
#     4  11  26  46  74 108 144 186 233 287 359 419
#     4  11  23  43  71 102 136 187 235 293 345 411
#     4  10  24  42  75 102 142 182 239 294 340 440
#     4  10  26  46  69 106 142 188 225 292 356 428
#     4  12  26  41  65  98 139 191 240 292 352 422
#     4  11  23  46  70 102 142 186 240 287 360 419
#
# _framework density 21.145871
#
# number of rings (size 3 to 8) (size 9 to 14) (size 15 to 20)
#    0.000    1.000    2.500    4.000    4.667    3.333 
#    0.000    3.333    0.000    0.000    0.000    0.000 
#    0.000    0.000    0.000    0.000    0.000    0.000 
#
# Total GULP energy -134157.586744 kJ/mol
# GULP energy per Si atom -5589.899448 kJ/mol
# Density = 2.109774 g / cm^3
# Si number density = 21.145871 Si / 1000 Ang^3
#
#
#
# Elastic Constant Matrix: (Units=GPa)
#
#
# Indices 1 2 3 4 5 6 
#
# 1 88.1917 49.3172 29.2663 0.0000 0.0000 0.0000
# 2 49.3172 114.3390 21.1289 0.0000 0.0000 0.0000
# 3 29.2663 21.1289 67.0339 0.0000 0.0000 0.0000
# 4 0.0000 0.0000 0.0000 24.0298 0.0000 0.0000
# 5 0.0000 0.0000 0.0000 0.0000 10.5445 0.0000
# 6 0.0000 0.0000 0.0000 0.0000 0.0000 17.3436
#
#
#
# Elastic Compliance Matrix: (Units=1/GPa)
#
#
# Indices 1 2 3 4 5 6 
#
# 1 0.016533 -0.006156 -0.005278 0.000000 0.000000 0.000000
# 2 -0.006156 0.011579 -0.000962 0.000000 0.000000 0.000000
# 3 -0.005278 -0.000962 0.017525 0.000000 0.000000 0.000000
# 4 0.000000 0.000000 0.000000 0.041615 0.000000 0.000000
# 5 0.000000 0.000000 0.000000 0.000000 0.094837 0.000000
# 6 0.000000 0.000000 0.000000 0.000000 0.000000 0.057658
#
#
# Mechanical properties :
#
#
# Convention : Reuss Voigt Hill
#
# Bulk Modulus (GPa) = 47.97148 52.10995 50.04071
# Shear Modulus (GPa) = 18.41716 21.70704 20.06210
#
# Velocity S-wave (km/s) = 2.95440 3.20744 3.08352
# Velocity P-wave (km/s) = 5.86287 6.19786 6.03269
#
# Compressibility (1/GPa) = 0.02084572
#
# Stress axis : x y z
#
# Youngs Moduli (GPa) = 60.48651 86.36478 57.06037
#
# Poissons Ratio (x) = 0.53163 0.30115
# Poissons Ratio (y) = 0.37233 0.05490
# Poissons Ratio (z) = 0.31923 0.08309
#
# Static dielectric constant tensor:
#      x y z
#    x 1.741750 0.000000 0.000000 
#    y 0.000000 1.749830 0.000000 
#    z 0.000000 0.000000 1.764680 
# 
# From -- ./inp_files/16888.got.cif
#   From: 2010.05.17/outbox.cif.g08.bks.cpg/sg24_9_cif.got.tgz:16888.got - 2010.06.04 00:33:39.
