data_PCOD9336047
_publ_section_title
;
Structure prediction by ZEFSAII (Michael W. Deem and Ramdas Pophale) SiO2 
 PCOD9336047
Probable space group: I 21 21 21
;
_chemical_formula_sum "Si O2"
_cell_formula_units_Z 52
_cell_length_a 19.048425
_cell_length_b 24.017134
_cell_length_c 4.850159
_cell_angle_alpha 90.000000
_cell_angle_beta 90.000000
_cell_angle_gamma 90.000000
_cell_volume 2218.892333
_symmetry_space_group_name_H-M "I 21 21 21"
_symmetry_group_IT_number 24
_symmetry_cell_setting 'orthorhombic'
loop_
_space_group_symop_operation_xyz
x,y,z
-x,1/2-y,z
x,-y,1/2-z
1/2-x,y,-z
1/2+x,1/2+y,1/2+z
1/2-x,-y,1/2+z
1/2+x,1/2-y,-z
-x,1/2+y,1/2-z
loop_
_atom_site_type_symbol
_atom_site_label
_atom_site_fract_x
_atom_site_fract_y
_atom_site_fract_z
Si Si1 0.585834 0.354715 0.955810
Si Si2 0.850944 0.000000 0.750000
Si Si3 0.498214 0.890299 0.015009
Si Si4 0.044884 0.500000 0.250000
Si Si5 0.630262 0.169319 0.675693
Si Si6 0.915123 0.239141 0.806317
Si Si7 0.750000 0.906279 0.000000
Si Si8 0.197937 0.940882 0.252132
O O1 0.537360 0.345801 0.690073
O O2 0.612392 0.297541 0.080108
O O3 0.646708 0.392205 0.833200
O O4 0.540206 0.385678 0.193540
O O5 0.801054 0.948601 0.835351
O O6 0.902485 0.982654 0.498319
O O7 0.497887 0.950818 0.876520
O O8 0.578526 0.872721 0.988868
O O9 0.601653 0.191130 0.968219
O O10 0.702760 0.135584 0.684446
O O11 0.624337 0.222269 0.472548
O O12 0.000000 0.250000 0.775879
O O13 0.250000 0.950496 0.500000
O O14 0.158017 0.000000 0.250000
O O15 0.250000 0.928418 0.000000
#
# Coordination Sequence:
#
# PCOD9336047 Si02
#       8
#     8   4   8   4   8   8   4   8
#     4  12  25  44  76 105 141 184 242 300 372 440
#     4  12  27  48  74  98 154 205 252 290 372 451
#     4  12  24  44  70 109 142 185 240 307 360 437
#     4  12  27  46  70 112 152 195 242 314 368 431
#     4  12  26  46  71  99 145 189 251 299 359 438
#     4  12  24  46  73 100 135 186 236 304 373 423
#     4  12  30  48  72 108 144 208 252 300 368 436
#     4  10  23  47  72 101 141 185 226 282 363 450
#
# _framework density 23.435117999999999
#
# number of rings (size 3 to 8) (size 9 to 14) (size 15 to 20)
#    0.000    0.308    4.615    3.692    3.231    1.846 
#    4.154    0.000    0.000    0.000    0.000    0.000 
#    0.000    0.000    0.000    0.000    0.000    0.000 
#
# Total GULP energy -145394.715857 kJ/mol
# GULP energy per Si atom -5592.104456 kJ/mol
# Density = 2.338178 g / cm^3
# Si number density = 23.435118 Si / 1000 Ang^3
#
#
#
# Elastic Constant Matrix: (Units=GPa)
#
#
# Indices 1 2 3 4 5 6 
#
# 1 65.8899 36.0838 17.9674 0.0000 0.0000 0.0000
# 2 36.0838 102.5863 17.1459 0.0000 0.0000 0.0000
# 3 17.9674 17.1459 127.5867 0.0000 0.0000 0.0000
# 4 0.0000 0.0000 0.0000 40.5940 0.0000 0.0000
# 5 0.0000 0.0000 0.0000 0.0000 16.0837 0.0000
# 6 0.0000 0.0000 0.0000 0.0000 0.0000 26.8492
#
#
#
# Elastic Compliance Matrix: (Units=1/GPa)
#
#
# Indices 1 2 3 4 5 6 
#
# 1 0.019210 -0.006450 -0.001839 0.000000 0.000000 0.000000
# 2 -0.006450 0.012137 -0.000723 0.000000 0.000000 0.000000
# 3 -0.001839 -0.000723 0.008194 0.000000 0.000000 0.000000
# 4 0.000000 0.000000 0.000000 0.024634 0.000000 0.000000
# 5 0.000000 0.000000 0.000000 0.000000 0.062175 0.000000
# 6 0.000000 0.000000 0.000000 0.000000 0.000000 0.037245
#
#
# Mechanical properties :
#
#
# Convention : Reuss Voigt Hill
#
# Bulk Modulus (GPa) = 46.46993 48.71748 47.59371
# Shear Modulus (GPa) = 26.48435 31.69643 29.09039
#
# Velocity S-wave (km/s) = 3.36536 3.68165 3.52705
# Velocity P-wave (km/s) = 5.91381 6.23748 6.07780
#
# Compressibility (1/GPa) = 0.02151929
#
# Stress axis : x y z
#
# Youngs Moduli (GPa) = 52.05536 82.39030 122.04268
#
# Poissons Ratio (x) = 0.53140 0.22438
# Poissons Ratio (y) = 0.33575 0.08821
# Poissons Ratio (z) = 0.09571 0.05955
#
# Static dielectric constant tensor:
#      x y z
#    x 1.909220 0.000000 0.000000 
#    y 0.000000 2.029060 0.000000 
#    z 0.000000 0.000000 1.897610 
# 
# From -- ./inp_files/5731.got.cif
#   From: 2010.05.17/outbox.cif.g08.bks.cpg/sg24_3_cif.got.tgz:5731.got - 2010.06.04 00:33:39.
