data_PCOD9336089
_publ_section_title
;
Structure prediction by ZEFSAII (Michael W. Deem and Ramdas Pophale) SiO2 
 PCOD9336089
Probable space group: I 21 21 21
;
_chemical_formula_sum "Si O2"
_cell_formula_units_Z 40
_cell_length_a 23.706680
_cell_length_b 13.444599
_cell_length_c 5.650192
_cell_angle_alpha 90.000000
_cell_angle_beta 90.000000
_cell_angle_gamma 90.000000
_cell_volume 1800.867651
_symmetry_space_group_name_H-M "I 21 21 21"
_symmetry_group_IT_number 24
_symmetry_cell_setting 'orthorhombic'
loop_
_space_group_symop_operation_xyz
x,y,z
-x,1/2-y,z
x,-y,1/2-z
1/2-x,y,-z
1/2+x,1/2+y,1/2+z
1/2-x,-y,1/2+z
1/2+x,1/2-y,-z
-x,1/2+y,1/2-z
loop_
_atom_site_type_symbol
_atom_site_label
_atom_site_fract_x
_atom_site_fract_y
_atom_site_fract_z
Si Si1 0.411363 0.440473 0.001677
Si Si2 0.134891 0.226093 0.041652
Si Si3 0.522889 0.353075 0.214569
Si Si4 0.103833 0.911180 0.069203
Si Si5 0.285021 0.107721 0.287332
O O1 0.399820 0.500000 0.250000
O O2 0.370188 0.344223 0.988730
O O3 0.474483 0.396510 0.048022
O O4 0.408794 0.500000 0.750000
O O5 0.080714 0.177126 0.912722
O O6 0.191503 0.174384 0.933476
O O7 0.119922 0.193149 0.307485
O O8 0.500000 0.250000 0.317950
O O9 0.544695 0.415962 0.434712
O O10 0.104690 0.000000 0.250000
O O11 0.156525 0.925038 0.902802
O O12 0.250000 0.160483 0.500000
O O13 0.254654 0.000000 0.250000
#
# Coordination Sequence:
#
# PCOD9336089 Si02
#       5
#     8   8   8   8   8
#     4  11  27  44  67  98 135 191 251 293 332 402
#     4  10  24  42  61  97 134 185 221 294 350 411
#     4   9  23  39  56  89 133 177 231 277 336 395
#     4  11  22  38  62  90 137 176 217 275 346 424
#     4  11  23  40  65 102 135 169 220 277 362 446
#
# _framework density 22.211514999999999
#
# number of rings (size 3 to 8) (size 9 to 14) (size 15 to 20)
#    0.000    1.600    2.000    0.600   14.000    0.800 
#    0.000    0.000    0.000    0.000    5.200    0.000 
#    0.000    0.000    0.000    0.000    0.000    0.000 
#
# Total GULP energy -111502.066009 kJ/mol
# GULP energy per Si atom -5575.103300 kJ/mol
# Density = 2.216096 g / cm^3
# Si number density = 22.211515 Si / 1000 Ang^3
#
#
#
# Elastic Constant Matrix: (Units=GPa)
#
#
# Indices 1 2 3 4 5 6 
#
# 1 84.5408 29.1687 23.0456 0.0000 0.0000 0.0000
# 2 29.1687 120.9763 49.5210 0.0000 0.0000 0.0000
# 3 23.0456 49.5210 108.2956 0.0000 0.0000 0.0000
# 4 0.0000 0.0000 0.0000 41.8656 0.0000 0.0000
# 5 0.0000 0.0000 0.0000 0.0000 34.4672 0.0000
# 6 0.0000 0.0000 0.0000 0.0000 0.0000 21.5313
#
#
#
# Elastic Compliance Matrix: (Units=1/GPa)
#
#
# Indices 1 2 3 4 5 6 
#
# 1 0.013139 -0.002489 -0.001658 0.000000 0.000000 0.000000
# 2 -0.002489 0.010641 -0.004336 0.000000 0.000000 0.000000
# 3 -0.001658 -0.004336 0.011570 0.000000 0.000000 0.000000
# 4 0.000000 0.000000 0.000000 0.023886 0.000000 0.000000
# 5 0.000000 0.000000 0.000000 0.000000 0.029013 0.000000
# 6 0.000000 0.000000 0.000000 0.000000 0.000000 0.046444
#
#
# Mechanical properties :
#
#
# Convention : Reuss Voigt Hill
#
# Bulk Modulus (GPa) = 54.39673 57.47594 55.93633
# Shear Modulus (GPa) = 31.68804 33.71131 32.69968
#
# Velocity S-wave (km/s) = 3.78120 3.90005 3.84108
# Velocity P-wave (km/s) = 6.60354 6.79804 6.70149
#
# Compressibility (1/GPa) = 0.01838346
#
# Stress axis : x y z
#
# Youngs Moduli (GPa) = 76.10679 93.97303 86.43315
#
# Poissons Ratio (x) = 0.23394 0.14328
# Poissons Ratio (y) = 0.18947 0.37480
# Poissons Ratio (z) = 0.12616 0.40749
#
# Static dielectric constant tensor:
#      x y z
#    x 1.791280 0.000000 0.000000 
#    y 0.000000 1.924910 0.000000 
#    z 0.000000 0.000000 2.024900 
# 
# From -- ./inp_files/6288.got.cif
#   From: 2010.05.17/outbox.cif.g08.bks.cpg/sg24_4_cif.got.tgz:6288.got - 2010.06.04 00:33:39.
