data_PCOD9336655
_publ_section_title
;
Structure prediction by ZEFSAII (Michael W. Deem and Ramdas Pophale) SiO2 
 PCOD9336655
Probable space group: I 21 21 21
;
_chemical_formula_sum "Si O2"
_cell_formula_units_Z 32
_cell_length_a 13.545322
_cell_length_b 8.203601
_cell_length_c 12.864327
_cell_angle_alpha 90.000000
_cell_angle_beta 90.000000
_cell_angle_gamma 90.000000
_cell_volume 1429.489382
_symmetry_space_group_name_H-M "I 21 21 21"
_symmetry_group_IT_number 24
_symmetry_cell_setting 'orthorhombic'
loop_
_space_group_symop_operation_xyz
x,y,z
-x,1/2-y,z
x,-y,1/2-z
1/2-x,y,-z
1/2+x,1/2+y,1/2+z
1/2-x,-y,1/2+z
1/2+x,1/2-y,-z
-x,1/2+y,1/2-z
loop_
_atom_site_type_symbol
_atom_site_label
_atom_site_fract_x
_atom_site_fract_y
_atom_site_fract_z
Si Si1 0.144059 0.000000 0.750000
Si Si2 0.262251 0.596530 0.114109
Si Si3 0.483940 0.577262 0.078797
Si Si4 0.802933 0.750629 0.318564
Si Si5 0.500000 0.750000 0.559708
O O1 0.070579 0.929111 0.836407
O O2 0.217063 0.882878 0.684968
O O3 0.378458 0.590172 0.136173
O O4 0.198067 0.690627 0.198764
O O5 0.228468 0.410092 0.117690
O O6 0.250000 0.667863 0.000000
O O7 0.500000 0.750000 0.019451
O O8 0.482279 0.411637 0.010960
O O9 0.907174 0.704532 0.367090
#
# Coordination Sequence:
#
# PCOD9336655 Si02
#       5
#     4   8   8   8   4
#     4  12  26  44  72 118 150 196 274 330 366 468
#     4  11  23  48  75 106 152 206 246 312 395 460
#     4  12  26  47  80 111 153 207 262 314 392 467
#     4  11  26  47  76 109 156 197 257 323 388 457
#     4  12  28  52  78 112 160 206 256 324 400 458
#
# _framework density 22.385615999999999
#
# number of rings (size 3 to 8) (size 9 to 14) (size 15 to 20)
#    0.000    0.500    5.000    3.000    1.750    4.000 
#    2.250    0.000    0.000    0.000    0.000    0.000 
#    0.000    0.000    0.000    0.000    0.000    0.000 
#
# Total GULP energy -89364.299937 kJ/mol
# GULP energy per Si atom -5585.268746 kJ/mol
# Density = 2.233467 g / cm^3
# Si number density = 22.385616 Si / 1000 Ang^3
#
#
#
# Elastic Constant Matrix: (Units=GPa)
#
#
# Indices 1 2 3 4 5 6 
#
# 1 134.9168 22.7808 40.6485 0.0000 0.0000 0.0000
# 2 22.7808 89.3771 32.8246 0.0000 0.0000 0.0000
# 3 40.6485 32.8246 128.5638 0.0000 0.0000 0.0000
# 4 0.0000 0.0000 0.0000 -9.8420 0.0000 0.0000
# 5 0.0000 0.0000 0.0000 0.0000 45.4141 0.0000
# 6 0.0000 0.0000 0.0000 0.0000 0.0000 66.2261
#
#
#
# Elastic Compliance Matrix: (Units=1/GPa)
#
#
# Indices 1 2 3 4 5 6 
#
# 1 0.008322 -0.001274 -0.002306 0.000000 0.000000 0.000000
# 2 -0.001274 0.012541 -0.002799 0.000000 0.000000 0.000000
# 3 -0.002306 -0.002799 0.009222 0.000000 0.000000 0.000000
# 4 0.000000 0.000000 0.000000 -0.101605 0.000000 0.000000
# 5 0.000000 0.000000 0.000000 0.000000 0.022020 0.000000
# 6 0.000000 0.000000 0.000000 0.000000 0.000000 0.015100
#
#
# Mechanical properties :
#
#
# Convention : Reuss Voigt Hill
#
# Bulk Modulus (GPa) = 57.71437 60.59616 59.15527
# Shear Modulus (GPa) = -315.12725 37.46655 -138.83035
#
# Velocity S-wave (km/s) = -11.87762 4.09551 -7.88367
# Velocity P-wave (km/s) = 12.73836 7.03508 7.50911
#
# Compressibility (1/GPa) = 0.01732671
#
# Stress axis : x y z
#
# Youngs Moduli (GPa) = 120.16576 79.73628 108.43710
#
# Poissons Ratio (x) = 0.10161 0.25003
# Poissons Ratio (y) = 0.15312 0.30353
# Poissons Ratio (z) = 0.27708 0.22319
#
# Static dielectric constant tensor:
#      x y z
#    x 1.812800 0.000000 0.000000 
#    y 0.000000 1.887270 0.000000 
#    z 0.000000 0.000000 1.839750 
# 
# From -- ./inp_files/10425.got.cif
#   From: 2010.05.17/outbox.cif.g08.bks.cpg/sg24_6_cif.got.tgz:10425.got - 2010.06.04 00:33:39.
