data_PCOD9336440
_publ_section_title
;
Structure prediction by ZEFSAII (Michael W. Deem and Ramdas Pophale) SiO2 
 PCOD9336440
Probable space group: I 21 21 21
;
_chemical_formula_sum "Si O2"
_cell_formula_units_Z 56
_cell_length_a 9.498412
_cell_length_b 14.342134
_cell_length_c 21.331181
_cell_angle_alpha 90.000000
_cell_angle_beta 90.000000
_cell_angle_gamma 90.000000
_cell_volume 2905.893410
_symmetry_space_group_name_H-M "I 21 21 21"
_symmetry_group_IT_number 24
_symmetry_cell_setting 'orthorhombic'
loop_
_space_group_symop_operation_xyz
x,y,z
-x,1/2-y,z
x,-y,1/2-z
1/2-x,y,-z
1/2+x,1/2+y,1/2+z
1/2-x,-y,1/2+z
1/2+x,1/2-y,-z
-x,1/2+y,1/2-z
loop_
_atom_site_type_symbol
_atom_site_label
_atom_site_fract_x
_atom_site_fract_y
_atom_site_fract_z
Si Si1 0.457788 0.517215 0.371893
Si Si2 0.238436 0.965312 0.178900
Si Si3 0.472466 0.555586 0.610611
Si Si4 0.166069 0.250898 0.318894
Si Si5 0.582065 0.157397 0.013180
Si Si6 0.236253 0.614041 0.074489
Si Si7 0.273040 0.596214 0.717585
O O1 0.615063 0.496196 0.351690
O O2 0.439374 0.583107 0.431900
O O3 0.378920 0.422637 0.392806
O O4 0.372881 0.567446 0.315493
O O5 0.222599 0.853682 0.180841
O O6 0.231305 0.000000 0.250000
O O7 0.111917 0.012507 0.140161
O O8 0.490039 0.618856 0.549887
O O9 0.373628 0.469310 0.589029
O O10 0.385383 0.613410 0.662591
O O11 0.187502 0.296107 0.387297
O O12 0.233765 0.320770 0.267393
O O13 0.000000 0.250000 0.304685
O O14 0.500000 0.250000 0.031890
O O15 0.750000 0.169080 0.000000
O O16 0.250000 0.626188 0.000000
O O17 0.324128 0.500000 0.750000
#
# Coordination Sequence:
#
# PCOD9336440 Si02
#       7
#     8   8   8   8   8   8   8
#     4  11  24  46  67  96 142 186 219 282 361 405
#     4  12  28  44  65 106 143 178 232 295 344 409
#     4  11  21  44  72  95 138 185 221 280 351 409
#     4  12  24  43  72 107 131 176 248 286 340 429
#     4  12  26  46  73 104 138 181 238 283 344 424
#     4  11  21  46  74  95 133 186 224 277 355 424
#     4  11  20  41  75  94 132 185 225 280 353 404
#
# _framework density 19.271182
#
# number of rings (size 3 to 8) (size 9 to 14) (size 15 to 20)
#    0.000    0.571    8.571    1.714    2.000    3.429 
#    5.143    0.000    0.000    0.000    0.000    0.000 
#    0.000    0.000    0.000    0.000    0.000    0.000 
#
# Total GULP energy -156531.744194 kJ/mol
# GULP energy per Si atom -5590.419436 kJ/mol
# Density = 1.922732 g / cm^3
# Si number density = 19.271182 Si / 1000 Ang^3
#
#
#
# Elastic Constant Matrix: (Units=GPa)
#
#
# Indices 1 2 3 4 5 6 
#
# 1 101.1018 25.2177 39.5319 0.0000 0.0000 0.0000
# 2 25.2177 61.6257 6.3459 0.0000 0.0000 0.0000
# 3 39.5319 6.3459 97.6910 0.0000 0.0000 0.0000
# 4 0.0000 0.0000 0.0000 24.3593 0.0000 0.0000
# 5 0.0000 0.0000 0.0000 0.0000 22.0538 0.0000
# 6 0.0000 0.0000 0.0000 0.0000 0.0000 24.9148
#
#
#
# Elastic Compliance Matrix: (Units=1/GPa)
#
#
# Indices 1 2 3 4 5 6 
#
# 1 0.013034 -0.004823 -0.004961 0.000000 0.000000 0.000000
# 2 -0.004823 0.018121 0.000774 0.000000 0.000000 0.000000
# 3 -0.004961 0.000774 0.012194 0.000000 0.000000 0.000000
# 4 0.000000 0.000000 0.000000 0.041052 0.000000 0.000000
# 5 0.000000 0.000000 0.000000 0.000000 0.045344 0.000000
# 6 0.000000 0.000000 0.000000 0.000000 0.000000 0.040137
#
#
# Mechanical properties :
#
#
# Convention : Reuss Voigt Hill
#
# Bulk Modulus (GPa) = 39.47944 44.73440 42.10692
# Shear Modulus (GPa) = 25.46573 26.88709 26.17641
#
# Velocity S-wave (km/s) = 3.63911 3.73929 3.68954
# Velocity P-wave (km/s) = 6.17966 6.47352 6.32830
#
# Compressibility (1/GPa) = 0.02532964
#
# Stress axis : x y z
#
# Youngs Moduli (GPa) = 76.72392 55.18541 82.01031
#
# Poissons Ratio (x) = 0.26614 0.40685
# Poissons Ratio (y) = 0.37001 -0.06351
# Poissons Ratio (z) = 0.38063 -0.04274
#
# Static dielectric constant tensor:
#      x y z
#    x 1.681590 0.000000 0.000000 
#    y 0.000000 1.679800 0.000000 
#    z 0.000000 0.000000 1.692510 
# 
# From -- ./inp_files/32825.got.cif
#   From: 2010.05.17/outbox.cif.g08.bks.cpg/sg24_17_cif.got.tgz:32825.got - 2010.06.04 00:33:39.
