data_PCOD9336706
_publ_section_title
;
Structure prediction by ZEFSAII (Michael W. Deem and Ramdas Pophale) SiO2 
 PCOD9336706
Probable space group: I 21 21 21
;
_chemical_formula_sum "Si O2"
_cell_formula_units_Z 32
_cell_length_a 5.025434
_cell_length_b 14.800997
_cell_length_c 18.193536
_cell_angle_alpha 90.000000
_cell_angle_beta 90.000000
_cell_angle_gamma 90.000000
_cell_volume 1353.261289
_symmetry_space_group_name_H-M "I 21 21 21"
_symmetry_group_IT_number 24
_symmetry_cell_setting 'orthorhombic'
loop_
_space_group_symop_operation_xyz
x,y,z
-x,1/2-y,z
x,-y,1/2-z
1/2-x,y,-z
1/2+x,1/2+y,1/2+z
1/2-x,-y,1/2+z
1/2+x,1/2-y,-z
-x,1/2+y,1/2-z
loop_
_atom_site_type_symbol
_atom_site_label
_atom_site_fract_x
_atom_site_fract_y
_atom_site_fract_z
Si Si1 0.823350 0.658399 0.913527
Si Si2 0.260572 0.370983 0.835714
Si Si3 0.276546 0.979900 0.333954
Si Si4 0.000000 0.750000 0.210046
Si Si5 0.000000 0.750000 0.458683
O O1 0.891479 0.556353 0.888908
O O2 0.615183 0.677983 0.847797
O O3 0.000000 0.750000 0.907609
O O4 0.750000 0.655644 0.000000
O O5 0.462523 0.457071 0.833118
O O6 0.311810 0.307280 0.764714
O O7 0.359769 0.322115 0.907704
O O8 0.951758 0.390975 0.846284
O O9 0.350861 0.000000 0.250000
O O10 0.750000 0.706871 0.500000
#
# Coordination Sequence:
#
# PCOD9336706 Si02
#       5
#     8   8   8   4   4
#     4  12  27  45  71 102 147 191 237 296 363 429
#     4  11  26  45  76 105 138 189 237 298 356 420
#     4  12  25  45  72 105 141 181 242 295 349 423
#     4  11  24  48  72 103 142 188 242 295 358 438
#     4  11  24  46  72 103 146 184 232 291 360 426
#
# _framework density 23.646578999999999
#
# number of rings (size 3 to 8) (size 9 to 14) (size 15 to 20)
#    0.000    0.500    3.750    3.750    3.500    5.000 
#    0.000    0.000    0.000    0.000    0.000    0.000 
#    0.000    0.000    0.000    0.000    0.000    0.000 
#
# Total GULP energy -89238.761942 kJ/mol
# GULP energy per Si atom -5577.422621 kJ/mol
# Density = 2.359276 g / cm^3
# Si number density = 23.646579 Si / 1000 Ang^3
#
#
#
# Elastic Constant Matrix: (Units=GPa)
#
#
# Indices 1 2 3 4 5 6 
#
# 1 61.8007 -4.5508 19.4883 0.0000 0.0000 0.0000
# 2 -4.5508 66.5431 23.2548 0.0000 0.0000 0.0000
# 3 19.4883 23.2548 129.8078 0.0000 0.0000 0.0000
# 4 0.0000 0.0000 0.0000 594.8066 0.0001 0.0000
# 5 0.0000 0.0000 0.0000 0.0001 -909.8612 0.0000
# 6 0.0000 0.0000 0.0000 0.0000 0.0000 49.8147
#
#
#
# Elastic Compliance Matrix: (Units=1/GPa)
#
#
# Indices 1 2 3 4 5 6 
#
# 1 0.017290 0.002229 -0.002995 0.000000 0.000000 0.000000
# 2 0.002229 0.016319 -0.003258 0.000000 0.000000 0.000000
# 3 -0.002995 -0.003258 0.008737 0.000000 0.000000 0.000000
# 4 0.000000 0.000000 0.000000 0.001681 0.000000 0.000000
# 5 0.000000 0.000000 0.000000 0.000000 -0.001099 0.000000
# 6 0.000000 0.000000 0.000000 0.000000 0.000000 0.020074
#
#
# Mechanical properties :
#
#
# Convention : Reuss Voigt Hill
#
# Bulk Modulus (GPa) = 29.15676 37.17070 33.16373
# Shear Modulus (GPa) = 60.61865 -38.38402 11.11731
#
# Velocity S-wave (km/s) = 5.06862 -4.03331 2.17063
# Velocity P-wave (km/s) = 6.82727 2.43655 4.50970
#
# Compressibility (1/GPa) = 0.03429736
#
# Stress axis : x y z
#
# Youngs Moduli (GPa) = 57.83806 61.27856 114.45516
#
# Poissons Ratio (x) = -0.13660 0.34280
# Poissons Ratio (y) = -0.12893 0.37291
# Poissons Ratio (z) = 0.17323 0.19966
#
# Static dielectric constant tensor:
#      x y z
#    x 1.965980 0.000000 0.000000 
#    y 0.000000 3.974020 0.000000 
#    z 0.000000 0.000000 1.863510 
# 
# From -- ./inp_files/3124.got.cif
#   From: 2010.05.17/outbox.cif.g08.bks.cpg/sg24_2_cif.got.tgz:3124.got - 2010.06.04 00:33:39.
