data_PCOD9336518
_publ_section_title
;
Structure prediction by ZEFSAII (Michael W. Deem and Ramdas Pophale) SiO2 
 PCOD9336518
Probable space group: I 21 21 21
;
_chemical_formula_sum "Si O2"
_cell_formula_units_Z 48
_cell_length_a 14.857310
_cell_length_b 9.242252
_cell_length_c 17.478573
_cell_angle_alpha 90.000000
_cell_angle_beta 90.000000
_cell_angle_gamma 90.000000
_cell_volume 2400.070305
_symmetry_space_group_name_H-M "I 21 21 21"
_symmetry_group_IT_number 24
_symmetry_cell_setting 'orthorhombic'
loop_
_space_group_symop_operation_xyz
x,y,z
-x,1/2-y,z
x,-y,1/2-z
1/2-x,y,-z
1/2+x,1/2+y,1/2+z
1/2-x,-y,1/2+z
1/2+x,1/2-y,-z
-x,1/2+y,1/2-z
loop_
_atom_site_type_symbol
_atom_site_label
_atom_site_fract_x
_atom_site_fract_y
_atom_site_fract_z
Si Si1 0.828795 0.915703 0.553032
Si Si2 0.246511 0.660976 0.720633
Si Si3 0.413627 0.855408 0.699552
Si Si4 0.351730 0.886637 0.526703
Si Si5 0.508321 0.403147 0.447930
Si Si6 0.417246 0.160768 0.281223
O O1 0.750000 0.982577 0.500000
O O2 0.786194 0.855647 0.632121
O O3 0.862589 0.777047 0.504612
O O4 0.911452 0.023615 0.566605
O O5 0.260422 0.500000 0.750000
O O6 0.334954 0.755368 0.733417
O O7 0.168288 0.741057 0.766826
O O8 0.500000 0.750000 0.691002
O O9 0.372074 0.895333 0.616625
O O10 0.430672 0.000000 0.750000
O O11 0.250000 0.927945 0.500000
O O12 0.426662 0.985693 0.488798
O O13 0.500000 0.250000 0.491271
O O14 0.557058 0.363269 0.368805
O O15 0.500000 0.250000 0.243811
O O16 0.404968 0.000000 0.250000
#
# Coordination Sequence:
#
# PCOD9336518 Si02
#       6
#     8   8   8   8   8   8
#     4  11  22  44  71 101 133 191 235 275 346 428
#     4  12  24  43  70 101 139 180 233 291 346 421
#     4  12  27  49  72 102 137 183 240 288 353 417
#     4  11  24  46  73  98 131 186 240 285 340 425
#     4  11  24  40  64 103 142 176 222 291 357 409
#     4  11  22  38  64 101 141 179 220 280 355 412
#
# _framework density 19.999416
#
# number of rings (size 3 to 8) (size 9 to 14) (size 15 to 20)
#    0.000    0.667    3.333    7.000    2.333    1.333 
#    3.000    0.000    0.000    0.000    0.000    0.000 
#    0.000    0.000    0.000    0.000    0.000    0.000 
#
# Total GULP energy -134079.181751 kJ/mol
# GULP energy per Si atom -5586.632573 kJ/mol
# Density = 1.995390 g / cm^3
# Si number density = 19.999416 Si / 1000 Ang^3
#
#
#
# Elastic Constant Matrix: (Units=GPa)
#
#
# Indices 1 2 3 4 5 6 
#
# 1 157.8351 50.3774 28.6107 0.0000 0.0000 0.0000
# 2 50.3774 105.1280 33.3089 0.0000 0.0000 0.0000
# 3 28.6107 33.3089 94.5487 0.0000 0.0000 0.0000
# 4 0.0000 0.0000 0.0000 29.1830 0.0000 0.0000
# 5 0.0000 0.0000 0.0000 0.0000 26.4609 0.0000
# 6 0.0000 0.0000 0.0000 0.0000 0.0000 232.0607
#
#
#
# Elastic Compliance Matrix: (Units=1/GPa)
#
#
# Indices 1 2 3 4 5 6 
#
# 1 0.007588 -0.003274 -0.001143 0.000000 0.000000 0.000000
# 2 -0.003274 0.012120 -0.003279 0.000000 0.000000 0.000000
# 3 -0.001143 -0.003279 0.012078 0.000000 0.000000 0.000000
# 4 0.000000 0.000000 0.000000 0.034267 0.000000 0.000000
# 5 0.000000 0.000000 0.000000 0.000000 0.037792 0.000000
# 6 0.000000 0.000000 0.000000 0.000000 0.000000 0.004309
#
#
# Mechanical properties :
#
#
# Convention : Reuss Voigt Hill
#
# Bulk Modulus (GPa) = 60.99851 64.67841 62.83846
# Shear Modulus (GPa) = 38.75698 73.88860 56.32279
#
# Velocity S-wave (km/s) = 4.40694 6.08487 5.31257
# Velocity P-wave (km/s) = 7.51407 9.04311 8.31381
#
# Compressibility (1/GPa) = 0.01639384
#
# Stress axis : x y z
#
# Youngs Moduli (GPa) = 131.78939 82.50764 82.79834
#
# Poissons Ratio (x) = 0.27014 0.09461
# Poissons Ratio (y) = 0.43149 0.27150
# Poissons Ratio (z) = 0.15059 0.27055
#
# Static dielectric constant tensor:
#      x y z
#    x 1.741350 0.000000 0.000000 
#    y 0.000000 1.752140 0.000000 
#    z 0.000000 0.000000 1.432210 
# 
# From -- ./inp_files/14166.got.cif
#   From: 2010.05.17/outbox.cif.g08.bks.cpg/sg24_8_cif.got.tgz:14166.got - 2010.06.04 00:33:39.
