data_PCOD9336416
_publ_section_title
;
Structure prediction by ZEFSAII (Michael W. Deem and Ramdas Pophale) SiO2 
 PCOD9336416
Probable space group: I 21 21 21
;
_chemical_formula_sum "Si O2"
_cell_formula_units_Z 40
_cell_length_a 10.357018
_cell_length_b 8.826023
_cell_length_c 22.488238
_cell_angle_alpha 90.000000
_cell_angle_beta 90.000000
_cell_angle_gamma 90.000000
_cell_volume 2055.678600
_symmetry_space_group_name_H-M "I 21 21 21"
_symmetry_group_IT_number 24
_symmetry_cell_setting 'orthorhombic'
loop_
_space_group_symop_operation_xyz
x,y,z
-x,1/2-y,z
x,-y,1/2-z
1/2-x,y,-z
1/2+x,1/2+y,1/2+z
1/2-x,-y,1/2+z
1/2+x,1/2-y,-z
-x,1/2+y,1/2-z
loop_
_atom_site_type_symbol
_atom_site_label
_atom_site_fract_x
_atom_site_fract_y
_atom_site_fract_z
Si Si1 0.201729 0.042762 0.598346
Si Si2 0.450830 0.918004 0.975718
Si Si3 0.877321 0.144656 0.975667
Si Si4 0.861301 0.000000 0.750000
Si Si5 0.500000 0.250000 0.331151
Si Si6 0.648942 0.215819 0.152731
O O1 0.349638 0.070805 0.578248
O O2 0.123125 0.034853 0.536257
O O3 0.120778 0.173824 0.632936
O O4 0.199439 0.881499 0.633053
O O5 0.500000 0.750000 0.981469
O O6 0.582550 0.014876 0.978489
O O7 0.000000 0.250000 0.976586
O O8 0.750000 0.222690 0.000000
O O9 0.854058 0.111155 0.906502
O O10 0.790037 0.880957 0.706083
O O11 0.945343 0.889978 0.792355
O O12 0.500000 0.250000 0.169372
#
# Coordination Sequence:
#
# PCOD9336416 Si02
#       6
#     8   8   8   4   4   8
#     4  11  22  37  57  83 133 166 207 270 323 391
#     4  11  23  36  56  89 125 172 210 252 326 394
#     4  11  22  38  62  92 131 169 205 260 322 394
#     4  12  22  34  60  92 128 156 228 266 334 374
#     4  12  20  36  58  90 122 166 206 280 328 374
#     4  11  20  37  55  90 126 164 203 264 323 375
#
# _framework density 19.458295
#
# number of rings (size 3 to 8) (size 9 to 14) (size 15 to 20)
#    0.000    0.800    8.000    1.200    2.800    0.000 
#    0.000    0.000    0.000    0.000    0.000   26.600 
#    0.000    0.000    0.000    0.000    0.000    0.000 
#
# Total GULP energy -111368.706757 kJ/mol
# GULP energy per Si atom -5568.435338 kJ/mol
# Density = 1.941401 g / cm^3
# Si number density = 19.458295 Si / 1000 Ang^3
#
#
#
# Elastic Constant Matrix: (Units=GPa)
#
#
# Indices 1 2 3 4 5 6 
#
# 1 61.4166 36.9776 43.1653 0.0000 0.0000 0.0000
# 2 36.9776 134.8681 60.9893 0.0000 0.0000 0.0000
# 3 43.1653 60.9893 94.6076 0.0000 0.0000 0.0000
# 4 0.0000 0.0000 0.0000 32.3090 0.0000 0.0000
# 5 0.0000 0.0000 0.0000 0.0000 -105.4880 0.0000
# 6 0.0000 0.0000 0.0000 0.0000 0.0000 14.1443
#
#
#
# Elastic Compliance Matrix: (Units=1/GPa)
#
#
# Indices 1 2 3 4 5 6 
#
# 1 0.024482 -0.002345 -0.009659 0.000000 0.000000 0.000000
# 2 -0.002345 0.010690 -0.005822 0.000000 0.000000 0.000000
# 3 -0.009659 -0.005822 0.018730 0.000000 0.000000 0.000000
# 4 0.000000 0.000000 0.000000 0.030951 0.000000 0.000000
# 5 0.000000 0.000000 0.000000 0.000000 -0.009480 0.000000
# 6 0.000000 0.000000 0.000000 0.000000 0.000000 0.070700
#
#
# Mechanical properties :
#
#
# Convention : Reuss Voigt Hill
#
# Bulk Modulus (GPa) = 54.78805 63.68408 59.23606
# Shear Modulus (GPa) = 26.62298 -1.82293 12.40003
#
# Velocity S-wave (km/s) = 3.70294 -0.96895 2.52714
# Velocity P-wave (km/s) = 6.81910 5.61674 6.24691
#
# Compressibility (1/GPa) = 0.01825216
#
# Stress axis : x y z
#
# Youngs Moduli (GPa) = 40.84577 93.54396 53.39078
#
# Poissons Ratio (x) = 0.21933 0.51569
# Poissons Ratio (y) = 0.09577 0.31083
# Poissons Ratio (z) = 0.39452 0.54459
#
# Static dielectric constant tensor:
#      x y z
#    x 1.766090 0.000000 0.000000 
#    y 0.000000 2.365960 0.000000 
#    z 0.000000 0.000000 1.757920 
# 
# From -- ./inp_files/15019.got.cif
#   From: 2010.05.17/outbox.cif.g08.bks.cpg/sg24_8_cif.got.tgz:15019.got - 2010.06.04 00:33:39.
