data_PCOD9336688
_publ_section_title
;
Structure prediction by ZEFSAII (Michael W. Deem and Ramdas Pophale) SiO2 
 PCOD9336688
Probable space group: I 21 21 21
;
_chemical_formula_sum "Si O2"
_cell_formula_units_Z 44
_cell_length_a 15.754233
_cell_length_b 8.190497
_cell_length_c 13.954837
_cell_angle_alpha 90.000000
_cell_angle_beta 90.000000
_cell_angle_gamma 90.000000
_cell_volume 1800.662366
_symmetry_space_group_name_H-M "I 21 21 21"
_symmetry_group_IT_number 24
_symmetry_cell_setting 'orthorhombic'
loop_
_space_group_symop_operation_xyz
x,y,z
-x,1/2-y,z
x,-y,1/2-z
1/2-x,y,-z
1/2+x,1/2+y,1/2+z
1/2-x,-y,1/2+z
1/2+x,1/2-y,-z
-x,1/2+y,1/2-z
loop_
_atom_site_type_symbol
_atom_site_label
_atom_site_fract_x
_atom_site_fract_y
_atom_site_fract_z
Si Si1 0.900370 0.849322 0.678721
Si Si2 0.548072 0.914777 0.542481
Si Si3 0.755086 0.310058 0.607476
Si Si4 0.566875 0.376551 0.664663
Si Si5 0.877598 0.500000 0.750000
Si Si6 0.765129 0.066578 0.104060
O O1 0.927465 0.898986 0.570142
O O2 0.924789 0.662146 0.707192
O O3 0.919610 0.000000 0.750000
O O4 0.795384 0.839338 0.676882
O O5 0.500000 0.750000 0.567457
O O6 0.480178 0.053064 0.570002
O O7 0.633000 0.936618 0.607489
O O8 0.750000 0.376022 0.500000
O O9 0.659395 0.312275 0.643848
O O10 0.819830 0.418794 0.667378
O O11 0.774481 0.116354 0.602050
O O12 0.500000 0.250000 0.703534
O O13 0.578629 0.500000 0.750000
O O14 0.750000 0.144899 0.000000
#
# Coordination Sequence:
#
# PCOD9336688 Si02
#       6
#     8   8   8   8   4   8
#     4  11  25  48  73 107 144 193 250 304 368 434
#     4  11  26  46  69 105 146 196 238 298 376 441
#     4  11  24  44  72 111 141 187 249 304 365 436
#     4  12  26  45  70 104 147 191 241 297 369 444
#     4  12  26  42  78 110 144 190 254 310 360 450
#     4   9  20  43  72  96 138 187 234 296 359 423
#
# _framework density 24.435455000000001
#
# number of rings (size 3 to 8) (size 9 to 14) (size 15 to 20)
#    0.000    1.091    4.545    0.545    5.091    2.909 
#    1.636    0.000    0.000    0.000    0.000    0.000 
#    0.000    0.000    0.000    0.000    0.000    0.000 
#
# Total GULP energy -122971.976631 kJ/mol
# GULP energy per Si atom -5589.635301 kJ/mol
# Density = 2.437984 g / cm^3
# Si number density = 24.435455 Si / 1000 Ang^3
#
#
#
# Elastic Constant Matrix: (Units=GPa)
#
#
# Indices 1 2 3 4 5 6 
#
# 1 75.4711 35.0664 16.9153 0.0000 0.0000 0.0000
# 2 35.0664 117.6004 33.8634 0.0000 0.0000 0.0000
# 3 16.9153 33.8634 116.8166 0.0000 0.0000 0.0000
# 4 0.0000 0.0000 0.0000 37.2817 0.0000 0.0000
# 5 0.0000 0.0000 0.0000 0.0000 37.5146 0.0000
# 6 0.0000 0.0000 0.0000 0.0000 0.0000 39.3203
#
#
#
# Elastic Compliance Matrix: (Units=1/GPa)
#
#
# Indices 1 2 3 4 5 6 
#
# 1 0.015484 -0.004333 -0.000986 0.000000 0.000000 0.000000
# 2 -0.004333 0.010490 -0.002414 0.000000 0.000000 0.000000
# 3 -0.000986 -0.002414 0.009403 0.000000 0.000000 0.000000
# 4 0.000000 0.000000 0.000000 0.026823 0.000000 0.000000
# 5 0.000000 0.000000 0.000000 0.000000 0.026656 0.000000
# 6 0.000000 0.000000 0.000000 0.000000 0.000000 0.025432
#
#
# Mechanical properties :
#
#
# Convention : Reuss Voigt Hill
#
# Bulk Modulus (GPa) = 50.22078 53.50871 51.86474
# Shear Modulus (GPa) = 36.65900 37.75953 37.20926
#
# Velocity S-wave (km/s) = 3.87749 3.93526 3.90649
# Velocity P-wave (km/s) = 6.37524 6.52640 6.45126
#
# Compressibility (1/GPa) = 0.01991208
#
# Stress axis : x y z
#
# Youngs Moduli (GPa) = 64.58074 95.32461 106.35061
#
# Poissons Ratio (x) = 0.41307 0.10487
# Poissons Ratio (y) = 0.27985 0.25668
# Poissons Ratio (z) = 0.06368 0.23007
#
# Static dielectric constant tensor:
#      x y z
#    x 1.901770 0.000000 0.000000 
#    y 0.000000 2.111670 0.000000 
#    z 0.000000 0.000000 1.969180 
# 
# From -- ./inp_files/26958.got.cif
#   From: 2010.05.17/outbox.cif.g08.bks.cpg/sg24_14_cif.got.tgz:26958.got - 2010.06.04 00:33:39.
