data_PCOD9336339
_publ_section_title
;
Structure prediction by ZEFSAII (Michael W. Deem and Ramdas Pophale) SiO2 
 PCOD9336339
Probable space group: I 21 21 21
;
_chemical_formula_sum "Si O2"
_cell_formula_units_Z 24
_cell_length_a 17.102442
_cell_length_b 11.460775
_cell_length_c 5.187883
_cell_angle_alpha 90.000000
_cell_angle_beta 90.000000
_cell_angle_gamma 90.000000
_cell_volume 1016.862627
_symmetry_space_group_name_H-M "I 21 21 21"
_symmetry_group_IT_number 24
_symmetry_cell_setting 'orthorhombic'
loop_
_space_group_symop_operation_xyz
x,y,z
-x,1/2-y,z
x,-y,1/2-z
1/2-x,y,-z
1/2+x,1/2+y,1/2+z
1/2-x,-y,1/2+z
1/2+x,1/2-y,-z
-x,1/2+y,1/2-z
loop_
_atom_site_type_symbol
_atom_site_label
_atom_site_fract_x
_atom_site_fract_y
_atom_site_fract_z
Si Si1 0.829409 0.739589 0.674544
Si Si2 0.096881 0.000000 0.750000
Si Si3 0.942494 0.929103 0.502009
Si Si4 0.250000 0.581681 0.000000
O O1 0.750000 0.736304 0.500000
O O2 0.850334 0.613455 0.789805
O O3 0.901016 0.803407 0.520455
O O4 0.815087 0.825688 0.913410
O O5 0.035885 0.947896 0.538589
O O6 0.922191 0.000000 0.250000
O O7 0.912838 0.000000 0.750000
O O8 0.262436 0.500000 0.750000
#
# Coordination Sequence:
#
# PCOD9336339 Si02
#       4
#     8   4   8   4
#     4  12  28  47  83 119 161 208 267 337 399 482
#     4  10  28  54  74 120 168 216 254 328 422 488
#     4  10  26  50  80 108 154 208 273 316 395 472
#     4  12  28  48  76 116 156 202 266 330 398 464
#
# _framework density 23.602005999999999
#
# number of rings (size 3 to 8) (size 9 to 14) (size 15 to 20)
#    1.000    0.000    1.667    2.000   11.667    2.667 
#    6.000    0.000    0.000    0.000    0.000    0.000 
#    0.000    0.000    0.000    0.000    0.000    0.000 
#
# Total GULP energy -66814.071938 kJ/mol
# GULP energy per Si atom -5567.839328 kJ/mol
# Density = 2.354829 g / cm^3
# Si number density = 23.602006 Si / 1000 Ang^3
#
#
#
# Elastic Constant Matrix: (Units=GPa)
#
#
# Indices 1 2 3 4 5 6 
#
# 1 98.2058 83.4727 32.3364 0.0000 0.0000 0.0000
# 2 83.4727 268.9253 74.6681 0.0000 0.0000 0.0000
# 3 32.3364 74.6681 138.9310 0.0000 0.0000 0.0000
# 4 0.0000 0.0000 0.0000 19.1726 0.0000 0.0000
# 5 0.0000 0.0000 0.0000 0.0000 23.1323 0.0000
# 6 0.0000 0.0000 0.0000 0.0000 0.0000 59.2411
#
#
#
# Elastic Compliance Matrix: (Units=1/GPa)
#
#
# Indices 1 2 3 4 5 6 
#
# 1 0.013969 -0.004035 -0.001083 0.000000 0.000000 0.000000
# 2 -0.004035 0.005536 -0.002036 0.000000 0.000000 0.000000
# 3 -0.001083 -0.002036 0.008544 0.000000 0.000000 0.000000
# 4 0.000000 0.000000 0.000000 0.052158 0.000000 0.000000
# 5 0.000000 0.000000 0.000000 0.000000 0.043230 0.000000
# 6 0.000000 0.000000 0.000000 0.000000 0.000000 0.016880
#
#
# Mechanical properties :
#
#
# Convention : Reuss Voigt Hill
#
# Bulk Modulus (GPa) = 72.77315 98.55737 85.66526
# Shear Modulus (GPa) = 31.40581 41.34818 36.37700
#
# Velocity S-wave (km/s) = 3.65175 4.19010 3.93016
# Velocity P-wave (km/s) = 6.97716 8.07824 7.54781
#
# Compressibility (1/GPa) = 0.01374133
#
# Stress axis : x y z
#
# Youngs Moduli (GPa) = 71.58657 180.62146 117.03859
#
# Poissons Ratio (x) = 0.72887 0.12670
# Poissons Ratio (y) = 0.28888 0.23833
# Poissons Ratio (z) = 0.07750 0.36780
#
# Static dielectric constant tensor:
#      x y z
#    x 2.095740 0.000000 0.000000 
#    y 0.000000 1.862330 0.000000 
#    z 0.000000 0.000000 1.869620 
# 
# From -- ./inp_files/4181.got.cif
#   From: 2010.05.17/outbox.cif.g08.bks.cpg/sg24_3_cif.got.tgz:4181.got - 2010.06.04 00:33:39.
