data_PCOD9336350
_publ_section_title
;
Structure prediction by ZEFSAII (Michael W. Deem and Ramdas Pophale) SiO2 
 PCOD9336350
Probable space group: I 21 21 21
;
_chemical_formula_sum "Si O2"
_cell_formula_units_Z 20
_cell_length_a 15.640028
_cell_length_b 9.828134
_cell_length_c 5.348696
_cell_angle_alpha 90.000000
_cell_angle_beta 90.000000
_cell_angle_gamma 90.000000
_cell_volume 822.160316
_symmetry_space_group_name_H-M "I 21 21 21"
_symmetry_group_IT_number 24
_symmetry_cell_setting 'orthorhombic'
loop_
_space_group_symop_operation_xyz
x,y,z
-x,1/2-y,z
x,-y,1/2-z
1/2-x,y,-z
1/2+x,1/2+y,1/2+z
1/2-x,-y,1/2+z
1/2+x,1/2-y,-z
-x,1/2+y,1/2-z
loop_
_atom_site_type_symbol
_atom_site_label
_atom_site_fract_x
_atom_site_fract_y
_atom_site_fract_z
Si Si1 0.192377 0.000000 0.750000
Si Si2 0.000000 0.750000 0.412413
Si Si3 0.555399 0.000000 0.250000
Si Si4 0.647350 0.760137 0.989383
O O1 0.250000 0.969749 0.500000
O O2 0.137661 0.870015 0.829956
O O3 0.012624 0.611508 0.568440
O O4 0.086633 0.769301 0.247593
O O5 0.612538 0.902628 0.080825
O O6 0.750000 0.771443 0.000000
#
# Coordination Sequence:
#
# PCOD9336350 Si02
#       4
#     4   4   4   8
#     4  10  26  53  86 131 180 234 296 363 446 537
#     4  12  30  58  82 138 180 242 306 378 456 542
#     4  12  30  51  90 125 184 240 302 379 456 539
#     4  11  29  54  87 130 185 234 304 372 461 543
#
# _framework density 24.326158
#
# number of rings (size 3 to 8) (size 9 to 14) (size 15 to 20)
#    0.000    0.800    0.000    2.400   16.800    9.600 
#   21.600    0.000    0.000    0.000    0.000    0.000 
#    0.000    0.000    0.000    0.000    0.000    0.000 
#
# Total GULP energy -55856.323471 kJ/mol
# GULP energy per Si atom -5585.632347 kJ/mol
# Density = 2.427079 g / cm^3
# Si number density = 24.326158 Si / 1000 Ang^3
#
#
#
# Elastic Constant Matrix: (Units=GPa)
#
#
# Indices 1 2 3 4 5 6 
#
# 1 221.5661 100.9260 121.4669 0.0000 0.0000 0.0000
# 2 100.9260 281.0010 100.8737 0.0000 0.0000 0.0000
# 3 121.4669 100.8737 155.1506 0.0000 0.0000 0.0000
# 4 0.0000 0.0000 0.0000 52.7663 0.0000 0.0000
# 5 0.0000 0.0000 0.0000 0.0000 54.1842 0.0000
# 6 0.0000 0.0000 0.0000 0.0000 0.0000 36.6162
#
#
#
# Elastic Compliance Matrix: (Units=1/GPa)
#
#
# Indices 1 2 3 4 5 6 
#
# 1 0.008049 -0.000820 -0.005769 0.000000 0.000000 0.000000
# 2 -0.000820 0.004726 -0.002430 0.000000 0.000000 0.000000
# 3 -0.005769 -0.002430 0.012542 0.000000 0.000000 0.000000
# 4 0.000000 0.000000 0.000000 0.018952 0.000000 0.000000
# 5 0.000000 0.000000 0.000000 0.000000 0.018456 0.000000
# 6 0.000000 0.000000 0.000000 0.000000 0.000000 0.027310
#
#
# Mechanical properties :
#
#
# Convention : Reuss Voigt Hill
#
# Bulk Modulus (GPa) = 137.39088 144.91676 141.15382
# Shear Modulus (GPa) = 45.24945 51.01009 48.12977
#
# Velocity S-wave (km/s) = 4.31758 4.58419 4.45288
# Velocity P-wave (km/s) = 9.02533 9.36597 9.19723
#
# Compressibility (1/GPa) = 0.00727850
#
# Stress axis : x y z
#
# Youngs Moduli (GPa) = 124.23298 211.60595 79.73449
#
# Poissons Ratio (x) = 0.17358 0.45995
# Poissons Ratio (y) = 0.10191 0.19378
# Poissons Ratio (z) = 0.71664 0.51427
#
# Static dielectric constant tensor:
#      x y z
#    x 2.134050 0.000000 0.000000 
#    y 0.000000 1.849140 0.000000 
#    z 0.000000 0.000000 2.059260 
# 
# From -- ./inp_files/4077.got.cif
#   From: 2010.05.17/outbox.cif.g08.bks.cpg/sg24_3_cif.got.tgz:4077.got - 2010.06.04 00:33:39.
