data_PCOD9336116
_publ_section_title
;
Structure prediction by ZEFSAII (Michael W. Deem and Ramdas Pophale) SiO2 
 PCOD9336116
Probable space group: I 21 21 21
;
_chemical_formula_sum "Si O2"
_cell_formula_units_Z 48
_cell_length_a 8.784067
_cell_length_b 15.399116
_cell_length_c 16.564943
_cell_angle_alpha 90.000000
_cell_angle_beta 90.000000
_cell_angle_gamma 90.000000
_cell_volume 2240.687936
_symmetry_space_group_name_H-M "I 21 21 21"
_symmetry_group_IT_number 24
_symmetry_cell_setting 'orthorhombic'
loop_
_space_group_symop_operation_xyz
x,y,z
-x,1/2-y,z
x,-y,1/2-z
1/2-x,y,-z
1/2+x,1/2+y,1/2+z
1/2-x,-y,1/2+z
1/2+x,1/2-y,-z
-x,1/2+y,1/2-z
loop_
_atom_site_type_symbol
_atom_site_label
_atom_site_fract_x
_atom_site_fract_y
_atom_site_fract_z
Si Si1 0.750000 0.259541 0.500000
Si Si2 0.513107 0.151872 0.954375
Si Si3 0.750000 0.455630 0.000000
Si Si4 0.215137 0.000000 0.250000
Si Si5 0.767769 0.113568 0.380091
Si Si6 0.961658 0.148645 0.225449
Si Si7 0.250000 0.536415 0.500000
Si Si8 0.092661 0.907443 0.893323
O O1 0.829076 0.191268 0.438083
O O2 0.661622 0.321704 0.437040
O O3 0.500000 0.250000 0.980479
O O4 0.348953 0.107686 0.944813
O O5 0.593335 0.149631 0.867076
O O6 0.611824 0.099806 0.018561
O O7 0.871524 0.519132 0.959435
O O8 0.321242 0.951158 0.183304
O O9 0.100713 0.920204 0.271707
O O10 0.842595 0.118859 0.293082
O O11 0.583726 0.113007 0.376634
O O12 0.804244 0.025790 0.428227
O O13 0.000000 0.250000 0.243576
#
# Coordination Sequence:
#
# PCOD9336116 Si02
#       8
#     4   8   4   4   8   8   4   8
#     4  10  24  42  74 104 134 184 240 300 362 430
#     4  11  23  43  68  97 133 182 236 289 352 420
#     4  11  21  45  67  98 134 178 243 287 347 425
#     4  12  24  42  66 100 142 184 236 294 358 436
#     4  11  24  43  68 100 144 178 233 298 359 431
#     4  11  25  43  68 102 142 186 232 296 365 429
#     4  11  23  39  65 100 128 182 233 277 349 415
#     4  11  24  41  70 100 139 184 233 289 361 428
#
# _framework density 21.421991999999999
#
# number of rings (size 3 to 8) (size 9 to 14) (size 15 to 20)
#    0.000    1.000    3.333    3.000    0.000    7.333 
#    0.000    0.000    0.000    0.000    0.000    0.000 
#    0.000    0.000    0.000    0.000    0.000    0.000 
#
# Total GULP energy -133772.289631 kJ/mol
# GULP energy per Si atom -5573.845401 kJ/mol
# Density = 2.137323 g / cm^3
# Si number density = 21.421992 Si / 1000 Ang^3
#
#
#
# Elastic Constant Matrix: (Units=GPa)
#
#
# Indices 1 2 3 4 5 6 
#
# 1 91.1673 54.4058 48.3654 0.0000 0.0000 0.0000
# 2 54.4058 183.9195 41.7812 0.0000 0.0000 0.0000
# 3 48.3654 41.7812 81.9911 0.0000 0.0000 0.0000
# 4 0.0000 0.0000 0.0000 0.9016 0.0000 0.0000
# 5 0.0000 0.0000 0.0000 0.0000 33.2633 0.0000
# 6 0.0000 0.0000 0.0000 0.0000 0.0000 17.9264
#
#
#
# Elastic Compliance Matrix: (Units=1/GPa)
#
#
# Indices 1 2 3 4 5 6 
#
# 1 0.017485 -0.003200 -0.008684 0.000000 0.000000 0.000000
# 2 -0.003200 0.006734 -0.001544 0.000000 0.000000 0.000000
# 3 -0.008684 -0.001544 0.018106 0.000000 0.000000 0.000000
# 4 0.000000 0.000000 0.000000 1.109174 0.000000 0.000000
# 5 0.000000 0.000000 0.000000 0.000000 0.030063 0.000000
# 6 0.000000 0.000000 0.000000 0.000000 0.000000 0.055784
#
#
# Mechanical properties :
#
#
# Convention : Reuss Voigt Hill
#
# Bulk Modulus (GPa) = 64.64136 71.79807 68.21971
# Shear Modulus (GPa) = 3.93900 24.58663 14.26282
#
# Velocity S-wave (km/s) = 1.35748 3.39149 2.58311
# Velocity P-wave (km/s) = 5.71819 6.99465 6.38838
#
# Compressibility (1/GPa) = 0.01546997
#
# Stress axis : x y z
#
# Youngs Moduli (GPa) = 57.19146 148.48940 55.23080
#
# Poissons Ratio (x) = 0.47511 0.47961
# Poissons Ratio (y) = 0.18299 0.08530
# Poissons Ratio (z) = 0.49664 0.22932
#
# Static dielectric constant tensor:
#      x y z
#    x 1.894120 0.000000 0.000000 
#    y 0.000000 1.796760 0.000000 
#    z 0.000000 0.000000 1.794640 
# 
# From -- ./inp_files/24879.got.cif
#   From: 2010.05.17/outbox.cif.g08.bks.cpg/sg24_13_cif.got.tgz:24879.got - 2010.06.04 00:33:39.
