data_PCOD9336928
_publ_section_title
;
Structure prediction by ZEFSAII (Michael W. Deem and Ramdas Pophale) SiO2 
 PCOD9336928
Probable space group: I 21 21 21
;
_chemical_formula_sum "Si O2"
_cell_formula_units_Z 36
_cell_length_a 15.151208
_cell_length_b 5.621640
_cell_length_c 18.284566
_cell_angle_alpha 90.000000
_cell_angle_beta 90.000000
_cell_angle_gamma 90.000000
_cell_volume 1557.381271
_symmetry_space_group_name_H-M "I 21 21 21"
_symmetry_group_IT_number 24
_symmetry_cell_setting 'orthorhombic'
loop_
_space_group_symop_operation_xyz
x,y,z
-x,1/2-y,z
x,-y,1/2-z
1/2-x,y,-z
1/2+x,1/2+y,1/2+z
1/2-x,-y,1/2+z
1/2+x,1/2-y,-z
-x,1/2+y,1/2-z
loop_
_atom_site_type_symbol
_atom_site_label
_atom_site_fract_x
_atom_site_fract_y
_atom_site_fract_z
Si Si1 0.089517 0.103143 0.536488
Si Si2 0.250000 0.406435 0.500000
Si Si3 0.658176 0.640566 0.327344
Si Si4 0.156724 0.787167 0.401781
Si Si5 0.000000 0.750000 0.292222
Si Si6 0.055643 0.500000 0.750000
O O1 0.177550 0.259177 0.543040
O O2 0.000000 0.250000 0.528550
O O3 0.090236 0.954053 0.611248
O O4 0.110507 0.953298 0.462928
O O5 0.192970 0.564870 0.446148
O O6 0.658837 0.500000 0.250000
O O7 0.755592 0.619161 0.361374
O O8 0.623271 0.908310 0.312167
O O9 0.085358 0.719556 0.342439
O O10 0.988722 0.500000 0.250000
O O11 0.000000 0.250000 0.736938
#
# Coordination Sequence:
#
# PCOD9336928 Si02
#       6
#     8   4   8   8   4   4
#     4  12  28  52  86 118 169 225 284 353 423 515
#     4  12  24  48  84 120 166 216 290 344 428 500
#     4  12  28  49  82 120 169 224 276 356 422 509
#     4  12  27  54  81 124 162 224 285 348 430 506
#     4  12  32  54  88 126 166 218 288 354 426 506
#     4  12  30  52  74 120 170 216 278 334 430 504
#
# _framework density 23.115725000000001
#
# number of rings (size 3 to 8) (size 9 to 14) (size 15 to 20)
#    0.000    0.000    5.556    2.000   12.444    0.000 
#    2.000    0.000    2.444    0.000    0.000    0.000 
#    0.000    0.000    0.000    0.000    0.000    0.000 
#
# Total GULP energy -100650.490996 kJ/mol
# GULP energy per Si atom -5591.693944 kJ/mol
# Density = 2.306311 g / cm^3
# Si number density = 23.115725 Si / 1000 Ang^3
#
#
#
# Elastic Constant Matrix: (Units=GPa)
#
#
# Indices 1 2 3 4 5 6 
#
# 1 143.8834 60.4256 46.5011 0.0000 0.0000 0.0000
# 2 60.4256 124.5105 69.8184 0.0000 0.0000 0.0000
# 3 46.5011 69.8184 134.2414 0.0000 0.0000 0.0000
# 4 0.0000 0.0000 0.0000 -99.9195 0.0000 0.0000
# 5 0.0000 0.0000 0.0000 0.0000 533.5284 0.0000
# 6 0.0000 0.0000 0.0000 0.0000 0.0000 53.5823
#
#
#
# Elastic Compliance Matrix: (Units=1/GPa)
#
#
# Indices 1 2 3 4 5 6 
#
# 1 0.008859 -0.003640 -0.001175 0.000000 0.000000 0.000000
# 2 -0.003640 0.012834 -0.005414 0.000000 0.000000 0.000000
# 3 -0.001175 -0.005414 0.010672 0.000000 0.000000 0.000000
# 4 0.000000 0.000000 0.000000 -0.010008 0.000000 0.000000
# 5 0.000000 0.000000 0.000000 0.000000 0.001874 0.000000
# 6 0.000000 0.000000 0.000000 0.000000 0.000000 0.018663
#
#
# Mechanical properties :
#
#
# Convention : Reuss Voigt Hill
#
# Bulk Modulus (GPa) = 83.99228 84.01392 84.00310
# Shear Modulus (GPa) = 74.27092 112.49757 93.38424
#
# Velocity S-wave (km/s) = 5.67449 6.98375 6.36288
# Velocity P-wave (km/s) = 8.90772 10.07245 9.50794
#
# Compressibility (1/GPa) = 0.01190586
#
# Stress axis : x y z
#
# Youngs Moduli (GPa) = 112.88422 77.91946 93.70142
#
# Poissons Ratio (x) = 0.28363 0.11014
# Poissons Ratio (y) = 0.41090 0.50729
# Poissons Ratio (z) = 0.13269 0.42185
#
# Static dielectric constant tensor:
#      x y z
#    x 1.864210 0.000000 0.000000 
#    y 0.000000 1.546430 0.000000 
#    z 0.000000 0.000000 1.881190 
# 
# From -- ./inp_files/33590.got.cif
#   From: 2010.05.17/outbox.cif.g08.bks.cpg/sg24_17_cif.got.tgz:33590.got - 2010.06.04 00:33:39.
