data_PCOD9336621
_publ_section_title
;
Structure prediction by ZEFSAII (Michael W. Deem and Ramdas Pophale) SiO2 
 PCOD9336621
Probable space group: I 21 21 21
;
_chemical_formula_sum "Si O2"
_cell_formula_units_Z 60
_cell_length_a 9.164504
_cell_length_b 26.401653
_cell_length_c 12.267712
_cell_angle_alpha 90.000000
_cell_angle_beta 90.000000
_cell_angle_gamma 90.000000
_cell_volume 2968.271729
_symmetry_space_group_name_H-M "I 21 21 21"
_symmetry_group_IT_number 24
_symmetry_cell_setting 'orthorhombic'
loop_
_space_group_symop_operation_xyz
x,y,z
-x,1/2-y,z
x,-y,1/2-z
1/2-x,y,-z
1/2+x,1/2+y,1/2+z
1/2-x,-y,1/2+z
1/2+x,1/2-y,-z
-x,1/2+y,1/2-z
loop_
_atom_site_type_symbol
_atom_site_label
_atom_site_fract_x
_atom_site_fract_y
_atom_site_fract_z
Si Si1 0.002680 0.380436 0.387823
Si Si2 0.920623 0.304325 0.971850
Si Si3 0.607809 0.160111 0.219582
Si Si4 0.051174 0.448816 0.683911
Si Si5 0.581813 0.800397 0.042983
Si Si6 0.938537 0.808235 0.312216
Si Si7 0.730168 0.468928 0.631004
Si Si8 0.750000 0.066012 0.500000
O O1 0.894947 0.426821 0.375274
O O2 0.986801 0.346496 0.495272
O O3 0.006974 0.341486 0.288653
O O4 0.164003 0.402049 0.409811
O O5 0.000000 0.250000 0.962854
O O6 0.974573 0.332533 0.864167
O O7 0.750000 0.298972 0.000000
O O8 0.991700 0.329605 0.077706
O O9 0.608658 0.100919 0.253548
O O10 0.582564 0.192347 0.328539
O O11 0.763743 0.182644 0.178208
O O12 0.068538 0.500000 0.750000
O O13 0.129416 0.460969 0.569667
O O14 0.882347 0.441805 0.656517
O O15 0.500000 0.750000 0.008541
O O16 0.750000 0.800589 0.000000
O O17 0.000000 0.750000 0.300428
O O18 0.704998 0.500000 0.750000
O O19 0.750000 0.489474 0.500000
#
# Coordination Sequence:
#
# PCOD9336621 Si02
#       8
#     8   8   8   8   8   8   8   4
#     4  12  22  44  70 102 140 185 227 284 353 422
#     4  11  25  45  66  96 138 186 236 286 347 412
#     4  12  23  46  69  98 140 183 232 290 350 418
#     4  11  25  47  70 100 139 178 231 295 358 413
#     4  12  24  40  66 104 145 180 228 284 348 433
#     4  11  23  43  69  97 143 179 228 289 342 417
#     4  11  25  48  74 103 141 190 236 298 363 429
#     4  12  20  48  72  98 142 176 228 294 350 414
#
# _framework density 20.213784
#
# number of rings (size 3 to 8) (size 9 to 14) (size 15 to 20)
#    0.000    0.533    6.000    2.800    1.867    2.133 
#    7.200    0.000    0.000    0.000    0.000    0.000 
#    0.000    0.000    0.000    0.000    0.000    0.000 
#
# Total GULP energy -167042.585926 kJ/mol
# GULP energy per Si atom -5568.086198 kJ/mol
# Density = 2.016778 g / cm^3
# Si number density = 20.213784 Si / 1000 Ang^3
#
#
#
# Elastic Constant Matrix: (Units=GPa)
#
#
# Indices 1 2 3 4 5 6 
#
# 1 133.4410 63.7889 62.2406 0.0000 0.0000 0.0000
# 2 63.7889 76.6082 35.6893 0.0000 0.0000 0.0000
# 3 62.2406 35.6893 146.7974 -0.0001 0.0000 0.0000
# 4 0.0000 0.0000 -0.0001 28.3034 0.0000 0.0000
# 5 0.0000 0.0000 0.0000 0.0000 37.8400 0.0000
# 6 0.0000 0.0000 0.0000 0.0000 0.0000 25.4510
#
#
#
# Elastic Compliance Matrix: (Units=1/GPa)
#
#
# Indices 1 2 3 4 5 6 
#
# 1 0.013850 -0.009921 -0.003461 0.000000 0.000000 0.000000
# 2 -0.009921 0.021826 -0.001100 0.000000 0.000000 0.000000
# 3 -0.003461 -0.001100 0.008547 0.000000 0.000000 0.000000
# 4 0.000000 0.000000 0.000000 0.035331 0.000000 0.000000
# 5 0.000000 0.000000 0.000000 0.000000 0.026427 0.000000
# 6 0.000000 0.000000 0.000000 0.000000 0.000000 0.039291
#
#
# Mechanical properties :
#
#
# Convention : Reuss Voigt Hill
#
# Bulk Modulus (GPa) = 65.52629 75.58712 70.55670
# Shear Modulus (GPa) = 27.88264 31.32740 29.60502
#
# Velocity S-wave (km/s) = 3.71804 3.94103 3.83116
# Velocity P-wave (km/s) = 7.13574 7.62784 7.38589
#
# Compressibility (1/GPa) = 0.01526105
#
# Stress axis : x y z
#
# Youngs Moduli (GPa) = 72.20025 45.81588 117.00250
#
# Poissons Ratio (x) = 0.45452 0.40489
# Poissons Ratio (y) = 0.71627 0.12873
# Poissons Ratio (z) = 0.24985 0.05041
#
# Static dielectric constant tensor:
#      x y z
#    x 1.756700 0.000000 0.000000 
#    y 0.000000 1.761310 0.000000 
#    z 0.000000 0.000000 1.775330 
# 
# From -- ./inp_files/18804.got.cif
#   From: 2010.05.17/outbox.cif.g08.bks.cpg/sg24_10_cif.got.tgz:18804.got - 2010.06.04 00:33:39.
