data_PCOD9336457
_publ_section_title
;
Structure prediction by ZEFSAII (Michael W. Deem and Ramdas Pophale) SiO2 
 PCOD9336457
Probable space group: I 21 21 21
;
_chemical_formula_sum "Si O2"
_cell_formula_units_Z 28
_cell_length_a 7.905249
_cell_length_b 34.851936
_cell_length_c 5.040003
_cell_angle_alpha 90.000000
_cell_angle_beta 90.000000
_cell_angle_gamma 90.000000
_cell_volume 1388.587517
_symmetry_space_group_name_H-M "I 21 21 21"
_symmetry_group_IT_number 24
_symmetry_cell_setting 'orthorhombic'
loop_
_space_group_symop_operation_xyz
x,y,z
-x,1/2-y,z
x,-y,1/2-z
1/2-x,y,-z
1/2+x,1/2+y,1/2+z
1/2-x,-y,1/2+z
1/2+x,1/2-y,-z
-x,1/2+y,1/2-z
loop_
_atom_site_type_symbol
_atom_site_label
_atom_site_fract_x
_atom_site_fract_y
_atom_site_fract_z
Si Si1 0.624786 0.582784 0.249561
Si Si2 0.059949 0.835340 0.882762
Si Si3 0.124551 0.000000 0.750000
Si Si4 0.936908 0.792271 0.380847
O O1 0.750000 0.588062 0.500000
O O2 0.517577 0.621177 0.205976
O O3 0.533175 0.541319 0.262198
O O4 0.750000 0.580286 0.000000
O O5 0.047894 0.809314 0.621684
O O6 0.250000 0.835146 0.000000
O O7 0.948230 0.818874 0.121871
O O8 0.250000 0.999438 0.500000
O O9 0.750000 0.790315 0.500000
O O10 0.000000 0.750000 0.305842
#
# Coordination Sequence:
#
# PCOD9336457 Si02
#       4
#     8   8   4   8
#     4   9  16  28  48  78 112 145 177 219 270 318
#     4  11  21  37  59  84 112 144 183 230 277 326
#     4   8  14  24  42  72 112 144 172 214 266 314
#     4  12  25  41  58  80 109 146 186 230 278 332
#
# _framework density 20.164377000000002
#
# number of rings (size 3 to 8) (size 9 to 14) (size 15 to 20)
#    0.000    1.714    0.000    7.714    0.000    0.000 
#    0.000    0.000    0.000    0.000    0.000    4.000 
#    0.000    2.286    0.000    0.000    0.000    0.000 
#
# Total GULP energy -78104.712026 kJ/mol
# GULP energy per Si atom -5578.908002 kJ/mol
# Density = 2.011848 g / cm^3
# Si number density = 20.164377 Si / 1000 Ang^3
#
#
#
# Elastic Constant Matrix: (Units=GPa)
#
#
# Indices 1 2 3 4 5 6 
#
# 1 42.3851 30.7319 6.2271 -0.0018 0.0004 0.0002
# 2 30.7319 199.1100 45.4627 0.0020 -0.0001 -0.0014
# 3 6.2271 45.4627 143.5772 -0.0061 0.0008 -0.0002
# 4 -0.0018 0.0020 -0.0061 32.9051 -0.0008 -0.0007
# 5 0.0004 -0.0001 0.0008 -0.0008 12.9026 0.0004
# 6 0.0002 -0.0014 -0.0002 -0.0007 0.0004 15.6459
#
#
#
# Elastic Compliance Matrix: (Units=1/GPa)
#
#
# Indices 1 2 3 4 5 6 
#
# 1 0.026570 -0.004137 0.000158 0.000002 -0.000001 -0.000001
# 2 -0.004137 0.006058 -0.001739 -0.000001 0.000000 0.000001
# 3 0.000158 -0.001739 0.007509 0.000002 0.000000 0.000000
# 4 0.000002 -0.000001 0.000002 0.030390 0.000002 0.000001
# 5 -0.000001 0.000000 0.000000 0.000002 0.077504 -0.000002
# 6 -0.000001 0.000001 0.000000 0.000001 -0.000002 0.063914
#
#
# Mechanical properties :
#
#
# Convention : Reuss Voigt Hill
#
# Bulk Modulus (GPa) = 34.84335 61.10174 47.97255
# Shear Modulus (GPa) = 21.46406 32.46743 26.96575
#
# Velocity S-wave (km/s) = 3.26614 4.01701 3.66087
# Velocity P-wave (km/s) = 5.61611 7.20297 6.45846
#
# Compressibility (1/GPa) = 0.02869988
#
# Stress axis : x y z
#
# Youngs Moduli (GPa) = 37.63707 165.07443 133.18015
#
# Poissons Ratio (x) = 0.68289 -0.02098
# Poissons Ratio (y) = 0.15570 0.23157
# Poissons Ratio (z) = -0.00593 0.28702
#
# Static dielectric constant tensor:
#      x y z
#    x 1.727290 0.000000 0.000000 
#    y 0.000000 1.823630 0.000000 
#    z 0.000000 0.000000 1.679330 
# 
# From -- ./inp_files/1088.got.cif
#   From: 2010.05.17/outbox.cif.g08.bks.cpg/sg24_1_cif.got.tgz:1088.got - 2010.06.04 00:33:39.
