data_PCOD9336025
_publ_section_title
;
Structure prediction by ZEFSAII (Michael W. Deem and Ramdas Pophale) SiO2 
 PCOD9336025
Probable space group: I 21 21 21
;
_chemical_formula_sum "Si O2"
_cell_formula_units_Z 32
_cell_length_a 19.806587
_cell_length_b 4.982426
_cell_length_c 12.951226
_cell_angle_alpha 90.000000
_cell_angle_beta 90.000000
_cell_angle_gamma 90.000000
_cell_volume 1278.089847
_symmetry_space_group_name_H-M "I 21 21 21"
_symmetry_group_IT_number 24
_symmetry_cell_setting 'orthorhombic'
loop_
_space_group_symop_operation_xyz
x,y,z
-x,1/2-y,z
x,-y,1/2-z
1/2-x,y,-z
1/2+x,1/2+y,1/2+z
1/2-x,-y,1/2+z
1/2+x,1/2-y,-z
-x,1/2+y,1/2-z
loop_
_atom_site_type_symbol
_atom_site_label
_atom_site_fract_x
_atom_site_fract_y
_atom_site_fract_z
Si Si1 0.046019 0.500000 0.250000
Si Si2 0.134886 0.026133 0.578225
Si Si3 0.348639 0.177403 0.849634
Si Si4 0.216419 0.470550 0.886832
Si Si5 0.000000 0.750000 0.823304
O O1 0.093289 0.403221 0.155706
O O2 0.000000 0.250000 0.280638
O O3 0.188866 0.231909 0.627959
O O4 0.061911 0.136762 0.608384
O O5 0.147303 0.992392 0.454924
O O6 0.152699 0.729069 0.617875
O O7 0.277312 0.320527 0.830997
O O8 0.361855 0.000000 0.750000
O O9 0.250000 0.475847 0.000000
O O10 0.020274 0.500000 0.750000
#
# Coordination Sequence:
#
# PCOD9336025 Si02
#       5
#     4   8   8   8   4
#     4  12  28  48  70 116 168 204 268 314 410 504
#     4  11  26  48  77 110 156 202 260 331 394 467
#     4  11  27  48  80 118 164 211 264 332 414 497
#     4  10  23  45  72 109 151 198 257 315 383 460
#     4  12  28  54  78 112 152 214 276 324 396 466
#
# _framework density 25.037365000000001
#
# number of rings (size 3 to 8) (size 9 to 14) (size 15 to 20)
#    0.000    1.000    1.250    3.750   10.500    5.000 
#    2.250    0.000    0.000    0.000    0.000    0.000 
#    0.000    0.000    0.000    0.000    0.000    0.000 
#
# Total GULP energy -89567.349809 kJ/mol
# GULP energy per Si atom -5597.959363 kJ/mol
# Density = 2.498038 g / cm^3
# Si number density = 25.037365 Si / 1000 Ang^3
#
#
#
# Elastic Constant Matrix: (Units=GPa)
#
#
# Indices 1 2 3 4 5 6 
#
# 1 134.4732 29.7379 43.3627 0.0000 0.0000 0.0000
# 2 29.7379 144.5136 43.1446 0.0000 0.0000 0.0000
# 3 43.3627 43.1446 119.9290 0.0000 0.0000 0.0000
# 4 0.0000 0.0000 0.0000 22.5675 0.0000 0.0000
# 5 0.0000 0.0000 0.0000 0.0000 27.3577 0.0000
# 6 0.0000 0.0000 0.0000 0.0000 0.0000 7800.5104
#
#
#
# Elastic Compliance Matrix: (Units=1/GPa)
#
#
# Indices 1 2 3 4 5 6 
#
# 1 0.008529 -0.000935 -0.002748 0.000000 0.000000 0.000000
# 2 -0.000935 0.007855 -0.002488 0.000000 0.000000 0.000000
# 3 -0.002748 -0.002488 0.010227 0.000000 0.000000 0.000000
# 4 0.000000 0.000000 0.000000 0.044311 0.000000 0.000000
# 5 0.000000 0.000000 0.000000 0.000000 0.036553 0.000000
# 6 0.000000 0.000000 0.000000 0.000000 0.000000 0.000128
#
#
# Mechanical properties :
#
#
# Convention : Reuss Voigt Hill
#
# Bulk Modulus (GPa) = 70.07556 70.15625 70.11590
# Shear Modulus (GPa) = 40.09611 1588.93182 814.51396
#
# Velocity S-wave (km/s) = 4.00615 25.21908 18.05618
# Velocity P-wave (km/s) = 7.03194 29.59872 21.51200
#
# Compressibility (1/GPa) = 0.01427031
#
# Stress axis : x y z
#
# Youngs Moduli (GPa) = 117.24497 127.30963 97.78333
#
# Poissons Ratio (x) = 0.11901 0.26867
# Poissons Ratio (y) = 0.10960 0.24326
# Poissons Ratio (z) = 0.32214 0.31672
#
# Static dielectric constant tensor:
#      x y z
#    x 1.998750 0.000000 0.000000 
#    y 0.000000 1.979950 0.000000 
#    z 0.000000 0.000000 0.774930 
# 
# From -- ./inp_files/26830.got.cif
#   From: 2010.05.17/outbox.cif.g08.bks.cpg/sg24_14_cif.got.tgz:26830.got - 2010.06.04 00:33:39.
