data_PCOD9336389
_publ_section_title
;
Structure prediction by ZEFSAII (Michael W. Deem and Ramdas Pophale) SiO2 
 PCOD9336389
Probable space group: I 21 21 21
;
_chemical_formula_sum "Si O2"
_cell_formula_units_Z 44
_cell_length_a 12.601119
_cell_length_b 15.626573
_cell_length_c 11.101968
_cell_angle_alpha 90.000000
_cell_angle_beta 90.000000
_cell_angle_gamma 90.000000
_cell_volume 2186.114119
_symmetry_space_group_name_H-M "I 21 21 21"
_symmetry_group_IT_number 24
_symmetry_cell_setting 'orthorhombic'
loop_
_space_group_symop_operation_xyz
x,y,z
-x,1/2-y,z
x,-y,1/2-z
1/2-x,y,-z
1/2+x,1/2+y,1/2+z
1/2-x,-y,1/2+z
1/2+x,1/2-y,-z
-x,1/2+y,1/2-z
loop_
_atom_site_type_symbol
_atom_site_label
_atom_site_fract_x
_atom_site_fract_y
_atom_site_fract_z
Si Si1 0.130583 0.843373 0.146077
Si Si2 0.337024 0.244738 0.263525
Si Si3 0.000000 0.750000 0.947920
Si Si4 0.933589 0.572493 0.651696
Si Si5 0.861857 0.143076 0.969652
Si Si6 0.500000 0.750000 0.656217
Si Si7 0.250000 0.987472 0.000000
O O1 0.226863 0.778973 0.174741
O O2 0.053306 0.824586 0.260306
O O3 0.190564 0.929523 0.102366
O O4 0.060628 0.816534 0.031814
O O5 0.411108 0.289644 0.361835
O O6 0.395966 0.157966 0.220783
O O7 0.329542 0.299255 0.144178
O O8 0.951213 0.500000 0.750000
O O9 0.837869 0.544114 0.565383
O O10 0.039290 0.587067 0.574342
O O11 0.750000 0.098257 0.000000
O O12 0.911392 0.205219 0.072233
#
# Coordination Sequence:
#
# PCOD9336389 Si02
#       7
#     8   8   4   8   8   4   4
#     4  11  23  39  64 103 131 163 215 280 335 384
#     4  12  21  41  69  95 128 173 223 274 328 386
#     4  11  19  38  64  96 133 159 212 268 332 391
#     4  12  25  41  66  96 135 178 216 269 335 406
#     4  12  25  43  69  96 129 174 230 275 322 398
#     4  11  23  40  68 100 131 165 224 278 330 379
#     4  12  26  40  64 100 140 170 218 272 342 398
#
# _framework density 20.127036
#
# number of rings (size 3 to 8) (size 9 to 14) (size 15 to 20)
#    0.000    0.364    9.091    0.000    3.818    0.000 
#    0.000    1.818    4.000    0.000    0.000    0.000 
#    0.000    0.000    0.000    0.000    0.000    0.000 
#
# Total GULP energy -122810.784209 kJ/mol
# GULP energy per Si atom -5582.308373 kJ/mol
# Density = 2.008123 g / cm^3
# Si number density = 20.127036 Si / 1000 Ang^3
#
#
#
# Elastic Constant Matrix: (Units=GPa)
#
#
# Indices 1 2 3 4 5 6 
#
# 1 173.9588 41.8911 65.7138 0.0000 0.0000 0.0000
# 2 41.8911 44.0823 23.4041 0.0000 0.0000 0.0000
# 3 65.7138 23.4041 114.5083 0.0000 0.0000 0.0000
# 4 0.0000 0.0000 0.0000 42.4336 0.0000 0.0000
# 5 0.0000 0.0000 0.0000 0.0000 -52.7065 0.0000
# 6 0.0000 0.0000 0.0000 0.0000 0.0000 28.1272
#
#
#
# Elastic Compliance Matrix: (Units=1/GPa)
#
#
# Indices 1 2 3 4 5 6 
#
# 1 0.008648 -0.006263 -0.003683 0.000000 0.000000 0.000000
# 2 -0.006263 0.029981 -0.002534 0.000000 0.000000 0.000000
# 3 -0.003683 -0.002534 0.011364 0.000000 0.000000 0.000000
# 4 0.000000 0.000000 0.000000 0.023566 0.000000 0.000000
# 5 0.000000 0.000000 0.000000 0.000000 -0.018973 0.000000
# 6 0.000000 0.000000 0.000000 0.000000 0.000000 0.035553
#
#
# Mechanical properties :
#
#
# Convention : Reuss Voigt Hill
#
# Bulk Modulus (GPa) = 39.94402 66.06307 53.00355
# Shear Modulus (GPa) = 40.50443 17.00686 28.75564
#
# Velocity S-wave (km/s) = 4.49089 2.91000 3.78393
# Velocity P-wave (km/s) = 6.83958 6.64719 6.74407
#
# Compressibility (1/GPa) = 0.02503503
#
# Stress axis : x y z
#
# Youngs Moduli (GPa) = 115.63648 33.35392 87.99459
#
# Poissons Ratio (x) = 0.20889 0.32406
# Poissons Ratio (y) = 0.72420 0.22296
# Poissons Ratio (z) = 0.42586 0.08451
#
# Static dielectric constant tensor:
#      x y z
#    x 1.648660 0.000000 0.000000 
#    y 0.000000 1.692180 0.000000 
#    z 0.000000 0.000000 1.743690 
# 
# From -- ./inp_files/19657.got.cif
#   From: 2010.05.17/outbox.cif.g08.bks.cpg/sg24_10_cif.got.tgz:19657.got - 2010.06.04 00:33:39.
