data_PCOD9336723
_publ_section_title
;
Structure prediction by ZEFSAII (Michael W. Deem and Ramdas Pophale) SiO2 
 PCOD9336723
Probable space group: I 21 21 21
;
_chemical_formula_sum "Si O2"
_cell_formula_units_Z 36
_cell_length_a 18.714249
_cell_length_b 7.111149
_cell_length_c 12.269020
_cell_angle_alpha 90.000000
_cell_angle_beta 90.000000
_cell_angle_gamma 90.000000
_cell_volume 1632.758888
_symmetry_space_group_name_H-M "I 21 21 21"
_symmetry_group_IT_number 24
_symmetry_cell_setting 'orthorhombic'
loop_
_space_group_symop_operation_xyz
x,y,z
-x,1/2-y,z
x,-y,1/2-z
1/2-x,y,-z
1/2+x,1/2+y,1/2+z
1/2-x,-y,1/2+z
1/2+x,1/2-y,-z
-x,1/2+y,1/2-z
loop_
_atom_site_type_symbol
_atom_site_label
_atom_site_fract_x
_atom_site_fract_y
_atom_site_fract_z
Si Si1 0.000000 0.250000 0.395139
Si Si2 0.702804 0.754278 0.597021
Si Si3 0.938482 0.109691 0.992573
Si Si4 0.107370 0.000000 0.250000
Si Si5 0.579174 0.722280 0.247921
Si Si6 0.804120 0.000000 0.750000
O O1 0.942521 0.354323 0.316947
O O2 0.033998 0.406408 0.473653
O O3 0.750000 0.667968 0.500000
O O4 0.638684 0.872039 0.545299
O O5 0.660662 0.604433 0.668115
O O6 0.754314 0.886655 0.667360
O O7 0.928332 0.184834 0.868758
O O8 0.000000 0.250000 0.038852
O O9 0.500000 0.750000 0.199628
O O10 0.594331 0.500000 0.250000
O O11 0.643403 0.842190 0.197023
#
# Coordination Sequence:
#
# PCOD9336723 Si02
#       6
#     4   8   8   4   8   4
#     4  12  24  48  86 112 152 200 270 338 384 466
#     4  12  26  50  70 113 163 199 262 320 401 471
#     4  11  24  49  76 113 154 199 266 325 395 468
#     4  12  26  49  81 116 150 212 262 328 400 467
#     4  11  25  47  76 110 152 204 261 316 386 469
#     4  12  26  47  77 108 162 208 256 326 392 471
#
# _framework density 22.048570999999999
#
# number of rings (size 3 to 8) (size 9 to 14) (size 15 to 20)
#    0.000    0.444    5.556    2.667    1.556    3.556 
#    4.000    0.000    0.000    0.000    0.000    0.000 
#    0.000    0.000    0.000    0.000    0.000    0.000 
#
# Total GULP energy -100635.737073 kJ/mol
# GULP energy per Si atom -5590.874282 kJ/mol
# Density = 2.199839 g / cm^3
# Si number density = 22.048571 Si / 1000 Ang^3
#
#
#
# Elastic Constant Matrix: (Units=GPa)
#
#
# Indices 1 2 3 4 5 6 
#
# 1 190.4156 88.8545 74.3233 0.0000 0.0000 0.0000
# 2 88.8545 184.9204 80.7456 0.0000 0.0000 0.0000
# 3 74.3233 80.7456 130.4622 0.0000 0.0000 0.0000
# 4 0.0000 0.0000 0.0000 22.4713 0.0000 0.0000
# 5 0.0000 0.0000 0.0000 0.0000 47.8365 0.0000
# 6 0.0000 0.0000 0.0000 0.0000 0.0000 48.6744
#
#
#
# Elastic Compliance Matrix: (Units=1/GPa)
#
#
# Indices 1 2 3 4 5 6 
#
# 1 0.007437 -0.002362 -0.002775 0.000000 0.000000 0.000000
# 2 -0.002362 0.008160 -0.003705 0.000000 0.000000 0.000000
# 3 -0.002775 -0.003705 0.011539 0.000000 0.000000 0.000000
# 4 0.000000 0.000000 0.000000 0.044501 0.000000 0.000000
# 5 0.000000 0.000000 0.000000 0.000000 0.020905 0.000000
# 6 0.000000 0.000000 0.000000 0.000000 0.000000 0.020545
#
#
# Mechanical properties :
#
#
# Convention : Reuss Voigt Hill
#
# Bulk Modulus (GPa) = 105.79077 110.40499 108.09788
# Shear Modulus (GPa) = 37.33530 41.25478 39.29504
#
# Velocity S-wave (km/s) = 4.11946 4.33030 4.22620
# Velocity P-wave (km/s) = 8.40902 8.67088 8.54095
#
# Compressibility (1/GPa) = 0.00945262
#
# Stress axis : x y z
#
# Youngs Moduli (GPa) = 134.46504 122.54286 86.66129
#
# Poissons Ratio (x) = 0.28941 0.24049
# Poissons Ratio (y) = 0.31757 0.32110
# Poissons Ratio (z) = 0.37314 0.45404
#
# Static dielectric constant tensor:
#      x y z
#    x 1.808580 0.000000 0.000000 
#    y 0.000000 1.718260 0.000000 
#    z 0.000000 0.000000 1.915910 
# 
# From -- ./inp_files/23657.got.cif
#   From: 2010.05.17/outbox.cif.g08.bks.cpg/sg24_12_cif.got.tgz:23657.got - 2010.06.04 00:33:39.
