data_PCOD9336211
_publ_section_title
;
Structure prediction by ZEFSAII (Michael W. Deem and Ramdas Pophale) SiO2 
 PCOD9336211
Probable space group: I 21 21 21
;
_chemical_formula_sum "Si O2"
_cell_formula_units_Z 20
_cell_length_a 16.765533
_cell_length_b 9.770057
_cell_length_c 5.098560
_cell_angle_alpha 90.000000
_cell_angle_beta 90.000000
_cell_angle_gamma 90.000000
_cell_volume 835.145214
_symmetry_space_group_name_H-M "I 21 21 21"
_symmetry_group_IT_number 24
_symmetry_cell_setting 'orthorhombic'
loop_
_space_group_symop_operation_xyz
x,y,z
-x,1/2-y,z
x,-y,1/2-z
1/2-x,y,-z
1/2+x,1/2+y,1/2+z
1/2-x,-y,1/2+z
1/2+x,1/2-y,-z
-x,1/2+y,1/2-z
loop_
_atom_site_type_symbol
_atom_site_label
_atom_site_fract_x
_atom_site_fract_y
_atom_site_fract_z
Si Si1 0.806854 0.848952 0.754248
Si Si2 0.691565 0.500000 0.750000
Si Si3 0.930301 0.643488 0.602888
O O1 0.750000 0.831629 0.500000
O O2 0.872904 0.734338 0.783622
O O3 0.844946 0.000000 0.750000
O O4 0.750000 0.847068 0.000000
O O5 0.750000 0.472354 0.500000
O O6 0.628468 0.609994 0.639072
O O7 0.951471 0.500000 0.750000
O O8 0.000000 0.750000 0.529641
#
# Coordination Sequence:
#
# PCOD9336211 Si02
#       3
#     8   4   8
#     4  10  24  46  75 113 157 208 265 328 401 491
#     4  12  28  54  84 120 158 222 282 336 400 506
#     4  12  29  50  83 121 169 215 276 345 419 482
#
# _framework density 23.947928999999998
#
# number of rings (size 3 to 8) (size 9 to 14) (size 15 to 20)
#    0.000    0.800    2.000    2.400   11.200    1.600 
#   10.800    0.000    0.000    0.000    0.000    0.000 
#    0.000    0.000    0.000    0.000    0.000    0.000 
#
# Total GULP energy -55884.991203 kJ/mol
# GULP energy per Si atom -5588.499120 kJ/mol
# Density = 2.389342 g / cm^3
# Si number density = 23.947929 Si / 1000 Ang^3
#
#
#
# Elastic Constant Matrix: (Units=GPa)
#
#
# Indices 1 2 3 4 5 6 
#
# 1 158.8957 100.6740 64.3926 0.0000 0.0000 0.0000
# 2 100.6740 209.3310 41.3297 0.0000 0.0000 0.0000
# 3 64.3926 41.3297 166.1104 0.0000 0.0000 0.0000
# 4 0.0000 0.0000 0.0000 30.2800 0.0000 0.0000
# 5 0.0000 0.0000 0.0000 0.0000 13.1393 0.0000
# 6 0.0000 0.0000 0.0000 0.0000 0.0000 71.7404
#
#
#
# Elastic Compliance Matrix: (Units=1/GPa)
#
#
# Indices 1 2 3 4 5 6 
#
# 1 0.010211 -0.004343 -0.002878 0.000000 0.000000 0.000000
# 2 -0.004343 0.006871 -0.000026 0.000000 0.000000 0.000000
# 3 -0.002878 -0.000026 0.007142 0.000000 0.000000 0.000000
# 4 0.000000 0.000000 0.000000 0.033025 0.000000 0.000000
# 5 0.000000 0.000000 0.000000 0.000000 0.076108 0.000000
# 6 0.000000 0.000000 0.000000 0.000000 0.000000 0.013939
#
#
# Mechanical properties :
#
#
# Convention : Reuss Voigt Hill
#
# Bulk Modulus (GPa) = 102.76521 105.23663 104.00092
# Shear Modulus (GPa) = 30.29704 44.89469 37.59586
#
# Velocity S-wave (km/s) = 3.56071 4.33445 3.96650
# Velocity P-wave (km/s) = 7.74016 8.31200 8.03117
#
# Compressibility (1/GPa) = 0.00973092
#
# Stress axis : x y z
#
# Youngs Moduli (GPa) = 97.93231 145.54350 140.01335
#
# Poissons Ratio (x) = 0.63205 0.40294
# Poissons Ratio (y) = 0.42529 0.00365
# Poissons Ratio (z) = 0.28183 0.00380
#
# Static dielectric constant tensor:
#      x y z
#    x 1.891410 0.000000 0.000000 
#    y 0.000000 2.049850 0.000000 
#    z 0.000000 0.000000 1.907280 
# 
# From -- ./inp_files/2766.got.cif
#   From: 2010.05.17/outbox.cif.g08.bks.cpg/sg24_2_cif.got.tgz:2766.got - 2010.06.04 00:33:39.
