data_PCOD9336971
_publ_section_title
;
Structure prediction by ZEFSAII (Michael W. Deem and Ramdas Pophale) SiO2 
 PCOD9336971
Probable space group: I 21 21 21
;
_chemical_formula_sum "Si O2"
_cell_formula_units_Z 20
_cell_length_a 4.951169
_cell_length_b 31.359047
_cell_length_c 5.644063
_cell_angle_alpha 90.000000
_cell_angle_beta 90.000000
_cell_angle_gamma 90.000000
_cell_volume 876.319467
_symmetry_space_group_name_H-M "I 21 21 21"
_symmetry_group_IT_number 24
_symmetry_cell_setting 'orthorhombic'
loop_
_space_group_symop_operation_xyz
x,y,z
-x,1/2-y,z
x,-y,1/2-z
1/2-x,y,-z
1/2+x,1/2+y,1/2+z
1/2-x,-y,1/2+z
1/2+x,1/2-y,-z
-x,1/2+y,1/2-z
loop_
_atom_site_type_symbol
_atom_site_label
_atom_site_fract_x
_atom_site_fract_y
_atom_site_fract_z
Si Si1 0.498779 0.152599 0.150505
Si Si2 0.250000 0.475884 0.500000
Si Si3 0.750000 0.778522 0.000000
Si Si4 0.250000 0.083369 0.500000
O O1 0.623454 0.190232 0.305801
O O2 0.368917 0.114790 0.302044
O O3 0.750000 0.135405 0.000000
O O4 0.250000 0.170274 0.000000
O O5 0.319879 0.500000 0.250000
O O6 0.503792 0.446668 0.572488
O O7 0.500000 0.750000 0.911274
#
# Coordination Sequence:
#
# PCOD9336971 Si02
#       4
#     8   4   4   4
#     4  12  26  47  77 109 142 203 256 304 386 452
#     4  12  29  50  78 119 158 204 256 321 402 460
#     4  12  26  48  70 108 156 188 252 320 374 456
#     4  12  27  50  76 107 154 194 254 319 364 482
#
# _framework density 22.822728000000001
#
# number of rings (size 3 to 8) (size 9 to 14) (size 15 to 20)
#    0.000    0.000    0.000   10.800    8.400    3.200 
#    0.000    4.000    0.000    0.000    0.000    0.000 
#    0.000    0.000    0.000    0.000    0.000    0.000 
#
# Total GULP energy -56001.463649 kJ/mol
# GULP energy per Si atom -5600.146365 kJ/mol
# Density = 2.277078 g / cm^3
# Si number density = 22.822728 Si / 1000 Ang^3
#
#
#
# Elastic Constant Matrix: (Units=GPa)
#
#
# Indices 1 2 3 4 5 6 
#
# 1 220.4818 81.8828 80.9434 -0.0004 0.0000 -0.0002
# 2 81.8828 125.1487 69.5639 0.0003 0.0000 0.0000
# 3 80.9434 69.5639 135.1054 -0.0009 0.0000 -0.0005
# 4 -0.0004 0.0003 -0.0009 -6.6748 0.0003 0.0008
# 5 0.0000 0.0000 0.0000 0.0003 65.5552 -0.0001
# 6 -0.0002 0.0000 -0.0005 0.0008 -0.0001 72.1907
#
#
#
# Elastic Compliance Matrix: (Units=1/GPa)
#
#
# Indices 1 2 3 4 5 6 
#
# 1 0.006498 -0.002925 -0.002387 0.000000 0.000000 0.000000
# 2 -0.002925 0.012511 -0.004689 0.000001 0.000000 0.000000
# 3 -0.002387 -0.004689 0.011246 -0.000002 0.000000 0.000000
# 4 0.000000 0.000001 -0.000002 -0.149816 0.000001 0.000002
# 5 0.000000 0.000000 0.000000 0.000001 0.015254 0.000000
# 6 0.000000 0.000000 0.000000 0.000002 0.000000 0.013852
#
#
# Mechanical properties :
#
#
# Convention : Reuss Voigt Hill
#
# Bulk Modulus (GPa) = 97.53641 105.05733 101.29687
# Shear Modulus (GPa) = -74.58818 42.77061 -15.90879
#
# Velocity S-wave (km/s) = -5.72298 4.33371 -2.64305
# Velocity P-wave (km/s) = 0.91689 8.43642 5.93011
#
# Compressibility (1/GPa) = 0.01025258
#
# Stress axis : x y z
#
# Youngs Moduli (GPa) = 153.89161 79.93202 88.91785
#
# Poissons Ratio (x) = 0.23377 0.21227
# Poissons Ratio (y) = 0.45008 0.41697
# Poissons Ratio (z) = 0.36737 0.37483
#
# Static dielectric constant tensor:
#      x y z
#    x 1.823370 0.000000 0.000000 
#    y 0.000000 1.842900 0.000000 
#    z 0.000000 0.000000 1.911870 
# 
# From -- ./inp_files/297.got.cif
#   From: 2010.05.17/outbox.cif.g08.bks.cpg/sg24_1_cif.got.tgz:297.got - 2010.06.04 00:33:39.
