data_PCOD9336569
_publ_section_title
;
Structure prediction by ZEFSAII (Michael W. Deem and Ramdas Pophale) SiO2 
 PCOD9336569
Probable space group: I 21 21 21
;
_chemical_formula_sum "Si O2"
_cell_formula_units_Z 64
_cell_length_a 15.686699
_cell_length_b 8.521416
_cell_length_c 20.878207
_cell_angle_alpha 90.000000
_cell_angle_beta 90.000000
_cell_angle_gamma 90.000000
_cell_volume 2790.850223
_symmetry_space_group_name_H-M "I 21 21 21"
_symmetry_group_IT_number 24
_symmetry_cell_setting 'orthorhombic'
loop_
_space_group_symop_operation_xyz
x,y,z
-x,1/2-y,z
x,-y,1/2-z
1/2-x,y,-z
1/2+x,1/2+y,1/2+z
1/2-x,-y,1/2+z
1/2+x,1/2-y,-z
-x,1/2+y,1/2-z
loop_
_atom_site_type_symbol
_atom_site_label
_atom_site_fract_x
_atom_site_fract_y
_atom_site_fract_z
Si Si1 0.763755 0.802952 0.179995
Si Si2 0.630154 0.083284 0.860902
Si Si3 0.233008 0.202268 0.925485
Si Si4 0.416410 0.144804 0.299256
Si Si5 0.046873 0.894282 0.593402
Si Si6 0.080792 0.180754 0.249502
Si Si7 0.506456 0.562291 0.962152
Si Si8 0.201978 0.105972 0.432684
O O1 0.666388 0.760372 0.196997
O O2 0.826799 0.692576 0.219470
O O3 0.779069 0.761458 0.105741
O O4 0.813615 0.967438 0.183422
O O5 0.704984 0.166310 0.900625
O O6 0.587439 0.214630 0.815037
O O7 0.560919 0.001720 0.908866
O O8 0.133013 0.200925 0.920697
O O9 0.257672 0.037164 0.893160
O O10 0.250000 0.188039 0.000000
O O11 0.500000 0.250000 0.285218
O O12 0.402829 0.000000 0.250000
O O13 0.434872 0.049628 0.365292
O O14 0.000000 0.750000 0.628557
O O15 0.004073 0.956707 0.527102
O O16 0.940953 0.500000 0.250000
O O17 0.000000 0.250000 0.288538
O O18 0.500000 0.750000 0.975939
O O19 0.604293 0.555892 0.938852
O O20 0.250000 0.122199 0.500000
#
# Coordination Sequence:
#
# PCOD9336569 Si02
#       8
#     8   8   8   8   8   8   8   8
#     4  12  26  49  75 111 155 198 258 321 400 468
#     4  12  29  44  75 116 155 207 258 321 394 479
#     4  11  23  44  67 107 149 198 254 303 387 460
#     4  12  29  53  82 112 149 211 269 341 403 463
#     4  12  26  47  77 111 157 203 263 328 398 465
#     4  12  29  49  75 110 157 204 258 316 388 479
#     4  12  25  46  76 116 160 204 255 323 397 474
#     4  11  22  44  73 104 154 204 249 312 386 470
#
# _framework density 22.932079000000002
#
# number of rings (size 3 to 8) (size 9 to 14) (size 15 to 20)
#    0.000    0.250    5.000    3.750    8.750    1.500 
#    2.250    0.000    0.000    0.000    0.000    0.000 
#    0.000    0.000    0.000    0.000    0.000    0.000 
#
# Total GULP energy -178496.333285 kJ/mol
# GULP energy per Si atom -5578.010415 kJ/mol
# Density = 2.287988 g / cm^3
# Si number density = 22.932079 Si / 1000 Ang^3
#
#
#
# Elastic Constant Matrix: (Units=GPa)
#
#
# Indices 1 2 3 4 5 6 
#
# 1 149.6863 68.3124 54.7261 0.0000 0.0000 0.0000
# 2 68.3124 114.6986 39.6186 0.0000 0.0000 0.0000
# 3 54.7261 39.6186 98.6366 0.0000 0.0000 0.0000
# 4 0.0000 0.0000 0.0000 15.1515 0.0000 0.0000
# 5 0.0000 0.0000 0.0000 0.0000 59.9219 0.0000
# 6 0.0000 0.0000 0.0000 0.0000 0.0000 44.5736
#
#
#
# Elastic Compliance Matrix: (Units=1/GPa)
#
#
# Indices 1 2 3 4 5 6 
#
# 1 0.010247 -0.004806 -0.003755 0.000000 0.000000 0.000000
# 2 -0.004806 0.012377 -0.002305 0.000000 0.000000 0.000000
# 3 -0.003755 -0.002305 0.013147 0.000000 0.000000 0.000000
# 4 0.000000 0.000000 0.000000 0.066000 0.000000 0.000000
# 5 0.000000 0.000000 0.000000 0.000000 0.016688 0.000000
# 6 0.000000 0.000000 0.000000 0.000000 0.000000 0.022435
#
#
# Mechanical properties :
#
#
# Convention : Reuss Voigt Hill
#
# Bulk Modulus (GPa) = 71.22622 76.48174 73.85398
# Shear Modulus (GPa) = 29.88554 37.28701 33.58628
#
# Velocity S-wave (km/s) = 3.61393 4.03671 3.83116
# Velocity P-wave (km/s) = 6.96714 7.42634 7.20040
#
# Compressibility (1/GPa) = 0.01403977
#
# Stress axis : x y z
#
# Youngs Moduli (GPa) = 97.59334 80.79579 76.06116
#
# Poissons Ratio (x) = 0.38828 0.28559
# Poissons Ratio (y) = 0.46901 0.17532
# Poissons Ratio (z) = 0.36644 0.18623
#
# Static dielectric constant tensor:
#      x y z
#    x 1.921830 0.000000 0.000000 
#    y 0.000000 1.018820 0.000000 
#    z 0.000000 0.000000 1.842340 
# 
# From -- ./inp_files/35872.got.cif
#   From: 2010.05.17/outbox.cif.g08.bks.cpg/sg24_18_cif.got.tgz:35872.got - 2010.06.04 00:33:39.
