data_PCOD9336719
_publ_section_title
;
Structure prediction by ZEFSAII (Michael W. Deem and Ramdas Pophale) SiO2 
 PCOD9336719
Probable space group: I 21 21 21
;
_chemical_formula_sum "Si O2"
_cell_formula_units_Z 28
_cell_length_a 8.138483
_cell_length_b 10.779566
_cell_length_c 12.159736
_cell_angle_alpha 90.000000
_cell_angle_beta 90.000000
_cell_angle_gamma 90.000000
_cell_volume 1066.765305
_symmetry_space_group_name_H-M "I 21 21 21"
_symmetry_group_IT_number 24
_symmetry_cell_setting 'orthorhombic'
loop_
_space_group_symop_operation_xyz
x,y,z
-x,1/2-y,z
x,-y,1/2-z
1/2-x,y,-z
1/2+x,1/2+y,1/2+z
1/2-x,-y,1/2+z
1/2+x,1/2-y,-z
-x,1/2+y,1/2-z
loop_
_atom_site_type_symbol
_atom_site_label
_atom_site_fract_x
_atom_site_fract_y
_atom_site_fract_z
Si Si1 0.693836 0.119059 0.193075
Si Si2 0.434154 0.039762 0.867833
Si Si3 0.000000 0.250000 0.994843
Si Si4 0.818414 0.718093 0.112043
O O1 0.593745 0.158984 0.086902
O O2 0.711545 0.228279 0.285617
O O3 0.871572 0.064965 0.152287
O O4 0.610882 0.000000 0.250000
O O5 0.361707 0.000000 0.750000
O O6 0.374219 0.919320 0.930869
O O7 0.386426 0.167060 0.925096
O O8 0.000000 0.750000 0.155576
O O9 0.750000 0.780001 0.000000
#
# Coordination Sequence:
#
# PCOD9336719 Si02
#       4
#     8   8   4   8
#     4  11  26  50  78 109 164 206 269 334 411 482
#     4  11  24  48  74 107 154 203 257 328 407 477
#     4  12  28  46  80 122 152 214 278 338 396 496
#     4  12  27  47  79 112 153 209 263 330 413 485
#
# _framework density 26.247572999999999
#
# number of rings (size 3 to 8) (size 9 to 14) (size 15 to 20)
#    0.000    0.571    5.714    2.571    6.000    4.571 
#    0.000    0.000    0.000    0.000    0.000    0.000 
#    0.000    0.000    0.000    0.000    0.000    0.000 
#
# Total GULP energy -78009.672497 kJ/mol
# GULP energy per Si atom -5572.119464 kJ/mol
# Density = 2.618783 g / cm^3
# Si number density = 26.247573 Si / 1000 Ang^3
#
#
#
# Elastic Constant Matrix: (Units=GPa)
#
#
# Indices 1 2 3 4 5 6 
#
# 1 36.8327 14.5225 30.9845 0.0000 0.0000 0.0000
# 2 14.5225 179.3222 49.7643 0.0000 0.0000 0.0000
# 3 30.9845 49.7643 161.6516 0.0000 0.0000 0.0000
# 4 0.0000 0.0000 0.0000 62.2678 0.0000 0.0000
# 5 0.0000 0.0000 0.0000 0.0000 45.1377 0.0000
# 6 0.0000 0.0000 0.0000 0.0000 0.0000 26.1539
#
#
#
# Elastic Compliance Matrix: (Units=1/GPa)
#
#
# Indices 1 2 3 4 5 6 
#
# 1 0.032529 -0.000989 -0.005931 0.000000 0.000000 0.000000
# 2 -0.000989 0.006128 -0.001697 0.000000 0.000000 0.000000
# 3 -0.005931 -0.001697 0.007845 0.000000 0.000000 0.000000
# 4 0.000000 0.000000 0.000000 0.016060 0.000000 0.000000
# 5 0.000000 0.000000 0.000000 0.000000 0.022154 0.000000
# 6 0.000000 0.000000 0.000000 0.000000 0.000000 0.038235
#
#
# Mechanical properties :
#
#
# Convention : Reuss Voigt Hill
#
# Bulk Modulus (GPa) = 34.16544 63.14991 48.65768
# Shear Modulus (GPa) = 33.34689 45.54757 39.44723
#
# Velocity S-wave (km/s) = 3.56824 4.17022 3.88092
# Velocity P-wave (km/s) = 5.47917 6.87744 6.21774
#
# Compressibility (1/GPa) = 0.02926935
#
# Stress axis : x y z
#
# Youngs Moduli (GPa) = 30.74225 163.19830 127.46536
#
# Poissons Ratio (x) = 0.16132 0.75594
# Poissons Ratio (y) = 0.03039 0.21629
# Poissons Ratio (z) = 0.18232 0.27693
#
# Static dielectric constant tensor:
#      x y z
#    x 1.998240 0.000000 0.000000 
#    y 0.000000 1.874700 0.000000 
#    z 0.000000 0.000000 2.154730 
# 
# From -- ./inp_files/24270.got.cif
#   From: 2010.05.17/outbox.cif.g08.bks.cpg/sg24_13_cif.got.tgz:24270.got - 2010.06.04 00:33:39.
