data_PCOD9336065
_publ_section_title
;
Structure prediction by ZEFSAII (Michael W. Deem and Ramdas Pophale) SiO2 
 PCOD9336065
Probable space group: I 21 21 21
;
_chemical_formula_sum "Si O2"
_cell_formula_units_Z 40
_cell_length_a 5.385917
_cell_length_b 15.064181
_cell_length_c 24.565406
_cell_angle_alpha 90.000000
_cell_angle_beta 90.000000
_cell_angle_gamma 90.000000
_cell_volume 1993.100178
_symmetry_space_group_name_H-M "I 21 21 21"
_symmetry_group_IT_number 24
_symmetry_cell_setting 'orthorhombic'
loop_
_space_group_symop_operation_xyz
x,y,z
-x,1/2-y,z
x,-y,1/2-z
1/2-x,y,-z
1/2+x,1/2+y,1/2+z
1/2-x,-y,1/2+z
1/2+x,1/2-y,-z
-x,1/2+y,1/2-z
loop_
_atom_site_type_symbol
_atom_site_label
_atom_site_fract_x
_atom_site_fract_y
_atom_site_fract_z
Si Si1 0.000000 0.750000 0.882775
Si Si2 0.776124 0.500000 0.250000
Si Si3 0.325448 0.503008 0.616948
Si Si4 0.639743 0.115332 0.296528
Si Si5 0.180513 0.925854 0.936546
Si Si6 0.594727 0.849296 0.689995
O O1 0.159282 0.693494 0.840046
O O2 0.147155 0.823150 0.917371
O O3 0.606672 0.443958 0.292731
O O4 0.897360 0.416997 0.217510
O O5 0.323204 0.455040 0.676313
O O6 0.582358 0.473332 0.590286
O O7 0.319345 0.605854 0.633747
O O8 0.082487 0.471145 0.582532
O O9 0.695252 0.149384 0.236680
O O10 0.250000 0.927484 0.000000
O O11 0.500000 0.750000 0.683230
#
# Coordination Sequence:
#
# PCOD9336065 Si02
#       6
#     4   4   8   8   8   8
#     4  10  24  38  64  98 140 174 228 270 352 416
#     4  12  20  42  56  90 154 186 236 258 342 412
#     4  11  23  44  66  94 136 179 231 277 357 402
#     4  11  22  37  58  94 138 190 206 274 329 431
#     4  11  26  46  71  95 132 183 235 300 351 410
#     4  12  24  36  66  97 141 185 232 277 337 430
#
# _framework density 20.069237000000001
#
# number of rings (size 3 to 8) (size 9 to 14) (size 15 to 20)
#    0.000    0.800    4.000    4.200    2.800    5.600 
#    0.000    0.000    0.000    2.400    0.000    0.000 
#    0.000    0.000    0.000    0.000    0.000    0.000 
#
# Total GULP energy -111421.637314 kJ/mol
# GULP energy per Si atom -5571.081866 kJ/mol
# Density = 2.002356 g / cm^3
# Si number density = 20.069237 Si / 1000 Ang^3
#
#
#
# Elastic Constant Matrix: (Units=GPa)
#
#
# Indices 1 2 3 4 5 6 
#
# 1 110.0659 60.7455 49.1112 0.0000 0.0000 0.0000
# 2 60.7455 164.8530 60.1470 0.0000 0.0000 0.0000
# 3 49.1112 60.1470 101.6132 0.0000 0.0000 0.0000
# 4 0.0000 0.0000 0.0000 14.9303 0.0000 0.0000
# 5 0.0000 0.0000 0.0000 0.0000 35.3992 0.0000
# 6 0.0000 0.0000 0.0000 0.0000 0.0000 12.4489
#
#
#
# Elastic Compliance Matrix: (Units=1/GPa)
#
#
# Indices 1 2 3 4 5 6 
#
# 1 0.012728 -0.003119 -0.004305 0.000000 0.000000 0.000000
# 2 -0.003119 0.008501 -0.003525 0.000000 0.000000 0.000000
# 3 -0.004305 -0.003525 0.014008 0.000000 0.000000 0.000000
# 4 0.000000 0.000000 0.000000 0.066978 0.000000 0.000000
# 5 0.000000 0.000000 0.000000 0.000000 0.028249 0.000000
# 6 0.000000 0.000000 0.000000 0.000000 0.000000 0.080328
#
#
# Mechanical properties :
#
#
# Convention : Reuss Voigt Hill
#
# Bulk Modulus (GPa) = 74.96542 79.61550 77.29046
# Shear Modulus (GPa) = 21.08478 26.32424 23.70451
#
# Velocity S-wave (km/s) = 3.24482 3.62563 3.44050
# Velocity P-wave (km/s) = 7.17446 7.56858 7.37416
#
# Compressibility (1/GPa) = 0.01333948
#
# Stress axis : x y z
#
# Youngs Moduli (GPa) = 78.56705 117.62850 71.38630
#
# Poissons Ratio (x) = 0.36691 0.30734
# Poissons Ratio (y) = 0.24507 0.25160
# Poissons Ratio (z) = 0.33825 0.41459
#
# Static dielectric constant tensor:
#      x y z
#    x 1.942740 0.000000 0.000000 
#    y 0.000000 1.664910 0.000000 
#    z 0.000000 0.000000 1.741720 
# 
# From -- ./inp_files/34630.got.cif
#   From: 2010.05.17/outbox.cif.g08.bks.cpg/sg24_18_cif.got.tgz:34630.got - 2010.06.04 00:33:39.
