data_PCOD9336040
_publ_section_title
;
Structure prediction by ZEFSAII (Michael W. Deem and Ramdas Pophale) SiO2 
 PCOD9336040
Probable space group: I 21 21 21
;
_chemical_formula_sum "Si O2"
_cell_formula_units_Z 48
_cell_length_a 5.256234
_cell_length_b 31.090240
_cell_length_c 14.556308
_cell_angle_alpha 90.000000
_cell_angle_beta 90.000000
_cell_angle_gamma 90.000000
_cell_volume 2378.756577
_symmetry_space_group_name_H-M "I 21 21 21"
_symmetry_group_IT_number 24
_symmetry_cell_setting 'orthorhombic'
loop_
_space_group_symop_operation_xyz
x,y,z
-x,1/2-y,z
x,-y,1/2-z
1/2-x,y,-z
1/2+x,1/2+y,1/2+z
1/2-x,-y,1/2+z
1/2+x,1/2-y,-z
-x,1/2+y,1/2-z
loop_
_atom_site_type_symbol
_atom_site_label
_atom_site_fract_x
_atom_site_fract_y
_atom_site_fract_z
Si Si1 0.511263 0.375556 0.560047
Si Si2 0.498588 0.301754 0.941854
Si Si3 0.550537 0.861856 0.729432
Si Si4 0.553943 0.413195 0.169794
Si Si5 0.750000 0.549528 0.500000
Si Si6 0.118812 0.500000 0.750000
Si Si7 0.550360 0.972854 0.917404
O O1 0.250000 0.373771 0.500000
O O2 0.467554 0.354422 0.660494
O O3 0.576916 0.426015 0.581536
O O4 0.750000 0.358737 0.500000
O O5 0.500000 0.250000 0.934583
O O6 0.480424 0.321958 0.840432
O O7 0.750000 0.314548 0.000000
O O8 0.250000 0.314686 0.000000
O O9 0.314179 0.891835 0.701737
O O10 0.814215 0.885749 0.704326
O O11 0.564762 0.421053 0.060240
O O12 0.538476 0.460691 0.211338
O O13 0.610390 0.515698 0.566300
O O14 0.295112 0.521068 0.825891
O O15 0.750000 0.972096 0.000000
#
# Coordination Sequence:
#
# PCOD9336040 Si02
#       7
#     8   8   8   8   4   4   8
#     4  11  24  42  63  86 121 169 224 268 317 366
#     4  10  23  46  76 105 136 170 203 251 330 424
#     4  12  26  44  66  98 129 169 215 278 330 387
#     4  12  28  39  62  89 132 171 223 275 328 378
#     4  12  26  38  58  84 122 174 228 278 336 378
#     4  12  24  44  56  84 122 176 230 272 324 378
#     4  11  23  41  56  76 117 165 229 272 318 374
#
# _framework density 20.178609000000002
#
# number of rings (size 3 to 8) (size 9 to 14) (size 15 to 20)
#    0.000    0.667    4.167    3.000    8.167    0.667 
#    0.000    0.000    0.000    1.000    0.000    0.000 
#    0.000    0.000    0.000    0.000    0.000    0.000 
#
# Total GULP energy -134183.564800 kJ/mol
# GULP energy per Si atom -5590.981867 kJ/mol
# Density = 2.013268 g / cm^3
# Si number density = 20.178609 Si / 1000 Ang^3
#
#
#
# Elastic Constant Matrix: (Units=GPa)
#
#
# Indices 1 2 3 4 5 6 
#
# 1 85.5534 9.3514 50.2832 0.0000 0.0000 0.0000
# 2 9.3514 41.6723 39.5446 0.0000 0.0000 0.0000
# 3 50.2832 39.5446 175.0637 0.0000 0.0000 0.0000
# 4 0.0000 0.0000 0.0000 24.7696 0.0000 0.0000
# 5 0.0000 0.0000 0.0000 0.0000 42.4447 0.0000
# 6 0.0000 0.0000 0.0000 0.0000 0.0000 9.2299
#
#
#
# Elastic Compliance Matrix: (Units=1/GPa)
#
#
# Indices 1 2 3 4 5 6 
#
# 1 0.014087 0.000863 -0.004241 0.000000 0.000000 0.000000
# 2 0.000863 0.030597 -0.007159 0.000000 0.000000 0.000000
# 3 -0.004241 -0.007159 0.008548 0.000000 0.000000 0.000000
# 4 0.000000 0.000000 0.000000 0.040372 0.000000 0.000000
# 5 0.000000 0.000000 0.000000 0.000000 0.023560 0.000000
# 6 0.000000 0.000000 0.000000 0.000000 0.000000 0.108343
#
#
# Mechanical properties :
#
#
# Convention : Reuss Voigt Hill
#
# Bulk Modulus (GPa) = 31.09732 55.62754 43.36243
# Shear Modulus (GPa) = 19.43258 28.82953 24.13106
#
# Velocity S-wave (km/s) = 3.10664 3.78394 3.46189
# Velocity P-wave (km/s) = 5.32097 6.83508 6.12499
#
# Compressibility (1/GPa) = 0.03215711
#
# Stress axis : x y z
#
# Youngs Moduli (GPa) = 70.98764 32.68307 116.99148
#
# Poissons Ratio (x) = -0.02822 0.49619
# Poissons Ratio (y) = -0.06130 0.83760
# Poissons Ratio (z) = 0.30107 0.23399
#
# Static dielectric constant tensor:
#      x y z
#    x 1.760610 0.000000 0.000000 
#    y 0.000000 1.696290 0.000000 
#    z 0.000000 0.000000 1.736570 
# 
# From -- ./inp_files/24039.got.cif
#   From: 2010.05.17/outbox.cif.g08.bks.cpg/sg24_13_cif.got.tgz:24039.got - 2010.06.04 00:33:39.
