data_PCOD9336886
_publ_section_title
;
Structure prediction by ZEFSAII (Michael W. Deem and Ramdas Pophale) SiO2 
 PCOD9336886
Probable space group: I 21 21 21
;
_chemical_formula_sum "Si O2"
_cell_formula_units_Z 32
_cell_length_a 13.022506
_cell_length_b 4.977144
_cell_length_c 22.647895
_cell_angle_alpha 90.000000
_cell_angle_beta 90.000000
_cell_angle_gamma 90.000000
_cell_volume 1467.920769
_symmetry_space_group_name_H-M "I 21 21 21"
_symmetry_group_IT_number 24
_symmetry_cell_setting 'orthorhombic'
loop_
_space_group_symop_operation_xyz
x,y,z
-x,1/2-y,z
x,-y,1/2-z
1/2-x,y,-z
1/2+x,1/2+y,1/2+z
1/2-x,-y,1/2+z
1/2+x,1/2-y,-z
-x,1/2+y,1/2-z
loop_
_atom_site_type_symbol
_atom_site_label
_atom_site_fract_x
_atom_site_fract_y
_atom_site_fract_z
Si Si1 0.223396 0.419020 0.933349
Si Si2 0.000000 0.750000 0.811277
Si Si3 0.500000 0.750000 0.793548
Si Si4 0.674344 0.500000 0.250000
Si Si5 0.799800 0.564453 0.136464
Si Si6 0.000000 0.750000 0.603038
O O1 0.241764 0.677119 0.891307
O O2 0.106056 0.310610 0.930742
O O3 0.296100 0.174906 0.911090
O O4 0.250000 0.496126 0.000000
O O5 0.901281 0.735451 0.769828
O O6 0.986610 0.500670 0.854057
O O7 0.473521 0.500000 0.750000
O O8 0.592868 0.662871 0.836378
O O9 0.742123 0.440721 0.193284
#
# Coordination Sequence:
#
# PCOD9336886 Si02
#       6
#     8   4   4   4   8   4
#     4  12  27  49  73 102 143 191 240 294 343 414
#     4  12  25  38  73 106 149 176 217 278 374 428
#     4  12  26  46  72 104 144 188 236 292 354 426
#     4  12  24  44  70 112 144 180 222 292 358 442
#     4  12  27  45  75 105 142 188 237 291 358 417
#     4  12  23  46  67 108 137 186 233 284 344 430
#
# _framework density 21.799541999999999
#
# number of rings (size 3 to 8) (size 9 to 14) (size 15 to 20)
#    0.000    0.000    6.250    3.000    0.000    4.000 
#    0.000    0.000    0.000    0.000    0.000    0.000 
#    0.000    0.000    0.000    0.000    0.000    0.000 
#
# Total GULP energy -89498.493755 kJ/mol
# GULP energy per Si atom -5593.655860 kJ/mol
# Density = 2.174993 g / cm^3
# Si number density = 21.799542 Si / 1000 Ang^3
#
#
#
# Elastic Constant Matrix: (Units=GPa)
#
#
# Indices 1 2 3 4 5 6 
#
# 1 117.7052 1.5257 55.4144 0.0000 0.0000 0.0000
# 2 1.5257 114.2494 29.8933 0.0000 0.0000 0.0000
# 3 55.4144 29.8933 124.6803 0.0000 0.0000 0.0000
# 4 0.0000 0.0000 0.0000 35.7966 0.0000 0.0000
# 5 0.0000 0.0000 0.0000 0.0000 35.6435 0.0000
# 6 0.0000 0.0000 0.0000 0.0000 0.0000 22.3935
#
#
#
# Elastic Compliance Matrix: (Units=1/GPa)
#
#
# Indices 1 2 3 4 5 6 
#
# 1 0.010895 0.001197 -0.005129 0.000000 0.000000 0.000000
# 2 0.001197 0.009470 -0.002802 0.000000 0.000000 0.000000
# 3 -0.005129 -0.002802 0.010972 0.000000 0.000000 0.000000
# 4 0.000000 0.000000 0.000000 0.027936 0.000000 0.000000
# 5 0.000000 0.000000 0.000000 0.000000 0.028056 0.000000
# 6 0.000000 0.000000 0.000000 0.000000 0.000000 0.044656
#
#
# Mechanical properties :
#
#
# Convention : Reuss Voigt Hill
#
# Bulk Modulus (GPa) = 55.96848 58.92239 57.44544
# Shear Modulus (GPa) = 33.02293 36.75349 34.88821
#
# Velocity S-wave (km/s) = 3.89632 4.11052 4.00485
# Velocity P-wave (km/s) = 6.78024 7.04389 6.91332
#
# Compressibility (1/GPa) = 0.01786720
#
# Stress axis : x y z
#
# Youngs Moduli (GPa) = 91.78458 105.59622 91.14034
#
# Poissons Ratio (x) = -0.12635 0.46748
# Poissons Ratio (y) = -0.10983 0.25541
# Poissons Ratio (z) = 0.47078 0.29592
#
# Static dielectric constant tensor:
#      x y z
#    x 1.833690 0.000000 0.000000 
#    y 0.000000 1.767800 0.000000 
#    z 0.000000 0.000000 1.776300 
# 
# From -- ./inp_files/33155.got.cif
#   From: 2010.05.17/outbox.cif.g08.bks.cpg/sg24_17_cif.got.tgz:33155.got - 2010.06.04 00:33:39.
