data_PCOD9336826
_publ_section_title
;
Structure prediction by ZEFSAII (Michael W. Deem and Ramdas Pophale) SiO2 
 PCOD9336826
Probable space group: I 21 21 21
;
_chemical_formula_sum "Si O2"
_cell_formula_units_Z 32
_cell_length_a 4.871281
_cell_length_b 12.063289
_cell_length_c 19.519693
_cell_angle_alpha 90.000000
_cell_angle_beta 90.000000
_cell_angle_gamma 90.000000
_cell_volume 1147.048808
_symmetry_space_group_name_H-M "I 21 21 21"
_symmetry_group_IT_number 24
_symmetry_cell_setting 'orthorhombic'
loop_
_space_group_symop_operation_xyz
x,y,z
-x,1/2-y,z
x,-y,1/2-z
1/2-x,y,-z
1/2+x,1/2+y,1/2+z
1/2-x,-y,1/2+z
1/2+x,1/2-y,-z
-x,1/2+y,1/2-z
loop_
_atom_site_type_symbol
_atom_site_label
_atom_site_fract_x
_atom_site_fract_y
_atom_site_fract_z
Si Si1 0.500000 0.250000 0.383907
Si Si2 0.405804 0.103062 0.709409
Si Si3 0.093374 0.403334 0.150984
Si Si4 0.921598 0.607392 0.557184
Si Si5 0.750000 0.901594 0.000000
O O1 0.295926 0.177473 0.335148
O O2 0.696328 0.182175 0.436758
O O3 0.585894 0.147260 0.773435
O O4 0.625808 0.035056 0.663588
O O5 0.295869 0.902745 0.617478
O O6 0.754386 0.500000 0.250000
O O7 0.308061 0.355508 0.097788
O O8 0.750000 0.672398 0.500000
O O9 0.015385 0.494132 0.517956
#
# Coordination Sequence:
#
# PCOD9336826 Si02
#       5
#     4   8   8   8   4
#     4  12  24  42  66 106 154 210 246 316 382 454
#     4   8  21  41  65  91 141 212 255 305 357 458
#     4   9  21  40  64  89 137 194 253 291 361 440
#     4  12  21  40  65  98 137 192 237 310 368 451
#     4  12  26  34  66 102 156 192 248 288 392 472
#
# _framework density 27.897679
#
# number of rings (size 3 to 8) (size 9 to 14) (size 15 to 20)
#    1.500    0.000    5.000    0.000    5.250    4.000 
#    0.000    0.000    0.000    0.000    0.000    0.000 
#   15.000    0.000    2.000    0.500    0.000    0.000 
#
# Total GULP energy -89155.819597 kJ/mol
# GULP energy per Si atom -5572.238725 kJ/mol
# Density = 2.783418 g / cm^3
# Si number density = 27.897679 Si / 1000 Ang^3
#
#
#
# Elastic Constant Matrix: (Units=GPa)
#
#
# Indices 1 2 3 4 5 6 
#
# 1 150.2686 47.4631 84.3190 0.0000 0.0000 0.0000
# 2 47.4631 127.5439 97.9390 0.0000 0.0000 0.0000
# 3 84.3190 97.9390 220.6018 0.0000 0.0000 0.0000
# 4 0.0000 0.0000 0.0000 121.7272 0.0000 0.0000
# 5 0.0000 0.0000 0.0000 0.0000 8.7605 0.0000
# 6 0.0000 0.0000 0.0000 0.0000 0.0000 22.7283
#
#
#
# Elastic Compliance Matrix: (Units=1/GPa)
#
#
# Indices 1 2 3 4 5 6 
#
# 1 0.008558 -0.001021 -0.002818 0.000000 0.000000 0.000000
# 2 -0.001021 0.012018 -0.004945 0.000000 0.000000 0.000000
# 3 -0.002818 -0.004945 0.007806 0.000000 0.000000 0.000000
# 4 0.000000 0.000000 0.000000 0.008215 0.000000 0.000000
# 5 0.000000 0.000000 0.000000 0.000000 0.114149 0.000000
# 6 0.000000 0.000000 0.000000 0.000000 0.000000 0.043998
#
#
# Mechanical properties :
#
#
# Convention : Reuss Voigt Hill
#
# Bulk Modulus (GPa) = 92.47676 106.42850 99.45263
# Shear Modulus (GPa) = 23.15713 48.55607 35.85660
#
# Velocity S-wave (km/s) = 2.88423 4.17646 3.58898
# Velocity P-wave (km/s) = 6.65674 7.84153 7.27330
#
# Compressibility (1/GPa) = 0.01081353
#
# Stress axis : x y z
#
# Youngs Moduli (GPa) = 116.84355 83.21052 128.11311
#
# Poissons Ratio (x) = 0.08496 0.36101
# Poissons Ratio (y) = 0.11930 0.63354
# Poissons Ratio (z) = 0.32926 0.41149
#
# Static dielectric constant tensor:
#      x y z
#    x 2.093200 0.000000 0.000000 
#    y 0.000000 2.340430 0.000000 
#    z 0.000000 0.000000 2.164300 
# 
# From -- ./inp_files/28585.got.cif
#   From: 2010.05.17/outbox.cif.g08.bks.cpg/sg24_15_cif.got.tgz:28585.got - 2010.06.04 00:33:39.
