data_PCOD9336349
_publ_section_title
;
Structure prediction by ZEFSAII (Michael W. Deem and Ramdas Pophale) SiO2 
 PCOD9336349
Probable space group: I 21 21 21
;
_chemical_formula_sum "Si O2"
_cell_formula_units_Z 20
_cell_length_a 5.452598
_cell_length_b 5.298597
_cell_length_c 29.284747
_cell_angle_alpha 90.000000
_cell_angle_beta 90.000000
_cell_angle_gamma 90.000000
_cell_volume 846.069122
_symmetry_space_group_name_H-M "I 21 21 21"
_symmetry_group_IT_number 24
_symmetry_cell_setting 'orthorhombic'
loop_
_space_group_symop_operation_xyz
x,y,z
-x,1/2-y,z
x,-y,1/2-z
1/2-x,y,-z
1/2+x,1/2+y,1/2+z
1/2-x,-y,1/2+z
1/2+x,1/2-y,-z
-x,1/2+y,1/2-z
loop_
_atom_site_type_symbol
_atom_site_label
_atom_site_fract_x
_atom_site_fract_y
_atom_site_fract_z
Si Si1 0.655600 0.500000 0.750000
Si Si2 0.500000 0.750000 0.526132
Si Si3 0.500000 0.250000 0.325617
Si Si4 0.138338 0.494488 0.115723
O O1 0.500000 0.750000 0.737283
O O2 0.818776 0.396057 0.708482
O O3 0.250000 0.838622 0.500000
O O4 0.381679 0.545021 0.561168
O O5 0.393674 0.460550 0.360006
O O6 0.000000 0.750000 0.127277
O O7 0.000000 0.250000 0.133704
#
# Coordination Sequence:
#
# PCOD9336349 Si02
#       4
#     4   4   4   8
#     4  12  30  52  76 122 160 218 278 344 404 508
#     4  10  26  52  83 122 170 212 281 340 424 500
#     4  12  28  52  83 114 168 216 277 338 426 478
#     4  10  27  47  79 118 157 213 272 336 412 495
#
# _framework density 23.638731
#
# number of rings (size 3 to 8) (size 9 to 14) (size 15 to 20)
#    1.200    0.000    0.000    2.400    5.600   19.200 
#    0.000    0.000    0.000    0.000    0.000    0.000 
#    0.000    0.000    0.000    0.000    0.000    0.000 
#
# Total GULP energy -55778.911578 kJ/mol
# GULP energy per Si atom -5577.891158 kJ/mol
# Density = 2.358493 g / cm^3
# Si number density = 23.638731 Si / 1000 Ang^3
#
#
#
# Elastic Constant Matrix: (Units=GPa)
#
#
# Indices 1 2 3 4 5 6 
#
# 1 132.7661 61.2525 96.0134 0.0000 0.0000 0.0000
# 2 61.2525 183.5189 45.7969 0.0000 0.0000 0.0000
# 3 96.0134 45.7969 167.2657 0.0000 0.0000 0.0000
# 4 0.0000 0.0000 0.0000 6.2885 0.0000 0.0000
# 5 0.0000 0.0000 0.0000 0.0000 7.2053 0.0000
# 6 0.0000 0.0000 0.0000 0.0000 0.0000 52.4607
#
#
#
# Elastic Compliance Matrix: (Units=1/GPa)
#
#
# Indices 1 2 3 4 5 6 
#
# 1 0.014184 -0.002901 -0.007348 0.000000 0.000000 0.000000
# 2 -0.002901 0.006442 -0.000099 0.000000 0.000000 0.000000
# 3 -0.007348 -0.000099 0.010223 0.000000 0.000000 0.000000
# 4 0.000000 0.000000 0.000000 0.159021 0.000000 0.000000
# 5 0.000000 0.000000 0.000000 0.000000 0.138787 0.000000
# 6 0.000000 0.000000 0.000000 0.000000 0.000000 0.019062
#
#
# Mechanical properties :
#
#
# Convention : Reuss Voigt Hill
#
# Bulk Modulus (GPa) = 98.47375 98.85292 98.66333
# Shear Modulus (GPa) = 13.44821 31.89009 22.66915
#
# Velocity S-wave (km/s) = 2.38776 3.67694 3.10010
# Velocity P-wave (km/s) = 7.02496 7.74180 7.39208
#
# Compressibility (1/GPa) = 0.01015499
#
# Stress axis : x y z
#
# Youngs Moduli (GPa) = 70.50274 155.23660 97.81644
#
# Poissons Ratio (x) = 0.45027 0.71872
# Poissons Ratio (y) = 0.20449 0.00966
# Poissons Ratio (z) = 0.51803 0.01534
#
# Static dielectric constant tensor:
#      x y z
#    x 2.175260 0.000000 0.000000 
#    y 0.000000 1.814940 0.000000 
#    z 0.000000 0.000000 1.922630 
# 
# From -- ./inp_files/36219.got.cif
#   From: 2010.05.17/outbox.cif.g08.bks.cpg/sg24_19_cif.got.tgz:36219.got - 2010.06.04 00:33:39.
