data_PCOD9336090
_publ_section_title
;
Structure prediction by ZEFSAII (Michael W. Deem and Ramdas Pophale) SiO2 
 PCOD9336090
Probable space group: I 21 21 21
;
_chemical_formula_sum "Si O2"
_cell_formula_units_Z 40
_cell_length_a 25.020667
_cell_length_b 14.612141
_cell_length_c 5.356921
_cell_angle_alpha 90.000000
_cell_angle_beta 90.000000
_cell_angle_gamma 90.000000
_cell_volume 1958.519856
_symmetry_space_group_name_H-M "I 21 21 21"
_symmetry_group_IT_number 24
_symmetry_cell_setting 'orthorhombic'
loop_
_space_group_symop_operation_xyz
x,y,z
-x,1/2-y,z
x,-y,1/2-z
1/2-x,y,-z
1/2+x,1/2+y,1/2+z
1/2-x,-y,1/2+z
1/2+x,1/2-y,-z
-x,1/2+y,1/2-z
loop_
_atom_site_type_symbol
_atom_site_label
_atom_site_fract_x
_atom_site_fract_y
_atom_site_fract_z
Si Si1 0.038657 0.404045 0.851404
Si Si2 0.785441 0.293185 0.253543
Si Si3 0.102009 0.747096 0.370957
Si Si4 0.000000 0.250000 0.481732
Si Si5 0.424272 0.943552 0.503829
Si Si6 0.284487 0.000000 0.750000
O O1 0.059728 0.500000 0.750000
O O2 0.010637 0.339807 0.645274
O O3 0.082894 0.340320 0.974062
O O4 0.988331 0.428881 0.025932
O O5 0.750000 0.275997 0.500000
O O6 0.839267 0.234119 0.238998
O O7 0.807364 0.397919 0.273182
O O8 0.750000 0.283770 0.000000
O O9 0.101050 0.842600 0.523546
O O10 0.053955 0.761999 0.175363
O O11 0.407219 0.000000 0.750000
O O12 0.413703 0.000000 0.250000
O O13 0.250000 0.992282 0.500000
#
# Coordination Sequence:
#
# PCOD9336090 Si02
#       6
#     8   8   8   4   8   4
#     4  11  24  40  62  97 142 180 222 281 344 419
#     4  10  24  42  63  93 129 178 226 278 335 403
#     4  12  24  40  67  99 137 183 232 283 342 422
#     4  12  22  44  66 102 138 174 230 274 360 416
#     4  11  23  39  62  98 141 179 217 271 336 410
#     4   8  16  38  58  84 126 166 216 262 316 384
#
# _framework density 20.423587000000001
#
# number of rings (size 3 to 8) (size 9 to 14) (size 15 to 20)
#    0.000    1.200    4.000    2.400    4.200    0.000 
#    7.200    0.000    2.200    0.000    5.200    0.000 
#    0.000    0.000    0.000    0.000    0.000    0.000 
#
# Total GULP energy -111663.506914 kJ/mol
# GULP energy per Si atom -5583.175346 kJ/mol
# Density = 2.037710 g / cm^3
# Si number density = 20.423587 Si / 1000 Ang^3
#
#
#
# Elastic Constant Matrix: (Units=GPa)
#
#
# Indices 1 2 3 4 5 6 
#
# 1 141.3425 47.5947 64.8196 0.0000 0.0000 0.0000
# 2 47.5947 146.5380 65.3804 0.0000 0.0000 0.0000
# 3 64.8196 65.3804 123.2702 0.0000 0.0000 0.0000
# 4 0.0000 0.0000 0.0000 28.0775 0.0000 0.0000
# 5 0.0000 0.0000 0.0000 0.0000 10.2695 0.0000
# 6 0.0000 0.0000 0.0000 0.0000 0.0000 22.9018
#
#
#
# Elastic Compliance Matrix: (Units=1/GPa)
#
#
# Indices 1 2 3 4 5 6 
#
# 1 0.009461 -0.001118 -0.004382 0.000000 0.000000 0.000000
# 2 -0.001118 0.009072 -0.004224 0.000000 0.000000 0.000000
# 3 -0.004382 -0.004224 0.012657 0.000000 0.000000 0.000000
# 4 0.000000 0.000000 0.000000 0.035616 0.000000 0.000000
# 5 0.000000 0.000000 0.000000 0.000000 0.097375 0.000000
# 6 0.000000 0.000000 0.000000 0.000000 0.000000 0.043665
#
#
# Mechanical properties :
#
#
# Convention : Reuss Voigt Hill
#
# Bulk Modulus (GPa) = 85.16218 85.19334 85.17776
# Shear Modulus (GPa) = 21.62572 27.80686 24.71629
#
# Velocity S-wave (km/s) = 3.25754 3.69386 3.48254
# Velocity P-wave (km/s) = 7.47912 7.74575 7.61360
#
# Compressibility (1/GPa) = 0.01174230
#
# Stress axis : x y z
#
# Youngs Moduli (GPa) = 105.69689 110.23310 79.00957
#
# Poissons Ratio (x) = 0.12321 0.34623
# Poissons Ratio (y) = 0.11814 0.33371
# Poissons Ratio (z) = 0.46317 0.46559
#
# Static dielectric constant tensor:
#      x y z
#    x 1.755380 0.000000 0.000000 
#    y 0.000000 1.760000 0.000000 
#    z 0.000000 0.000000 1.783590 
# 
# From -- ./inp_files/6310.got.cif
#   From: 2010.05.17/outbox.cif.g08.bks.cpg/sg24_4_cif.got.tgz:6310.got - 2010.06.04 00:33:39.
