data_PCOD9336362
_publ_section_title
;
Structure prediction by ZEFSAII (Michael W. Deem and Ramdas Pophale) SiO2 
 PCOD9336362
Probable space group: I 21 21 21
;
_chemical_formula_sum "Si O2"
_cell_formula_units_Z 56
_cell_length_a 19.505895
_cell_length_b 12.639362
_cell_length_c 12.271169
_cell_angle_alpha 90.000000
_cell_angle_beta 90.000000
_cell_angle_gamma 90.000000
_cell_volume 3025.359383
_symmetry_space_group_name_H-M "I 21 21 21"
_symmetry_group_IT_number 24
_symmetry_cell_setting 'orthorhombic'
loop_
_space_group_symop_operation_xyz
x,y,z
-x,1/2-y,z
x,-y,1/2-z
1/2-x,y,-z
1/2+x,1/2+y,1/2+z
1/2-x,-y,1/2+z
1/2+x,1/2-y,-z
-x,1/2+y,1/2-z
loop_
_atom_site_type_symbol
_atom_site_label
_atom_site_fract_x
_atom_site_fract_y
_atom_site_fract_z
Si Si1 0.904314 0.171851 0.763527
Si Si2 0.052896 0.894999 0.682048
Si Si3 0.082457 0.230311 0.385067
Si Si4 0.421786 0.211803 0.863971
Si Si5 0.439020 0.001926 0.536200
Si Si6 0.670687 0.854922 0.477140
Si Si7 0.095066 0.429274 0.523976
O O1 0.913799 0.297967 0.752574
O O2 0.843503 0.156449 0.847981
O O3 0.903132 0.107917 0.650842
O O4 0.972950 0.136157 0.828553
O O5 0.055714 0.000000 0.750000
O O6 0.083888 0.930914 0.567430
O O7 0.101599 0.238553 0.258478
O O8 0.095235 0.114096 0.435759
O O9 0.113206 0.325093 0.455341
O O10 0.000000 0.250000 0.389150
O O11 0.500000 0.250000 0.882135
O O12 0.427639 0.084336 0.870204
O O13 0.374522 0.272296 0.951903
O O14 0.518253 0.032404 0.509326
O O15 0.750000 0.840251 0.500000
O O16 0.644576 0.973491 0.501714
#
# Coordination Sequence:
#
# PCOD9336362 Si02
#       7
#     8   8   8   8   8   8   8
#     4  11  21  35  57  90 125 156 200 250 305 375
#     4  11  18  29  59  95 123 149 184 251 318 360
#     4   9  22  34  58  94 123 158 198 258 303 364
#     4  11  20  40  62  87 123 159 212 251 308 367
#     4  11  18  34  61  92 122 151 196 255 315 358
#     4  12  25  41  61  88 123 170 208 253 309 374
#     4  11  21  39  57  89 131 155 203 249 312 370
#
# _framework density 18.510197000000002
#
# number of rings (size 3 to 8) (size 9 to 14) (size 15 to 20)
#    0.000    1.143    5.714    1.714    4.000    0.571 
#    5.143    0.000    0.000    2.571    0.000    0.000 
#    0.000    0.000    0.000    0.000    0.000    0.000 
#
# Total GULP energy -156105.128964 kJ/mol
# GULP energy per Si atom -5575.183177 kJ/mol
# Density = 1.846807 g / cm^3
# Si number density = 18.510197 Si / 1000 Ang^3
#
#
#
# Elastic Constant Matrix: (Units=GPa)
#
#
# Indices 1 2 3 4 5 6 
#
# 1 64.0333 34.2643 33.7282 0.0000 0.0000 0.0000
# 2 34.2643 170.3693 44.1251 0.0000 0.0000 0.0000
# 3 33.7282 44.1251 93.4553 0.0000 0.0000 0.0000
# 4 0.0000 0.0000 0.0000 34.1661 0.0000 0.0000
# 5 0.0000 0.0000 0.0000 0.0000 7.3010 0.0000
# 6 0.0000 0.0000 0.0000 0.0000 0.0000 11.7000
#
#
#
# Elastic Compliance Matrix: (Units=1/GPa)
#
#
# Indices 1 2 3 4 5 6 
#
# 1 0.020157 -0.002472 -0.006107 0.000000 0.000000 0.000000
# 2 -0.002472 0.006991 -0.002408 0.000000 0.000000 0.000000
# 3 -0.006107 -0.002408 0.014042 0.000000 0.000000 0.000000
# 4 0.000000 0.000000 0.000000 0.029269 0.000000 0.000000
# 5 0.000000 0.000000 0.000000 0.000000 0.136968 0.000000
# 6 0.000000 0.000000 0.000000 0.000000 0.000000 0.085470
#
#
# Mechanical properties :
#
#
# Convention : Reuss Voigt Hill
#
# Bulk Modulus (GPa) = 52.04798 61.34366 56.69582
# Shear Modulus (GPa) = 15.56294 25.01610 20.28952
#
# Velocity S-wave (km/s) = 2.90276 3.68023 3.31437
# Velocity P-wave (km/s) = 6.27808 7.16039 6.73370
#
# Compressibility (1/GPa) = 0.01921304
#
# Stress axis : x y z
#
# Youngs Moduli (GPa) = 49.61156 143.05020 71.21690
#
# Poissons Ratio (x) = 0.35363 0.43495
# Poissons Ratio (y) = 0.12264 0.17152
# Poissons Ratio (z) = 0.30300 0.34453
#
# Static dielectric constant tensor:
#      x y z
#    x 1.622290 0.000000 0.000000 
#    y 0.000000 1.684150 0.000000 
#    z 0.000000 0.000000 1.756530 
# 
# From -- ./inp_files/22191.got.cif
#   From: 2010.05.17/outbox.cif.g08.bks.cpg/sg24_12_cif.got.tgz:22191.got - 2010.06.04 00:33:39.
