data_PCOD9336461
_publ_section_title
;
Structure prediction by ZEFSAII (Michael W. Deem and Ramdas Pophale) SiO2 
 PCOD9336461
Probable space group: I 21 21 21
;
_chemical_formula_sum "Si O2"
_cell_formula_units_Z 48
_cell_length_a 17.258874
_cell_length_b 16.147613
_cell_length_c 7.759984
_cell_angle_alpha 90.000000
_cell_angle_beta 90.000000
_cell_angle_gamma 90.000000
_cell_volume 2162.626978
_symmetry_space_group_name_H-M "I 21 21 21"
_symmetry_group_IT_number 24
_symmetry_cell_setting 'orthorhombic'
loop_
_space_group_symop_operation_xyz
x,y,z
-x,1/2-y,z
x,-y,1/2-z
1/2-x,y,-z
1/2+x,1/2+y,1/2+z
1/2-x,-y,1/2+z
1/2+x,1/2-y,-z
-x,1/2+y,1/2-z
loop_
_atom_site_type_symbol
_atom_site_label
_atom_site_fract_x
_atom_site_fract_y
_atom_site_fract_z
Si Si1 0.596416 0.172648 0.102489
Si Si2 0.551162 0.597502 0.227583
Si Si3 0.074899 0.188528 0.361000
Si Si4 0.162872 0.331045 0.544846
Si Si5 0.340322 0.493697 0.952455
Si Si6 0.343804 0.162084 0.976403
O O1 0.513498 0.157990 0.188380
O O2 0.653667 0.192832 0.259265
O O3 0.616216 0.246855 0.977669
O O4 0.616267 0.086124 0.017438
O O5 0.531856 0.500000 0.250000
O O6 0.623876 0.613800 0.355877
O O7 0.560341 0.629720 0.030093
O O8 0.134960 0.257739 0.426369
O O9 0.000000 0.250000 0.325010
O O10 0.115460 0.135574 0.206286
O O11 0.250000 0.348962 0.500000
O O12 0.124144 0.421384 0.526572
O O13 0.345366 0.500000 0.750000
O O14 0.250000 0.482394 0.000000
O O15 0.250000 0.164831 0.000000
#
# Coordination Sequence:
#
# PCOD9336461 Si02
#       6
#     8   8   8   8   8   8
#     4  12  22  45  71 100 147 186 237 305 363 444
#     4  12  27  50  72 104 148 192 246 313 371 434
#     4  12  24  45  76 106 141 193 241 298 367 442
#     4  11  21  37  65 100 138 187 232 290 366 435
#     4  11  22  36  59 102 146 190 233 288 364 445
#     4  12  27  48  74 109 143 191 249 306 367 440
#
# _framework density 22.195229000000001
#
# number of rings (size 3 to 8) (size 9 to 14) (size 15 to 20)
#    0.000    0.333    3.333    7.500    0.000    0.667 
#    3.000    0.000    0.000    0.000    0.000    0.000 
#    0.000    0.000    0.000    0.000    0.000    0.000 
#
# Total GULP energy -133946.041479 kJ/mol
# GULP energy per Si atom -5581.085062 kJ/mol
# Density = 2.214471 g / cm^3
# Si number density = 22.195229 Si / 1000 Ang^3
#
#
#
# Elastic Constant Matrix: (Units=GPa)
#
#
# Indices 1 2 3 4 5 6 
#
# 1 102.7713 19.8641 52.5782 0.0000 0.0000 0.0000
# 2 19.8641 73.5825 -5.7295 0.0000 0.0000 0.0000
# 3 52.5782 -5.7295 125.3677 0.0000 0.0000 0.0000
# 4 0.0000 0.0000 0.0000 35.9243 0.0000 0.0000
# 5 0.0000 0.0000 0.0000 0.0000 51.2017 0.0000
# 6 0.0000 0.0000 0.0000 0.0000 0.0000 -69.6483
#
#
#
# Elastic Compliance Matrix: (Units=1/GPa)
#
#
# Indices 1 2 3 4 5 6 
#
# 1 0.013521 -0.004106 -0.005858 0.000000 0.000000 0.000000
# 2 -0.004106 0.014886 0.002402 0.000000 0.000000 0.000000
# 3 -0.005858 0.002402 0.010543 0.000000 0.000000 0.000000
# 4 0.000000 0.000000 0.000000 0.027836 0.000000 0.000000
# 5 0.000000 0.000000 0.000000 0.000000 0.019531 0.000000
# 6 0.000000 0.000000 0.000000 0.000000 0.000000 -0.014358
#
#
# Mechanical properties :
#
#
# Convention : Reuss Voigt Hill
#
# Bulk Modulus (GPa) = 41.97118 48.34967 45.16043
# Shear Modulus (GPa) = 52.61741 19.16281 35.89011
#
# Velocity S-wave (km/s) = 4.87423 2.94151 4.02558
# Velocity P-wave (km/s) = 7.11537 5.77648 6.48060
#
# Compressibility (1/GPa) = 0.02382587
#
# Stress axis : x y z
#
# Youngs Moduli (GPa) = 73.95805 67.17817 94.84722
#
# Poissons Ratio (x) = 0.27585 0.55565
# Poissons Ratio (y) = 0.30369 -0.22787
# Poissons Ratio (z) = 0.43327 -0.16139
#
# Static dielectric constant tensor:
#      x y z
#    x 1.835910 0.000000 0.000000 
#    y 0.000000 1.528440 0.000000 
#    z 0.000000 0.000000 2.196380 
# 
# From -- ./inp_files/14181.got.cif
#   From: 2010.05.17/outbox.cif.g08.bks.cpg/sg24_8_cif.got.tgz:14181.got - 2010.06.04 00:33:39.
