data_PCOD9336596
_publ_section_title
;
Structure prediction by ZEFSAII (Michael W. Deem and Ramdas Pophale) SiO2 
 PCOD9336596
Probable space group: I 21 21 21
;
_chemical_formula_sum "Si O2"
_cell_formula_units_Z 40
_cell_length_a 17.882666
_cell_length_b 4.956384
_cell_length_c 18.974712
_cell_angle_alpha 90.000000
_cell_angle_beta 90.000000
_cell_angle_gamma 90.000000
_cell_volume 1681.792473
_symmetry_space_group_name_H-M "I 21 21 21"
_symmetry_group_IT_number 24
_symmetry_cell_setting 'orthorhombic'
loop_
_space_group_symop_operation_xyz
x,y,z
-x,1/2-y,z
x,-y,1/2-z
1/2-x,y,-z
1/2+x,1/2+y,1/2+z
1/2-x,-y,1/2+z
1/2+x,1/2-y,-z
-x,1/2+y,1/2-z
loop_
_atom_site_type_symbol
_atom_site_label
_atom_site_fract_x
_atom_site_fract_y
_atom_site_fract_z
Si Si1 0.818598 0.759661 0.344618
Si Si2 0.303947 0.500000 0.250000
Si Si3 0.053721 0.001173 0.969056
Si Si4 0.313065 0.769286 0.940147
Si Si5 0.414639 0.150401 0.322241
Si Si6 0.050456 0.500000 0.250000
O O1 0.807126 0.457829 0.371816
O O2 0.895743 0.850727 0.306658
O O3 0.752994 0.801777 0.288685
O O4 0.813639 0.963721 0.411561
O O5 0.356060 0.391365 0.313688
O O6 0.092503 0.029129 0.892276
O O7 0.000000 0.750000 0.958596
O O8 0.112803 0.895288 0.024862
O O9 0.000000 0.250000 0.987414
O O10 0.250000 0.796180 0.000000
O O11 0.500000 0.250000 0.317115
O O12 0.399921 0.000000 0.250000
O O13 0.000000 0.750000 0.221141
#
# Coordination Sequence:
#
# PCOD9336596 Si02
#       6
#     8   4   8   8   8   4
#     4  11  27  45  69 103 132 180 229 275 343 404
#     4  11  26  42  68  97 138 178 224 283 328 396
#     4  11  26  44  69 101 135 174 226 275 334 402
#     4  12  26  46  69  98 140 181 226 274 338 402
#     4  11  23  40  67  97 133 173 222 269 329 392
#     4  11  24  46  74 103 134 172 226 295 344 404
#
# _framework density 23.784146
#
# number of rings (size 3 to 8) (size 9 to 14) (size 15 to 20)
#    0.000    0.800    1.000    4.800    8.400    6.400 
#    0.000    0.000    0.000    0.000    0.000    0.000 
#    0.000    0.000    0.000    0.000    0.000    0.000 
#
# Total GULP energy -111836.477531 kJ/mol
# GULP energy per Si atom -5591.823877 kJ/mol
# Density = 2.373001 g / cm^3
# Si number density = 23.784146 Si / 1000 Ang^3
#
#
#
# Elastic Constant Matrix: (Units=GPa)
#
#
# Indices 1 2 3 4 5 6 
#
# 1 106.7794 11.0658 21.1163 0.0000 0.0000 0.0000
# 2 11.0658 74.2071 -14.7435 0.0000 0.0000 0.0000
# 3 21.1163 -14.7435 67.0039 0.0000 0.0000 0.0000
# 4 0.0000 0.0000 0.0000 54.3822 0.0000 0.0000
# 5 0.0000 0.0000 0.0000 0.0000 13.0897 0.0000
# 6 0.0000 0.0000 0.0000 0.0000 0.0000 -4.1824
#
#
#
# Elastic Compliance Matrix: (Units=1/GPa)
#
#
# Indices 1 2 3 4 5 6 
#
# 1 0.010347 -0.002291 -0.003765 0.000000 0.000000 0.000000
# 2 -0.002291 0.014599 0.003934 0.000000 0.000000 0.000000
# 3 -0.003765 0.003934 0.016977 0.000000 0.000000 0.000000
# 4 0.000000 0.000000 0.000000 0.018388 0.000000 0.000000
# 5 0.000000 0.000000 0.000000 0.000000 0.076396 0.000000
# 6 0.000000 0.000000 0.000000 0.000000 0.000000 -0.239097
#
#
# Mechanical properties :
#
#
# Convention : Reuss Voigt Hill
#
# Bulk Modulus (GPa) = 26.53944 31.42973 28.98458
# Shear Modulus (GPa) = -58.42012 28.02803 -15.19605
#
# Velocity S-wave (km/s) = -4.96145 3.43656 -2.53042
# Velocity P-wave (km/s) = 4.65173 5.38422 1.91719
#
# Compressibility (1/GPa) = 0.03767978
#
# Stress axis : x y z
#
# Youngs Moduli (GPa) = 96.64573 68.49731 58.90405
#
# Poissons Ratio (x) = 0.15693 0.22177
# Poissons Ratio (y) = 0.22141 -0.23175
# Poissons Ratio (z) = 0.36387 -0.26950
#
# Static dielectric constant tensor:
#      x y z
#    x 1.882370 0.000000 0.000000 
#    y 0.000000 2.289460 0.000000 
#    z 0.000000 0.000000 2.046000 
# 
# From -- ./inp_files/31005.got.cif
#   From: 2010.05.17/outbox.cif.g08.bks.cpg/sg24_16_cif.got.tgz:31005.got - 2010.06.04 00:33:39.
