data_PCOD9336904
_publ_section_title
;
Structure prediction by ZEFSAII (Michael W. Deem and Ramdas Pophale) SiO2 
 PCOD9336904
Probable space group: I 21 21 21
;
_chemical_formula_sum "Si O2"
_cell_formula_units_Z 40
_cell_length_a 14.800572
_cell_length_b 22.169278
_cell_length_c 5.160608
_cell_angle_alpha 90.000000
_cell_angle_beta 90.000000
_cell_angle_gamma 90.000000
_cell_volume 1693.288351
_symmetry_space_group_name_H-M "I 21 21 21"
_symmetry_group_IT_number 24
_symmetry_cell_setting 'orthorhombic'
loop_
_space_group_symop_operation_xyz
x,y,z
-x,1/2-y,z
x,-y,1/2-z
1/2-x,y,-z
1/2+x,1/2+y,1/2+z
1/2-x,-y,1/2+z
1/2+x,1/2-y,-z
-x,1/2+y,1/2-z
loop_
_atom_site_type_symbol
_atom_site_label
_atom_site_fract_x
_atom_site_fract_y
_atom_site_fract_z
Si Si1 0.750000 0.098859 0.000000
Si Si2 0.004117 0.500000 0.750000
Si Si3 0.393150 0.108988 0.359796
Si Si4 0.250000 0.681339 0.000000
Si Si5 0.403556 0.772779 0.832251
Si Si6 0.250000 0.834547 0.500000
Si Si7 0.118058 0.500000 0.250000
Si Si8 0.250000 0.038141 0.500000
O O1 0.770666 0.141578 0.754968
O O2 0.676798 0.053800 0.873546
O O3 0.953545 0.563637 0.694449
O O4 0.059624 0.480791 0.496071
O O5 0.428538 0.171301 0.476986
O O6 0.301038 0.127115 0.213861
O O7 0.346585 0.068500 0.580499
O O8 0.160097 0.722403 0.035330
O O9 0.500000 0.750000 0.729646
O O10 0.332419 0.797053 0.621021
O O11 0.223304 0.000000 0.750000
#
# Coordination Sequence:
#
# PCOD9336904 Si02
#       8
#     4   4   8   4   8   4   4   4
#     4  12  28  52  91 103 167 215 278 356 434 474
#     4  12  31  44  81 122 170 202 288 330 434 504
#     4  12  27  45  76 112 163 213 262 350 404 507
#     4  12  26  54  81 129 153 229 282 344 420 524
#     4  12  29  49  78 115 170 215 284 347 429 497
#     4  12  24  54  73 111 164 219 279 342 408 522
#     4  12  29  56  75 126 154 214 278 362 402 516
#     4  12  24  42  75 109 150 207 253 310 404 482
#
# _framework density 23.622675000000001
#
# number of rings (size 3 to 8) (size 9 to 14) (size 15 to 20)
#    0.000    0.000    5.000    3.600    9.800    0.800 
#    0.000    0.000    0.000    0.000    0.000    0.000 
#    0.000    0.000    0.000    0.000    0.000    0.000 
#
# Total GULP energy -111620.796765 kJ/mol
# GULP energy per Si atom -5581.039838 kJ/mol
# Density = 2.356891 g / cm^3
# Si number density = 23.622675 Si / 1000 Ang^3
#
#
#
# Elastic Constant Matrix: (Units=GPa)
#
#
# Indices 1 2 3 4 5 6 
#
# 1 137.9642 52.8115 36.6079 0.0000 0.0003 0.0000
# 2 52.8115 115.5329 29.6568 0.0000 0.0002 0.0000
# 3 36.6079 29.6568 99.3825 0.0000 0.0009 0.0001
# 4 0.0000 0.0000 0.0000 33.1985 0.0000 0.0000
# 5 0.0003 0.0002 0.0009 0.0000 2403.3701 -0.0029
# 6 0.0000 0.0000 0.0001 0.0000 -0.0029 136.5461
#
#
#
# Elastic Compliance Matrix: (Units=1/GPa)
#
#
# Indices 1 2 3 4 5 6 
#
# 1 0.009256 -0.003634 -0.002325 0.000000 0.000000 0.000000
# 2 -0.003634 0.010801 -0.001884 0.000000 0.000000 0.000000
# 3 -0.002325 -0.001884 0.011481 0.000000 0.000000 0.000000
# 4 0.000000 0.000000 0.000000 0.030122 0.000000 0.000000
# 5 0.000000 0.000000 0.000000 0.000000 0.000416 0.000000
# 6 0.000000 0.000000 0.000000 0.000000 0.000000 0.007324
#
#
# Mechanical properties :
#
#
# Convention : Reuss Voigt Hill
#
# Bulk Modulus (GPa) = 63.09006 65.67023 64.38014
# Shear Modulus (GPa) = 55.32794 530.20983 292.76888
#
# Velocity S-wave (km/s) = 4.84483 14.99789 11.14471
# Velocity P-wave (km/s) = 7.61984 18.10458 13.88952
#
# Compressibility (1/GPa) = 0.01585036
#
# Stress axis : x y z
#
# Youngs Moduli (GPa) = 108.03322 92.58789 87.10140
#
# Poissons Ratio (x) = 0.33650 0.20252
# Poissons Ratio (y) = 0.39263 0.16412
# Poissons Ratio (z) = 0.25119 0.17446
#
# Static dielectric constant tensor:
#      x y z
#    x 1.995220 0.000000 0.000000 
#    y 0.000000 -4.721940 0.000000 
#    z 0.000000 0.000000 2.015810 
# 
# From -- ./inp_files/3591.got.cif
#   From: 2010.05.17/outbox.cif.g08.bks.cpg/sg24_2_cif.got.tgz:3591.got - 2010.06.04 00:33:39.
