data_PCOD9336216
_publ_section_title
;
Structure prediction by ZEFSAII (Michael W. Deem and Ramdas Pophale) SiO2 
 PCOD9336216
Probable space group: I 21 21 21
;
_chemical_formula_sum "Si O2"
_cell_formula_units_Z 56
_cell_length_a 15.154233
_cell_length_b 17.049589
_cell_length_c 10.696739
_cell_angle_alpha 90.000000
_cell_angle_beta 90.000000
_cell_angle_gamma 90.000000
_cell_volume 2763.753298
_symmetry_space_group_name_H-M "I 21 21 21"
_symmetry_group_IT_number 24
_symmetry_cell_setting 'orthorhombic'
loop_
_space_group_symop_operation_xyz
x,y,z
-x,1/2-y,z
x,-y,1/2-z
1/2-x,y,-z
1/2+x,1/2+y,1/2+z
1/2-x,-y,1/2+z
1/2+x,1/2-y,-z
-x,1/2+y,1/2-z
loop_
_atom_site_type_symbol
_atom_site_label
_atom_site_fract_x
_atom_site_fract_y
_atom_site_fract_z
Si Si1 0.001338 0.059363 0.136212
Si Si2 0.344818 0.941822 0.441471
Si Si3 0.650714 0.620388 0.028448
Si Si4 0.192777 0.543265 0.383541
Si Si5 0.090298 0.797829 0.733165
Si Si6 0.430171 0.190602 0.710009
Si Si7 0.266948 0.273703 0.854884
O O1 0.008179 0.146509 0.190179
O O2 0.908745 0.041834 0.072547
O O3 0.006569 0.000000 0.250000
O O4 0.084737 0.051895 0.050587
O O5 0.250000 0.920219 0.500000
O O6 0.384660 0.875644 0.349549
O O7 0.337426 0.034438 0.406578
O O8 0.595359 0.672292 0.124867
O O9 0.750000 0.649542 0.000000
O O10 0.604556 0.629364 0.893537
O O11 0.202083 0.500000 0.250000
O O12 0.250000 0.513218 0.500000
O O13 0.214222 0.634014 0.357910
O O14 0.174610 0.742436 0.712738
O O15 0.000000 0.750000 0.703725
O O16 0.500000 0.250000 0.648379
O O17 0.346486 0.228425 0.783315
O O18 0.250000 0.250468 0.000000
#
# Coordination Sequence:
#
# PCOD9336216 Si02
#       7
#     8   8   8   8   8   8   8
#     4  11  22  41  68  98 128 171 225 269 331 408
#     4  11  25  42  70 100 135 178 224 286 348 413
#     4  11  24  45  68  96 140 181 223 284 347 419
#     4  10  24  47  69  99 134 180 233 279 335 402
#     4  12  26  44  64 102 140 177 225 280 351 410
#     4  12  22  41  70 100 131 171 225 280 340 399
#     4  11  24  43  67  98 132 175 225 275 340 407
#
# _framework density 20.262301000000001
#
# number of rings (size 3 to 8) (size 9 to 14) (size 15 to 20)
#    0.000    0.857    4.286    3.000    4.000    1.143 
#    5.143    0.000    0.000    0.000    0.000    0.000 
#    0.000    0.000    0.000    0.000    0.000    0.000 
#
# Total GULP energy -156110.801367 kJ/mol
# GULP energy per Si atom -5575.385763 kJ/mol
# Density = 2.021618 g / cm^3
# Si number density = 20.262301 Si / 1000 Ang^3
#
#
#
# Elastic Constant Matrix: (Units=GPa)
#
#
# Indices 1 2 3 4 5 6 
#
# 1 169.6936 38.0603 54.8928 0.0000 0.0000 0.0000
# 2 38.0603 80.6725 29.8822 0.0000 0.0000 0.0000
# 3 54.8928 29.8822 63.2775 0.0000 0.0000 0.0000
# 4 0.0000 0.0000 0.0000 35.3805 0.0000 0.0000
# 5 0.0000 0.0000 0.0000 0.0000 28.2262 0.0000
# 6 0.0000 0.0000 0.0000 0.0000 0.0000 26.1354
#
#
#
# Elastic Compliance Matrix: (Units=1/GPa)
#
#
# Indices 1 2 3 4 5 6 
#
# 1 0.008343 -0.001521 -0.006519 0.000000 0.000000 0.000000
# 2 -0.001521 0.015301 -0.005906 0.000000 0.000000 0.000000
# 3 -0.006519 -0.005906 0.024248 0.000000 0.000000 0.000000
# 4 0.000000 0.000000 0.000000 0.028264 0.000000 0.000000
# 5 0.000000 0.000000 0.000000 0.000000 0.035428 0.000000
# 6 0.000000 0.000000 0.000000 0.000000 0.000000 0.038262
#
#
# Mechanical properties :
#
#
# Convention : Reuss Voigt Hill
#
# Bulk Modulus (GPa) = 50.00256 62.14602 56.07429
# Shear Modulus (GPa) = 27.11412 30.66898 28.89155
#
# Velocity S-wave (km/s) = 3.66205 3.89472 3.78018
# Velocity P-wave (km/s) = 6.52779 7.13880 6.84012
#
# Compressibility (1/GPa) = 0.01999898
#
# Stress axis : x y z
#
# Youngs Moduli (GPa) = 119.86105 65.35412 41.24101
#
# Poissons Ratio (x) = 0.09943 0.26885
# Poissons Ratio (y) = 0.18236 0.24357
# Poissons Ratio (z) = 0.78138 0.38599
#
# Static dielectric constant tensor:
#      x y z
#    x 1.691330 0.000000 0.000000 
#    y 0.000000 1.850150 0.000000 
#    z 0.000000 0.000000 1.726440 
# 
# From -- ./inp_files/20863.got.cif
#   From: 2010.05.17/outbox.cif.g08.bks.cpg/sg24_11_cif.got.tgz:20863.got - 2010.06.04 00:33:39.
