data_PCOD9336439
_publ_section_title
;
Structure prediction by ZEFSAII (Michael W. Deem and Ramdas Pophale) SiO2 
 PCOD9336439
Probable space group: I 21 21 21
;
_chemical_formula_sum "Si O2"
_cell_formula_units_Z 48
_cell_length_a 15.404871
_cell_length_b 9.217472
_cell_length_c 15.198547
_cell_angle_alpha 90.000000
_cell_angle_beta 90.000000
_cell_angle_gamma 90.000000
_cell_volume 2158.101983
_symmetry_space_group_name_H-M "I 21 21 21"
_symmetry_group_IT_number 24
_symmetry_cell_setting 'orthorhombic'
loop_
_space_group_symop_operation_xyz
x,y,z
-x,1/2-y,z
x,-y,1/2-z
1/2-x,y,-z
1/2+x,1/2+y,1/2+z
1/2-x,-y,1/2+z
1/2+x,1/2-y,-z
-x,1/2+y,1/2-z
loop_
_atom_site_type_symbol
_atom_site_label
_atom_site_fract_x
_atom_site_fract_y
_atom_site_fract_z
Si Si1 0.583845 0.165256 0.710726
Si Si2 0.346173 0.979543 0.155766
Si Si3 0.742417 0.201173 0.402840
Si Si4 0.156362 0.568858 0.658597
Si Si5 0.089081 0.799302 0.528336
Si Si6 0.805893 0.288677 0.145726
O O1 0.500000 0.250000 0.672303
O O2 0.664834 0.167754 0.641978
O O3 0.613498 0.273380 0.789634
O O4 0.570939 0.000000 0.750000
O O5 0.401156 0.044048 0.074642
O O6 0.256894 0.073767 0.155480
O O7 0.391054 0.000000 0.250000
O O8 0.314343 0.816266 0.150334
O O9 0.750000 0.264483 0.500000
O O10 0.684007 0.057871 0.407153
O O11 0.125269 0.500000 0.750000
O O12 0.099114 0.686266 0.608902
O O13 0.246247 0.653712 0.674538
O O14 0.162034 0.781477 0.454365
O O15 0.000000 0.750000 0.484743
#
# Coordination Sequence:
#
# PCOD9336439 Si02
#       6
#     8   8   8   8   8   8
#     4  12  26  43  68 106 140 174 212 278 348 391
#     4  11  22  41  69  93 125 175 228 272 321 396
#     4  12  22  41  64  95 133 173 221 266 325 403
#     4  11  20  41  69  90 123 173 224 262 320 401
#     4  11  25  42  64  98 132 171 223 276 328 392
#     4  11  20  44  66  95 129 173 220 262 325 411
#
# _framework density 22.241765999999998
#
# number of rings (size 3 to 8) (size 9 to 14) (size 15 to 20)
#    0.000    0.667    5.000    5.500    2.333    0.667 
#    3.000    0.833    0.000    0.000    0.000    0.000 
#    0.000    0.000    0.000    0.000    0.000    0.000 
#
# Total GULP energy -133993.734479 kJ/mol
# GULP energy per Si atom -5583.072270 kJ/mol
# Density = 2.219114 g / cm^3
# Si number density = 22.241766 Si / 1000 Ang^3
#
#
#
# Elastic Constant Matrix: (Units=GPa)
#
#
# Indices 1 2 3 4 5 6 
#
# 1 61.0420 10.6731 0.2219 0.0000 0.0000 0.0000
# 2 10.6731 76.7515 -17.8459 0.0000 0.0000 0.0000
# 3 0.2219 -17.8459 88.5816 0.0000 0.0000 0.0000
# 4 0.0000 0.0000 0.0000 26.5836 0.0000 0.0000
# 5 0.0000 0.0000 0.0000 0.0000 22.3441 0.0000
# 6 0.0000 0.0000 0.0000 0.0000 0.0000 12.0591
#
#
#
# Elastic Compliance Matrix: (Units=1/GPa)
#
#
# Indices 1 2 3 4 5 6 
#
# 1 0.016815 -0.002463 -0.000538 0.000000 0.000000 0.000000
# 2 -0.002463 0.014030 0.002833 0.000000 0.000000 0.000000
# 3 -0.000538 0.002833 0.011861 0.000000 0.000000 0.000000
# 4 0.000000 0.000000 0.000000 0.037617 0.000000 0.000000
# 5 0.000000 0.000000 0.000000 0.000000 0.044755 0.000000
# 6 0.000000 0.000000 0.000000 0.000000 0.000000 0.082925
#
#
# Mechanical properties :
#
#
# Convention : Reuss Voigt Hill
#
# Bulk Modulus (GPa) = 23.60277 23.60816 23.60546
# Shear Modulus (GPa) = 22.47557 27.75242 25.11399
#
# Velocity S-wave (km/s) = 3.18230 3.53620 3.36391
# Velocity P-wave (km/s) = 4.91301 5.22593 5.07188
#
# Compressibility (1/GPa) = 0.04236791
#
# Stress axis : x y z
#
# Youngs Moduli (GPa) = 59.47121 71.27434 84.30946
#
# Poissons Ratio (x) = 0.17558 0.04539
# Poissons Ratio (y) = 0.14651 -0.23883
# Poissons Ratio (z) = 0.03202 -0.20190
#
# Static dielectric constant tensor:
#      x y z
#    x 1.864910 0.000000 0.000000 
#    y 0.000000 1.818640 0.000000 
#    z 0.000000 0.000000 1.873860 
# 
# From -- ./inp_files/12776.got.cif
#   From: 2010.05.17/outbox.cif.g08.bks.cpg/sg24_7_cif.got.tgz:12776.got - 2010.06.04 00:33:39.
