data_PCOD9336767
_publ_section_title
;
Structure prediction by ZEFSAII (Michael W. Deem and Ramdas Pophale) SiO2 
 PCOD9336767
Probable space group: I 21 21 21
;
_chemical_formula_sum "Si O2"
_cell_formula_units_Z 32
_cell_length_a 11.199885
_cell_length_b 4.889844
_cell_length_c 25.542977
_cell_angle_alpha 90.000000
_cell_angle_beta 90.000000
_cell_angle_gamma 90.000000
_cell_volume 1398.878772
_symmetry_space_group_name_H-M "I 21 21 21"
_symmetry_group_IT_number 24
_symmetry_cell_setting 'orthorhombic'
loop_
_space_group_symop_operation_xyz
x,y,z
-x,1/2-y,z
x,-y,1/2-z
1/2-x,y,-z
1/2+x,1/2+y,1/2+z
1/2-x,-y,1/2+z
1/2+x,1/2-y,-z
-x,1/2+y,1/2-z
loop_
_atom_site_type_symbol
_atom_site_label
_atom_site_fract_x
_atom_site_fract_y
_atom_site_fract_z
Si Si1 0.324762 0.500000 0.250000
Si Si2 0.000000 0.250000 0.086164
Si Si3 0.500000 0.250000 0.665485
Si Si4 0.323264 0.000000 0.750000
Si Si5 0.000000 0.750000 0.834936
Si Si6 0.616912 0.952025 0.001624
Si Si7 0.000000 0.750000 0.594253
O O1 0.252175 0.752821 0.273850
O O2 0.401438 0.628162 0.203582
O O3 0.008071 0.500135 0.125849
O O4 0.104942 0.324675 0.044898
O O5 0.602577 0.343784 0.705613
O O6 0.954281 0.499939 0.870364
O O7 0.500000 0.750000 0.996247
O O8 0.750000 0.826487 0.000000
O O9 0.596452 0.111533 0.055963
#
# Coordination Sequence:
#
# PCOD9336767 Si02
#       7
#     4   4   4   4   4   8   4
#     4  12  26  46  74 108 152 204 248 318 378 452
#     4  11  25  48  75 106 147 206 249 315 386 464
#     4  12  25  49  71 110 149 193 257 306 376 464
#     4  12  26  46  74 108 152 204 248 318 376 456
#     4  12  25  49  73 110 155 191 261 306 382 460
#     4  11  26  51  77 115 156 199 258 329 392 469
#     4  11  25  48  75 108 145 210 249 319 384 464
#
# _framework density 22.875464000000001
#
# number of rings (size 3 to 8) (size 9 to 14) (size 15 to 20)
#    0.000    0.500    2.500    6.000    0.000   10.000 
#    4.500    0.000    0.000    0.000    0.000    0.000 
#    0.000    0.000    0.000    0.000    0.000    0.000 
#
# Total GULP energy -89336.107709 kJ/mol
# GULP energy per Si atom -5583.506732 kJ/mol
# Density = 2.282340 g / cm^3
# Si number density = 22.875464 Si / 1000 Ang^3
#
#
#
# Elastic Constant Matrix: (Units=GPa)
#
#
# Indices 1 2 3 4 5 6 
#
# 1 135.2130 72.0418 48.4828 0.0000 0.0000 0.0000
# 2 72.0418 205.1510 83.3059 0.0000 0.0000 0.0000
# 3 48.4828 83.3059 158.2758 0.0000 0.0000 0.0000
# 4 0.0000 0.0000 0.0000 64.0829 0.0000 0.0000
# 5 0.0000 0.0000 0.0000 0.0000 0.6191 0.0000
# 6 0.0000 0.0000 0.0000 0.0000 0.0000 31.3822
#
#
#
# Elastic Compliance Matrix: (Units=1/GPa)
#
#
# Indices 1 2 3 4 5 6 
#
# 1 0.009351 -0.002697 -0.001445 0.000000 0.000000 0.000000
# 2 -0.002697 0.006977 -0.002846 0.000000 0.000000 0.000000
# 3 -0.001445 -0.002846 0.008259 0.000000 0.000000 0.000000
# 4 0.000000 0.000000 0.000000 0.015605 0.000000 0.000000
# 5 0.000000 0.000000 0.000000 0.000000 1.615336 0.000000
# 6 0.000000 0.000000 0.000000 0.000000 0.000000 0.031865
#
#
# Mechanical properties :
#
#
# Convention : Reuss Voigt Hill
#
# Bulk Modulus (GPa) = 94.24413 100.70007 97.47210
# Shear Modulus (GPa) = 2.93271 38.87077 20.90174
#
# Velocity S-wave (km/s) = 1.13350 4.12665 3.02606
# Velocity P-wave (km/s) = 6.55754 8.17448 7.41025
#
# Compressibility (1/GPa) = 0.01061074
#
# Stress axis : x y z
#
# Youngs Moduli (GPa) = 106.94337 143.32145 121.08373
#
# Poissons Ratio (x) = 0.38653 0.17494
# Poissons Ratio (y) = 0.28842 0.34464
# Poissons Ratio (z) = 0.15451 0.40793
#
# Static dielectric constant tensor:
#      x y z
#    x 1.913800 0.000000 0.000000 
#    y 0.000000 1.826140 0.000000 
#    z 0.000000 0.000000 1.884040 
# 
# From -- ./inp_files/6162.got.cif
#   From: 2010.05.17/outbox.cif.g08.bks.cpg/sg24_4_cif.got.tgz:6162.got - 2010.06.04 00:33:39.
