data_PCOD9336710
_publ_section_title
;
Structure prediction by ZEFSAII (Michael W. Deem and Ramdas Pophale) SiO2 
 PCOD9336710
Probable space group: I 21 21 21
;
_chemical_formula_sum "Si O2"
_cell_formula_units_Z 32
_cell_length_a 7.595509
_cell_length_b 17.198431
_cell_length_c 11.026001
_cell_angle_alpha 90.000000
_cell_angle_beta 90.000000
_cell_angle_gamma 90.000000
_cell_volume 1440.335744
_symmetry_space_group_name_H-M "I 21 21 21"
_symmetry_group_IT_number 24
_symmetry_cell_setting 'orthorhombic'
loop_
_space_group_symop_operation_xyz
x,y,z
-x,1/2-y,z
x,-y,1/2-z
1/2-x,y,-z
1/2+x,1/2+y,1/2+z
1/2-x,-y,1/2+z
1/2+x,1/2-y,-z
-x,1/2+y,1/2-z
loop_
_atom_site_type_symbol
_atom_site_label
_atom_site_fract_x
_atom_site_fract_y
_atom_site_fract_z
Si Si1 0.731461 0.304927 0.362343
Si Si2 0.974979 0.913382 0.250549
Si Si3 0.884133 0.142867 0.733912
Si Si4 0.539918 0.341566 0.004833
O O1 0.750000 0.277470 0.500000
O O2 0.697163 0.230405 0.277068
O O3 0.554819 0.356465 0.351502
O O4 0.897795 0.353875 0.318857
O O5 0.777151 0.911638 0.198759
O O6 0.960798 0.883697 0.388317
O O7 0.048967 0.000000 0.250000
O O8 0.958778 0.130023 0.868525
O O9 0.500000 0.250000 0.995673
O O10 0.750000 0.353257 0.000000
#
# Coordination Sequence:
#
# PCOD9336710 Si02
#       4
#     8   8   8   8
#     4  11  25  46  72 104 137 179 237 297 349 404
#     4  12  27  44  67 104 148 187 223 278 355 427
#     4  11  24  46  74 105 127 182 242 291 343 403
#     4  12  21  44  77 104 135 173 239 302 333 404
#
# _framework density 22.217041999999999
#
# number of rings (size 3 to 8) (size 9 to 14) (size 15 to 20)
#    0.000    0.500    5.000    4.500    7.000    2.000 
#    9.000    0.000    0.000    0.000    0.000    0.000 
#    0.000    0.000    0.000    0.000    0.000    0.000 
#
# Total GULP energy -89568.898122 kJ/mol
# GULP energy per Si atom -5598.056133 kJ/mol
# Density = 2.216648 g / cm^3
# Si number density = 22.217042 Si / 1000 Ang^3
#
#
#
# Elastic Constant Matrix: (Units=GPa)
#
#
# Indices 1 2 3 4 5 6 
#
# 1 140.1902 -0.5015 15.6092 0.0000 0.0000 0.0000
# 2 -0.5015 27.0801 -0.0084 0.0000 0.0000 0.0000
# 3 15.6092 -0.0084 85.9589 0.0000 0.0000 0.0000
# 4 0.0000 0.0000 0.0000 -15.7799 0.0000 0.0000
# 5 0.0000 0.0000 0.0000 0.0000 4.5143 0.0000
# 6 0.0000 0.0000 0.0000 0.0000 0.0000 13.2722
#
#
#
# Elastic Compliance Matrix: (Units=1/GPa)
#
#
# Indices 1 2 3 4 5 6 
#
# 1 0.007281 0.000134 -0.001322 0.000000 0.000000 0.000000
# 2 0.000134 0.036930 -0.000021 0.000000 0.000000 0.000000
# 3 -0.001322 -0.000021 0.011874 0.000000 0.000000 0.000000
# 4 0.000000 0.000000 0.000000 -0.063372 0.000000 0.000000
# 5 0.000000 0.000000 0.000000 0.000000 0.221516 0.000000
# 6 0.000000 0.000000 0.000000 0.000000 0.000000 0.075345
#
#
# Mechanical properties :
#
#
# Convention : Reuss Voigt Hill
#
# Bulk Modulus (GPa) = 18.63327 31.49197 25.06262
# Shear Modulus (GPa) = 16.13527 16.27666 16.20596
#
# Velocity S-wave (km/s) = 2.69784 2.70963 2.70374
# Velocity P-wave (km/s) = 4.25553 4.89846 4.58827
#
# Compressibility (1/GPa) = 0.05366744
#
# Stress axis : x y z
#
# Youngs Moduli (GPa) = 137.34648 27.07827 84.22080
#
# Poissons Ratio (x) = -0.00364 0.11135
# Poissons Ratio (y) = -0.01846 0.00175
# Poissons Ratio (z) = 0.18159 0.00056
#
# Static dielectric constant tensor:
#      x y z
#    x 1.871230 0.000000 0.000000 
#    y 0.000000 1.799340 0.000000 
#    z 0.000000 0.000000 1.782400 
# 
# From -- ./inp_files/18074.got.cif
#   From: 2010.05.17/outbox.cif.g08.bks.cpg/sg24_10_cif.got.tgz:18074.got - 2010.06.04 00:33:39.
