data_PCOD9336053
_publ_section_title
;
Structure prediction by ZEFSAII (Michael W. Deem and Ramdas Pophale) SiO2 
 PCOD9336053
Probable space group: I 21 21 21
;
_chemical_formula_sum "Si O2"
_cell_formula_units_Z 20
_cell_length_a 11.171690
_cell_length_b 15.806905
_cell_length_c 5.053337
_cell_angle_alpha 90.000000
_cell_angle_beta 90.000000
_cell_angle_gamma 90.000000
_cell_volume 892.367985
_symmetry_space_group_name_H-M "I 21 21 21"
_symmetry_group_IT_number 24
_symmetry_cell_setting 'orthorhombic'
loop_
_space_group_symop_operation_xyz
x,y,z
-x,1/2-y,z
x,-y,1/2-z
1/2-x,y,-z
1/2+x,1/2+y,1/2+z
1/2-x,-y,1/2+z
1/2+x,1/2-y,-z
-x,1/2+y,1/2-z
loop_
_atom_site_type_symbol
_atom_site_label
_atom_site_fract_x
_atom_site_fract_y
_atom_site_fract_z
Si Si1 0.460584 0.500000 0.750000
Si Si2 0.170950 0.869475 0.229470
Si Si3 0.750000 0.913011 0.500000
Si Si4 0.750000 0.206198 0.500000
O O1 0.548463 0.420044 0.736755
O O2 0.365570 0.528169 0.530912
O O3 0.250000 0.866223 0.500000
O O4 0.250000 0.913874 0.000000
O O5 0.154296 0.774663 0.113034
O O6 0.726023 0.852920 0.248741
#
# Coordination Sequence:
#
# PCOD9336053 Si02
#       4
#     4   8   4   4
#     4  12  28  48  74 108 152 192 246 298 376 436
#     4  10  23  48  79 107 134 193 252 311 347 436
#     4  12  27  48  67 108 152 196 224 304 367 452
#     4  10  23  52  69 106 144 184 256 284 377 420
#
# _framework density 22.412279999999999
#
# number of rings (size 3 to 8) (size 9 to 14) (size 15 to 20)
#    1.200    0.000    2.000    2.400    0.000   11.200 
#    7.200    0.000    0.000    0.000    0.000    0.000 
#    0.000    0.000    0.000    0.000    0.000    0.000 
#
# Total GULP energy -55705.715894 kJ/mol
# GULP energy per Si atom -5570.571589 kJ/mol
# Density = 2.236127 g / cm^3
# Si number density = 22.412280 Si / 1000 Ang^3
#
#
#
# Elastic Constant Matrix: (Units=GPa)
#
#
# Indices 1 2 3 4 5 6 
#
# 1 163.3690 66.1893 71.8589 0.0000 0.0000 0.0000
# 2 66.1893 159.5214 83.4848 0.0000 0.0000 0.0000
# 3 71.8589 83.4848 196.3576 0.0000 0.0000 0.0000
# 4 0.0000 0.0000 0.0000 17.0051 0.0000 0.0000
# 5 0.0000 0.0000 0.0000 0.0000 26.8809 0.0000
# 6 0.0000 0.0000 0.0000 0.0000 0.0000 -6.0864
#
#
#
# Elastic Compliance Matrix: (Units=1/GPa)
#
#
# Indices 1 2 3 4 5 6 
#
# 1 0.007884 -0.002265 -0.001922 0.000000 0.000000 0.000000
# 2 -0.002265 0.008714 -0.002876 0.000000 0.000000 0.000000
# 3 -0.001922 -0.002876 0.007019 0.000000 0.000000 0.000000
# 4 0.000000 0.000000 0.000000 0.058806 0.000000 0.000000
# 5 0.000000 0.000000 0.000000 0.000000 0.037201 0.000000
# 6 0.000000 0.000000 0.000000 0.000000 0.000000 -0.164302
#
#
# Mechanical properties :
#
#
# Convention : Reuss Voigt Hill
#
# Bulk Modulus (GPa) = 105.37097 106.92378 106.14737
# Shear Modulus (GPa) = -182.56641 27.40758 -77.57941
#
# Velocity S-wave (km/s) = -9.03521 3.50077 -5.88981
# Velocity P-wave (km/s) = 7.85683 8.00948 1.10044
#
# Compressibility (1/GPa) = 0.00949028
#
# Stress axis : x y z
#
# Youngs Moduli (GPa) = 126.83171 114.76106 142.47338
#
# Poissons Ratio (x) = 0.25999 0.27386
# Poissons Ratio (y) = 0.28734 0.40971
# Poissons Ratio (z) = 0.24379 0.33002
#
# Static dielectric constant tensor:
#      x y z
#    x 1.853210 0.000000 0.000000 
#    y 0.000000 1.881440 0.000000 
#    z 0.000000 0.000000 1.934570 
# 
# From -- ./inp_files/1578.got.cif
#   From: 2010.05.17/outbox.cif.g08.bks.cpg/sg24_1_cif.got.tgz:1578.got - 2010.06.04 00:33:39.
