data_PCOD9336752
_publ_section_title
;
Structure prediction by ZEFSAII (Michael W. Deem and Ramdas Pophale) SiO2 
 PCOD9336752
Probable space group: I 21 21 21
;
_chemical_formula_sum "Si O2"
_cell_formula_units_Z 28
_cell_length_a 5.012672
_cell_length_b 28.582941
_cell_length_c 8.617434
_cell_angle_alpha 90.000000
_cell_angle_beta 90.000000
_cell_angle_gamma 90.000000
_cell_volume 1234.679299
_symmetry_space_group_name_H-M "I 21 21 21"
_symmetry_group_IT_number 24
_symmetry_cell_setting 'orthorhombic'
loop_
_space_group_symop_operation_xyz
x,y,z
-x,1/2-y,z
x,-y,1/2-z
1/2-x,y,-z
1/2+x,1/2+y,1/2+z
1/2-x,-y,1/2+z
1/2+x,1/2-y,-z
-x,1/2+y,1/2-z
loop_
_atom_site_type_symbol
_atom_site_label
_atom_site_fract_x
_atom_site_fract_y
_atom_site_fract_z
Si Si1 0.349691 0.049590 0.679098
Si Si2 0.161673 0.298086 0.823352
Si Si3 0.152328 0.402485 0.820975
Si Si4 0.500000 0.750000 0.896191
O O1 0.250000 0.047517 0.500000
O O2 0.596560 0.084613 0.711475
O O3 0.094040 0.064625 0.780488
O O4 0.441517 0.000000 0.750000
O O5 0.047823 0.349305 0.795133
O O6 0.414970 0.292468 0.712416
O O7 0.000000 0.250000 0.798690
O O8 0.250000 0.296743 0.000000
O O9 0.250000 0.406695 0.000000
O O10 0.250000 0.762795 0.000000
#
# Coordination Sequence:
#
# PCOD9336752 Si02
#       4
#     8   8   8   4
#     4  12  26  48  74 105 143 181 229 290 358 421
#     4  11  25  45  73  99 142 193 243 281 344 417
#     4  11  26  45  73 105 139 185 238 288 345 419
#     4  12  26  42  64  98 136 182 230 294 346 392
#
# _framework density 22.677955000000001
#
# number of rings (size 3 to 8) (size 9 to 14) (size 15 to 20)
#    0.000    0.571    2.857    4.286    4.000    3.429 
#    0.000    0.000    0.000    0.000    0.000    0.000 
#    0.000    0.000    0.000    0.000    0.000    0.000 
#
# Total GULP energy -78269.791422 kJ/mol
# GULP energy per Si atom -5590.699387 kJ/mol
# Density = 2.262634 g / cm^3
# Si number density = 22.677955 Si / 1000 Ang^3
#
#
#
# Elastic Constant Matrix: (Units=GPa)
#
#
# Indices 1 2 3 4 5 6 
#
# 1 93.9230 23.3290 18.5185 0.0001 0.0000 0.0001
# 2 23.3290 123.7791 33.2950 -0.0002 0.0000 -0.0002
# 3 18.5185 33.2950 109.4069 -0.0004 0.0000 -0.0006
# 4 0.0001 -0.0002 -0.0004 75.0680 0.0000 -0.0003
# 5 0.0000 0.0000 0.0000 0.0000 13.5650 0.0000
# 6 0.0001 -0.0002 -0.0006 -0.0003 0.0000 51.2131
#
#
#
# Elastic Compliance Matrix: (Units=1/GPa)
#
#
# Indices 1 2 3 4 5 6 
#
# 1 0.011359 -0.001769 -0.001385 0.000000 0.000000 0.000000
# 2 -0.001769 0.009075 -0.002462 0.000000 0.000000 0.000000
# 3 -0.001385 -0.002462 0.010124 0.000000 0.000000 0.000000
# 4 0.000000 0.000000 0.000000 0.013321 0.000000 0.000000
# 5 0.000000 0.000000 0.000000 0.000000 0.073719 0.000000
# 6 0.000000 0.000000 0.000000 0.000000 0.000000 0.019526
#
#
# Mechanical properties :
#
#
# Convention : Reuss Voigt Hill
#
# Bulk Modulus (GPa) = 51.74067 53.04378 52.39222
# Shear Modulus (GPa) = 32.30038 44.76699 38.53369
#
# Velocity S-wave (km/s) = 3.77809 4.44783 4.12657
# Velocity P-wave (km/s) = 6.47278 7.05821 6.77183
#
# Compressibility (1/GPa) = 0.01932716
#
# Stress axis : x y z
#
# Youngs Moduli (GPa) = 88.03384 110.19849 98.77663
#
# Poissons Ratio (x) = 0.19489 0.13676
# Poissons Ratio (y) = 0.15569 0.24321
# Poissons Ratio (z) = 0.12188 0.27134
#
# Static dielectric constant tensor:
#      x y z
#    x 1.827490 0.000000 0.000000 
#    y 0.000000 1.879580 0.000000 
#    z 0.000000 0.000000 1.731150 
# 
# From -- ./inp_files/8180.got.cif
#   From: 2010.05.17/outbox.cif.g08.bks.cpg/sg24_5_cif.got.tgz:8180.got - 2010.06.04 00:33:39.
