data_PCOD9336574
_publ_section_title
;
Structure prediction by ZEFSAII (Michael W. Deem and Ramdas Pophale) SiO2 
 PCOD9336574
Probable space group: I 21 21 21
;
_chemical_formula_sum "Si O2"
_cell_formula_units_Z 40
_cell_length_a 17.611621
_cell_length_b 11.739918
_cell_length_c 8.208507
_cell_angle_alpha 90.000000
_cell_angle_beta 90.000000
_cell_angle_gamma 90.000000
_cell_volume 1697.182587
_symmetry_space_group_name_H-M "I 21 21 21"
_symmetry_group_IT_number 24
_symmetry_cell_setting 'orthorhombic'
loop_
_space_group_symop_operation_xyz
x,y,z
-x,1/2-y,z
x,-y,1/2-z
1/2-x,y,-z
1/2+x,1/2+y,1/2+z
1/2-x,-y,1/2+z
1/2+x,1/2-y,-z
-x,1/2+y,1/2-z
loop_
_atom_site_type_symbol
_atom_site_label
_atom_site_fract_x
_atom_site_fract_y
_atom_site_fract_z
Si Si1 0.969104 0.951420 0.569412
Si Si2 0.430213 0.675715 0.875774
Si Si3 0.670756 0.167863 0.925835
Si Si4 0.830048 0.654772 0.924998
Si Si5 0.137781 0.894747 0.548374
O O1 0.962156 0.059889 0.450975
O O2 0.973720 0.000000 0.750000
O O3 0.895326 0.874735 0.545837
O O4 0.047063 0.886530 0.538570
O O5 0.500000 0.750000 0.802282
O O6 0.363331 0.640902 0.750980
O O7 0.393367 0.757567 0.012227
O O8 0.750000 0.124434 0.000000
O O9 0.673323 0.304915 0.926215
O O10 0.835629 0.640427 0.730160
O O11 0.843181 0.525654 0.987367
O O12 0.750000 0.693386 0.000000
#
# Coordination Sequence:
#
# PCOD9336574 Si02
#       5
#     8   8   8   8   8
#     4  12  24  45  74  99 136 188 234 284 349 423
#     4  12  24  45  70 105 139 183 237 287 344 420
#     4  12  28  44  66 101 142 182 231 294 354 406
#     4  11  23  41  72 104 139 182 230 286 350 412
#     4  11  22  46  67 101 140 183 232 282 350 416
#
# _framework density 23.568470999999999
#
# number of rings (size 3 to 8) (size 9 to 14) (size 15 to 20)
#    0.000    0.400    4.000    5.400    0.000    4.800 
#    0.000    0.000    0.000    0.000    0.000    0.000 
#    0.000    0.000    0.000    0.000    0.000    0.000 
#
# Total GULP energy -111978.332774 kJ/mol
# GULP energy per Si atom -5598.916639 kJ/mol
# Density = 2.351483 g / cm^3
# Si number density = 23.568471 Si / 1000 Ang^3
#
#
#
# Elastic Constant Matrix: (Units=GPa)
#
#
# Indices 1 2 3 4 5 6 
#
# 1 179.7110 23.4407 31.9667 0.0000 0.0000 0.0000
# 2 23.4407 73.5102 17.7914 0.0000 0.0000 0.0000
# 3 31.9667 17.7914 74.5050 0.0000 0.0000 0.0000
# 4 0.0000 0.0000 0.0000 25.9501 0.0000 0.0000
# 5 0.0000 0.0000 0.0000 0.0000 26.2792 0.0000
# 6 0.0000 0.0000 0.0000 0.0000 0.0000 28.7249
#
#
#
# Elastic Compliance Matrix: (Units=1/GPa)
#
#
# Indices 1 2 3 4 5 6 
#
# 1 0.006158 -0.001405 -0.002307 0.000000 0.000000 0.000000
# 2 -0.001405 0.014759 -0.002921 0.000000 0.000000 0.000000
# 3 -0.002307 -0.002921 0.015109 0.000000 0.000000 0.000000
# 4 0.000000 0.000000 0.000000 0.038536 0.000000 0.000000
# 5 0.000000 0.000000 0.000000 0.000000 0.038053 0.000000
# 6 0.000000 0.000000 0.000000 0.000000 0.000000 0.034813
#
#
# Mechanical properties :
#
#
# Convention : Reuss Voigt Hill
#
# Bulk Modulus (GPa) = 43.93784 52.68041 48.30913
# Shear Modulus (GPa) = 29.71230 33.15932 31.43581
#
# Velocity S-wave (km/s) = 3.55446 3.75498 3.65610
# Velocity P-wave (km/s) = 5.96059 6.41876 6.19391
#
# Compressibility (1/GPa) = 0.02275942
#
# Stress axis : x y z
#
# Youngs Moduli (GPa) = 162.38791 67.75642 66.18512
#
# Poissons Ratio (x) = 0.09523 0.15266
# Poissons Ratio (y) = 0.22823 0.19335
# Poissons Ratio (z) = 0.37455 0.19794
#
# Static dielectric constant tensor:
#      x y z
#    x 1.969850 0.000000 0.000000 
#    y 0.000000 1.876000 0.000000 
#    z 0.000000 0.000000 1.895910 
# 
# From -- ./inp_files/13813.got.cif
#   From: 2010.05.17/outbox.cif.g08.bks.cpg/sg24_7_cif.got.tgz:13813.got - 2010.06.04 00:33:39.
