data_PCOD9336952
_publ_section_title
;
Structure prediction by ZEFSAII (Michael W. Deem and Ramdas Pophale) SiO2 
 PCOD9336952
Probable space group: I 21 21 21
;
_chemical_formula_sum "Si O2"
_cell_formula_units_Z 40
_cell_length_a 11.184994
_cell_length_b 5.538950
_cell_length_c 26.079557
_cell_angle_alpha 90.000000
_cell_angle_beta 90.000000
_cell_angle_gamma 90.000000
_cell_volume 1615.709990
_symmetry_space_group_name_H-M "I 21 21 21"
_symmetry_group_IT_number 24
_symmetry_cell_setting 'orthorhombic'
loop_
_space_group_symop_operation_xyz
x,y,z
-x,1/2-y,z
x,-y,1/2-z
1/2-x,y,-z
1/2+x,1/2+y,1/2+z
1/2-x,-y,1/2+z
1/2+x,1/2-y,-z
-x,1/2+y,1/2-z
loop_
_atom_site_type_symbol
_atom_site_label
_atom_site_fract_x
_atom_site_fract_y
_atom_site_fract_z
Si Si1 0.370230 0.870264 0.099323
Si Si2 0.500000 0.750000 0.598851
Si Si3 0.701550 0.007527 0.656366
Si Si4 0.875691 0.343245 0.794512
Si Si5 0.750000 0.626916 0.000000
Si Si6 0.054122 0.500000 0.250000
Si Si7 0.000000 0.750000 0.038693
O O1 0.500000 0.750000 0.086621
O O2 0.269691 0.676777 0.116526
O O3 0.392914 0.021152 0.151267
O O4 0.306994 0.004078 0.050643
O O5 0.621923 0.805876 0.628914
O O6 0.518214 0.500367 0.568644
O O7 0.800862 0.886046 0.690964
O O8 0.618245 0.119762 0.699945
O O9 0.816411 0.500000 0.750000
O O10 0.000000 0.250000 0.772701
O O11 0.630624 0.780459 0.987300
O O12 0.000000 0.250000 0.227808
#
# Coordination Sequence:
#
# PCOD9336952 Si02
#       7
#     8   4   8   8   4   4   4
#     4  12  25  50  77 114 161 212 278 340 430 504
#     4  12  28  50  81 110 160 209 272 334 420 496
#     4  12  27  47  76 109 157 212 263 343 408 499
#     4  12  27  46  76 117 161 215 270 341 419 507
#     4  12  26  50  82 112 164 212 278 356 420 518
#     4  12  30  46  72 114 156 210 268 328 402 492
#     4  12  28  52  77 120 154 215 270 346 426 506
#
# _framework density 24.756917000000001
#
# number of rings (size 3 to 8) (size 9 to 14) (size 15 to 20)
#    0.000    0.000    6.000    3.000    7.000    0.800 
#    5.400    0.000    0.000    0.000    0.000    0.000 
#    0.000    0.000    0.000    0.000    0.000    0.000 
#
# Total GULP energy -111574.719190 kJ/mol
# GULP energy per Si atom -5578.735959 kJ/mol
# Density = 2.470057 g / cm^3
# Si number density = 24.756917 Si / 1000 Ang^3
#
#
#
# Elastic Constant Matrix: (Units=GPa)
#
#
# Indices 1 2 3 4 5 6 
#
# 1 126.8999 23.9032 22.9921 0.0000 0.0000 0.0000
# 2 23.9032 80.9920 21.2672 0.0000 0.0000 0.0000
# 3 22.9921 21.2672 107.0411 0.0000 0.0000 0.0000
# 4 0.0000 0.0000 0.0000 7.6065 0.0000 0.0000
# 5 0.0000 0.0000 0.0000 0.0000 -10.6799 0.0000
# 6 0.0000 0.0000 0.0000 0.0000 0.0000 42.6987
#
#
#
# Elastic Compliance Matrix: (Units=1/GPa)
#
#
# Indices 1 2 3 4 5 6 
#
# 1 0.008540 -0.002151 -0.001407 0.000000 0.000000 0.000000
# 2 -0.002151 0.013568 -0.002234 0.000000 0.000000 0.000000
# 3 -0.001407 -0.002234 0.010088 0.000000 0.000000 0.000000
# 4 0.000000 0.000000 0.000000 0.131466 0.000000 0.000000
# 5 0.000000 0.000000 0.000000 0.000000 -0.093633 0.000000
# 6 0.000000 0.000000 0.000000 0.000000 0.000000 0.023420
#
#
# Mechanical properties :
#
#
# Convention : Reuss Voigt Hill
#
# Bulk Modulus (GPa) = 48.51269 50.13979 49.32624
# Shear Modulus (GPa) = 44.68124 24.37643 34.52884
#
# Velocity S-wave (km/s) = 4.25290 3.14129 3.73864
# Velocity P-wave (km/s) = 6.61471 5.78392 6.21322
#
# Compressibility (1/GPa) = 0.02061316
#
# Stress axis : x y z
#
# Youngs Moduli (GPa) = 117.09139 73.70127 99.12526
#
# Poissons Ratio (x) = 0.15853 0.13948
# Poissons Ratio (y) = 0.25187 0.22142
# Poissons Ratio (z) = 0.16476 0.16463
#
# Static dielectric constant tensor:
#      x y z
#    x 2.613450 0.000000 0.000000 
#    y 0.000000 1.881230 0.000000 
#    z 0.000000 0.000000 2.096720 
# 
# From -- ./inp_files/17660.got.cif
#   From: 2010.05.17/outbox.cif.g08.bks.cpg/sg24_9_cif.got.tgz:17660.got - 2010.06.04 00:33:39.
