data_PCOD9336757
_publ_section_title
;
Structure prediction by ZEFSAII (Michael W. Deem and Ramdas Pophale) SiO2 
 PCOD9336757
Probable space group: I 21 21 21
;
_chemical_formula_sum "Si O2"
_cell_formula_units_Z 32
_cell_length_a 12.205316
_cell_length_b 12.267841
_cell_length_c 9.162517
_cell_angle_alpha 90.000000
_cell_angle_beta 90.000000
_cell_angle_gamma 90.000000
_cell_volume 1371.930022
_symmetry_space_group_name_H-M "I 21 21 21"
_symmetry_group_IT_number 24
_symmetry_cell_setting 'orthorhombic'
loop_
_space_group_symop_operation_xyz
x,y,z
-x,1/2-y,z
x,-y,1/2-z
1/2-x,y,-z
1/2+x,1/2+y,1/2+z
1/2-x,-y,1/2+z
1/2+x,1/2-y,-z
-x,1/2+y,1/2-z
loop_
_atom_site_type_symbol
_atom_site_label
_atom_site_fract_x
_atom_site_fract_y
_atom_site_fract_z
Si Si1 0.250000 0.777885 0.500000
Si Si2 0.342942 0.628427 0.717575
Si Si3 0.029851 0.625750 0.862178
Si Si4 0.250000 0.353272 0.500000
Si Si5 0.970649 0.588478 0.522416
O O1 0.249631 0.693799 0.632671
O O2 0.143842 0.852963 0.495399
O O3 0.332437 0.500000 0.750000
O O4 0.333166 0.689688 0.873930
O O5 0.445857 0.627546 0.604439
O O6 0.155266 0.593615 0.900688
O O7 0.000000 0.750000 0.894167
O O8 0.007511 0.613746 0.689034
O O9 0.961781 0.542561 0.964539
#
# Coordination Sequence:
#
# PCOD9336757 Si02
#       5
#     4   8   8   4   8
#     4  12  27  51  78 106 162 216 253 333 424 446
#     4  12  24  45  73 114 144 203 271 319 383 479
#     4  11  25  46  73 113 153 201 264 322 391 482
#     4  12  25  41  74 106 148 194 255 331 374 452
#     4  11  26  49  76 108 155 206 261 324 402 481
#
# _framework density 23.324804
#
# number of rings (size 3 to 8) (size 9 to 14) (size 15 to 20)
#    0.000    0.500    2.500    6.000    3.500    3.000 
#    4.500    0.000    0.000    0.000    0.000    0.000 
#    0.000    0.000    0.000    0.000    0.000    0.000 
#
# Total GULP energy -89068.839076 kJ/mol
# GULP energy per Si atom -5566.802442 kJ/mol
# Density = 2.327172 g / cm^3
# Si number density = 23.324804 Si / 1000 Ang^3
#
#
#
# Elastic Constant Matrix: (Units=GPa)
#
#
# Indices 1 2 3 4 5 6 
#
# 1 117.4952 55.1805 36.6784 0.0000 0.0000 0.0000
# 2 55.1805 159.3679 21.5329 0.0000 0.0000 0.0000
# 3 36.6784 21.5329 153.8933 0.0000 0.0000 0.0000
# 4 0.0000 0.0000 0.0000 26.4058 0.0000 0.0000
# 5 0.0000 0.0000 0.0000 0.0000 27.0236 0.0000
# 6 0.0000 0.0000 0.0000 0.0000 0.0000 27.0933
#
#
#
# Elastic Compliance Matrix: (Units=1/GPa)
#
#
# Indices 1 2 3 4 5 6 
#
# 1 0.010784 -0.003452 -0.002087 0.000000 0.000000 0.000000
# 2 -0.003452 0.007501 -0.000227 0.000000 0.000000 0.000000
# 3 -0.002087 -0.000227 0.007027 0.000000 0.000000 0.000000
# 4 0.000000 0.000000 0.000000 0.037871 0.000000 0.000000
# 5 0.000000 0.000000 0.000000 0.000000 0.037005 0.000000
# 6 0.000000 0.000000 0.000000 0.000000 0.000000 0.036910
#
#
# Mechanical properties :
#
#
# Convention : Reuss Voigt Hill
#
# Bulk Modulus (GPa) = 72.56932 73.06001 72.81466
# Shear Modulus (GPa) = 32.63261 37.26217 34.94739
#
# Velocity S-wave (km/s) = 3.74445 4.00125 3.87498
# Velocity P-wave (km/s) = 7.06219 7.26206 7.16283
#
# Compressibility (1/GPa) = 0.01377993
#
# Stress axis : x y z
#
# Youngs Moduli (GPa) = 92.73315 133.32260 142.30441
#
# Poissons Ratio (x) = 0.46020 0.29701
# Poissons Ratio (y) = 0.32010 0.03228
# Poissons Ratio (z) = 0.19355 0.03024
#
# Static dielectric constant tensor:
#      x y z
#    x 1.922370 0.000000 0.000000 
#    y 0.000000 1.956690 0.000000 
#    z 0.000000 0.000000 2.067040 
# 
# From -- ./inp_files/10414.got.cif
#   From: 2010.05.17/outbox.cif.g08.bks.cpg/sg24_6_cif.got.tgz:10414.got - 2010.06.04 00:33:39.
