data_PCOD9336134
_publ_section_title
;
Structure prediction by ZEFSAII (Michael W. Deem and Ramdas Pophale) SiO2 
 PCOD9336134
Probable space group: I 21 21 21
;
_chemical_formula_sum "Si O2"
_cell_formula_units_Z 56
_cell_length_a 28.993081
_cell_length_b 5.237697
_cell_length_c 15.817755
_cell_angle_alpha 90.000000
_cell_angle_beta 90.000000
_cell_angle_gamma 90.000000
_cell_volume 2402.036400
_symmetry_space_group_name_H-M "I 21 21 21"
_symmetry_group_IT_number 24
_symmetry_cell_setting 'orthorhombic'
loop_
_space_group_symop_operation_xyz
x,y,z
-x,1/2-y,z
x,-y,1/2-z
1/2-x,y,-z
1/2+x,1/2+y,1/2+z
1/2-x,-y,1/2+z
1/2+x,1/2-y,-z
-x,1/2+y,1/2-z
loop_
_atom_site_type_symbol
_atom_site_label
_atom_site_fract_x
_atom_site_fract_y
_atom_site_fract_z
Si Si1 0.467827 0.500000 0.750000
Si Si2 0.375698 0.481303 0.470217
Si Si3 0.795217 0.241238 0.039257
Si Si4 0.141365 0.249152 0.693201
Si Si5 0.189238 0.000000 0.250000
Si Si6 0.054289 0.732514 0.414652
Si Si7 0.129709 0.895962 0.123267
Si Si8 0.746302 0.161322 0.337381
O O1 0.500000 0.250000 0.744015
O O2 0.439937 0.536658 0.663530
O O3 0.329164 0.651745 0.462151
O O4 0.387698 0.305133 0.390841
O O5 0.418433 0.648089 0.502140
O O6 0.363944 0.301083 0.548874
O O7 0.835277 0.366949 0.098670
O O8 0.770245 0.009620 0.090496
O O9 0.750000 0.384868 0.000000
O O10 0.136026 0.500000 0.750000
O O11 0.193478 0.256250 0.657416
O O12 0.133234 0.000000 0.750000
O O13 0.149989 0.805200 0.212733
O O14 0.227151 0.075941 0.320894
O O15 0.078931 0.987727 0.381109
O O16 0.000000 0.750000 0.430254
O O17 0.751628 0.000000 0.250000
#
# Coordination Sequence:
#
# PCOD9336134 Si02
#       8
#     4   8   8   8   4   8   8   8
#     4  10  24  43  72 106 144 186 232 274 344 429
#     4  11  25  42  67 100 134 181 242 291 371 423
#     4  11  22  38  56  88 136 180 236 287 337 410
#     4  11  26  44  70 101 137 185 242 302 360 428
#     4  12  22  35  56  92 134 186 226 278 332 405
#     4  10  26  45  69 101 138 182 232 292 361 433
#     4  11  26  36  64  95 134 182 232 287 341 427
#     4  11  21  36  57  87 132 191 233 277 338 406
#
# _framework density 23.313548999999998
#
# number of rings (size 3 to 8) (size 9 to 14) (size 15 to 20)
#    0.000    1.143    5.000    0.000   10.000    2.286 
#    0.000    0.000    0.000    0.000    3.714    0.000 
#    0.000    0.000    0.000    0.000    0.000    0.000 
#
# Total GULP energy -156037.179829 kJ/mol
# GULP energy per Si atom -5572.756422 kJ/mol
# Density = 2.326049 g / cm^3
# Si number density = 23.313549 Si / 1000 Ang^3
#
#
#
# Elastic Constant Matrix: (Units=GPa)
#
#
# Indices 1 2 3 4 5 6 
#
# 1 124.0014 18.0553 30.2237 0.0000 0.0000 0.0000
# 2 18.0553 78.2476 10.2392 0.0000 0.0000 0.0000
# 3 30.2237 10.2392 61.4398 0.0000 0.0000 0.0000
# 4 0.0000 0.0000 0.0000 29.3521 0.0000 0.0000
# 5 0.0000 0.0000 0.0000 0.0000 38.0357 0.0000
# 6 0.0000 0.0000 0.0000 0.0000 0.0000 -52.8415
#
#
#
# Elastic Compliance Matrix: (Units=1/GPa)
#
#
# Indices 1 2 3 4 5 6 
#
# 1 0.009353 -0.001591 -0.004336 0.000000 0.000000 0.000000
# 2 -0.001591 0.013335 -0.001440 0.000000 0.000000 0.000000
# 3 -0.004336 -0.001440 0.018649 0.000000 0.000000 0.000000
# 4 0.000000 0.000000 0.000000 0.034069 0.000000 0.000000
# 5 0.000000 0.000000 0.000000 0.000000 0.026291 0.000000
# 6 0.000000 0.000000 0.000000 0.000000 0.000000 -0.018925
#
#
# Mechanical properties :
#
#
# Convention : Reuss Voigt Hill
#
# Bulk Modulus (GPa) = 37.58780 42.30280 39.94530
# Shear Modulus (GPa) = 47.00407 16.58731 31.79569
#
# Velocity S-wave (km/s) = 4.49505 2.67027 3.69701
# Velocity P-wave (km/s) = 6.56493 5.26229 5.94937
#
# Compressibility (1/GPa) = 0.02660437
#
# Stress axis : x y z
#
# Youngs Moduli (GPa) = 106.91944 74.98828 53.62240
#
# Poissons Ratio (x) = 0.11929 0.23249
# Poissons Ratio (y) = 0.17008 0.07721
# Poissons Ratio (z) = 0.46358 0.10797
#
# Static dielectric constant tensor:
#      x y z
#    x 1.895380 0.000000 0.000000 
#    y 0.000000 2.032970 0.000000 
#    z 0.000000 0.000000 2.530560 
# 
# From -- ./inp_files/28242.got.cif
#   From: 2010.05.17/outbox.cif.g08.bks.cpg/sg24_15_cif.got.tgz:28242.got - 2010.06.04 00:33:39.
