data_PCOD9336286
_publ_section_title
;
Structure prediction by ZEFSAII (Michael W. Deem and Ramdas Pophale) SiO2 
 PCOD9336286
Probable space group: I 21 21 21
;
_chemical_formula_sum "Si O2"
_cell_formula_units_Z 36
_cell_length_a 5.597289
_cell_length_b 14.212821
_cell_length_c 19.962602
_cell_angle_alpha 90.000000
_cell_angle_beta 90.000000
_cell_angle_gamma 90.000000
_cell_volume 1588.090200
_symmetry_space_group_name_H-M "I 21 21 21"
_symmetry_group_IT_number 24
_symmetry_cell_setting 'orthorhombic'
loop_
_space_group_symop_operation_xyz
x,y,z
-x,1/2-y,z
x,-y,1/2-z
1/2-x,y,-z
1/2+x,1/2+y,1/2+z
1/2-x,-y,1/2+z
1/2+x,1/2-y,-z
-x,1/2+y,1/2-z
loop_
_atom_site_type_symbol
_atom_site_label
_atom_site_fract_x
_atom_site_fract_y
_atom_site_fract_z
Si Si1 0.632496 0.158319 0.308875
Si Si2 0.500209 0.142200 0.041586
Si Si3 0.776548 0.514552 0.873432
Si Si4 0.423256 0.649102 0.944864
Si Si5 0.945578 0.000000 0.250000
O O1 0.500000 0.250000 0.281453
O O2 0.425050 0.092180 0.334945
O O3 0.790853 0.176697 0.375494
O O4 0.791097 0.093670 0.261629
O O5 0.500000 0.250000 0.067546
O O6 0.455525 0.062898 0.097241
O O7 0.750000 0.129416 0.000000
O O8 0.250000 0.135357 0.000000
O O9 0.625336 0.573206 0.928029
O O10 0.596183 0.478352 0.816810
O O11 0.500000 0.750000 0.974075
O O12 0.250000 0.605353 0.000000
#
# Coordination Sequence:
#
# PCOD9336286 Si02
#       5
#     8   8   8   8   4
#     4  11  23  45  71 100 145 187 244 307 373 446
#     4  10  25  48  77 109 150 196 252 316 381 449
#     4  11  25  45  72 104 144 195 245 308 369 451
#     4  11  24  39  65 110 150 190 237 298 381 462
#     4  10  26  46  72 104 138 198 254 298 384 444
#
# _framework density 22.668738000000001
#
# number of rings (size 3 to 8) (size 9 to 14) (size 15 to 20)
#    0.000    1.333    2.222    1.333    9.333    0.000 
#    0.000    6.667    0.000    0.000    0.000    0.000 
#    0.000    0.000    0.000    0.000    0.000    0.000 
#
# Total GULP energy -100655.568578 kJ/mol
# GULP energy per Si atom -5591.976032 kJ/mol
# Density = 2.261714 g / cm^3
# Si number density = 22.668738 Si / 1000 Ang^3
#
#
#
# Elastic Constant Matrix: (Units=GPa)
#
#
# Indices 1 2 3 4 5 6 
#
# 1 151.2576 73.5272 58.2409 0.0000 0.0000 0.0000
# 2 73.5272 169.2173 61.9728 0.0000 0.0000 0.0000
# 3 58.2409 61.9728 74.0294 0.0000 0.0000 0.0000
# 4 0.0000 0.0000 0.0000 36.1438 0.0000 0.0000
# 5 0.0000 0.0000 0.0000 0.0000 78.8973 0.0000
# 6 0.0000 0.0000 0.0000 0.0000 0.0000 42.6067
#
#
#
# Elastic Compliance Matrix: (Units=1/GPa)
#
#
# Indices 1 2 3 4 5 6 
#
# 1 0.009979 -0.002107 -0.006087 0.000000 0.000000 0.000000
# 2 -0.002107 0.008967 -0.005849 0.000000 0.000000 0.000000
# 3 -0.006087 -0.005849 0.023194 0.000000 0.000000 0.000000
# 4 0.000000 0.000000 0.000000 0.027667 0.000000 0.000000
# 5 0.000000 0.000000 0.000000 0.000000 0.012675 0.000000
# 6 0.000000 0.000000 0.000000 0.000000 0.000000 0.023470
#
#
# Mechanical properties :
#
#
# Convention : Reuss Voigt Hill
#
# Bulk Modulus (GPa) = 71.15641 86.88735 79.02188
# Shear Modulus (GPa) = 36.04282 44.91381 40.47831
#
# Velocity S-wave (km/s) = 3.99178 4.45602 4.23027
# Velocity P-wave (km/s) = 7.25972 8.05526 7.66781
#
# Compressibility (1/GPa) = 0.01405355
#
# Stress axis : x y z
#
# Youngs Moduli (GPa) = 100.20839 111.51768 43.11487
#
# Poissons Ratio (x) = 0.23494 0.26245
# Poissons Ratio (y) = 0.21111 0.25219
# Poissons Ratio (z) = 0.61000 0.65230
#
# Static dielectric constant tensor:
#      x y z
#    x 1.925640 0.000000 0.000000 
#    y 0.000000 1.452030 0.000000 
#    z 0.000000 0.000000 1.947370 
# 
# From -- ./inp_files/31975.got.cif
#   From: 2010.05.17/outbox.cif.g08.bks.cpg/sg24_16_cif.got.tgz:31975.got - 2010.06.04 00:33:39.
