data_PCOD9336207
_publ_section_title
;
Structure prediction by ZEFSAII (Michael W. Deem and Ramdas Pophale) SiO2 
 PCOD9336207
Probable space group: I 21 21 21
;
_chemical_formula_sum "Si O2"
_cell_formula_units_Z 40
_cell_length_a 28.891564
_cell_length_b 7.976801
_cell_length_c 8.041410
_cell_angle_alpha 90.000000
_cell_angle_beta 90.000000
_cell_angle_gamma 90.000000
_cell_volume 1853.241495
_symmetry_space_group_name_H-M "I 21 21 21"
_symmetry_group_IT_number 24
_symmetry_cell_setting 'orthorhombic'
loop_
_space_group_symop_operation_xyz
x,y,z
-x,1/2-y,z
x,-y,1/2-z
1/2-x,y,-z
1/2+x,1/2+y,1/2+z
1/2-x,-y,1/2+z
1/2+x,1/2-y,-z
-x,1/2+y,1/2-z
loop_
_atom_site_type_symbol
_atom_site_label
_atom_site_fract_x
_atom_site_fract_y
_atom_site_fract_z
Si Si1 0.156793 0.464996 0.059863
Si Si2 0.628423 0.334929 0.449344
Si Si3 0.500000 0.750000 0.565843
Si Si4 0.750000 0.235594 0.000000
Si Si5 0.917635 0.826925 0.656335
Si Si6 0.569970 0.500000 0.750000
Si Si7 0.290866 0.000000 0.250000
O O1 0.145998 0.500000 0.250000
O O2 0.147889 0.647235 0.980688
O O3 0.206997 0.386197 0.035746
O O4 0.122608 0.327592 0.980747
O O5 0.592529 0.313731 0.294254
O O6 0.601850 0.416079 0.606107
O O7 0.673778 0.434398 0.391229
O O8 0.534659 0.840963 0.440450
O O9 0.534538 0.636205 0.673028
O O10 0.761228 0.354919 0.840856
O O11 0.912705 0.000000 0.750000
#
# Coordination Sequence:
#
# PCOD9336207 Si02
#       7
#     8   8   4   4   8   4   4
#     4  11  26  47  76 103 148 195 253 302 382 454
#     4  11  26  50  75 103 154 202 245 310 388 460
#     4  12  28  44  74 112 146 192 258 316 378 456
#     4  12  30  46  76 112 146 200 250 318 374 462
#     4  10  24  46  74 103 145 196 246 309 383 452
#     4  12  30  45  78 112 152 198 256 317 386 454
#     4  12  28  47  74 110 154 186 258 307 392 442
#
# _framework density 21.583803
#
# number of rings (size 3 to 8) (size 9 to 14) (size 15 to 20)
#    0.000    0.800    2.000    2.400   18.200    0.000 
#    0.000    0.000    0.000    0.000    0.000    0.000 
#    0.000    0.000    0.000    0.000    0.000    0.000 
#
# Total GULP energy -111724.943940 kJ/mol
# GULP energy per Si atom -5586.247197 kJ/mol
# Density = 2.153468 g / cm^3
# Si number density = 21.583803 Si / 1000 Ang^3
#
#
#
# Elastic Constant Matrix: (Units=GPa)
#
#
# Indices 1 2 3 4 5 6 
#
# 1 143.9041 54.4390 73.5826 0.0000 0.0000 0.0000
# 2 54.4390 117.3838 57.4927 0.0000 0.0000 0.0000
# 3 73.5826 57.4927 143.2067 0.0000 0.0000 0.0000
# 4 0.0000 0.0000 0.0000 26.8643 0.0000 0.0000
# 5 0.0000 0.0000 0.0000 0.0000 33.6097 0.0000
# 6 0.0000 0.0000 0.0000 0.0000 0.0000 31.6878
#
#
#
# Elastic Compliance Matrix: (Units=1/GPa)
#
#
# Indices 1 2 3 4 5 6 
#
# 1 0.010048 -0.002653 -0.004098 0.000000 0.000000 0.000000
# 2 -0.002653 0.011305 -0.003175 0.000000 0.000000 0.000000
# 3 -0.004098 -0.003175 0.010363 0.000000 0.000000 0.000000
# 4 0.000000 0.000000 0.000000 0.037224 0.000000 0.000000
# 5 0.000000 0.000000 0.000000 0.000000 0.029753 0.000000
# 6 0.000000 0.000000 0.000000 0.000000 0.000000 0.031558
#
#
# Mechanical properties :
#
#
# Convention : Reuss Voigt Hill
#
# Bulk Modulus (GPa) = 84.29011 86.16926 85.22969
# Shear Modulus (GPa) = 32.45531 33.03102 32.74316
#
# Velocity S-wave (km/s) = 3.88195 3.91623 3.89913
# Velocity P-wave (km/s) = 7.69610 7.77553 7.73592
#
# Compressibility (1/GPa) = 0.01186379
#
# Stress axis : x y z
#
# Youngs Moduli (GPa) = 99.52208 88.45943 96.49487
#
# Poissons Ratio (x) = 0.23468 0.39542
# Poissons Ratio (y) = 0.26402 0.30640
# Poissons Ratio (z) = 0.40782 0.28089
#
# Static dielectric constant tensor:
#      x y z
#    x 0.570570 0.000000 0.000000 
#    y 0.000000 1.859470 0.000000 
#    z 0.000000 0.000000 1.846330 
# 
# From -- ./inp_files/15683.got.cif
#   From: 2010.05.17/outbox.cif.g08.bks.cpg/sg24_8_cif.got.tgz:15683.got - 2010.06.04 00:33:39.
