data_PCOD9336401
_publ_section_title
;
Structure prediction by ZEFSAII (Michael W. Deem and Ramdas Pophale) SiO2 
 PCOD9336401
Probable space group: I 21 21 21
;
_chemical_formula_sum "Si O2"
_cell_formula_units_Z 44
_cell_length_a 7.928591
_cell_length_b 23.481023
_cell_length_c 13.250605
_cell_angle_alpha 90.000000
_cell_angle_beta 90.000000
_cell_angle_gamma 90.000000
_cell_volume 2466.884050
_symmetry_space_group_name_H-M "I 21 21 21"
_symmetry_group_IT_number 24
_symmetry_cell_setting 'orthorhombic'
loop_
_space_group_symop_operation_xyz
x,y,z
-x,1/2-y,z
x,-y,1/2-z
1/2-x,y,-z
1/2+x,1/2+y,1/2+z
1/2-x,-y,1/2+z
1/2+x,1/2-y,-z
-x,1/2+y,1/2-z
loop_
_atom_site_type_symbol
_atom_site_label
_atom_site_fract_x
_atom_site_fract_y
_atom_site_fract_z
Si Si1 0.653771 0.420399 0.681268
Si Si2 0.672451 0.029491 0.107153
Si Si3 0.090324 0.696301 0.927959
Si Si4 0.250000 0.151152 0.500000
Si Si5 0.735274 0.092954 0.691084
Si Si6 0.723823 0.459149 0.112626
O O1 0.759154 0.385214 0.601487
O O2 0.464612 0.397447 0.685822
O O3 0.733914 0.419844 0.792334
O O4 0.662800 0.484938 0.636703
O O5 0.721694 0.074090 0.194661
O O6 0.736370 0.965767 0.129937
O O7 0.750000 0.047133 0.000000
O O8 0.471302 0.024104 0.113378
O O9 0.158069 0.644856 0.856921
O O10 0.000000 0.750000 0.871790
O O11 0.250000 0.710699 0.000000
O O12 0.933390 0.679751 0.999954
O O13 0.750000 0.436468 0.000000
#
# Coordination Sequence:
#
# PCOD9336401 Si02
#       6
#     8   8   8   4   8   8
#     4  11  21  33  53  79 113 161 199 244 301 355
#     4  11  21  35  56  87 122 161 199 243 299 367
#     4  12  24  41  60  87 117 159 202 252 301 357
#     4  12  22  38  58  80 118 152 200 246 302 354
#     4  11  22  37  56  87 121 160 201 247 300 360
#     4  11  20  33  49  78 116 160 202 238 293 365
#
# _framework density 17.836265999999998
#
# number of rings (size 3 to 8) (size 9 to 14) (size 15 to 20)
#    0.000    0.727    3.636    9.273    0.000    0.000 
#    0.000    0.000    0.000    0.000    0.000    8.909 
#    0.000    0.000    0.000    0.000    0.000    0.000 
#
# Total GULP energy -122626.731252 kJ/mol
# GULP energy per Si atom -5573.942330 kJ/mol
# Density = 1.779567 g / cm^3
# Si number density = 17.836266 Si / 1000 Ang^3
#
#
#
# Elastic Constant Matrix: (Units=GPa)
#
#
# Indices 1 2 3 4 5 6 
#
# 1 115.9359 34.0397 46.0995 0.0000 0.0000 0.0000
# 2 34.0397 66.8049 42.7577 0.0000 0.0000 0.0000
# 3 46.0995 42.7577 136.8132 0.0000 0.0000 0.0000
# 4 0.0000 0.0000 0.0000 15.6044 0.0000 0.0000
# 5 0.0000 0.0000 0.0000 0.0000 29.7983 0.0000
# 6 0.0000 0.0000 0.0000 0.0000 0.0000 30.8327
#
#
#
# Elastic Compliance Matrix: (Units=1/GPa)
#
#
# Indices 1 2 3 4 5 6 
#
# 1 0.010731 -0.003942 -0.002384 0.000000 0.000000 0.000000
# 2 -0.003942 0.020160 -0.004972 0.000000 0.000000 0.000000
# 3 -0.002384 -0.004972 0.009666 0.000000 0.000000 0.000000
# 4 0.000000 0.000000 0.000000 0.064085 0.000000 0.000000
# 5 0.000000 0.000000 0.000000 0.000000 0.033559 0.000000
# 6 0.000000 0.000000 0.000000 0.000000 0.000000 0.032433
#
#
# Mechanical properties :
#
#
# Convention : Reuss Voigt Hill
#
# Bulk Modulus (GPa) = 55.67598 62.81641 59.24619
# Shear Modulus (GPa) = 25.09829 28.35756 26.72792
#
# Velocity S-wave (km/s) = 3.75527 3.99166 3.87527
# Velocity P-wave (km/s) = 7.07711 7.51926 7.30153
#
# Compressibility (1/GPa) = 0.01796107
#
# Stress axis : x y z
#
# Youngs Moduli (GPa) = 93.19051 49.60320 103.45108
#
# Poissons Ratio (x) = 0.19554 0.24660
# Poissons Ratio (y) = 0.36736 0.51438
# Poissons Ratio (z) = 0.22214 0.24664
#
# Static dielectric constant tensor:
#      x y z
#    x 1.663330 0.000000 0.000000 
#    y 0.000000 1.671330 0.000000 
#    z 0.000000 0.000000 1.631650 
# 
# From -- ./inp_files/18538.got.cif
#   From: 2010.05.17/outbox.cif.g08.bks.cpg/sg24_10_cif.got.tgz:18538.got - 2010.06.04 00:33:39.
