data_PCOD9336429
_publ_section_title
;
Structure prediction by ZEFSAII (Michael W. Deem and Ramdas Pophale) SiO2 
 PCOD9336429
Probable space group: I 21 21 21
;
_chemical_formula_sum "Si O2"
_cell_formula_units_Z 56
_cell_length_a 14.674118
_cell_length_b 11.641982
_cell_length_c 14.713916
_cell_angle_alpha 90.000000
_cell_angle_beta 90.000000
_cell_angle_gamma 90.000000
_cell_volume 2513.663870
_symmetry_space_group_name_H-M "I 21 21 21"
_symmetry_group_IT_number 24
_symmetry_cell_setting 'orthorhombic'
loop_
_space_group_symop_operation_xyz
x,y,z
-x,1/2-y,z
x,-y,1/2-z
1/2-x,y,-z
1/2+x,1/2+y,1/2+z
1/2-x,-y,1/2+z
1/2+x,1/2-y,-z
-x,1/2+y,1/2-z
loop_
_atom_site_type_symbol
_atom_site_label
_atom_site_fract_x
_atom_site_fract_y
_atom_site_fract_z
Si Si1 0.002936 0.385939 0.365077
Si Si2 0.205138 0.120433 0.397968
Si Si3 0.175551 0.655302 0.226451
Si Si4 0.202136 0.524794 0.904307
Si Si5 0.713186 0.766130 0.399232
Si Si6 0.475752 0.615635 0.057694
Si Si7 0.372901 0.969176 0.348378
O O1 0.069070 0.383273 0.277927
O O2 0.052672 0.426664 0.456498
O O3 0.000000 0.250000 0.381192
O O4 0.898455 0.426274 0.378724
O O5 0.250000 0.137877 0.500000
O O6 0.199066 0.239981 0.343913
O O7 0.275083 0.030961 0.355263
O O8 0.227322 0.553113 0.174396
O O9 0.209270 0.706326 0.322794
O O10 0.170099 0.392529 0.907766
O O11 0.113496 0.599016 0.883324
O O12 0.250000 0.551413 0.000000
O O13 0.750000 0.734449 0.500000
O O14 0.646696 0.664561 0.366586
O O15 0.500000 0.750000 0.062356
O O16 0.559491 0.535205 0.084414
O O17 0.411137 0.000000 0.250000
#
# Coordination Sequence:
#
# PCOD9336429 Si02
#       7
#     8   8   8   8   8   8   8
#     4   9  20  35  69 110 136 172 239 309 374 420
#     4  11  20  38  73 107 142 182 239 319 376 438
#     4  11  21  42  73 103 142 185 250 310 367 447
#     4  11  23  43  72 104 142 185 239 307 378 452
#     4  11  27  46  69  99 147 204 244 292 388 459
#     4  11  23  42  72 113 136 175 243 314 375 441
#     4  12  25  45  70 101 147 195 249 299 376 462
#
# _framework density 22.278237000000001
#
# number of rings (size 3 to 8) (size 9 to 14) (size 15 to 20)
#    0.000    1.143    4.286    2.143    2.000    1.714 
#    0.000    1.429   18.857    0.000    0.000    0.000 
#    0.000    0.000    0.000    0.000    0.000    0.000 
#
# Total GULP energy -155884.909230 kJ/mol
# GULP energy per Si atom -5567.318187 kJ/mol
# Density = 2.222753 g / cm^3
# Si number density = 22.278237 Si / 1000 Ang^3
#
#
#
# Elastic Constant Matrix: (Units=GPa)
#
#
# Indices 1 2 3 4 5 6 
#
# 1 140.0873 24.2993 28.6500 0.0000 0.0000 0.0000
# 2 24.2993 88.4149 23.1050 0.0000 0.0000 0.0000
# 3 28.6500 23.1050 127.5421 0.0000 0.0000 0.0000
# 4 0.0000 0.0000 0.0000 20.5855 0.0000 0.0000
# 5 0.0000 0.0000 0.0000 0.0000 10.5347 0.0000
# 6 0.0000 0.0000 0.0000 0.0000 0.0000 -8.5457
#
#
#
# Elastic Compliance Matrix: (Units=1/GPa)
#
#
# Indices 1 2 3 4 5 6 
#
# 1 0.007733 -0.001754 -0.001419 0.000000 0.000000 0.000000
# 2 -0.001754 0.012270 -0.001829 0.000000 0.000000 0.000000
# 3 -0.001419 -0.001829 0.008491 0.000000 0.000000 0.000000
# 4 0.000000 0.000000 0.000000 0.048578 0.000000 0.000000
# 5 0.000000 0.000000 0.000000 0.000000 0.094924 0.000000
# 6 0.000000 0.000000 0.000000 0.000000 0.000000 -0.117019
#
#
# Mechanical properties :
#
#
# Convention : Reuss Voigt Hill
#
# Bulk Modulus (GPa) = 54.08563 56.46143 55.27353
# Shear Modulus (GPa) = 70.27834 23.18091 46.72963
#
# Velocity S-wave (km/s) = 5.62265 3.22921 4.58487
# Velocity P-wave (km/s) = 8.15367 6.26917 7.27272
#
# Compressibility (1/GPa) = 0.01848920
#
# Stress axis : x y z
#
# Youngs Moduli (GPa) = 129.31632 81.49713 117.77663
#
# Poissons Ratio (x) = 0.14298 0.16716
# Poissons Ratio (y) = 0.22687 0.21539
# Poissons Ratio (z) = 0.18353 0.14904
#
# Static dielectric constant tensor:
#      x y z
#    x 1.958450 0.000000 0.000000 
#    y 0.000000 1.833780 0.000000 
#    z 0.000000 0.000000 2.053270 
# 
# From -- ./inp_files/26525.got.cif
#   From: 2010.05.17/outbox.cif.g08.bks.cpg/sg24_14_cif.got.tgz:26525.got - 2010.06.04 00:33:39.
