data_PCOD9336637
_publ_section_title
;
Structure prediction by ZEFSAII (Michael W. Deem and Ramdas Pophale) SiO2 
 PCOD9336637
Probable space group: I 21 21 21
;
_chemical_formula_sum "Si O2"
_cell_formula_units_Z 40
_cell_length_a 8.732628
_cell_length_b 17.072696
_cell_length_c 11.517115
_cell_angle_alpha 90.000000
_cell_angle_beta 90.000000
_cell_angle_gamma 90.000000
_cell_volume 1717.080953
_symmetry_space_group_name_H-M "I 21 21 21"
_symmetry_group_IT_number 24
_symmetry_cell_setting 'orthorhombic'
loop_
_space_group_symop_operation_xyz
x,y,z
-x,1/2-y,z
x,-y,1/2-z
1/2-x,y,-z
1/2+x,1/2+y,1/2+z
1/2-x,-y,1/2+z
1/2+x,1/2-y,-z
-x,1/2+y,1/2-z
loop_
_atom_site_type_symbol
_atom_site_label
_atom_site_fract_x
_atom_site_fract_y
_atom_site_fract_z
Si Si1 0.754942 0.500000 0.250000
Si Si2 0.805495 0.188693 0.159488
Si Si3 0.000000 0.750000 0.737115
Si Si4 0.108688 0.117227 0.583413
Si Si5 0.387267 0.134120 0.904134
Si Si6 0.112059 0.675779 0.082327
O O1 0.648639 0.540396 0.154395
O O2 0.854956 0.567054 0.310276
O O3 0.621126 0.201538 0.159254
O O4 0.852412 0.279954 0.147447
O O5 0.836112 0.156756 0.288924
O O6 0.926427 0.140812 0.078726
O O7 0.077174 0.813484 0.823889
O O8 0.250000 0.134179 0.500000
O O9 0.971431 0.109203 0.492118
O O10 0.250000 0.123922 0.000000
O O11 0.000000 0.750000 0.090730
O O12 0.250000 0.698625 0.000000
#
# Coordination Sequence:
#
# PCOD9336637 Si02
#       6
#     4   8   4   8   8   8
#     4  12  26  48  70 104 164 208 256 312 400 472
#     4  11  23  44  73 110 149 185 260 329 382 461
#     4  12  22  40  74 118 148 184 256 338 392 462
#     4  12  24  40  73 109 152 198 255 316 392 468
#     4  11  25  46  72 107 148 208 260 313 397 471
#     4  12  20  34  68 117 143 180 241 316 388 437
#
# _framework density 23.295351
#
# number of rings (size 3 to 8) (size 9 to 14) (size 15 to 20)
#    0.000    0.400    7.000    3.600    0.000    1.600 
#    0.000    1.000    4.400    0.000    0.000    0.000 
#    0.000    0.000    0.000    0.000    0.000    0.000 
#
# Total GULP energy -111604.596738 kJ/mol
# GULP energy per Si atom -5580.229837 kJ/mol
# Density = 2.324233 g / cm^3
# Si number density = 23.295351 Si / 1000 Ang^3
#
#
#
# Elastic Constant Matrix: (Units=GPa)
#
#
# Indices 1 2 3 4 5 6 
#
# 1 155.6309 11.7524 63.4204 -0.0006 0.0000 0.0000
# 2 11.7524 74.9787 28.0192 -0.0010 0.0000 0.0000
# 3 63.4204 28.0192 132.3481 -0.0005 0.0000 0.0000
# 4 -0.0006 -0.0010 -0.0005 558.4084 -0.0001 0.0001
# 5 0.0000 0.0000 0.0000 -0.0001 30.2910 0.0000
# 6 0.0000 0.0000 0.0000 0.0001 0.0000 27.0142
#
#
#
# Elastic Compliance Matrix: (Units=1/GPa)
#
#
# Indices 1 2 3 4 5 6 
#
# 1 0.007987 0.000194 -0.003868 0.000000 0.000000 0.000000
# 2 0.000194 0.014488 -0.003160 0.000000 0.000000 0.000000
# 3 -0.003868 -0.003160 0.010079 0.000000 0.000000 0.000000
# 4 0.000000 0.000000 0.000000 0.001791 0.000000 0.000000
# 5 0.000000 0.000000 0.000000 0.000000 0.033013 0.000000
# 6 0.000000 0.000000 0.000000 0.000000 0.000000 0.037018
#
#
# Mechanical properties :
#
#
# Convention : Reuss Voigt Hill
#
# Bulk Modulus (GPa) = 52.95497 63.26020 58.10758
# Shear Modulus (GPa) = 40.21263 140.46042 90.33653
#
# Velocity S-wave (km/s) = 4.15927 7.77344 6.23402
# Velocity P-wave (km/s) = 6.77107 10.38187 8.76443
#
# Compressibility (1/GPa) = 0.01888397
#
# Stress axis : x y z
#
# Youngs Moduli (GPa) = 125.19970 69.02440 99.22061
#
# Poissons Ratio (x) = -0.01337 0.38383
# Poissons Ratio (y) = -0.02425 0.31353
# Poissons Ratio (z) = 0.48433 0.21811
#
# Static dielectric constant tensor:
#      x y z
#    x -1.132740 0.000000 0.000000 
#    y 0.000000 1.825780 0.000000 
#    z 0.000000 0.000000 1.921040 
# 
# From -- ./inp_files/18278.got.cif
#   From: 2010.05.17/outbox.cif.g08.bks.cpg/sg24_10_cif.got.tgz:18278.got - 2010.06.04 00:33:39.
