data_PCOD9336229
_publ_section_title
;
Structure prediction by ZEFSAII (Michael W. Deem and Ramdas Pophale) SiO2 
 PCOD9336229
Probable space group: I 21 21 21
;
_chemical_formula_sum "Si O2"
_cell_formula_units_Z 56
_cell_length_a 19.021277
_cell_length_b 7.857104
_cell_length_c 15.247146
_cell_angle_alpha 90.000000
_cell_angle_beta 90.000000
_cell_angle_gamma 90.000000
_cell_volume 2278.718775
_symmetry_space_group_name_H-M "I 21 21 21"
_symmetry_group_IT_number 24
_symmetry_cell_setting 'orthorhombic'
loop_
_space_group_symop_operation_xyz
x,y,z
-x,1/2-y,z
x,-y,1/2-z
1/2-x,y,-z
1/2+x,1/2+y,1/2+z
1/2-x,-y,1/2+z
1/2+x,1/2-y,-z
-x,1/2+y,1/2-z
loop_
_atom_site_type_symbol
_atom_site_label
_atom_site_fract_x
_atom_site_fract_y
_atom_site_fract_z
Si Si1 0.891717 0.885846 0.616510
Si Si2 0.233606 0.000000 0.750000
Si Si3 0.398392 0.757864 0.561396
Si Si4 0.750685 0.317253 0.090208
Si Si5 0.000000 0.750000 0.757291
Si Si6 0.420583 0.698637 0.763483
Si Si7 0.921837 0.660393 0.053165
Si Si8 0.370464 0.773866 0.133960
O O1 0.925093 0.858568 0.519236
O O2 0.825317 0.755718 0.615717
O O3 0.948369 0.843483 0.690098
O O4 0.864118 0.071079 0.642132
O O5 0.277845 0.899752 0.679130
O O6 0.187173 0.877688 0.812130
O O7 0.315479 0.699054 0.562646
O O8 0.417656 0.750973 0.662385
O O9 0.418991 0.954733 0.544047
O O10 0.750000 0.427085 0.000000
O O11 0.944614 0.662954 0.823682
O O12 0.500000 0.750000 0.785446
O O13 0.405453 0.500000 0.750000
O O14 0.387970 0.776498 0.853484
O O15 0.000000 0.750000 0.040567
O O16 0.874927 0.708385 0.969824
#
# Coordination Sequence:
#
# PCOD9336229 Si02
#       8
#     8   4   8   8   4   8   8   8
#     4  11  26  45  71 104 142 193 239 302 366 447
#     4  12  26  46  72 106 144 194 244 304 364 448
#     4  11  25  47  73  98 143 188 243 302 367 433
#     4  10  24  48  68  96 139 187 244 297 361 433
#     4  12  26  40  70 106 148 182 232 298 374 434
#     4  11  23  43  67  98 135 178 231 291 359 429
#     4  11  24  41  69 106 143 184 233 294 366 447
#     4  12  26  43  72 107 146 187 239 297 374 447
#
# _framework density 24.575212000000001
#
# number of rings (size 3 to 8) (size 9 to 14) (size 15 to 20)
#    0.000    0.857    2.143    5.143    7.000    0.000 
#    2.571    6.429    0.000    0.000    0.000    0.000 
#    0.000    0.000    0.000    0.000    0.000    0.000 
#
# Total GULP energy -155912.343337 kJ/mol
# GULP energy per Si atom -5568.297976 kJ/mol
# Density = 2.451928 g / cm^3
# Si number density = 24.575212 Si / 1000 Ang^3
#
#
#
# Elastic Constant Matrix: (Units=GPa)
#
#
# Indices 1 2 3 4 5 6 
#
# 1 56.5725 0.4941 -2.5184 0.0000 0.0000 0.0000
# 2 0.4941 101.1372 18.3776 0.0000 0.0000 0.0000
# 3 -2.5184 18.3776 201.6547 0.0000 0.0000 0.0000
# 4 0.0000 0.0000 0.0000 49.4892 0.0000 0.0000
# 5 0.0000 0.0000 0.0000 0.0000 1859.9004 0.0000
# 6 0.0000 0.0000 0.0000 0.0000 0.0000 8.1813
#
#
#
# Elastic Compliance Matrix: (Units=1/GPa)
#
#
# Indices 1 2 3 4 5 6 
#
# 1 0.017688 -0.000129 0.000233 0.000000 0.000000 0.000000
# 2 -0.000129 0.010055 -0.000918 0.000000 0.000000 0.000000
# 3 0.000233 -0.000918 0.005046 0.000000 0.000000 0.000000
# 4 0.000000 0.000000 0.000000 0.020206 0.000000 0.000000
# 5 0.000000 0.000000 0.000000 0.000000 0.000538 0.000000
# 6 0.000000 0.000000 0.000000 0.000000 0.000000 0.122230
#
#
# Mechanical properties :
#
#
# Convention : Reuss Voigt Hill
#
# Bulk Modulus (GPa) = 32.09199 43.56343 37.82771
# Shear Modulus (GPa) = 26.62725 406.38158 216.50442
#
# Velocity S-wave (km/s) = 3.29523 12.87328 9.39627
# Velocity P-wave (km/s) = 5.25024 15.45079 11.53889
#
# Compressibility (1/GPa) = 0.03116042
#
# Stress axis : x y z
#
# Youngs Moduli (GPa) = 56.53574 99.45312 198.19504
#
# Poissons Ratio (x) = 0.01280 -0.04611
# Poissons Ratio (y) = 0.00728 0.18193
# Poissons Ratio (z) = -0.01315 0.09129
#
# Static dielectric constant tensor:
#      x y z
#    x 2.037290 0.000000 0.000000 
#    y 0.000000 -2.821010 0.000000 
#    z 0.000000 0.000000 2.100250 
# 
# From -- ./inp_files/27605.got.cif
#   From: 2010.05.17/outbox.cif.g08.bks.cpg/sg24_14_cif.got.tgz:27605.got - 2010.06.04 00:33:39.
