data_PCOD9336534
_publ_section_title
;
Structure prediction by ZEFSAII (Michael W. Deem and Ramdas Pophale) SiO2 
 PCOD9336534
Probable space group: I 21 21 21
;
_chemical_formula_sum "Si O2"
_cell_formula_units_Z 40
_cell_length_a 10.405360
_cell_length_b 8.676552
_cell_length_c 21.752633
_cell_angle_alpha 90.000000
_cell_angle_beta 90.000000
_cell_angle_gamma 90.000000
_cell_volume 1963.885289
_symmetry_space_group_name_H-M "I 21 21 21"
_symmetry_group_IT_number 24
_symmetry_cell_setting 'orthorhombic'
loop_
_space_group_symop_operation_xyz
x,y,z
-x,1/2-y,z
x,-y,1/2-z
1/2-x,y,-z
1/2+x,1/2+y,1/2+z
1/2-x,-y,1/2+z
1/2+x,1/2-y,-z
-x,1/2+y,1/2-z
loop_
_atom_site_type_symbol
_atom_site_label
_atom_site_fract_x
_atom_site_fract_y
_atom_site_fract_z
Si Si1 0.500000 0.250000 0.657556
Si Si2 0.500000 0.750000 0.633346
Si Si3 0.594696 0.398568 0.427349
Si Si4 0.390228 0.979352 0.935116
Si Si5 0.906487 0.392196 0.807408
Si Si6 0.313299 0.331426 0.765289
O O1 0.481573 0.110583 0.611083
O O2 0.379968 0.271159 0.703138
O O3 0.597940 0.653378 0.590399
O O4 0.419943 0.645944 0.681697
O O5 0.500000 0.250000 0.420039
O O6 0.751953 0.392389 0.430073
O O7 0.564426 0.469204 0.494493
O O8 0.579196 0.509291 0.369040
O O9 0.936798 0.500000 0.750000
O O10 0.772869 0.307055 0.791338
O O11 0.000000 0.250000 0.811936
O O12 0.254350 0.500000 0.750000
#
# Coordination Sequence:
#
# PCOD9336534 Si02
#       6
#     4   4   8   8   8   8
#     4  11  22  40  70 104 137 180 238 302 369 428
#     4  11  22  42  68 110 141 178 234 308 373 424
#     4  11  25  46  71 101 143 194 240 295 367 447
#     4  11  23  44  72 103 144 186 239 305 366 443
#     4  12  26  45  66  96 139 192 242 295 360 447
#     4  11  23  39  69 106 139 181 237 304 373 426
#
# _framework density 20.367789999999999
#
# number of rings (size 3 to 8) (size 9 to 14) (size 15 to 20)
#    0.000    0.800    5.000    2.400    1.400    1.600 
#    0.000    0.000    0.000    0.000    0.000    0.000 
#    0.000    0.000    0.000    0.000    0.000    0.000 
#
# Total GULP energy -111435.010630 kJ/mol
# GULP energy per Si atom -5571.750532 kJ/mol
# Density = 2.032143 g / cm^3
# Si number density = 20.367790 Si / 1000 Ang^3
#
#
#
# Elastic Constant Matrix: (Units=GPa)
#
#
# Indices 1 2 3 4 5 6 
#
# 1 57.0199 20.0632 53.1677 0.0000 0.0000 0.0000
# 2 20.0632 93.3799 88.7426 0.0000 0.0000 0.0000
# 3 53.1677 88.7426 216.7741 0.0000 0.0000 0.0000
# 4 0.0000 0.0000 0.0000 42.4489 0.0000 0.0000
# 5 0.0000 0.0000 0.0000 0.0000 15.2510 0.0000
# 6 0.0000 0.0000 0.0000 0.0000 0.0000 42.9367
#
#
#
# Elastic Compliance Matrix: (Units=1/GPa)
#
#
# Indices 1 2 3 4 5 6 
#
# 1 0.022764 0.000679 -0.005861 0.000000 0.000000 0.000000
# 2 0.000679 0.017549 -0.007351 0.000000 0.000000 0.000000
# 3 -0.005861 -0.007351 0.009060 0.000000 0.000000 0.000000
# 4 0.000000 0.000000 0.000000 0.023558 0.000000 0.000000
# 5 0.000000 0.000000 0.000000 0.000000 0.065570 0.000000
# 6 0.000000 0.000000 0.000000 0.000000 0.000000 0.023290
#
#
# Mechanical properties :
#
#
# Convention : Reuss Voigt Hill
#
# Bulk Modulus (GPa) = 41.14009 76.79121 58.96565
# Shear Modulus (GPa) = 25.64656 33.80733 29.72695
#
# Velocity S-wave (km/s) = 3.55233 4.07854 3.82449
# Velocity P-wave (km/s) = 6.08834 7.74360 6.96532
#
# Compressibility (1/GPa) = 0.02430719
#
# Stress axis : x y z
#
# Youngs Moduli (GPa) = 43.92875 56.98468 110.37657
#
# Poissons Ratio (x) = -0.03871 0.64696
# Poissons Ratio (y) = -0.02984 0.81134
# Poissons Ratio (z) = 0.25748 0.41887
#
# Static dielectric constant tensor:
#      x y z
#    x 1.818030 0.000000 0.000000 
#    y 0.000000 1.757450 0.000000 
#    z 0.000000 0.000000 1.629720 
# 
# From -- ./inp_files/30088.got.cif
#   From: 2010.05.17/outbox.cif.g08.bks.cpg/sg24_16_cif.got.tgz:30088.got - 2010.06.04 00:33:39.
