data_PCOD9336084
_publ_section_title
;
Structure prediction by ZEFSAII (Michael W. Deem and Ramdas Pophale) SiO2 
 PCOD9336084
Probable space group: I 21 21 21
;
_chemical_formula_sum "Si O2"
_cell_formula_units_Z 40
_cell_length_a 19.294980
_cell_length_b 8.133797
_cell_length_c 12.218501
_cell_angle_alpha 90.000000
_cell_angle_beta 90.000000
_cell_angle_gamma 90.000000
_cell_volume 1917.589269
_symmetry_space_group_name_H-M "I 21 21 21"
_symmetry_group_IT_number 24
_symmetry_cell_setting 'orthorhombic'
loop_
_space_group_symop_operation_xyz
x,y,z
-x,1/2-y,z
x,-y,1/2-z
1/2-x,y,-z
1/2+x,1/2+y,1/2+z
1/2-x,-y,1/2+z
1/2+x,1/2-y,-z
-x,1/2+y,1/2-z
loop_
_atom_site_type_symbol
_atom_site_label
_atom_site_fract_x
_atom_site_fract_y
_atom_site_fract_z
Si Si1 0.276433 0.770642 0.348233
Si Si2 0.357493 0.357802 0.964427
Si Si3 0.706942 0.347907 0.397500
Si Si4 0.922266 0.692349 0.258732
Si Si5 0.416554 0.282698 0.522424
O O1 0.343211 0.726087 0.419539
O O2 0.215931 0.654630 0.397425
O O3 0.283982 0.757537 0.218338
O O4 0.266068 0.965064 0.376271
O O5 0.401408 0.256293 0.876784
O O6 0.394453 0.528415 0.991915
O O7 0.750000 0.278125 0.500000
O O8 0.627633 0.330541 0.439349
O O9 0.915203 0.500000 0.250000
O O10 0.888286 0.754775 0.146795
O O11 0.000000 0.750000 0.245483
O O12 0.500000 0.250000 0.514530
#
# Coordination Sequence:
#
# PCOD9336084 Si02
#       5
#     8   8   8   8   8
#     4  10  24  41  66 101 132 177 236 284 363 413
#     4  11  22  42  61  99 140 171 232 297 347 427
#     4  11  22  43  70  97 137 186 232 291 354 434
#     4  11  22  38  65  94 131 177 228 281 350 420
#     4  11  25  43  65  99 140 189 236 290 362 427
#
# _framework density 20.859524
#
# number of rings (size 3 to 8) (size 9 to 14) (size 15 to 20)
#    0.000    1.200    2.000    5.400    5.600    0.800 
#    0.000    5.000    0.000    0.000    0.000    0.000 
#    0.000    0.000    0.000    0.000    0.000    0.000 
#
# Total GULP energy -111481.348365 kJ/mol
# GULP energy per Si atom -5574.067418 kJ/mol
# Density = 2.081205 g / cm^3
# Si number density = 20.859524 Si / 1000 Ang^3
#
#
#
# Elastic Constant Matrix: (Units=GPa)
#
#
# Indices 1 2 3 4 5 6 
#
# 1 87.6981 15.6292 48.0198 0.0000 0.0000 0.0000
# 2 15.6292 64.1398 18.9283 0.0000 0.0000 0.0000
# 3 48.0198 18.9283 178.9942 0.0000 0.0000 0.0000
# 4 0.0000 0.0000 0.0000 30.1867 0.0000 0.0000
# 5 0.0000 0.0000 0.0000 0.0000 28.8430 0.0000
# 6 0.0000 0.0000 0.0000 0.0000 0.0000 31.4599
#
#
#
# Elastic Compliance Matrix: (Units=1/GPa)
#
#
# Indices 1 2 3 4 5 6 
#
# 1 0.013694 -0.002325 -0.003428 0.000000 0.000000 0.000000
# 2 -0.002325 0.016488 -0.001120 0.000000 0.000000 0.000000
# 3 -0.003428 -0.001120 0.006625 0.000000 0.000000 0.000000
# 4 0.000000 0.000000 0.000000 0.033127 0.000000 0.000000
# 5 0.000000 0.000000 0.000000 0.000000 0.034670 0.000000
# 6 0.000000 0.000000 0.000000 0.000000 0.000000 0.031787
#
#
# Mechanical properties :
#
#
# Convention : Reuss Voigt Hill
#
# Bulk Modulus (GPa) = 43.36316 55.10961 49.23638
# Shear Modulus (GPa) = 31.68085 34.64823 33.16454
#
# Velocity S-wave (km/s) = 3.90137 4.07999 3.99168
# Velocity P-wave (km/s) = 6.41308 6.97652 6.70072
#
# Compressibility (1/GPa) = 0.02306105
#
# Stress axis : x y z
#
# Youngs Moduli (GPa) = 73.02390 60.65010 150.94771
#
# Poissons Ratio (x) = 0.14103 0.51744
# Poissons Ratio (y) = 0.16980 0.16902
# Poissons Ratio (z) = 0.25032 0.06791
#
# Static dielectric constant tensor:
#      x y z
#    x 1.867500 0.000000 0.000000 
#    y 0.000000 1.755100 0.000000 
#    z 0.000000 0.000000 1.815050 
# 
# From -- ./inp_files/21361.got.cif
#   From: 2010.05.17/outbox.cif.g08.bks.cpg/sg24_11_cif.got.tgz:21361.got - 2010.06.04 00:33:39.
