data_PCOD9336978
_publ_section_title
;
Structure prediction by ZEFSAII (Michael W. Deem and Ramdas Pophale) SiO2 
 PCOD9336978
Probable space group: I 21 21 21
;
_chemical_formula_sum "Si O2"
_cell_formula_units_Z 36
_cell_length_a 11.009726
_cell_length_b 25.667042
_cell_length_c 4.902219
_cell_angle_alpha 90.000000
_cell_angle_beta 90.000000
_cell_angle_gamma 90.000000
_cell_volume 1385.303849
_symmetry_space_group_name_H-M "I 21 21 21"
_symmetry_group_IT_number 24
_symmetry_cell_setting 'orthorhombic'
loop_
_space_group_symop_operation_xyz
x,y,z
-x,1/2-y,z
x,-y,1/2-z
1/2-x,y,-z
1/2+x,1/2+y,1/2+z
1/2-x,-y,1/2+z
1/2+x,1/2-y,-z
-x,1/2+y,1/2-z
loop_
_atom_site_type_symbol
_atom_site_label
_atom_site_fract_x
_atom_site_fract_y
_atom_site_fract_z
Si Si1 0.412119 0.875200 0.186610
Si Si2 0.832214 0.000000 0.250000
Si Si3 0.250000 0.676419 0.000000
Si Si4 0.132337 0.240640 0.821983
Si Si5 0.250000 0.037923 0.000000
Si Si6 0.932987 0.890456 0.331326
O O1 0.353379 0.818748 0.224671
O O2 0.337649 0.922499 0.327526
O O3 0.533170 0.872498 0.369190
O O4 0.454077 0.882800 0.876639
O O5 0.750000 0.018167 0.500000
O O6 0.908635 0.951476 0.346725
O O7 0.143938 0.716941 0.915177
O O8 0.316468 0.639251 0.783928
O O9 0.000000 0.250000 0.954059
O O10 0.250000 0.252431 0.000000
O O11 0.203266 0.000000 0.250000
#
# Coordination Sequence:
#
# PCOD9336978 Si02
#       6
#     8   4   4   8   4   8
#     4  12  28  51  77 114 158 207 266 333 403 483
#     4  12  26  48  82 112 160 208 264 334 404 480
#     4  12  28  47  80 114 161 202 276 328 404 484
#     4  12  27  50  82 117 161 217 267 338 405 482
#     4  12  28  51  78 114 153 206 272 334 396 486
#     4  12  28  49  78 117 157 207 265 333 404 482
#
# _framework density 25.987075000000001
#
# number of rings (size 3 to 8) (size 9 to 14) (size 15 to 20)
#    0.000    0.000    4.444    4.000    7.778    1.778 
#    0.000    0.000    0.000    0.000    0.000    0.000 
#    0.000    0.000    0.000    0.000    0.000    0.000 
#
# Total GULP energy -100890.063588 kJ/mol
# GULP energy per Si atom -5605.003533 kJ/mol
# Density = 2.592793 g / cm^3
# Si number density = 25.987075 Si / 1000 Ang^3
#
#
#
# Elastic Constant Matrix: (Units=GPa)
#
#
# Indices 1 2 3 4 5 6 
#
# 1 109.2101 25.8889 12.2918 0.0066 -0.0026 -0.0788
# 2 25.8889 190.1006 18.3306 0.0224 -0.0071 -0.1584
# 3 12.2918 18.3306 82.0017 0.0180 -0.0170 0.0503
# 4 0.0066 0.0224 0.0180 19.9179 -0.0006 -0.2599
# 5 -0.0026 -0.0071 -0.0170 -0.0006 50.6251 -0.0348
# 6 -0.0788 -0.1584 0.0503 -0.2599 -0.0348 -365.6566
#
#
#
# Elastic Compliance Matrix: (Units=1/GPa)
#
#
# Indices 1 2 3 4 5 6 
#
# 1 0.009570 -0.001191 -0.001168 -0.000001 0.000000 -0.000002
# 2 -0.001191 0.005524 -0.001056 -0.000005 0.000000 -0.000002
# 3 -0.001168 -0.001056 0.012606 -0.000010 0.000004 0.000002
# 4 -0.000001 -0.000005 -0.000010 0.050206 0.000001 -0.000036
# 5 0.000000 0.000000 0.000004 0.000001 0.019753 -0.000002
# 6 -0.000002 -0.000002 0.000002 -0.000036 -0.000002 -0.002735
#
#
# Mechanical properties :
#
#
# Convention : Reuss Voigt Hill
#
# Bulk Modulus (GPa) = 47.91584 54.92610 51.42097
# Shear Modulus (GPa) = 45.99283 -37.36932 4.31176
#
# Velocity S-wave (km/s) = 4.21150 -3.79621 1.28949
# Velocity P-wave (km/s) = 6.49056 1.40246 4.69544
#
# Compressibility (1/GPa) = 0.02086992
#
# Stress axis : x y z
#
# Youngs Moduli (GPa) = 104.48851 181.01532 79.32622
#
# Poissons Ratio (x) = 0.21553 0.09269
# Poissons Ratio (y) = 0.12441 0.08380
# Poissons Ratio (z) = 0.12209 0.19123
#
# Static dielectric constant tensor:
#      x y z
#    x 2.107470 0.000010 0.000370 
#    y 0.000010 1.957730 0.000000 
#    z 0.000370 0.000000 2.527200 
# 
# From -- ./inp_files/2317.got.cif
#   From: 2010.05.17/outbox.cif.g08.bks.cpg/sg24_2_cif.got.tgz:2317.got - 2010.06.04 00:33:39.
