data_PCOD9336477
_publ_section_title
;
Structure prediction by ZEFSAII (Michael W. Deem and Ramdas Pophale) SiO2 
 PCOD9336477
Probable space group: I 21 21 21
;
_chemical_formula_sum "Si O2"
_cell_formula_units_Z 44
_cell_length_a 14.741119
_cell_length_b 8.614600
_cell_length_c 15.921259
_cell_angle_alpha 90.000000
_cell_angle_beta 90.000000
_cell_angle_gamma 90.000000
_cell_volume 2021.822271
_symmetry_space_group_name_H-M "I 21 21 21"
_symmetry_group_IT_number 24
_symmetry_cell_setting 'orthorhombic'
loop_
_space_group_symop_operation_xyz
x,y,z
-x,1/2-y,z
x,-y,1/2-z
1/2-x,y,-z
1/2+x,1/2+y,1/2+z
1/2-x,-y,1/2+z
1/2+x,1/2-y,-z
-x,1/2+y,1/2-z
loop_
_atom_site_type_symbol
_atom_site_label
_atom_site_fract_x
_atom_site_fract_y
_atom_site_fract_z
Si Si1 0.852494 0.352911 0.885058
Si Si2 0.074371 0.656372 0.771679
Si Si3 0.267443 0.658806 0.106939
Si Si4 0.250000 0.379388 0.000000
Si Si5 0.916412 0.367692 0.511893
Si Si6 0.331088 0.955071 0.841432
O O1 0.894231 0.259781 0.806785
O O2 0.824877 0.230045 0.957566
O O3 0.915953 0.488396 0.922708
O O4 0.757989 0.437099 0.857828
O O5 0.024440 0.500000 0.750000
O O6 0.158052 0.605061 0.826732
O O7 0.000000 0.750000 0.823314
O O8 0.330226 0.759997 0.041326
O O9 0.204359 0.778195 0.155772
O O10 0.220478 0.505292 0.070323
O O11 0.894926 0.452734 0.423047
O O12 0.000000 0.250000 0.501581
O O13 0.368242 0.000000 0.750000
#
# Coordination Sequence:
#
# PCOD9336477 Si02
#       6
#     8   8   8   4   8   8
#     4  11  23  41  67  99 136 178 227 283 336 420
#     4  12  27  38  59 101 145 179 213 274 354 411
#     4  11  22  40  65  96 134 178 223 275 338 414
#     4  12  20  40  68  98 132 172 234 272 324 406
#     4  11  24  41  67  95 133 180 227 283 346 403
#     4  11  21  41  71  94 126 178 234 280 332 404
#
# _framework density 21.762544999999999
#
# number of rings (size 3 to 8) (size 9 to 14) (size 15 to 20)
#    0.000    0.727    7.273    1.636    7.636    0.000 
#    0.000    0.000    4.000    0.000    0.000    0.000 
#    0.000    0.000    0.000    0.000    0.000    0.000 
#
# Total GULP energy -122740.552608 kJ/mol
# GULP energy per Si atom -5579.116028 kJ/mol
# Density = 2.171301 g / cm^3
# Si number density = 21.762545 Si / 1000 Ang^3
#
#
#
# Elastic Constant Matrix: (Units=GPa)
#
#
# Indices 1 2 3 4 5 6 
#
# 1 36.9800 23.2330 29.8288 0.0000 0.0000 0.0000
# 2 23.2330 145.4618 49.6377 0.0000 0.0000 0.0000
# 3 29.8288 49.6377 141.8674 0.0000 0.0000 0.0000
# 4 0.0000 0.0000 0.0000 43.9824 0.0000 0.0000
# 5 0.0000 0.0000 0.0000 0.0000 20.0384 0.0000
# 6 0.0000 0.0000 0.0000 0.0000 0.0000 42.3546
#
#
#
# Elastic Compliance Matrix: (Units=1/GPa)
#
#
# Indices 1 2 3 4 5 6 
#
# 1 0.033979 -0.003394 -0.005957 0.000000 0.000000 0.000000
# 2 -0.003394 0.008146 -0.002136 0.000000 0.000000 0.000000
# 3 -0.005957 -0.002136 0.009049 0.000000 0.000000 0.000000
# 4 0.000000 0.000000 0.000000 0.022736 0.000000 0.000000
# 5 0.000000 0.000000 0.000000 0.000000 0.049904 0.000000
# 6 0.000000 0.000000 0.000000 0.000000 0.000000 0.023610
#
#
# Mechanical properties :
#
#
# Convention : Reuss Voigt Hill
#
# Bulk Modulus (GPa) = 35.46280 58.85646 47.15963
# Shear Modulus (GPa) = 27.80884 36.04908 31.92896
#
# Velocity S-wave (km/s) = 3.57855 4.07439 3.83450
# Velocity P-wave (km/s) = 5.77974 7.01697 6.42819
#
# Compressibility (1/GPa) = 0.02819856
#
# Stress axis : x y z
#
# Youngs Moduli (GPa) = 29.42992 122.76196 110.51196
#
# Poissons Ratio (x) = 0.41670 0.65829
# Poissons Ratio (y) = 0.09990 0.23610
# Poissons Ratio (z) = 0.17531 0.26227
#
# Static dielectric constant tensor:
#      x y z
#    x 1.830740 0.000000 0.000000 
#    y 0.000000 1.845210 0.000000 
#    z 0.000000 0.000000 1.923310 
# 
# From -- ./inp_files/26979.got.cif
#   From: 2010.05.17/outbox.cif.g08.bks.cpg/sg24_14_cif.got.tgz:26979.got - 2010.06.04 00:33:39.
