data_PCOD9336419
_publ_section_title
;
Structure prediction by ZEFSAII (Michael W. Deem and Ramdas Pophale) SiO2 
 PCOD9336419
Probable space group: I 21 21 21
;
_chemical_formula_sum "Si O2"
_cell_formula_units_Z 60
_cell_length_a 19.142285
_cell_length_b 11.622141
_cell_length_c 15.260761
_cell_angle_alpha 90.000000
_cell_angle_beta 90.000000
_cell_angle_gamma 90.000000
_cell_volume 3395.127660
_symmetry_space_group_name_H-M "I 21 21 21"
_symmetry_group_IT_number 24
_symmetry_cell_setting 'orthorhombic'
loop_
_space_group_symop_operation_xyz
x,y,z
-x,1/2-y,z
x,-y,1/2-z
1/2-x,y,-z
1/2+x,1/2+y,1/2+z
1/2-x,-y,1/2+z
1/2+x,1/2-y,-z
-x,1/2+y,1/2-z
loop_
_atom_site_type_symbol
_atom_site_label
_atom_site_fract_x
_atom_site_fract_y
_atom_site_fract_z
Si Si1 0.868886 0.206862 0.880990
Si Si2 0.950881 0.973150 0.896811
Si Si3 0.896693 0.534196 0.653003
Si Si4 0.326478 0.141446 0.456805
Si Si5 0.929029 0.191438 0.438244
Si Si6 0.828860 0.170122 0.687267
Si Si7 0.750000 0.868258 0.500000
Si Si8 0.811406 0.038706 0.350741
O O1 0.903441 0.329419 0.861603
O O2 0.828735 0.178099 0.790844
O O3 0.921352 0.102817 0.904395
O O4 0.809212 0.206791 0.953870
O O5 0.896107 0.905261 0.836775
O O6 0.951349 0.899000 0.985856
O O7 0.027486 0.976552 0.856838
O O8 0.870029 0.500000 0.750000
O O9 0.849822 0.484292 0.574063
O O10 0.250000 0.145635 0.500000
O O11 0.381159 0.207767 0.519422
O O12 0.331661 0.211808 0.365660
O O13 0.877387 0.117000 0.377570
O O14 0.000000 0.250000 0.402239
O O15 0.759614 0.111306 0.651791
O O16 0.791469 0.945801 0.426888
O O17 0.822009 0.000000 0.250000
#
# Coordination Sequence:
#
# PCOD9336419 Si02
#       8
#     8   8   8   8   8   8   4   8
#     4  12  23  38  57  88 130 161 209 253 315 374
#     4  11  22  37  61  93 124 164 200 256 319 380
#     4  12  25  39  56  87 131 176 204 248 321 393
#     4  11  22  39  61  88 119 165 213 249 312 380
#     4  11  22  40  66  90 124 160 212 264 310 368
#     4  11  20  37  63  92 121 153 205 266 309 375
#     4  12  22  38  62  98 122 158 214 264 318 366
#     4  12  21  39  70  96 124 158 209 276 317 360
#
# _framework density 17.672384999999998
#
# number of rings (size 3 to 8) (size 9 to 14) (size 15 to 20)
#    0.000    0.533    8.000    2.400    0.933    0.000 
#    0.000    0.000    2.933    2.400    0.000    0.000 
#    0.000    0.000    0.000    0.000    0.000    0.000 
#
# Total GULP energy -167375.661212 kJ/mol
# GULP energy per Si atom -5579.188707 kJ/mol
# Density = 1.763216 g / cm^3
# Si number density = 17.672385 Si / 1000 Ang^3
#
#
#
# Elastic Constant Matrix: (Units=GPa)
#
#
# Indices 1 2 3 4 5 6 
#
# 1 88.8541 7.3579 21.6092 0.0000 0.0000 0.0000
# 2 7.3579 56.8052 13.2255 0.0000 0.0000 0.0000
# 3 21.6092 13.2255 66.4628 0.0000 0.0000 0.0000
# 4 0.0000 0.0000 0.0000 24.3779 0.0000 0.0000
# 5 0.0000 0.0000 0.0000 0.0000 -46.4396 0.0000
# 6 0.0000 0.0000 0.0000 0.0000 0.0000 25.7895
#
#
#
# Elastic Compliance Matrix: (Units=1/GPa)
#
#
# Indices 1 2 3 4 5 6 
#
# 1 0.012247 -0.000691 -0.003844 0.000000 0.000000 0.000000
# 2 -0.000691 0.018498 -0.003456 0.000000 0.000000 0.000000
# 3 -0.003844 -0.003456 0.016984 0.000000 0.000000 0.000000
# 4 0.000000 0.000000 0.000000 0.041021 0.000000 0.000000
# 5 0.000000 0.000000 0.000000 0.000000 -0.021533 0.000000
# 6 0.000000 0.000000 0.000000 0.000000 0.000000 0.038775
#
#
# Mechanical properties :
#
#
# Convention : Reuss Voigt Hill
#
# Bulk Modulus (GPa) = 31.50096 32.94525 32.22310
# Shear Modulus (GPa) = 37.71976 12.07418 24.89697
#
# Velocity S-wave (km/s) = 4.62496 2.61669 3.75748
# Velocity P-wave (km/s) = 6.81058 5.27372 6.09082
#
# Compressibility (1/GPa) = 0.03174506
#
# Stress axis : x y z
#
# Youngs Moduli (GPa) = 81.65569 54.05911 58.88014
#
# Poissons Ratio (x) = 0.03737 0.22635
# Poissons Ratio (y) = 0.05644 0.20350
# Poissons Ratio (z) = 0.31390 0.18684
#
# Static dielectric constant tensor:
#      x y z
#    x 1.591870 0.000000 0.000000 
#    y 0.000000 1.671000 0.000000 
#    z 0.000000 0.000000 1.609350 
# 
# From -- ./inp_files/27176.got.cif
#   From: 2010.05.17/outbox.cif.g08.bks.cpg/sg24_14_cif.got.tgz:27176.got - 2010.06.04 00:33:39.
