data_PCOD9336151
_publ_section_title
;
Structure prediction by ZEFSAII (Michael W. Deem and Ramdas Pophale) SiO2 
 PCOD9336151
Probable space group: I 21 21 21
;
_chemical_formula_sum "Si O2"
_cell_formula_units_Z 60
_cell_length_a 12.088851
_cell_length_b 8.402506
_cell_length_c 26.398244
_cell_angle_alpha 90.000000
_cell_angle_beta 90.000000
_cell_angle_gamma 90.000000
_cell_volume 2681.445008
_symmetry_space_group_name_H-M "I 21 21 21"
_symmetry_group_IT_number 24
_symmetry_cell_setting 'orthorhombic'
loop_
_space_group_symop_operation_xyz
x,y,z
-x,1/2-y,z
x,-y,1/2-z
1/2-x,y,-z
1/2+x,1/2+y,1/2+z
1/2-x,-y,1/2+z
1/2+x,1/2-y,-z
-x,1/2+y,1/2-z
loop_
_atom_site_type_symbol
_atom_site_label
_atom_site_fract_x
_atom_site_fract_y
_atom_site_fract_z
Si Si1 0.435876 0.454566 0.941139
Si Si2 0.692617 0.502866 0.948471
Si Si3 0.120804 0.190079 0.800766
Si Si4 0.565298 0.080070 0.052806
Si Si5 0.333255 0.190697 0.313056
Si Si6 0.743658 0.207052 0.890152
Si Si7 0.000000 0.250000 0.598037
Si Si8 0.376221 0.259517 0.631808
O O1 0.564850 0.451630 0.956188
O O2 0.383350 0.333971 0.900611
O O3 0.399210 0.615323 0.913610
O O4 0.385860 0.426350 0.996149
O O5 0.763545 0.357733 0.926711
O O6 0.676151 0.616965 0.900872
O O7 0.750000 0.562604 0.000000
O O8 0.127722 0.243948 0.742534
O O9 0.219801 0.263501 0.833467
O O10 0.000000 0.250000 0.819953
O O11 0.142168 0.000637 0.808691
O O12 0.500000 0.250000 0.059060
O O13 0.671101 0.077618 0.089458
O O14 0.501602 0.913860 0.065423
O O15 0.399345 0.247329 0.362322
O O16 0.211123 0.262120 0.322701
O O17 0.500000 0.250000 0.653854
#
# Coordination Sequence:
#
# PCOD9336151 Si02
#       8
#     8   8   8   8   8   8   4   8
#     4  11  25  43  62 104 146 188 249 308 371 471
#     4  11  23  39  69  95 134 193 243 298 377 451
#     4  11  24  44  74 108 147 191 256 326 405 484
#     4  12  26  43  69 108 152 196 261 307 381 483
#     4  11  23  46  71 108 147 193 256 324 398 472
#     4  12  22  42  64  98 145 189 238 309 382 455
#     4  12  26  42  74 110 152 206 250 326 404 466
#     4  10  24  44  67  99 143 189 248 307 372 461
#
# _framework density 22.375996000000001
#
# number of rings (size 3 to 8) (size 9 to 14) (size 15 to 20)
#    0.000    0.800    2.000    6.000    4.667    1.067 
#    0.000    1.333    0.000    0.000    0.000    0.000 
#    0.000    0.000    0.000    0.000    0.000    0.000 
#
# Total GULP energy -167190.758386 kJ/mol
# GULP energy per Si atom -5573.025280 kJ/mol
# Density = 2.232507 g / cm^3
# Si number density = 22.375996 Si / 1000 Ang^3
#
#
#
# Elastic Constant Matrix: (Units=GPa)
#
#
# Indices 1 2 3 4 5 6 
#
# 1 141.2708 19.8006 45.0195 0.0000 0.0000 0.0000
# 2 19.8006 59.5260 23.8746 0.0000 0.0000 0.0000
# 3 45.0195 23.8746 105.9433 0.0000 0.0000 0.0000
# 4 0.0000 0.0000 0.0000 21.8816 0.0000 0.0000
# 5 0.0000 0.0000 0.0000 0.0000 43.5002 0.0000
# 6 0.0000 0.0000 0.0000 0.0000 0.0000 32.5207
#
#
#
# Elastic Compliance Matrix: (Units=1/GPa)
#
#
# Indices 1 2 3 4 5 6 
#
# 1 0.008304 -0.001481 -0.003195 0.000000 0.000000 0.000000
# 2 -0.001481 0.018733 -0.003592 0.000000 0.000000 0.000000
# 3 -0.003195 -0.003592 0.011606 0.000000 0.000000 0.000000
# 4 0.000000 0.000000 0.000000 0.045700 0.000000 0.000000
# 5 0.000000 0.000000 0.000000 0.000000 0.022988 0.000000
# 6 0.000000 0.000000 0.000000 0.000000 0.000000 0.030750
#
#
# Mechanical properties :
#
#
# Convention : Reuss Voigt Hill
#
# Bulk Modulus (GPa) = 45.23457 53.79216 49.51337
# Shear Modulus (GPa) = 30.86663 34.11685 32.49174
#
# Velocity S-wave (km/s) = 3.71813 3.90899 3.81475
# Velocity P-wave (km/s) = 6.22030 6.66827 6.44818
#
# Compressibility (1/GPa) = 0.02210698
#
# Stress axis : x y z
#
# Youngs Moduli (GPa) = 120.41846 53.38255 86.16042
#
# Poissons Ratio (x) = 0.07905 0.27529
# Poissons Ratio (y) = 0.17832 0.30950
# Poissons Ratio (z) = 0.38475 0.19176
#
# Static dielectric constant tensor:
#      x y z
#    x 2.326640 0.000000 0.000000 
#    y 0.000000 2.217280 0.000000 
#    z 0.000000 0.000000 1.802570 
# 
# From -- ./inp_files/16458.got.cif
#   From: 2010.05.17/outbox.cif.g08.bks.cpg/sg24_9_cif.got.tgz:16458.got - 2010.06.04 00:33:39.
