data_PCOD9336226
_publ_section_title
;
Structure prediction by ZEFSAII (Michael W. Deem and Ramdas Pophale) SiO2 
 PCOD9336226
Probable space group: I 21 21 21
;
_chemical_formula_sum "Si O2"
_cell_formula_units_Z 36
_cell_length_a 17.471346
_cell_length_b 8.546424
_cell_length_c 9.319882
_cell_angle_alpha 90.000000
_cell_angle_beta 90.000000
_cell_angle_gamma 90.000000
_cell_volume 1391.621767
_symmetry_space_group_name_H-M "I 21 21 21"
_symmetry_group_IT_number 24
_symmetry_cell_setting 'orthorhombic'
loop_
_space_group_symop_operation_xyz
x,y,z
-x,1/2-y,z
x,-y,1/2-z
1/2-x,y,-z
1/2+x,1/2+y,1/2+z
1/2-x,-y,1/2+z
1/2+x,1/2-y,-z
-x,1/2+y,1/2-z
loop_
_atom_site_type_symbol
_atom_site_label
_atom_site_fract_x
_atom_site_fract_y
_atom_site_fract_z
Si Si1 0.916459 0.000000 0.750000
Si Si2 0.187569 0.769479 0.878130
Si Si3 0.315172 0.329055 0.787073
Si Si4 0.456512 0.401425 0.961942
Si Si5 0.094162 0.104365 0.386055
O O1 0.869257 0.130217 0.662369
O O2 0.964106 0.911172 0.631393
O O3 0.242718 0.785911 0.737243
O O4 0.250000 0.724838 0.000000
O O5 0.139083 0.904283 0.960951
O O6 0.283784 0.500000 0.750000
O O7 0.367678 0.364461 0.925249
O O8 0.379433 0.272806 0.672822
O O9 0.500000 0.250000 0.903782
O O10 0.507444 0.548564 0.908726
O O11 0.121516 0.000000 0.250000
#
# Coordination Sequence:
#
# PCOD9336226 Si02
#       5
#     4   8   8   8   8
#     4  12  28  44  72 110 160 206 274 354 420 508
#     4  10  24  47  78 110 153 213 267 344 422 505
#     4  11  23  46  83 113 153 216 285 335 423 523
#     4  12  27  44  75 114 158 216 272 341 435 510
#     4  11  24  48  78 121 161 213 277 353 429 514
#
# _framework density 25.869098999999999
#
# number of rings (size 3 to 8) (size 9 to 14) (size 15 to 20)
#    0.000    0.889    3.333    3.333    3.111    3.556 
#    0.000   13.333    0.000    0.000    0.000    0.000 
#    0.000    0.000    0.000    0.000    0.000    0.000 
#
# Total GULP energy -100206.435621 kJ/mol
# GULP energy per Si atom -5567.024201 kJ/mol
# Density = 2.581022 g / cm^3
# Si number density = 25.869099 Si / 1000 Ang^3
#
#
#
# Elastic Constant Matrix: (Units=GPa)
#
#
# Indices 1 2 3 4 5 6 
#
# 1 103.4758 54.3790 45.3795 0.0000 0.0000 0.0000
# 2 54.3790 48.5668 23.7627 0.0000 0.0000 0.0000
# 3 45.3795 23.7627 102.5134 0.0000 0.0000 0.0000
# 4 0.0000 0.0000 0.0000 50.0382 0.0000 0.0000
# 5 0.0000 0.0000 0.0000 0.0000 44.7310 0.0000
# 6 0.0000 0.0000 0.0000 0.0000 0.0000 36.3280
#
#
#
# Elastic Compliance Matrix: (Units=1/GPa)
#
#
# Indices 1 2 3 4 5 6 
#
# 1 0.025832 -0.026313 -0.005336 0.000000 0.000000 0.000000
# 2 -0.026313 0.050027 0.000052 0.000000 0.000000 0.000000
# 3 -0.005336 0.000052 0.012105 0.000000 0.000000 0.000000
# 4 0.000000 0.000000 0.000000 0.019985 0.000000 0.000000
# 5 0.000000 0.000000 0.000000 0.000000 0.022356 0.000000
# 6 0.000000 0.000000 0.000000 0.000000 0.000000 0.027527
#
#
# Mechanical properties :
#
#
# Convention : Reuss Voigt Hill
#
# Bulk Modulus (GPa) = 40.37174 55.73315 48.05245
# Shear Modulus (GPa) = 21.80717 34.95509 28.38113
#
# Velocity S-wave (km/s) = 2.90656 3.67990 3.31585
# Velocity P-wave (km/s) = 5.18693 6.29655 5.76848
#
# Compressibility (1/GPa) = 0.02476980
#
# Stress axis : x y z
#
# Youngs Moduli (GPa) = 38.71134 19.98921 82.61176
#
# Poissons Ratio (x) = 0.52598 0.44079
# Poissons Ratio (y) = 1.01861 -0.00427
# Poissons Ratio (z) = 0.20655 -0.00103
#
# Static dielectric constant tensor:
#      x y z
#    x 2.052630 0.000000 0.000000 
#    y 0.000000 2.177130 0.000000 
#    z 0.000000 0.000000 2.108120 
# 
# From -- ./inp_files/14824.got.cif
#   From: 2010.05.17/outbox.cif.g08.bks.cpg/sg24_8_cif.got.tgz:14824.got - 2010.06.04 00:33:39.
