data_PCOD9336627
_publ_section_title
;
Structure prediction by ZEFSAII (Michael W. Deem and Ramdas Pophale) SiO2 
 PCOD9336627
Probable space group: I 21 21 21
;
_chemical_formula_sum "Si O2"
_cell_formula_units_Z 48
_cell_length_a 6.260650
_cell_length_b 22.056825
_cell_length_c 15.852847
_cell_angle_alpha 90.000000
_cell_angle_beta 90.000000
_cell_angle_gamma 90.000000
_cell_volume 2189.120616
_symmetry_space_group_name_H-M "I 21 21 21"
_symmetry_group_IT_number 24
_symmetry_cell_setting 'orthorhombic'
loop_
_space_group_symop_operation_xyz
x,y,z
-x,1/2-y,z
x,-y,1/2-z
1/2-x,y,-z
1/2+x,1/2+y,1/2+z
1/2-x,-y,1/2+z
1/2+x,1/2-y,-z
-x,1/2+y,1/2-z
loop_
_atom_site_type_symbol
_atom_site_label
_atom_site_fract_x
_atom_site_fract_y
_atom_site_fract_z
Si Si1 0.111558 0.815799 0.779493
Si Si2 0.721228 0.500000 0.250000
Si Si3 0.988774 0.114124 0.270865
Si Si4 0.159575 0.374486 0.869150
Si Si5 0.448079 0.986029 0.435183
Si Si6 0.250000 0.724533 0.500000
Si Si7 0.642829 0.117549 0.418308
O O1 0.366007 0.825332 0.771213
O O2 0.000000 0.750000 0.776335
O O3 0.014389 0.853487 0.700569
O O4 0.041312 0.846259 0.868504
O O5 0.857039 0.442618 0.277783
O O6 0.595915 0.514751 0.334559
O O7 0.857941 0.102658 0.185605
O O8 0.825329 0.112687 0.347711
O O9 0.077359 0.423121 0.937328
O O10 0.236431 0.315147 0.916395
O O11 0.250000 0.982836 0.500000
O O12 0.559623 0.051207 0.446899
O O13 0.500000 0.750000 0.502932
O O14 0.750000 0.147733 0.500000
#
# Coordination Sequence:
#
# PCOD9336627 Si02
#       7
#     8   4   8   8   8   4   8
#     4  11  25  47  73 101 139 196 256 310 387 457
#     4  12  20  42  72  98 144 196 240 316 386 456
#     4  11  23  43  75 100 145 190 250 314 385 462
#     4  11  27  44  73 106 146 195 256 305 386 461
#     4  12  25  43  74 109 154 199 251 315 395 476
#     4  12  32  50  76 110 158 206 260 324 386 464
#     4  11  25  45  67 108 142 190 242 310 387 464
#
# _framework density 21.926614000000001
#
# number of rings (size 3 to 8) (size 9 to 14) (size 15 to 20)
#    0.000    0.667    3.333    3.500    9.333    2.000 
#    3.000    0.000    0.000    0.000    0.000    0.000 
#    0.000    0.000    0.000    0.000    0.000    0.000 
#
# Total GULP energy -133895.382323 kJ/mol
# GULP energy per Si atom -5578.974263 kJ/mol
# Density = 2.187671 g / cm^3
# Si number density = 21.926614 Si / 1000 Ang^3
#
#
#
# Elastic Constant Matrix: (Units=GPa)
#
#
# Indices 1 2 3 4 5 6 
#
# 1 100.2712 40.4411 23.0668 0.0000 0.0000 0.0000
# 2 40.4411 96.2951 2.6824 0.0000 0.0000 0.0000
# 3 23.0668 2.6824 93.9469 -0.0001 0.0000 0.0000
# 4 0.0000 0.0000 -0.0001 -18.9133 0.0000 0.0000
# 5 0.0000 0.0000 0.0000 0.0000 17.6512 0.0000
# 6 0.0000 0.0000 0.0000 0.0000 0.0000 23.4729
#
#
#
# Elastic Compliance Matrix: (Units=1/GPa)
#
#
# Indices 1 2 3 4 5 6 
#
# 1 0.012794 -0.005290 -0.002990 0.000000 0.000000 0.000000
# 2 -0.005290 0.012580 0.000940 0.000000 0.000000 0.000000
# 3 -0.002990 0.000940 0.011352 0.000000 0.000000 0.000000
# 4 0.000000 0.000000 0.000000 -0.052873 0.000000 0.000000
# 5 0.000000 0.000000 0.000000 0.000000 0.056653 0.000000
# 6 0.000000 0.000000 0.000000 0.000000 0.000000 0.042602
#
#
# Mechanical properties :
#
#
# Convention : Reuss Voigt Hill
#
# Bulk Modulus (GPa) = 45.36190 46.98820 46.17505
# Shear Modulus (GPa) = 47.55607 19.39700 33.47654
#
# Velocity S-wave (km/s) = 4.66217 2.97750 3.91161
# Velocity P-wave (km/s) = 7.05082 5.77035 6.44248
#
# Compressibility (1/GPa) = 0.02204493
#
# Stress axis : x y z
#
# Youngs Moduli (GPa) = 78.15914 79.48998 88.09246
#
# Poissons Ratio (x) = 0.42050 0.26343
# Poissons Ratio (y) = 0.41346 -0.08278
# Poissons Ratio (z) = 0.23372 -0.07469
#
# Static dielectric constant tensor:
#      x y z
#    x 1.947910 0.000000 0.000000 
#    y 0.000000 1.835400 0.000000 
#    z 0.000000 0.000000 1.706130 
# 
# From -- ./inp_files/23939.got.cif
#   From: 2010.05.17/outbox.cif.g08.bks.cpg/sg24_12_cif.got.tgz:23939.got - 2010.06.04 00:33:39.
