data_PCOD9336998
_publ_section_title
;
Structure prediction by ZEFSAII (Michael W. Deem and Ramdas Pophale) SiO2 
 PCOD9336998
Probable space group: I 21 21 21
;
_chemical_formula_sum "Si O2"
_cell_formula_units_Z 28
_cell_length_a 8.391665
_cell_length_b 8.222613
_cell_length_c 15.183612
_cell_angle_alpha 90.000000
_cell_angle_beta 90.000000
_cell_angle_gamma 90.000000
_cell_volume 1047.690693
_symmetry_space_group_name_H-M "I 21 21 21"
_symmetry_group_IT_number 24
_symmetry_cell_setting 'orthorhombic'
loop_
_space_group_symop_operation_xyz
x,y,z
-x,1/2-y,z
x,-y,1/2-z
1/2-x,y,-z
1/2+x,1/2+y,1/2+z
1/2-x,-y,1/2+z
1/2+x,1/2-y,-z
-x,1/2+y,1/2-z
loop_
_atom_site_type_symbol
_atom_site_label
_atom_site_fract_x
_atom_site_fract_y
_atom_site_fract_z
Si Si1 0.409870 0.420523 0.950308
Si Si2 0.670988 0.184328 0.683551
Si Si3 0.143573 0.949735 0.925208
Si Si4 0.040919 0.500000 0.750000
O O1 0.500000 0.250000 0.938143
O O2 0.376472 0.513040 0.860128
O O3 0.250000 0.380102 0.000000
O O4 0.486181 0.558094 0.015135
O O5 0.500000 0.250000 0.718699
O O6 0.740887 0.307651 0.609534
O O7 0.833991 0.149081 0.737403
O O8 0.250000 0.036761 0.000000
O O9 0.071466 0.021769 0.835095
#
# Coordination Sequence:
#
# PCOD9336998 Si02
#       4
#     8   8   8   4
#     4  12  27  49  86 130 179 240 307 380 457 531
#     4  12  28  53  91 124 183 244 313 371 466 553
#     4  12  27  54  91 127 185 247 303 374 461 562
#     4  12  30  50  82 140 176 226 316 386 442 540
#
# _framework density 26.725446000000002
#
# number of rings (size 3 to 8) (size 9 to 14) (size 15 to 20)
#    0.000    0.000    5.714    2.571    4.000    4.571 
#   10.286    0.000    0.000    0.000    0.000    0.000 
#    0.000    0.000    0.000    0.000    0.000    0.000 
#
# Total GULP energy -78089.958302 kJ/mol
# GULP energy per Si atom -5577.854164 kJ/mol
# Density = 2.666462 g / cm^3
# Si number density = 26.725446 Si / 1000 Ang^3
#
#
#
# Elastic Constant Matrix: (Units=GPa)
#
#
# Indices 1 2 3 4 5 6 
#
# 1 202.7337 89.6931 86.7431 0.0000 0.0000 0.0000
# 2 89.6931 141.2159 44.0682 0.0000 0.0000 0.0000
# 3 86.7431 44.0682 161.1659 0.0000 0.0000 0.0000
# 4 0.0000 0.0000 0.0000 95.6533 0.0000 0.0000
# 5 0.0000 0.0000 0.0000 0.0000 72.5433 0.0000
# 6 0.0000 0.0000 0.0000 0.0000 0.0000 -14.3388
#
#
#
# Elastic Compliance Matrix: (Units=1/GPa)
#
#
# Indices 1 2 3 4 5 6 
#
# 1 0.008173 -0.004175 -0.003258 0.000000 0.000000 0.000000
# 2 -0.004175 0.009874 -0.000453 0.000000 0.000000 0.000000
# 3 -0.003258 -0.000453 0.008082 0.000000 0.000000 0.000000
# 4 0.000000 0.000000 0.000000 0.010454 0.000000 0.000000
# 5 0.000000 0.000000 0.000000 0.000000 0.013785 0.000000
# 6 0.000000 0.000000 0.000000 0.000000 0.000000 -0.069741
#
#
# Mechanical properties :
#
#
# Convention : Reuss Voigt Hill
#
# Bulk Modulus (GPa) = 96.53491 105.12491 100.82991
# Shear Modulus (GPa) = -33758.86306 49.74565 -16854.55871
#
# Velocity S-wave (km/s) = -112.51290 4.31903 -79.50000
# Velocity P-wave (km/s) = 129.77932 8.01826 91.59252
#
# Compressibility (1/GPa) = 0.01035895
#
# Stress axis : x y z
#
# Youngs Moduli (GPa) = 122.34864 101.27292 123.73240
#
# Poissons Ratio (x) = 0.42279 0.40307
# Poissons Ratio (y) = 0.51077 0.05606
# Poissons Ratio (z) = 0.39856 0.04588
#
# Static dielectric constant tensor:
#      x y z
#    x 2.188440 0.000000 0.000000 
#    y 0.000000 2.113700 0.000000 
#    z 0.000000 0.000000 2.107850 
# 
# From -- ./inp_files/29143.got.cif
#   From: 2010.05.17/outbox.cif.g08.bks.cpg/sg24_15_cif.got.tgz:29143.got - 2010.06.04 00:33:39.
