data_PCOD9336831
_publ_section_title
;
Structure prediction by ZEFSAII (Michael W. Deem and Ramdas Pophale) SiO2 
 PCOD9336831
Probable space group: I 21 21 21
;
_chemical_formula_sum "Si O2"
_cell_formula_units_Z 28
_cell_length_a 12.064285
_cell_length_b 8.434305
_cell_length_c 15.539116
_cell_angle_alpha 90.000000
_cell_angle_beta 90.000000
_cell_angle_gamma 90.000000
_cell_volume 1581.165023
_symmetry_space_group_name_H-M "I 21 21 21"
_symmetry_group_IT_number 24
_symmetry_cell_setting 'orthorhombic'
loop_
_space_group_symop_operation_xyz
x,y,z
-x,1/2-y,z
x,-y,1/2-z
1/2-x,y,-z
1/2+x,1/2+y,1/2+z
1/2-x,-y,1/2+z
1/2+x,1/2-y,-z
-x,1/2+y,1/2-z
loop_
_atom_site_type_symbol
_atom_site_label
_atom_site_fract_x
_atom_site_fract_y
_atom_site_fract_z
Si Si1 0.500000 0.250000 0.656758
Si Si2 0.141573 0.489040 0.056089
Si Si3 0.263576 0.816096 0.397414
Si Si4 0.649524 0.500000 0.750000
Si Si5 0.500000 0.250000 0.058772
O O1 0.420711 0.366494 0.601228
O O2 0.574215 0.358367 0.717110
O O3 0.196236 0.349329 0.114674
O O4 0.250000 0.539949 0.000000
O O5 0.049516 0.392452 0.000075
O O6 0.250000 0.853328 0.500000
O O7 0.394420 0.798259 0.385787
O O8 0.218124 0.943521 0.332295
#
# Coordination Sequence:
#
# PCOD9336831 Si02
#       5
#     4   8   8   4   4
#     4  12  22  35  52  83 116 142 184 231 272 321
#     4   9  19  35  59  83 108 144 181 224 275 330
#     4   9  19  38  58  80 108 144 184 224 278 330
#     4  12  24  34  56  84 112 148 184 228 272 326
#     4   8  16  37  60  77 108 146 176 223 278 323
#
# _framework density 17.708462000000001
#
# number of rings (size 3 to 8) (size 9 to 14) (size 15 to 20)
#    0.000    2.857    0.000    5.143    0.000    4.571 
#    0.000    5.714    0.000    1.714    0.000    0.000 
#    0.000    0.000    0.000    0.000    0.000    0.000 
#
# Total GULP energy -77975.697787 kJ/mol
# GULP energy per Si atom -5569.692699 kJ/mol
# Density = 1.766816 g / cm^3
# Si number density = 17.708462 Si / 1000 Ang^3
#
#
#
# Elastic Constant Matrix: (Units=GPa)
#
#
# Indices 1 2 3 4 5 6 
#
# 1 141.3804 72.1338 48.4245 0.0000 0.0000 0.0000
# 2 72.1338 100.6193 62.4610 0.0000 0.0000 0.0000
# 3 48.4245 62.4610 76.8541 0.0000 0.0000 0.0000
# 4 0.0000 0.0000 0.0000 -157.5028 0.0000 0.0000
# 5 0.0000 0.0000 0.0000 0.0000 11.0618 0.0000
# 6 0.0000 0.0000 0.0000 0.0000 0.0000 37.7936
#
#
#
# Elastic Compliance Matrix: (Units=1/GPa)
#
#
# Indices 1 2 3 4 5 6 
#
# 1 0.011196 -0.007361 -0.001072 0.000000 0.000000 0.000000
# 2 -0.007361 0.024897 -0.015597 0.000000 0.000000 0.000000
# 3 -0.001072 -0.015597 0.026363 0.000000 0.000000 0.000000
# 4 0.000000 0.000000 0.000000 -0.006349 0.000000 0.000000
# 5 0.000000 0.000000 0.000000 0.000000 0.090401 0.000000
# 6 0.000000 0.000000 0.000000 0.000000 0.000000 0.026460
#
#
# Mechanical properties :
#
#
# Convention : Reuss Voigt Hill
#
# Bulk Modulus (GPa) = 69.45871 76.09915 72.77893
# Shear Modulus (GPa) = 22.14096 -12.67386 4.73355
#
# Velocity S-wave (km/s) = 3.53980 -2.67815 1.63672
# Velocity P-wave (km/s) = 7.48435 5.78820 6.69025
#
# Compressibility (1/GPa) = 0.01439704
#
# Stress axis : x y z
#
# Youngs Moduli (GPa) = 89.31862 40.16503 37.93211
#
# Poissons Ratio (x) = 0.29565 0.04066
# Poissons Ratio (y) = 0.65746 0.59161
# Poissons Ratio (z) = 0.09575 0.62644
#
# Static dielectric constant tensor:
#      x y z
#    x 1.655740 0.000000 0.000000 
#    y 0.000000 1.608060 0.000000 
#    z 0.000000 0.000000 1.605920 
# 
# From -- ./inp_files/10169.got.cif
#   From: 2010.05.17/outbox.cif.g08.bks.cpg/sg24_6_cif.got.tgz:10169.got - 2010.06.04 00:33:39.
