data_PCOD9336926
_publ_section_title
;
Structure prediction by ZEFSAII (Michael W. Deem and Ramdas Pophale) SiO2 
 PCOD9336926
Probable space group: I 21 21 21
;
_chemical_formula_sum "Si O2"
_cell_formula_units_Z 28
_cell_length_a 4.919348
_cell_length_b 22.902756
_cell_length_c 10.370969
_cell_angle_alpha 90.000000
_cell_angle_beta 90.000000
_cell_angle_gamma 90.000000
_cell_volume 1168.462095
_symmetry_space_group_name_H-M "I 21 21 21"
_symmetry_group_IT_number 24
_symmetry_cell_setting 'orthorhombic'
loop_
_space_group_symop_operation_xyz
x,y,z
-x,1/2-y,z
x,-y,1/2-z
1/2-x,y,-z
1/2+x,1/2+y,1/2+z
1/2-x,-y,1/2+z
1/2+x,1/2-y,-z
-x,1/2+y,1/2-z
loop_
_atom_site_type_symbol
_atom_site_label
_atom_site_fract_x
_atom_site_fract_y
_atom_site_fract_z
Si Si1 0.843386 0.000000 0.250000
Si Si2 0.250000 0.847843 0.500000
Si Si3 0.900107 0.687416 0.774260
Si Si4 0.750000 0.933765 0.500000
Si Si5 0.600352 0.882104 0.863258
O O1 0.998253 0.055445 0.309878
O O2 0.689682 0.973724 0.374536
O O3 0.199443 0.809847 0.626834
O O4 0.498399 0.891511 0.526521
O O5 0.652868 0.661289 0.856449
O O6 0.000000 0.750000 0.821606
O O7 0.156994 0.644183 0.776938
O O8 0.750000 0.888086 0.000000
#
# Coordination Sequence:
#
# PCOD9336926 Si02
#       5
#     4   4   8   4   8
#     4  12  24  48  74 114 154 204 246 314 378 458
#     4  12  24  47  72 114 146 195 252 310 382 454
#     4  12  27  48  75 106 150 199 255 314 378 448
#     4  12  26  43  76 112 160 197 254 308 380 466
#     4  12  27  47  75 112 148 203 252 307 381 457
#
# _framework density 23.963123
#
# number of rings (size 3 to 8) (size 9 to 14) (size 15 to 20)
#    0.000    0.000    7.143    1.714    0.000   10.286 
#    0.000    0.000    0.000    0.000    0.000    0.000 
#    0.000    0.000    0.000    0.000    0.000    0.000 
#
# Total GULP energy -78384.504380 kJ/mol
# GULP energy per Si atom -5598.893170 kJ/mol
# Density = 2.390858 g / cm^3
# Si number density = 23.963123 Si / 1000 Ang^3
#
#
#
# Elastic Constant Matrix: (Units=GPa)
#
#
# Indices 1 2 3 4 5 6 
#
# 1 142.2328 56.3765 28.5527 0.0000 0.0000 0.0000
# 2 56.3765 142.8706 47.8181 0.0000 0.0000 -0.0001
# 3 28.5527 47.8181 129.4636 0.0000 0.0000 -0.0002
# 4 0.0000 0.0000 0.0000 16.8027 0.0000 -0.0002
# 5 0.0000 0.0000 0.0000 0.0000 30.4635 0.0000
# 6 0.0000 -0.0001 -0.0002 -0.0002 0.0000 -480.5330
#
#
#
# Elastic Compliance Matrix: (Units=1/GPa)
#
#
# Indices 1 2 3 4 5 6 
#
# 1 0.008392 -0.003072 -0.000716 0.000000 0.000000 0.000000
# 2 -0.003072 0.009111 -0.002688 0.000000 0.000000 0.000000
# 3 -0.000716 -0.002688 0.008875 0.000000 0.000000 0.000000
# 4 0.000000 0.000000 0.000000 0.059514 0.000000 0.000000
# 5 0.000000 0.000000 0.000000 0.000000 0.032826 0.000000
# 6 0.000000 0.000000 0.000000 0.000000 0.000000 -0.002081
#
#
# Mechanical properties :
#
#
# Convention : Reuss Voigt Hill
#
# Bulk Modulus (GPa) = 74.47996 75.56239 75.02117
# Shear Modulus (GPa) = 37.29555 -67.86537 -15.28491
#
# Velocity S-wave (km/s) = 3.94937 -5.32750 -2.52831
# Velocity P-wave (km/s) = 7.20730 2.49835 4.78035
#
# Compressibility (1/GPa) = 0.01342643
#
# Stress axis : x y z
#
# Youngs Moduli (GPa) = 119.16024 109.75708 112.67757
#
# Poissons Ratio (x) = 0.33715 0.08071
# Poissons Ratio (y) = 0.36603 0.30285
# Poissons Ratio (z) = 0.08535 0.29500
#
# Static dielectric constant tensor:
#      x y z
#    x 1.881670 0.000000 0.000000 
#    y 0.000000 1.895940 0.000000 
#    z 0.000000 0.000000 2.029160 
# 
# From -- ./inp_files/17354.got.cif
#   From: 2010.05.17/outbox.cif.g08.bks.cpg/sg24_9_cif.got.tgz:17354.got - 2010.06.04 00:33:39.
