data_PCOD9336957
_publ_section_title
;
Structure prediction by ZEFSAII (Michael W. Deem and Ramdas Pophale) SiO2 
 PCOD9336957
Probable space group: I 21 21 21
;
_chemical_formula_sum "Si O2"
_cell_formula_units_Z 32
_cell_length_a 7.457873
_cell_length_b 29.019544
_cell_length_c 5.546144
_cell_angle_alpha 90.000000
_cell_angle_beta 90.000000
_cell_angle_gamma 90.000000
_cell_volume 1200.319078
_symmetry_space_group_name_H-M "I 21 21 21"
_symmetry_group_IT_number 24
_symmetry_cell_setting 'orthorhombic'
loop_
_space_group_symop_operation_xyz
x,y,z
-x,1/2-y,z
x,-y,1/2-z
1/2-x,y,-z
1/2+x,1/2+y,1/2+z
1/2-x,-y,1/2+z
1/2+x,1/2-y,-z
-x,1/2+y,1/2-z
loop_
_atom_site_type_symbol
_atom_site_label
_atom_site_fract_x
_atom_site_fract_y
_atom_site_fract_z
Si Si1 0.750000 0.405195 0.500000
Si Si2 0.000000 0.750000 0.876855
Si Si3 0.750000 0.540814 0.500000
Si Si4 0.750000 0.086886 0.500000
Si Si5 0.046308 0.340712 0.320014
Si Si6 0.064923 0.500000 0.250000
Si Si7 0.750000 0.700614 0.500000
O O1 0.740901 0.431322 0.247465
O O2 0.929187 0.375238 0.487192
O O3 0.838841 0.731960 0.706902
O O4 0.056652 0.707595 0.044086
O O5 0.569690 0.511584 0.530489
O O6 0.723539 0.128923 0.705696
O O7 0.666538 0.046272 0.676239
O O8 0.913959 0.330075 0.098271
#
# Coordination Sequence:
#
# PCOD9336957 Si02
#       7
#     4   4   4   4   8   4   4
#     4  12  25  53  87 120 162 236 296 350 449 542
#     4  12  28  48  86 122 170 226 298 360 458 546
#     4  12  28  54  90 115 163 244 294 360 444 552
#     4  12  32  49  79 129 181 227 301 384 444 526
#     4  12  28  52  80 122 175 229 296 366 455 538
#     4  12  30  52  86 126 182 236 308 368 460 530
#     4  12  27  52  84 124 174 235 293 366 451 554
#
# _framework density 26.659579999999998
#
# number of rings (size 3 to 8) (size 9 to 14) (size 15 to 20)
#    0.000    0.000    5.000    2.250   10.500    0.000 
#    0.000    0.000    0.000    0.000    0.000    0.000 
#    0.000    0.000    0.000    0.000    0.000    0.000 
#
# Total GULP energy -89243.432111 kJ/mol
# GULP energy per Si atom -5577.714507 kJ/mol
# Density = 2.659890 g / cm^3
# Si number density = 26.659580 Si / 1000 Ang^3
#
#
#
# Elastic Constant Matrix: (Units=GPa)
#
#
# Indices 1 2 3 4 5 6 
#
# 1 81.7360 40.7353 56.9610 0.0085 -0.0039 -0.0099
# 2 40.7353 236.4000 98.1862 0.0131 -0.0038 -0.0197
# 3 56.9610 98.1862 159.2281 -0.0207 0.0142 -0.0163
# 4 0.0085 0.0131 -0.0207 50.9574 -0.0098 -0.0160
# 5 -0.0039 -0.0038 0.0142 -0.0098 51.9676 0.0080
# 6 -0.0099 -0.0197 -0.0163 -0.0160 0.0080 6.0791
#
#
#
# Elastic Compliance Matrix: (Units=1/GPa)
#
#
# Indices 1 2 3 4 5 6 
#
# 1 0.016345 -0.000522 -0.005526 -0.000005 0.000003 0.000010
# 2 -0.000522 0.005703 -0.003330 -0.000003 0.000001 0.000009
# 3 -0.005526 -0.003330 0.010311 0.000006 -0.000003 0.000008
# 4 -0.000005 -0.000003 0.000006 0.019624 0.000004 0.000051
# 5 0.000003 0.000001 -0.000003 0.000004 0.019243 -0.000025
# 6 0.000010 0.000009 0.000008 0.000051 -0.000025 0.164498
#
#
# Mechanical properties :
#
#
# Convention : Reuss Voigt Hill
#
# Bulk Modulus (GPa) = 73.50688 96.56989 85.03838
# Shear Modulus (GPa) = 19.30401 40.56625 29.93513
#
# Velocity S-wave (km/s) = 2.69382 3.90505 3.35455
# Velocity P-wave (km/s) = 6.10801 7.52559 6.85355
#
# Compressibility (1/GPa) = 0.01360417
#
# Stress axis : x y z
#
# Youngs Moduli (GPa) = 61.18015 175.34153 96.98821
#
# Poissons Ratio (x) = 0.09144 0.53592
# Poissons Ratio (y) = 0.03191 0.32299
# Poissons Ratio (z) = 0.33806 0.58393
#
# Static dielectric constant tensor:
#      x y z
#    x 1.911220 -0.000010 0.000000 
#    y -0.000010 2.127050 0.000000 
#    z 0.000000 0.000000 2.109280 
# 
# From -- ./inp_files/1361.got.cif
#   From: 2010.05.17/outbox.cif.g08.bks.cpg/sg24_1_cif.got.tgz:1361.got - 2010.06.04 00:33:39.
