data_PCOD9336011
_publ_section_title
;
Structure prediction by ZEFSAII (Michael W. Deem and Ramdas Pophale) SiO2 
 PCOD9336011
Probable space group: I 21 21 21
;
_chemical_formula_sum "Si O2"
_cell_formula_units_Z 60
_cell_length_a 18.498388
_cell_length_b 16.397754
_cell_length_c 9.184482
_cell_angle_alpha 90.000000
_cell_angle_beta 90.000000
_cell_angle_gamma 90.000000
_cell_volume 2785.947439
_symmetry_space_group_name_H-M "I 21 21 21"
_symmetry_group_IT_number 24
_symmetry_cell_setting 'orthorhombic'
loop_
_space_group_symop_operation_xyz
x,y,z
-x,1/2-y,z
x,-y,1/2-z
1/2-x,y,-z
1/2+x,1/2+y,1/2+z
1/2-x,-y,1/2+z
1/2+x,1/2-y,-z
-x,1/2+y,1/2-z
loop_
_atom_site_type_symbol
_atom_site_label
_atom_site_fract_x
_atom_site_fract_y
_atom_site_fract_z
Si Si1 0.897772 0.910811 0.680515
Si Si2 0.936066 0.588656 0.673473
Si Si3 0.750000 0.475250 0.500000
Si Si4 0.277457 0.338793 0.345060
Si Si5 0.872182 0.432503 0.145285
Si Si6 0.316437 0.344504 0.906785
Si Si7 0.086759 0.233134 0.303173
Si Si8 0.159371 0.821305 0.896978
O O1 0.859048 0.855520 0.800627
O O2 0.857677 0.898100 0.526100
O O3 0.980532 0.888012 0.662951
O O4 0.892726 0.000000 0.750000
O O5 0.931382 0.500000 0.750000
O O6 0.905364 0.577792 0.513116
O O7 0.893448 0.656122 0.765342
O O8 0.790955 0.535258 0.388360
O O9 0.691096 0.409950 0.442189
O O10 0.250000 0.366794 0.500000
O O11 0.230717 0.383521 0.222188
O O12 0.276363 0.239614 0.345170
O O13 0.907003 0.500000 0.250000
O O14 0.887364 0.350767 0.230888
O O15 0.374642 0.296242 0.808500
O O16 0.250000 0.300966 0.000000
O O17 0.119165 0.223785 0.467499
O O18 0.000000 0.250000 0.307499
#
# Coordination Sequence:
#
# PCOD9336011 Si02
#       8
#     8   8   4   8   8   8   8   8
#     4  10  25  47  71 102 141 185 253 311 374 454
#     4  11  24  44  68 102 143 192 240 297 367 448
#     4  12  24  44  72 108 154 194 252 318 372 462
#     4  11  23  42  72 104 140 185 246 306 379 453
#     4  12  27  44  70 109 149 204 251 306 381 459
#     4  10  23  45  68 100 142 187 246 315 375 452
#     4  12  26  45  70 106 157 203 255 311 387 471
#     4  12  25  43  70 108 150 199 246 304 379 464
#
# _framework density 21.536660000000001
#
# number of rings (size 3 to 8) (size 9 to 14) (size 15 to 20)
#    0.000    0.800    4.667    0.800    8.400    1.600 
#    0.000    0.000    0.000    0.800    0.000    0.000 
#    0.000    0.000    0.000    0.000    0.000    0.000 
#
# Total GULP energy -167267.528633 kJ/mol
# GULP energy per Si atom -5575.584288 kJ/mol
# Density = 2.148764 g / cm^3
# Si number density = 21.536660 Si / 1000 Ang^3
#
#
#
# Elastic Constant Matrix: (Units=GPa)
#
#
# Indices 1 2 3 4 5 6 
#
# 1 131.6261 27.9754 76.5603 0.0000 0.0000 0.0000
# 2 27.9754 43.5159 30.9555 0.0000 0.0000 0.0000
# 3 76.5603 30.9555 202.2971 0.0000 0.0000 0.0000
# 4 0.0000 0.0000 0.0000 32.0369 0.0000 0.0000
# 5 0.0000 0.0000 0.0000 0.0000 17.3345 0.0000
# 6 0.0000 0.0000 0.0000 0.0000 0.0000 24.3673
#
#
#
# Elastic Compliance Matrix: (Units=1/GPa)
#
#
# Indices 1 2 3 4 5 6 
#
# 1 0.010435 -0.004375 -0.003280 0.000000 0.000000 0.000000
# 2 -0.004375 0.027622 -0.002571 0.000000 0.000000 0.000000
# 3 -0.003280 -0.002571 0.006578 0.000000 0.000000 0.000000
# 4 0.000000 0.000000 0.000000 0.031214 0.000000 0.000000
# 5 0.000000 0.000000 0.000000 0.000000 0.057689 0.000000
# 6 0.000000 0.000000 0.000000 0.000000 0.000000 0.041039
#
#
# Mechanical properties :
#
#
# Convention : Reuss Voigt Hill
#
# Bulk Modulus (GPa) = 41.35166 72.04684 56.69925
# Shear Modulus (GPa) = 24.61989 30.87757 27.74873
#
# Velocity S-wave (km/s) = 3.38474 3.79056 3.59338
# Velocity P-wave (km/s) = 5.87516 7.25834 6.60307
#
# Compressibility (1/GPa) = 0.02418283
#
# Stress axis : x y z
#
# Youngs Moduli (GPa) = 95.83355 36.20340 152.02692
#
# Poissons Ratio (x) = 0.15840 0.49858
# Poissons Ratio (y) = 0.41930 0.39083
# Poissons Ratio (z) = 0.31429 0.09307
#
# Static dielectric constant tensor:
#      x y z
#    x 1.831650 0.000000 0.000000 
#    y 0.000000 1.882870 0.000000 
#    z 0.000000 0.000000 1.820160 
# 
# From -- ./inp_files/14460.got.cif
#   From: 2010.05.17/outbox.cif.g08.bks.cpg/sg24_8_cif.got.tgz:14460.got - 2010.06.04 00:33:39.
