data_PCOD9336995
_publ_section_title
;
Structure prediction by ZEFSAII (Michael W. Deem and Ramdas Pophale) SiO2 
 PCOD9336995
Probable space group: I 21 21 21
;
_chemical_formula_sum "Si O2"
_cell_formula_units_Z 32
_cell_length_a 5.367987
_cell_length_b 18.138328
_cell_length_c 13.424318
_cell_angle_alpha 90.000000
_cell_angle_beta 90.000000
_cell_angle_gamma 90.000000
_cell_volume 1307.076293
_symmetry_space_group_name_H-M "I 21 21 21"
_symmetry_group_IT_number 24
_symmetry_cell_setting 'orthorhombic'
loop_
_space_group_symop_operation_xyz
x,y,z
-x,1/2-y,z
x,-y,1/2-z
1/2-x,y,-z
1/2+x,1/2+y,1/2+z
1/2-x,-y,1/2+z
1/2+x,1/2-y,-z
-x,1/2+y,1/2-z
loop_
_atom_site_type_symbol
_atom_site_label
_atom_site_fract_x
_atom_site_fract_y
_atom_site_fract_z
Si Si1 0.750000 0.869070 0.000000
Si Si2 0.000000 0.250000 0.628779
Si Si3 0.621817 0.462245 0.602008
Si Si4 0.500000 0.750000 0.738586
Si Si5 0.999347 0.000000 0.750000
Si Si6 0.654085 0.106200 0.887043
O O1 0.633984 0.918251 0.910905
O O2 0.945718 0.817098 0.945457
O O3 0.251654 0.238172 0.693859
O O4 0.750000 0.444668 0.500000
O O5 0.811884 0.447725 0.689058
O O6 0.572231 0.549187 0.603169
O O7 0.571314 0.820290 0.669915
O O8 0.841748 0.055035 0.820703
O O9 0.750000 0.120280 0.000000
#
# Coordination Sequence:
#
# PCOD9336995 Si02
#       6
#     4   4   8   4   4   8
#     4  12  30  54  82 130 174 216 296 360 438 508
#     4  12  33  55  84 126 176 238 278 358 440 512
#     4  12  27  48  89 123 166 218 288 359 426 510
#     4  12  35  53  86 124 178 232 290 342 442 520
#     4  12  28  50  90 128 166 220 292 356 442 500
#     4  12  29  56  83 128 168 228 286 360 426 519
#
# _framework density 24.482120999999999
#
# number of rings (size 3 to 8) (size 9 to 14) (size 15 to 20)
#    0.000    0.000    3.750    1.500   19.250    2.000 
#    0.000    0.000    0.000    0.000    0.000    0.000 
#    0.000    0.000    0.000    0.000    0.000    0.000 
#
# Total GULP energy -89602.041088 kJ/mol
# GULP energy per Si atom -5600.127568 kJ/mol
# Density = 2.442640 g / cm^3
# Si number density = 24.482121 Si / 1000 Ang^3
#
#
#
# Elastic Constant Matrix: (Units=GPa)
#
#
# Indices 1 2 3 4 5 6 
#
# 1 142.1772 76.1186 86.3918 0.0000 0.0000 0.0000
# 2 76.1186 201.0864 89.0967 0.0000 0.0000 0.0000
# 3 86.3918 89.0967 187.5747 0.0000 0.0000 0.0000
# 4 0.0000 0.0000 0.0000 36.3696 0.0000 0.0000
# 5 0.0000 0.0000 0.0000 0.0000 52.9461 0.0000
# 6 0.0000 0.0000 0.0000 0.0000 0.0000 16.7464
#
#
#
# Elastic Compliance Matrix: (Units=1/GPa)
#
#
# Indices 1 2 3 4 5 6 
#
# 1 0.010567 -0.002335 -0.003758 0.000000 0.000000 0.000000
# 2 -0.002335 0.006815 -0.002161 0.000000 0.000000 0.000000
# 3 -0.003758 -0.002161 0.008089 0.000000 0.000000 0.000000
# 4 0.000000 0.000000 0.000000 0.027496 0.000000 0.000000
# 5 0.000000 0.000000 0.000000 0.000000 0.018887 0.000000
# 6 0.000000 0.000000 0.000000 0.000000 0.000000 0.059714
#
#
# Mechanical properties :
#
#
# Convention : Reuss Voigt Hill
#
# Bulk Modulus (GPa) = 111.58552 114.89470 113.24011
# Shear Modulus (GPa) = 33.09886 39.82782 36.46334
#
# Velocity S-wave (km/s) = 3.68089 4.03775 3.86344
# Velocity P-wave (km/s) = 7.98390 8.29276 8.13979
#
# Compressibility (1/GPa) = 0.00896174
#
# Stress axis : x y z
#
# Youngs Moduli (GPa) = 94.63507 146.74482 123.63120
#
# Poissons Ratio (x) = 0.34265 0.46457
# Poissons Ratio (y) = 0.22097 0.26722
# Poissons Ratio (z) = 0.35561 0.31718
#
# Static dielectric constant tensor:
#      x y z
#    x 2.291130 0.000000 0.000000 
#    y 0.000000 1.908900 0.000000 
#    z 0.000000 0.000000 2.011590 
# 
# From -- ./inp_files/23505.got.cif
#   From: 2010.05.17/outbox.cif.g08.bks.cpg/sg24_12_cif.got.tgz:23505.got - 2010.06.04 00:33:39.
