data_PCOD9336224
_publ_section_title
;
Structure prediction by ZEFSAII (Michael W. Deem and Ramdas Pophale) SiO2 
 PCOD9336224
Probable space group: I 21 21 21
;
_chemical_formula_sum "Si O2"
_cell_formula_units_Z 28
_cell_length_a 7.086860
_cell_length_b 9.815432
_cell_length_c 14.520779
_cell_angle_alpha 90.000000
_cell_angle_beta 90.000000
_cell_angle_gamma 90.000000
_cell_volume 1010.073990
_symmetry_space_group_name_H-M "I 21 21 21"
_symmetry_group_IT_number 24
_symmetry_cell_setting 'orthorhombic'
loop_
_space_group_symop_operation_xyz
x,y,z
-x,1/2-y,z
x,-y,1/2-z
1/2-x,y,-z
1/2+x,1/2+y,1/2+z
1/2-x,-y,1/2+z
1/2+x,1/2-y,-z
-x,1/2+y,1/2-z
loop_
_atom_site_type_symbol
_atom_site_label
_atom_site_fract_x
_atom_site_fract_y
_atom_site_fract_z
Si Si1 0.250000 0.182122 0.000000
Si Si2 0.847902 0.134677 0.127039
Si Si3 0.238697 0.353900 0.342670
Si Si4 0.322775 0.054442 0.351806
O O1 0.324158 0.308097 0.069921
O O2 0.274565 0.065131 0.079595
O O3 0.820532 0.150483 0.235363
O O4 0.000000 0.250000 0.092370
O O5 0.877093 0.975641 0.109543
O O6 0.227718 0.199801 0.376024
O O7 0.454514 0.407431 0.347017
O O8 0.266293 0.000000 0.250000
#
# Coordination Sequence:
#
# PCOD9336224 Si02
#       4
#     4   8   8   8
#     4  12  28  42  74 120 156 200 268 342 398 478
#     4  11  25  42  72 110 151 207 262 330 391 472
#     4  10  24  47  77 103 153 214 258 326 393 483
#     4  11  22  46  79 112 153 207 270 323 407 478
#
# _framework density 27.720742000000001
#
# number of rings (size 3 to 8) (size 9 to 14) (size 15 to 20)
#    0.000    1.143    5.714    0.000    4.000    5.714 
#    5.143    0.000    0.000    0.000    0.000    0.000 
#    0.000    0.000    0.000    0.000    0.000    0.000 
#
# Total GULP energy -78050.670126 kJ/mol
# GULP energy per Si atom -5575.047866 kJ/mol
# Density = 2.765765 g / cm^3
# Si number density = 27.720742 Si / 1000 Ang^3
#
#
#
# Elastic Constant Matrix: (Units=GPa)
#
#
# Indices 1 2 3 4 5 6 
#
# 1 113.0076 55.0841 4.8005 0.0000 0.0000 0.0000
# 2 55.0841 366.9025 87.4971 0.0000 0.0000 0.0000
# 3 4.8005 87.4971 141.2926 0.0000 0.0000 0.0000
# 4 0.0000 0.0000 0.0000 25.8657 0.0000 0.0000
# 5 0.0000 0.0000 0.0000 0.0000 -502.1270 0.0000
# 6 0.0000 0.0000 0.0000 0.0000 0.0000 71.7113
#
#
#
# Elastic Compliance Matrix: (Units=1/GPa)
#
#
# Indices 1 2 3 4 5 6 
#
# 1 0.009601 -0.001600 0.000665 0.000000 0.000000 0.000000
# 2 -0.001600 0.003464 -0.002091 0.000000 0.000000 0.000000
# 3 0.000665 -0.002091 0.008350 0.000000 0.000000 0.000000
# 4 0.000000 0.000000 0.000000 0.038661 0.000000 0.000000
# 5 0.000000 0.000000 0.000000 0.000000 -0.001992 0.000000
# 6 0.000000 0.000000 0.000000 0.000000 0.000000 0.013945
#
#
# Mechanical properties :
#
#
# Convention : Reuss Voigt Hill
#
# Bulk Modulus (GPa) = 65.09512 101.77398 83.43455
# Shear Modulus (GPa) = 60.09437 -49.32194 5.38621
#
# Velocity S-wave (km/s) = 4.66107 -4.22268 1.39544
# Velocity P-wave (km/s) = 7.24575 3.60818 5.72363
#
# Compressibility (1/GPa) = 0.01536214
#
# Stress axis : x y z
#
# Youngs Moduli (GPa) = 104.16070 288.65400 119.76331
#
# Poissons Ratio (x) = 0.46180 -0.07959
# Poissons Ratio (y) = 0.16664 0.25042
# Poissons Ratio (z) = -0.06922 0.60357
#
# Static dielectric constant tensor:
#      x y z
#    x 1.160520 0.000000 0.000000 
#    y 0.000000 2.129100 0.000000 
#    z 0.000000 0.000000 0.712400 
# 
# From -- ./inp_files/25422.got.cif
#   From: 2010.05.17/outbox.cif.g08.bks.cpg/sg24_13_cif.got.tgz:25422.got - 2010.06.04 00:33:39.
