data_PCOD9336237
_publ_section_title
;
Structure prediction by ZEFSAII (Michael W. Deem and Ramdas Pophale) SiO2 
 PCOD9336237
Probable space group: I 21 21 21
;
_chemical_formula_sum "Si O2"
_cell_formula_units_Z 40
_cell_length_a 10.157582
_cell_length_b 18.357005
_cell_length_c 8.488881
_cell_angle_alpha 90.000000
_cell_angle_beta 90.000000
_cell_angle_gamma 90.000000
_cell_volume 1582.860381
_symmetry_space_group_name_H-M "I 21 21 21"
_symmetry_group_IT_number 24
_symmetry_cell_setting 'orthorhombic'
loop_
_space_group_symop_operation_xyz
x,y,z
-x,1/2-y,z
x,-y,1/2-z
1/2-x,y,-z
1/2+x,1/2+y,1/2+z
1/2-x,-y,1/2+z
1/2+x,1/2-y,-z
-x,1/2+y,1/2-z
loop_
_atom_site_type_symbol
_atom_site_label
_atom_site_fract_x
_atom_site_fract_y
_atom_site_fract_z
Si Si1 0.395307 0.640713 0.248422
Si Si2 0.500000 0.250000 0.504859
Si Si3 0.500000 0.250000 0.022139
Si Si4 0.653956 0.571495 0.348720
Si Si5 0.250000 0.542599 0.000000
Si Si6 0.878365 0.652250 0.253949
Si Si7 0.954992 0.000000 0.250000
O O1 0.389345 0.706340 0.376533
O O2 0.500404 0.588234 0.334058
O O3 0.291006 0.591010 0.154351
O O4 0.449263 0.685212 0.100517
O O5 0.398611 0.211378 0.620204
O O6 0.429946 0.190456 0.912483
O O7 0.674768 0.500000 0.250000
O O8 0.750000 0.563842 0.500000
O O9 0.724734 0.636887 0.259162
O O10 0.132393 0.498346 0.087887
O O11 0.957750 0.574935 0.236148
#
# Coordination Sequence:
#
# PCOD9336237 Si02
#       7
#     8   4   4   8   4   8   4
#     4  11  26  50  74 114 150 211 263 318 401 461
#     4  10  24  48  76 110 150 202 260 324 396 470
#     4  10  24  48  80 110 158 202 266 324 394 470
#     4  12  28  46  82 114 156 202 261 338 393 466
#     4  12  30  50  78 112 158 218 260 330 376 498
#     4  11  24  51  74 117 153 199 266 325 399 461
#     4  12  28  50  76 110 158 208 270 314 406 462
#
# _framework density 25.270707000000002
#
# number of rings (size 3 to 8) (size 9 to 14) (size 15 to 20)
#    0.000    0.800    5.000    0.000    9.800    3.200 
#    3.600    0.000    0.000    0.000    0.000    0.000 
#    0.000    0.000    0.000    0.000    0.000    0.000 
#
# Total GULP energy -111623.133892 kJ/mol
# GULP energy per Si atom -5581.156695 kJ/mol
# Density = 2.521319 g / cm^3
# Si number density = 25.270707 Si / 1000 Ang^3
#
#
#
# Elastic Constant Matrix: (Units=GPa)
#
#
# Indices 1 2 3 4 5 6 
#
# 1 73.3660 43.4922 38.6624 0.0000 -0.0002 0.0000
# 2 43.4922 101.7870 55.1552 0.0001 -0.0015 0.0000
# 3 38.6624 55.1552 128.1566 0.0000 -0.0011 -0.0001
# 4 0.0000 0.0001 0.0000 -25.4935 -0.0017 0.0000
# 5 -0.0002 -0.0015 -0.0011 -0.0017 234.1707 -0.0002
# 6 0.0000 0.0000 -0.0001 0.0000 -0.0002 -9.4300
#
#
#
# Elastic Compliance Matrix: (Units=1/GPa)
#
#
# Indices 1 2 3 4 5 6 
#
# 1 0.019061 -0.006558 -0.002928 0.000000 0.000000 0.000000
# 2 -0.006558 0.015069 -0.004507 0.000000 0.000000 0.000000
# 3 -0.002928 -0.004507 0.010626 0.000000 0.000000 0.000000
# 4 0.000000 0.000000 0.000000 -0.039226 0.000000 0.000000
# 5 0.000000 0.000000 0.000000 0.000000 0.004270 0.000000
# 6 0.000000 0.000000 0.000000 0.000000 0.000000 -0.106044
#
#
# Mechanical properties :
#
#
# Convention : Reuss Voigt Hill
#
# Bulk Modulus (GPa) = 59.62977 64.21436 61.92206
# Shear Modulus (GPa) = -79.78408 50.91608 -14.43400
#
# Velocity S-wave (km/s) = -5.62497 4.49355 -2.39252
# Velocity P-wave (km/s) = 4.30575 7.23798 4.11394
#
# Compressibility (1/GPa) = 0.01677015
#
# Stress axis : x y z
#
# Youngs Moduli (GPa) = 52.46354 66.36326 94.11019
#
# Poissons Ratio (x) = 0.43520 0.27555
# Poissons Ratio (y) = 0.34405 0.42413
# Poissons Ratio (z) = 0.15361 0.29908
#
# Static dielectric constant tensor:
#      x y z
#    x 2.087700 0.000000 0.000000 
#    y 0.000000 0.265690 0.000000 
#    z 0.000000 0.000000 2.061120 
# 
# From -- ./inp_files/10795.got.cif
#   From: 2010.05.17/outbox.cif.g08.bks.cpg/sg24_6_cif.got.tgz:10795.got - 2010.06.04 00:33:39.
