data_PCOD9336539
_publ_section_title
;
Structure prediction by ZEFSAII (Michael W. Deem and Ramdas Pophale) SiO2 
 PCOD9336539
Probable space group: I 21 21 21
;
_chemical_formula_sum "Si O2"
_cell_formula_units_Z 48
_cell_length_a 8.042523
_cell_length_b 20.205754
_cell_length_c 14.192774
_cell_angle_alpha 90.000000
_cell_angle_beta 90.000000
_cell_angle_gamma 90.000000
_cell_volume 2306.400163
_symmetry_space_group_name_H-M "I 21 21 21"
_symmetry_group_IT_number 24
_symmetry_cell_setting 'orthorhombic'
loop_
_space_group_symop_operation_xyz
x,y,z
-x,1/2-y,z
x,-y,1/2-z
1/2-x,y,-z
1/2+x,1/2+y,1/2+z
1/2-x,-y,1/2+z
1/2+x,1/2-y,-z
-x,1/2+y,1/2-z
loop_
_atom_site_type_symbol
_atom_site_label
_atom_site_fract_x
_atom_site_fract_y
_atom_site_fract_z
Si Si1 0.355426 0.426646 0.722964
Si Si2 0.553975 0.033747 0.523666
Si Si3 0.828950 0.500000 0.750000
Si Si4 0.604106 0.417535 0.888333
Si Si5 0.000000 0.750000 0.743666
Si Si6 0.482873 0.618453 0.153812
Si Si7 0.805546 0.267406 0.102979
O O1 0.289964 0.500000 0.750000
O O2 0.465105 0.439172 0.629911
O O3 0.452894 0.403403 0.814779
O O4 0.209439 0.381485 0.685085
O O5 0.750000 0.023175 0.500000
O O6 0.497042 0.090569 0.451712
O O7 0.465546 0.961619 0.524573
O O8 0.721040 0.467665 0.832059
O O9 0.934590 0.560559 0.786934
O O10 0.692606 0.347748 0.902799
O O11 0.044763 0.811051 0.812244
O O12 0.836486 0.756518 0.676293
O O13 0.000000 0.250000 0.122516
O O14 0.750000 0.241398 0.000000
#
# Coordination Sequence:
#
# PCOD9336539 Si02
#       7
#     8   8   4   8   4   8   8
#     4   9  17  39  65  91 127 171 218 271 334 398
#     4   9  20  37  66  98 130 168 226 282 335 406
#     4  12  22  36  64  96 132 172 220 284 346 398
#     4  11  22  41  67  97 132 171 224 288 341 402
#     4  12  26  48  70  98 142 188 230 276 360 430
#     4  11  23  39  67  97 131 174 222 280 341 415
#     4  12  27  47  68  99 137 179 230 285 350 428
#
# _framework density 20.811651999999999
#
# number of rings (size 3 to 8) (size 9 to 14) (size 15 to 20)
#    0.000    1.333    5.833    1.000    2.333    0.667 
#    0.000    0.000   23.833    0.000    0.000    0.000 
#    0.000    0.000    0.000    0.000    0.000    0.000 
#
# Total GULP energy -133806.601934 kJ/mol
# GULP energy per Si atom -5575.275081 kJ/mol
# Density = 2.076428 g / cm^3
# Si number density = 20.811652 Si / 1000 Ang^3
#
#
#
# Elastic Constant Matrix: (Units=GPa)
#
#
# Indices 1 2 3 4 5 6 
#
# 1 68.7899 10.1064 21.5875 0.0000 0.0000 0.0000
# 2 10.1064 100.3219 38.4611 0.0000 0.0000 0.0000
# 3 21.5875 38.4611 107.2090 0.0000 0.0000 0.0000
# 4 0.0000 0.0000 0.0000 28.9931 0.0000 0.0000
# 5 0.0000 0.0000 0.0000 0.0000 19.7104 0.0000
# 6 0.0000 0.0000 0.0000 0.0000 0.0000 25.9390
#
#
#
# Elastic Compliance Matrix: (Units=1/GPa)
#
#
# Indices 1 2 3 4 5 6 
#
# 1 0.015533 -0.000424 -0.002976 0.000000 0.000000 0.000000
# 2 -0.000424 0.011569 -0.004065 0.000000 0.000000 0.000000
# 3 -0.002976 -0.004065 0.011385 0.000000 0.000000 0.000000
# 4 0.000000 0.000000 0.000000 0.034491 0.000000 0.000000
# 5 0.000000 0.000000 0.000000 0.000000 0.050735 0.000000
# 6 0.000000 0.000000 0.000000 0.000000 0.000000 0.038552
#
#
# Mechanical properties :
#
#
# Convention : Reuss Voigt Hill
#
# Bulk Modulus (GPa) = 42.44855 46.29233 44.37044
# Shear Modulus (GPa) = 27.02019 28.67289 27.84654
#
# Velocity S-wave (km/s) = 3.60713 3.71581 3.66187
# Velocity P-wave (km/s) = 6.14730 6.37976 6.26461
#
# Compressibility (1/GPa) = 0.02355793
#
# Stress axis : x y z
#
# Youngs Moduli (GPa) = 64.37864 86.43750 87.83446
#
# Poissons Ratio (x) = 0.03665 0.26136
# Poissons Ratio (y) = 0.02730 0.35705
# Poissons Ratio (z) = 0.19157 0.35137
#
# Static dielectric constant tensor:
#      x y z
#    x 1.812270 0.000000 0.000000 
#    y 0.000000 1.886400 0.000000 
#    z 0.000000 0.000000 1.786070 
# 
# From -- ./inp_files/24949.got.cif
#   From: 2010.05.17/outbox.cif.g08.bks.cpg/sg24_13_cif.got.tgz:24949.got - 2010.06.04 00:33:39.
