data_PCOD9336421
_publ_section_title
;
Structure prediction by ZEFSAII (Michael W. Deem and Ramdas Pophale) SiO2 
 PCOD9336421
Probable space group: I 21 21 21
;
_chemical_formula_sum "Si O2"
_cell_formula_units_Z 48
_cell_length_a 9.841605
_cell_length_b 14.009017
_cell_length_c 17.478467
_cell_angle_alpha 90.000000
_cell_angle_beta 90.000000
_cell_angle_gamma 90.000000
_cell_volume 2409.777425
_symmetry_space_group_name_H-M "I 21 21 21"
_symmetry_group_IT_number 24
_symmetry_cell_setting 'orthorhombic'
loop_
_space_group_symop_operation_xyz
x,y,z
-x,1/2-y,z
x,-y,1/2-z
1/2-x,y,-z
1/2+x,1/2+y,1/2+z
1/2-x,-y,1/2+z
1/2+x,1/2-y,-z
-x,1/2+y,1/2-z
loop_
_atom_site_type_symbol
_atom_site_label
_atom_site_fract_x
_atom_site_fract_y
_atom_site_fract_z
Si Si1 0.477043 0.101792 0.211818
Si Si2 0.750000 0.046313 0.000000
Si Si3 0.151041 0.285763 0.109886
Si Si4 0.250000 0.134323 0.000000
Si Si5 0.283615 0.257329 0.261607
Si Si6 0.850502 0.702153 0.928212
Si Si7 0.529929 0.504783 0.445523
O O1 0.339333 0.155509 0.232715
O O2 0.597161 0.167001 0.244127
O O3 0.490929 0.079997 0.122893
O O4 0.483498 0.000000 0.250000
O O5 0.695241 0.116603 0.932389
O O6 0.879148 0.984073 0.975249
O O7 0.248710 0.205586 0.072020
O O8 0.167670 0.287918 0.201736
O O9 0.000000 0.250000 0.089809
O O10 0.378170 0.063909 0.995469
O O11 0.275899 0.244449 0.352731
O O12 0.889060 0.589510 0.920213
O O13 0.000000 0.750000 0.936431
O O14 0.750000 0.713570 0.000000
#
# Coordination Sequence:
#
# PCOD9336421 Si02
#       7
#     8   4   8   4   8   8   8
#     4  11  20  37  65  90 116 160 224 272 312 379
#     4  11  24  36  65 102 140 174 209 270 338 397
#     4  11  22  36  60  98 142 167 206 272 344 398
#     4  11  22  34  61  96 136 168 215 254 328 403
#     4  11  22  39  65  93 119 169 223 271 323 385
#     4  12  27  46  68  95 128 177 230 277 328 389
#     4  12  22  41  65  98 130 177 220 269 324 396
#
# _framework density 19.918852000000001
#
# number of rings (size 3 to 8) (size 9 to 14) (size 15 to 20)
#    0.000    0.667    9.167    0.000    1.167    0.667 
#    0.000    0.000    0.000    1.000    0.000    0.000 
#    0.000    0.000    0.000    0.000    0.000    0.000 
#
# Total GULP energy -133842.980645 kJ/mol
# GULP energy per Si atom -5576.790860 kJ/mol
# Density = 1.987352 g / cm^3
# Si number density = 19.918852 Si / 1000 Ang^3
#
#
#
# Elastic Constant Matrix: (Units=GPa)
#
#
# Indices 1 2 3 4 5 6 
#
# 1 50.1502 -9.1469 25.9738 0.0000 0.0000 0.0000
# 2 -9.1469 66.7277 13.8133 0.0000 0.0000 0.0000
# 3 25.9738 13.8133 129.7506 0.0000 0.0000 0.0000
# 4 0.0000 0.0000 0.0000 17.5669 0.0000 0.0000
# 5 0.0000 0.0000 0.0000 0.0000 23.7505 0.0000
# 6 0.0000 0.0000 0.0000 0.0000 0.0000 21.7832
#
#
#
# Elastic Compliance Matrix: (Units=1/GPa)
#
#
# Indices 1 2 3 4 5 6 
#
# 1 0.023377 0.004267 -0.005134 0.000000 0.000000 0.000000
# 2 0.004267 0.016103 -0.002569 0.000000 0.000000 0.000000
# 3 -0.005134 -0.002569 0.009008 0.000000 0.000000 0.000000
# 4 0.000000 0.000000 0.000000 0.056925 0.000000 0.000000
# 5 0.000000 0.000000 0.000000 0.000000 0.042104 0.000000
# 6 0.000000 0.000000 0.000000 0.000000 0.000000 0.045907
#
#
# Mechanical properties :
#
#
# Convention : Reuss Voigt Hill
#
# Bulk Modulus (GPa) = 24.02801 34.21210 29.12005
# Shear Modulus (GPa) = 23.34610 27.01934 25.18272
#
# Velocity S-wave (km/s) = 3.42725 3.68703 3.55951
# Velocity P-wave (km/s) = 5.26788 5.94462 5.61645
#
# Compressibility (1/GPa) = 0.04161810
#
# Stress axis : x y z
#
# Youngs Moduli (GPa) = 42.77628 62.10040 111.00890
#
# Poissons Ratio (x) = -0.26500 0.56993
# Poissons Ratio (y) = -0.18254 0.28513
# Poissons Ratio (z) = 0.21962 0.15951
#
# Static dielectric constant tensor:
#      x y z
#    x 1.720980 0.000000 0.000000 
#    y 0.000000 1.714070 0.000000 
#    z 0.000000 0.000000 1.771340 
# 
# From -- ./inp_files/29520.got.cif
#   From: 2010.05.17/outbox.cif.g08.bks.cpg/sg24_15_cif.got.tgz:29520.got - 2010.06.04 00:33:39.
