data_PCOD9336166
_publ_section_title
;
Structure prediction by ZEFSAII (Michael W. Deem and Ramdas Pophale) SiO2 
 PCOD9336166
Probable space group: I 21 21 21
;
_chemical_formula_sum "Si O2"
_cell_formula_units_Z 60
_cell_length_a 8.957417
_cell_length_b 23.765019
_cell_length_c 11.794243
_cell_angle_alpha 90.000000
_cell_angle_beta 90.000000
_cell_angle_gamma 90.000000
_cell_volume 2510.678074
_symmetry_space_group_name_H-M "I 21 21 21"
_symmetry_group_IT_number 24
_symmetry_cell_setting 'orthorhombic'
loop_
_space_group_symop_operation_xyz
x,y,z
-x,1/2-y,z
x,-y,1/2-z
1/2-x,y,-z
1/2+x,1/2+y,1/2+z
1/2-x,-y,1/2+z
1/2+x,1/2-y,-z
-x,1/2+y,1/2-z
loop_
_atom_site_type_symbol
_atom_site_label
_atom_site_fract_x
_atom_site_fract_y
_atom_site_fract_z
Si Si1 0.740486 0.192414 0.250485
Si Si2 0.515928 0.362865 0.682414
Si Si3 0.250000 0.669432 0.500000
Si Si4 0.086346 0.555226 0.003161
Si Si5 0.003385 0.602516 0.787379
Si Si6 0.696662 0.698469 0.128263
Si Si7 0.015098 0.961580 0.349843
Si Si8 0.907110 0.385141 0.963557
O O1 0.763845 0.203045 0.117409
O O2 0.659348 0.132040 0.256855
O O3 0.659156 0.244025 0.309049
O O4 0.890979 0.184354 0.320954
O O5 0.519710 0.403638 0.574406
O O6 0.668969 0.331021 0.696798
O O7 0.472934 0.405039 0.783933
O O8 0.420165 0.639594 0.487488
O O9 0.028214 0.550915 0.874187
O O10 0.250000 0.582190 0.000000
O O11 0.104212 0.500608 0.084347
O O12 0.928876 0.651585 0.862114
O O13 0.914812 0.598063 0.669268
O O14 0.750000 0.707924 0.000000
O O15 0.105947 0.939254 0.455463
O O16 0.083971 0.000000 0.250000
O O17 0.750000 0.353296 0.000000
#
# Coordination Sequence:
#
# PCOD9336166 Si02
#       8
#     8   8   4   8   8   8   8   8
#     4  11  24  43  72 105 141 188 243 300 370 456
#     4  11  22  45  68  99 142 188 234 301 369 450
#     4  10  24  48  76 106 150 194 250 304 380 456
#     4  11  23  42  71 107 145 191 244 318 377 444
#     4  11  25  44  69 106 150 185 247 306 375 452
#     4  12  26  43  72 103 145 192 239 299 384 458
#     4  10  24  44  71 101 140 191 253 301 382 451
#     4  11  24  48  76 104 151 198 244 319 377 449
#
# _framework density 23.897928
#
# number of rings (size 3 to 8) (size 9 to 14) (size 15 to 20)
#    0.000    1.067    4.000    1.600    2.800    1.600 
#   13.200    1.333    0.000    0.000    0.000    0.000 
#    0.000    0.000    0.000    0.000    0.000    0.000 
#
# Total GULP energy -167010.465417 kJ/mol
# GULP energy per Si atom -5567.015514 kJ/mol
# Density = 2.384354 g / cm^3
# Si number density = 23.897928 Si / 1000 Ang^3
#
#
#
# Elastic Constant Matrix: (Units=GPa)
#
#
# Indices 1 2 3 4 5 6 
#
# 1 93.1756 10.6617 13.7756 0.0000 0.0000 0.0000
# 2 10.6617 55.0019 36.5250 0.0000 0.0000 0.0000
# 3 13.7756 36.5250 203.9591 -0.0001 0.0000 0.0000
# 4 0.0000 0.0000 -0.0001 43.7347 0.0000 0.0000
# 5 0.0000 0.0000 0.0000 0.0000 20.0541 0.0000
# 6 0.0000 0.0000 0.0000 0.0000 0.0000 5.6992
#
#
#
# Elastic Compliance Matrix: (Units=1/GPa)
#
#
# Indices 1 2 3 4 5 6 
#
# 1 0.011006 -0.001861 -0.000410 0.000000 0.000000 0.000000
# 2 -0.001861 0.020950 -0.003626 0.000000 0.000000 0.000000
# 3 -0.000410 -0.003626 0.005580 0.000000 0.000000 0.000000
# 4 0.000000 0.000000 0.000000 0.022865 0.000000 0.000000
# 5 0.000000 0.000000 0.000000 0.000000 0.049865 0.000000
# 6 0.000000 0.000000 0.000000 0.000000 0.000000 0.175462
#
#
# Mechanical properties :
#
#
# Convention : Reuss Voigt Hill
#
# Bulk Modulus (GPa) = 38.84779 52.67347 45.76063
# Shear Modulus (GPa) = 16.33438 33.30922 24.82180
#
# Velocity S-wave (km/s) = 2.61723 3.73743 3.22632
# Velocity P-wave (km/s) = 5.04224 6.38070 5.75055
#
# Compressibility (1/GPa) = 0.02574149
#
# Stress axis : x y z
#
# Youngs Moduli (GPa) = 90.85949 47.73299 179.21192
#
# Poissons Ratio (x) = 0.08884 0.07349
# Poissons Ratio (y) = 0.16910 0.64982
# Poissons Ratio (z) = 0.03726 0.17308
#
# Static dielectric constant tensor:
#      x y z
#    x 1.940780 0.000000 0.000000 
#    y 0.000000 1.975390 0.000000 
#    z 0.000000 0.000000 1.946970 
# 
# From -- ./inp_files/18810.got.cif
#   From: 2010.05.17/outbox.cif.g08.bks.cpg/sg24_10_cif.got.tgz:18810.got - 2010.06.04 00:33:39.
