data_PCOD9336357
_publ_section_title
;
Structure prediction by ZEFSAII (Michael W. Deem and Ramdas Pophale) SiO2 
 PCOD9336357
Probable space group: I 21 21 21
;
_chemical_formula_sum "Si O2"
_cell_formula_units_Z 44
_cell_length_a 13.627383
_cell_length_b 11.786546
_cell_length_c 17.418911
_cell_angle_alpha 90.000000
_cell_angle_beta 90.000000
_cell_angle_gamma 90.000000
_cell_volume 2797.821593
_symmetry_space_group_name_H-M "I 21 21 21"
_symmetry_group_IT_number 24
_symmetry_cell_setting 'orthorhombic'
loop_
_space_group_symop_operation_xyz
x,y,z
-x,1/2-y,z
x,-y,1/2-z
1/2-x,y,-z
1/2+x,1/2+y,1/2+z
1/2-x,-y,1/2+z
1/2+x,1/2-y,-z
-x,1/2+y,1/2-z
loop_
_atom_site_type_symbol
_atom_site_label
_atom_site_fract_x
_atom_site_fract_y
_atom_site_fract_z
Si Si1 0.750000 0.111299 0.000000
Si Si2 0.733155 0.382197 0.797164
Si Si3 0.111144 0.789887 0.589100
Si Si4 0.566235 0.367765 0.928748
Si Si5 0.611846 0.009606 0.874992
Si Si6 0.892424 0.808322 0.236241
O O1 0.677315 0.189076 0.051737
O O2 0.811034 0.037611 0.059563
O O3 0.736276 0.500000 0.750000
O O4 0.833631 0.345163 0.838876
O O5 0.652669 0.374622 0.866590
O O6 0.691159 0.286017 0.740785
O O7 0.103640 0.872495 0.515500
O O8 0.000000 0.750000 0.606822
O O9 0.500000 0.250000 0.923517
O O10 0.494459 0.469987 0.910575
O O11 0.619289 0.105762 0.808346
O O12 0.618550 0.887712 0.837188
O O13 0.000000 0.750000 0.239449
#
# Coordination Sequence:
#
# PCOD9336357 Si02
#       6
#     4   8   8   8   8   8
#     4  12  18  36  58  80 108 136 190 228 264 320
#     4  12  21  34  55  84 116 149 177 220 279 329
#     4  11  20  34  57  82 109 135 189 234 262 317
#     4  11  16  31  56  88 108 131 181 235 276 305
#     4  11  20  31  60  87 109 139 179 230 282 315
#     4  11  20  34  53  90 118 136 173 231 285 323
#
# _framework density 15.726521
#
# number of rings (size 3 to 8) (size 9 to 14) (size 15 to 20)
#    0.000    0.727   10.909    1.091    0.000    0.000 
#    0.000    1.818    8.000    0.000    0.000    0.000 
#    0.000    0.000    0.000    0.000    0.000    0.000 
#
# Total GULP energy -122636.180942 kJ/mol
# GULP energy per Si atom -5574.371861 kJ/mol
# Density = 1.569073 g / cm^3
# Si number density = 15.726521 Si / 1000 Ang^3
#
#
#
# Elastic Constant Matrix: (Units=GPa)
#
#
# Indices 1 2 3 4 5 6 
#
# 1 109.0577 47.9363 50.0157 0.0000 0.0000 0.0000
# 2 47.9363 103.7873 61.3597 0.0000 0.0000 0.0000
# 3 50.0157 61.3597 83.8709 0.0000 0.0000 0.0000
# 4 0.0000 0.0000 0.0000 27.6903 0.0000 0.0000
# 5 0.0000 0.0000 0.0000 0.0000 -103.7265 0.0000
# 6 0.0000 0.0000 0.0000 0.0000 0.0000 12.8624
#
#
#
# Elastic Compliance Matrix: (Units=1/GPa)
#
#
# Indices 1 2 3 4 5 6 
#
# 1 0.012979 -0.002500 -0.005911 0.000000 0.000000 0.000000
# 2 -0.002500 0.017460 -0.011283 0.000000 0.000000 0.000000
# 3 -0.005911 -0.011283 0.023703 0.000000 0.000000 0.000000
# 4 0.000000 0.000000 0.000000 0.036114 0.000000 0.000000
# 5 0.000000 0.000000 0.000000 0.000000 -0.009641 0.000000
# 6 0.000000 0.000000 0.000000 0.000000 0.000000 0.077746
#
#
# Mechanical properties :
#
#
# Convention : Reuss Voigt Hill
#
# Bulk Modulus (GPa) = 67.77803 68.37103 68.07453
# Shear Modulus (GPa) = 24.67094 -3.47445 10.59825
#
# Velocity S-wave (km/s) = 3.96504 -1.48798 2.59879
# Velocity P-wave (km/s) = 8.00959 6.37317 7.23777
#
# Compressibility (1/GPa) = 0.01475404
#
# Stress axis : x y z
#
# Youngs Moduli (GPa) = 77.04598 57.27235 42.18929
#
# Poissons Ratio (x) = 0.14319 0.24938
# Poissons Ratio (y) = 0.19263 0.47602
# Poissons Ratio (z) = 0.45542 0.64621
#
# Static dielectric constant tensor:
#      x y z
#    x 1.558590 0.000000 0.000000 
#    y 0.000000 1.691100 0.000000 
#    z 0.000000 0.000000 1.540880 
# 
# From -- ./inp_files/21467.got.cif
#   From: 2010.05.17/outbox.cif.g08.bks.cpg/sg24_11_cif.got.tgz:21467.got - 2010.06.04 00:33:39.
