data_PCOD9336112
_publ_section_title
;
Structure prediction by ZEFSAII (Michael W. Deem and Ramdas Pophale) SiO2 
 PCOD9336112
Probable space group: I 21 21 21
;
_chemical_formula_sum "Si O2"
_cell_formula_units_Z 28
_cell_length_a 11.249280
_cell_length_b 5.165948
_cell_length_c 20.450248
_cell_angle_alpha 90.000000
_cell_angle_beta 90.000000
_cell_angle_gamma 90.000000
_cell_volume 1188.429260
_symmetry_space_group_name_H-M "I 21 21 21"
_symmetry_group_IT_number 24
_symmetry_cell_setting 'orthorhombic'
loop_
_space_group_symop_operation_xyz
x,y,z
-x,1/2-y,z
x,-y,1/2-z
1/2-x,y,-z
1/2+x,1/2+y,1/2+z
1/2-x,-y,1/2+z
1/2+x,1/2-y,-z
-x,1/2+y,1/2-z
loop_
_atom_site_type_symbol
_atom_site_label
_atom_site_fract_x
_atom_site_fract_y
_atom_site_fract_z
Si Si1 0.500000 0.750000 0.948702
Si Si2 0.374123 0.184435 0.198618
Si Si3 0.225644 0.470230 0.101992
Si Si4 0.643591 0.477393 0.438140
O O1 0.406022 0.587025 0.905279
O O2 0.559177 0.545464 0.999735
O O3 0.500000 0.250000 0.230471
O O4 0.285810 0.407880 0.172457
O O5 0.308817 0.000000 0.250000
O O6 0.415321 0.036164 0.131953
O O7 0.301914 0.693427 0.067941
O O8 0.254656 0.198444 0.066302
#
# Coordination Sequence:
#
# PCOD9336112 Si02
#       4
#     4   8   8   8
#     4  12  24  46  74 104 178 206 252 332 394 488
#     4  10  24  42  72 109 155 200 263 333 389 454
#     4  10  26  44  66 116 150 209 263 310 404 463
#     4  10  25  43  65 114 147 203 261 312 393 467
#
# _framework density 23.560511999999999
#
# number of rings (size 3 to 8) (size 9 to 14) (size 15 to 20)
#    1.714    0.000    0.000    2.571    6.000    8.000 
#    0.000    0.000    0.000    0.000    7.429    2.000 
#    0.000    0.000    0.000    0.000    0.000    0.000 
#
# Total GULP energy -77964.316108 kJ/mol
# GULP energy per Si atom -5568.879722 kJ/mol
# Density = 2.350689 g / cm^3
# Si number density = 23.560512 Si / 1000 Ang^3
#
#
#
# Elastic Constant Matrix: (Units=GPa)
#
#
# Indices 1 2 3 4 5 6 
#
# 1 133.3866 68.0231 43.0610 0.0000 0.0000 0.0000
# 2 68.0231 147.7631 43.1835 0.0000 0.0000 0.0000
# 3 43.0610 43.1835 77.2560 0.0000 0.0000 0.0000
# 4 0.0000 0.0000 0.0000 -6.7774 0.0000 0.0000
# 5 0.0000 0.0000 0.0000 0.0000 10.5077 0.0000
# 6 0.0000 0.0000 0.0000 0.0000 0.0000 52.6564
#
#
#
# Elastic Compliance Matrix: (Units=1/GPa)
#
#
# Indices 1 2 3 4 5 6 
#
# 1 0.010666 -0.003792 -0.003825 0.000000 0.000000 0.000000
# 2 -0.003792 0.009437 -0.003161 0.000000 0.000000 0.000000
# 3 -0.003825 -0.003161 0.016843 0.000000 0.000000 0.000000
# 4 0.000000 0.000000 0.000000 -0.147550 0.000000 0.000000
# 5 0.000000 0.000000 0.000000 0.000000 0.095168 0.000000
# 6 0.000000 0.000000 0.000000 0.000000 0.000000 0.018991
#
#
# Mechanical properties :
#
#
# Convention : Reuss Voigt Hill
#
# Bulk Modulus (GPa) = 64.98292 74.10454 69.54373
# Shear Modulus (GPa) = 165.33165 24.88656 95.10910
#
# Velocity S-wave (km/s) = 8.38603 3.25358 6.36048
# Velocity P-wave (km/s) = 11.01855 6.75540 9.13904
#
# Compressibility (1/GPa) = 0.01538866
#
# Stress axis : x y z
#
# Youngs Moduli (GPa) = 93.75808 105.96351 59.37101
#
# Poissons Ratio (x) = 0.40182 0.22711
# Poissons Ratio (y) = 0.35554 0.18770
# Poissons Ratio (z) = 0.35865 0.33500
#
# Static dielectric constant tensor:
#      x y z
#    x 1.970170 0.000000 0.000000 
#    y 0.000000 1.996770 0.000000 
#    z 0.000000 0.000000 1.963860 
# 
# From -- ./inp_files/33103.got.cif
#   From: 2010.05.17/outbox.cif.g08.bks.cpg/sg24_17_cif.got.tgz:33103.got - 2010.06.04 00:33:39.
