data_PCOD9336812
_publ_section_title
;
Structure prediction by ZEFSAII (Michael W. Deem and Ramdas Pophale) SiO2 
 PCOD9336812
Probable space group: I 21 21 21
;
_chemical_formula_sum "Si O2"
_cell_formula_units_Z 40
_cell_length_a 24.071217
_cell_length_b 13.594628
_cell_length_c 5.550756
_cell_angle_alpha 90.000000
_cell_angle_beta 90.000000
_cell_angle_gamma 90.000000
_cell_volume 1816.425178
_symmetry_space_group_name_H-M "I 21 21 21"
_symmetry_group_IT_number 24
_symmetry_cell_setting 'orthorhombic'
loop_
_space_group_symop_operation_xyz
x,y,z
-x,1/2-y,z
x,-y,1/2-z
1/2-x,y,-z
1/2+x,1/2+y,1/2+z
1/2-x,-y,1/2+z
1/2+x,1/2-y,-z
-x,1/2+y,1/2-z
loop_
_atom_site_type_symbol
_atom_site_label
_atom_site_fract_x
_atom_site_fract_y
_atom_site_fract_z
Si Si1 0.524825 0.097601 0.479662
Si Si2 0.095187 0.749616 0.242105
Si Si3 0.099626 0.049171 0.497100
Si Si4 0.382479 0.500000 0.250000
Si Si5 0.688823 0.896498 0.592166
Si Si6 0.000000 0.250000 0.933694
O O1 0.544438 0.175616 0.674973
O O2 0.467453 0.043470 0.510250
O O3 0.576422 0.025606 0.463507
O O4 0.521543 0.161520 0.236982
O O5 0.107480 0.833288 0.044984
O O6 0.150739 0.686642 0.283846
O O7 0.059336 0.795016 0.461888
O O8 0.122086 0.000000 0.250000
O O9 0.118423 0.000000 0.750000
O O10 0.343709 0.584715 0.342957
O O11 0.750000 0.869275 0.500000
O O12 0.691463 0.000000 0.750000
#
# Coordination Sequence:
#
# PCOD9336812 Si02
#       6
#     8   8   8   4   8   4
#     4  12  23  34  61  96 140 189 222 289 353 436
#     4  12  25  39  63  98 142 190 242 296 361 430
#     4  12  26  41  64  99 146 189 244 291 362 439
#     4  12  24  36  64  94 138 188 230 286 350 426
#     4  12  26  44  66  98 136 187 249 296 361 439
#     4  12  20  38  58  94 140 184 240 278 360 434
#
# _framework density 22.021277000000001
#
# number of rings (size 3 to 8) (size 9 to 14) (size 15 to 20)
#    0.000    0.000   10.000    1.200    2.800    0.000 
#    0.000    0.000    0.000    0.000    0.000    8.400 
#    0.000    0.000    0.000    0.000    0.000    0.000 
#
# Total GULP energy -111470.851833 kJ/mol
# GULP energy per Si atom -5573.542592 kJ/mol
# Density = 2.197116 g / cm^3
# Si number density = 22.021277 Si / 1000 Ang^3
#
#
#
# Elastic Constant Matrix: (Units=GPa)
#
#
# Indices 1 2 3 4 5 6 
#
# 1 132.5776 41.0692 19.3081 0.0000 0.0000 0.0000
# 2 41.0692 74.4231 37.3165 0.0000 0.0000 0.0000
# 3 19.3081 37.3165 81.5343 0.0000 0.0000 0.0000
# 4 0.0000 0.0000 0.0000 46.7275 0.0000 0.0000
# 5 0.0000 0.0000 0.0000 0.0000 3.7829 0.0000
# 6 0.0000 0.0000 0.0000 0.0000 0.0000 26.6270
#
#
#
# Elastic Compliance Matrix: (Units=1/GPa)
#
#
# Indices 1 2 3 4 5 6 
#
# 1 0.009100 -0.005115 0.000186 0.000000 0.000000 0.000000
# 2 -0.005115 0.020314 -0.008086 0.000000 0.000000 0.000000
# 3 0.000186 -0.008086 0.015921 0.000000 0.000000 0.000000
# 4 0.000000 0.000000 0.000000 0.021401 0.000000 0.000000
# 5 0.000000 0.000000 0.000000 0.000000 0.264347 0.000000
# 6 0.000000 0.000000 0.000000 0.000000 0.000000 0.037556
#
#
# Mechanical properties :
#
#
# Convention : Reuss Voigt Hill
#
# Bulk Modulus (GPa) = 51.79852 53.76916 52.78384
# Shear Modulus (GPa) = 12.46561 28.15022 20.30792
#
# Velocity S-wave (km/s) = 2.38181 3.57924 3.04006
# Velocity P-wave (km/s) = 5.58006 6.44602 6.02861
#
# Compressibility (1/GPa) = 0.01930557
#
# Stress axis : x y z
#
# Youngs Moduli (GPa) = 109.88801 49.22788 62.80836
#
# Poissons Ratio (x) = 0.25180 -0.01169
# Poissons Ratio (y) = 0.56209 0.50786
# Poissons Ratio (z) = -0.02045 0.39805
#
# Static dielectric constant tensor:
#      x y z
#    x 1.756430 0.000000 0.000000 
#    y 0.000000 2.182350 0.000000 
#    z 0.000000 0.000000 2.116820 
# 
# From -- ./inp_files/7021.got.cif
#   From: 2010.05.17/outbox.cif.g08.bks.cpg/sg24_4_cif.got.tgz:7021.got - 2010.06.04 00:33:39.
