data_PCOD9336661
_publ_section_title
;
Structure prediction by ZEFSAII (Michael W. Deem and Ramdas Pophale) SiO2 
 PCOD9336661
Probable space group: I 21 21 21
;
_chemical_formula_sum "Si O2"
_cell_formula_units_Z 32
_cell_length_a 5.041902
_cell_length_b 10.570659
_cell_length_c 27.142597
_cell_angle_alpha 90.000000
_cell_angle_beta 90.000000
_cell_angle_gamma 90.000000
_cell_volume 1446.598004
_symmetry_space_group_name_H-M "I 21 21 21"
_symmetry_group_IT_number 24
_symmetry_cell_setting 'orthorhombic'
loop_
_space_group_symop_operation_xyz
x,y,z
-x,1/2-y,z
x,-y,1/2-z
1/2-x,y,-z
1/2+x,1/2+y,1/2+z
1/2-x,-y,1/2+z
1/2+x,1/2-y,-z
-x,1/2+y,1/2-z
loop_
_atom_site_type_symbol
_atom_site_label
_atom_site_fract_x
_atom_site_fract_y
_atom_site_fract_z
Si Si1 0.177763 0.365266 0.253573
Si Si2 0.250000 0.158010 0.000000
Si Si3 0.301518 0.967901 0.395190
Si Si4 0.500000 0.750000 0.326346
Si Si5 0.812430 0.130732 0.367746
O O1 0.039251 0.500000 0.250000
O O2 0.403096 0.357401 0.212705
O O3 0.249851 0.343994 0.310239
O O4 0.000000 0.250000 0.237413
O O5 0.500000 0.250000 0.993044
O O6 0.212062 0.071741 0.952020
O O7 0.534379 0.075170 0.388880
O O8 0.022543 0.019525 0.375686
O O9 0.344671 0.839817 0.364108
O O10 0.000000 0.250000 0.385246
#
# Coordination Sequence:
#
# PCOD9336661 Si02
#       5
#     8   4   8   4   8
#     4  11  24  40  66 102 147 199 244 289 361 446
#     4  12  26  48  82 110 146 188 250 316 390 440
#     4  12  26  48  74 112 145 190 249 313 369 436
#     4  12  26  40  74 106 152 186 248 298 376 426
#     4  11  26  46  73 104 154 197 243 294 368 445
#
# _framework density 22.120868000000002
#
# number of rings (size 3 to 8) (size 9 to 14) (size 15 to 20)
#    0.000    0.500    3.750    3.750    7.000    1.000 
#    0.000    2.500    0.000    0.000    0.000    0.000 
#    0.000    0.000    0.000    0.000    0.000    0.000 
#
# Total GULP energy -89234.723505 kJ/mol
# GULP energy per Si atom -5577.170219 kJ/mol
# Density = 2.207052 g / cm^3
# Si number density = 22.120868 Si / 1000 Ang^3
#
#
#
# Elastic Constant Matrix: (Units=GPa)
#
#
# Indices 1 2 3 4 5 6 
#
# 1 104.8004 11.8296 35.8974 0.0000 0.0000 0.0000
# 2 11.8296 80.0568 16.7757 0.0000 0.0000 0.0000
# 3 35.8974 16.7757 149.0836 0.0000 0.0000 0.0000
# 4 0.0000 0.0000 0.0000 101.6792 0.0000 0.0000
# 5 0.0000 0.0000 0.0000 0.0000 26.6002 0.0000
# 6 0.0000 0.0000 0.0000 0.0000 0.0000 52.8415
#
#
#
# Elastic Compliance Matrix: (Units=1/GPa)
#
#
# Indices 1 2 3 4 5 6 
#
# 1 0.010484 -0.001045 -0.002407 0.000000 0.000000 0.000000
# 2 -0.001045 0.012897 -0.001200 0.000000 0.000000 0.000000
# 3 -0.002407 -0.001200 0.007422 0.000000 0.000000 0.000000
# 4 0.000000 0.000000 0.000000 0.009835 0.000000 0.000000
# 5 0.000000 0.000000 0.000000 0.000000 0.037594 0.000000
# 6 0.000000 0.000000 0.000000 0.000000 0.000000 0.018925
#
#
# Mechanical properties :
#
#
# Convention : Reuss Voigt Hill
#
# Bulk Modulus (GPa) = 46.51034 51.43846 48.97440
# Shear Modulus (GPa) = 44.00395 54.18672 49.09534
#
# Velocity S-wave (km/s) = 4.46494 4.95469 4.71618
# Velocity P-wave (km/s) = 6.90305 7.48570 7.20027
#
# Compressibility (1/GPa) = 0.02150060
#
# Stress axis : x y z
#
# Youngs Moduli (GPa) = 95.38045 77.53801 134.73114
#
# Poissons Ratio (x) = 0.08102 0.32429
# Poissons Ratio (y) = 0.09966 0.16163
# Poissons Ratio (z) = 0.22957 0.09302
#
# Static dielectric constant tensor:
#      x y z
#    x 1.876410 0.000000 0.000000 
#    y 0.000000 1.862410 0.000000 
#    z 0.000000 0.000000 1.747740 
# 
# From -- ./inp_files/37726.got.cif
#   From: 2010.05.17/outbox.cif.g08.bks.cpg/sg24_19_cif.got.tgz:37726.got - 2010.06.04 00:33:39.
