data_PCOD9336187
_publ_section_title
;
Structure prediction by ZEFSAII (Michael W. Deem and Ramdas Pophale) SiO2 
 PCOD9336187
Probable space group: I 21 21 21
;
_chemical_formula_sum "Si O2"
_cell_formula_units_Z 44
_cell_length_a 16.514316
_cell_length_b 13.838077
_cell_length_c 8.639074
_cell_angle_alpha 90.000000
_cell_angle_beta 90.000000
_cell_angle_gamma 90.000000
_cell_volume 1974.256277
_symmetry_space_group_name_H-M "I 21 21 21"
_symmetry_group_IT_number 24
_symmetry_cell_setting 'orthorhombic'
loop_
_space_group_symop_operation_xyz
x,y,z
-x,1/2-y,z
x,-y,1/2-z
1/2-x,y,-z
1/2+x,1/2+y,1/2+z
1/2-x,-y,1/2+z
1/2+x,1/2-y,-z
-x,1/2+y,1/2-z
loop_
_atom_site_type_symbol
_atom_site_label
_atom_site_fract_x
_atom_site_fract_y
_atom_site_fract_z
Si Si1 0.636293 0.209718 0.169391
Si Si2 0.500000 0.250000 0.937251
Si Si3 0.288536 0.915596 0.346590
Si Si4 0.387726 0.110146 0.727000
Si Si5 0.592772 0.243612 0.517864
Si Si6 0.215350 0.398928 0.324179
O O1 0.564457 0.190001 0.046094
O O2 0.660965 0.319465 0.127473
O O3 0.602253 0.210743 0.343435
O O4 0.717771 0.145599 0.202761
O O5 0.445515 0.176747 0.834049
O O6 0.250000 0.960441 0.500000
O O7 0.206160 0.879519 0.268301
O O8 0.329683 0.000000 0.250000
O O9 0.384406 0.145836 0.549779
O O10 0.412367 0.000000 0.750000
O O11 0.500000 0.250000 0.554665
O O12 0.644035 0.177002 0.635853
O O13 0.188006 0.500000 0.250000
O O14 0.250000 0.415219 0.500000
#
# Coordination Sequence:
#
# PCOD9336187 Si02
#       6
#     8   4   8   8   8   8
#     4  11  24  44  69  98 138 183 226 282 339 406
#     4  12  24  46  68 104 140 180 226 284 340 402
#     4  11  24  40  68  99 130 178 229 281 338 405
#     4  11  25  43  66 100 136 177 225 279 346 403
#     4  11  23  44  69  98 135 176 224 282 343 405
#     4  10  24  45  70  99 133 185 231 280 341 409
#
# _framework density 22.286874000000001
#
# number of rings (size 3 to 8) (size 9 to 14) (size 15 to 20)
#    0.000    1.091    5.455    0.000    5.091    2.909 
#    6.545    0.909    0.000    0.000    0.000    0.000 
#    0.000    0.000    0.000    0.000    0.000    0.000 
#
# Total GULP energy -122550.593090 kJ/mol
# GULP energy per Si atom -5570.481504 kJ/mol
# Density = 2.223615 g / cm^3
# Si number density = 22.286874 Si / 1000 Ang^3
#
#
#
# Elastic Constant Matrix: (Units=GPa)
#
#
# Indices 1 2 3 4 5 6 
#
# 1 90.7929 22.6254 19.0154 0.0000 0.0000 0.0000
# 2 22.6254 100.6295 18.9118 0.0000 0.0000 0.0000
# 3 19.0154 18.9118 49.4034 0.0000 0.0000 0.0000
# 4 0.0000 0.0000 0.0000 27.9717 0.0000 0.0000
# 5 0.0000 0.0000 0.0000 0.0000 264.8199 0.0000
# 6 0.0000 0.0000 0.0000 0.0000 0.0000 15.3225
#
#
#
# Elastic Compliance Matrix: (Units=1/GPa)
#
#
# Indices 1 2 3 4 5 6 
#
# 1 0.012353 -0.002030 -0.003978 0.000000 0.000000 0.000000
# 2 -0.002030 0.011041 -0.003445 0.000000 0.000000 0.000000
# 3 -0.003978 -0.003445 0.023091 0.000000 0.000000 0.000000
# 4 0.000000 0.000000 0.000000 0.035750 0.000000 0.000000
# 5 0.000000 0.000000 0.000000 0.000000 0.003776 0.000000
# 6 0.000000 0.000000 0.000000 0.000000 0.000000 0.065263
#
#
# Mechanical properties :
#
#
# Convention : Reuss Voigt Hill
#
# Bulk Modulus (GPa) = 36.25817 40.21456 38.23636
# Shear Modulus (GPa) = 27.87460 73.64104 50.75782
#
# Velocity S-wave (km/s) = 3.54039 5.75448 4.77747
# Velocity P-wave (km/s) = 5.74601 7.88894 6.90116
#
# Compressibility (1/GPa) = 0.02757999
#
# Stress axis : x y z
#
# Youngs Moduli (GPa) = 80.95210 90.56868 43.30615
#
# Poissons Ratio (x) = 0.18385 0.17226
# Poissons Ratio (y) = 0.16432 0.14921
# Poissons Ratio (z) = 0.32200 0.31204
#
# Static dielectric constant tensor:
#      x y z
#    x 1.764370 0.000000 0.000000 
#    y 0.000000 1.680230 0.000000 
#    z 0.000000 0.000000 1.930100 
# 
# From -- ./inp_files/14102.got.cif
#   From: 2010.05.17/outbox.cif.g08.bks.cpg/sg24_8_cif.got.tgz:14102.got - 2010.06.04 00:33:39.
