data_PCOD9336980
_publ_section_title
;
Structure prediction by ZEFSAII (Michael W. Deem and Ramdas Pophale) SiO2 
 PCOD9336980
Probable space group: I 21 21 21
;
_chemical_formula_sum "Si O2"
_cell_formula_units_Z 20
_cell_length_a 16.493981
_cell_length_b 4.856454
_cell_length_c 9.582108
_cell_angle_alpha 90.000000
_cell_angle_beta 90.000000
_cell_angle_gamma 90.000000
_cell_volume 767.548506
_symmetry_space_group_name_H-M "I 21 21 21"
_symmetry_group_IT_number 24
_symmetry_cell_setting 'orthorhombic'
loop_
_space_group_symop_operation_xyz
x,y,z
-x,1/2-y,z
x,-y,1/2-z
1/2-x,y,-z
1/2+x,1/2+y,1/2+z
1/2-x,-y,1/2+z
1/2+x,1/2-y,-z
-x,1/2+y,1/2-z
loop_
_atom_site_type_symbol
_atom_site_label
_atom_site_fract_x
_atom_site_fract_y
_atom_site_fract_z
Si Si1 0.188976 0.000000 0.250000
Si Si2 0.500000 0.750000 0.644956
Si Si3 0.701997 0.000000 0.250000
Si Si4 0.094551 0.342729 0.493823
O O1 0.244250 0.248836 0.190202
O O2 0.141795 0.172078 0.373566
O O3 0.508621 0.500000 0.750000
O O4 0.576411 0.156185 0.944139
O O5 0.646841 0.139610 0.368243
O O6 0.000000 0.250000 0.518723
#
# Coordination Sequence:
#
# PCOD9336980 Si02
#       4
#     4   4   4   8
#     4  12  32  60  82 130 184 242 282 362 454 546
#     4  12  26  48  84 130 162 220 302 356 418 516
#     4  12  34  56  88 132 190 220 290 378 466 500
#     4  12  30  56  93 128 172 236 305 359 431 538
#
# _framework density 26.056984
#
# number of rings (size 3 to 8) (size 9 to 14) (size 15 to 20)
#    0.000    0.000    2.000    3.600   16.800    3.200 
#    7.200    0.000    0.000    0.000    0.000    0.000 
#    0.000    0.000    0.000    0.000    0.000    0.000 
#
# Total GULP energy -55890.785292 kJ/mol
# GULP energy per Si atom -5589.078529 kJ/mol
# Density = 2.599768 g / cm^3
# Si number density = 26.056984 Si / 1000 Ang^3
#
#
#
# Elastic Constant Matrix: (Units=GPa)
#
#
# Indices 1 2 3 4 5 6 
#
# 1 191.0195 66.9886 99.8637 0.0000 0.0000 0.0000
# 2 66.9886 179.4841 37.4881 0.0000 0.0000 0.0000
# 3 99.8637 37.4881 143.7744 0.0000 0.0000 0.0000
# 4 0.0000 0.0000 0.0000 40.7929 0.0000 0.0000
# 5 0.0000 0.0000 0.0000 0.0000 39.1607 0.0000
# 6 0.0000 0.0000 0.0000 0.0000 0.0000 72.3785
#
#
#
# Elastic Compliance Matrix: (Units=1/GPa)
#
#
# Indices 1 2 3 4 5 6 
#
# 1 0.008947 -0.002159 -0.005651 0.000000 0.000000 0.000000
# 2 -0.002159 0.006413 -0.000173 0.000000 0.000000 0.000000
# 3 -0.005651 -0.000173 0.010926 0.000000 0.000000 0.000000
# 4 0.000000 0.000000 0.000000 0.024514 0.000000 0.000000
# 5 0.000000 0.000000 0.000000 0.000000 0.025536 0.000000
# 6 0.000000 0.000000 0.000000 0.000000 0.000000 0.013816
#
#
# Mechanical properties :
#
#
# Convention : Reuss Voigt Hill
#
# Bulk Modulus (GPa) = 96.89975 102.55096 99.72536
# Shear Modulus (GPa) = 45.63822 51.12895 48.38358
#
# Velocity S-wave (km/s) = 4.18961 4.43448 4.31378
# Velocity P-wave (km/s) = 7.78923 8.10317 7.94775
#
# Compressibility (1/GPa) = 0.01031994
#
# Stress axis : x y z
#
# Youngs Moduli (GPa) = 111.77469 155.92549 91.52739
#
# Poissons Ratio (x) = 0.33660 0.51725
# Poissons Ratio (y) = 0.24129 0.01581
# Poissons Ratio (z) = 0.63167 0.02694
#
# Static dielectric constant tensor:
#      x y z
#    x 2.322250 0.000000 0.000000 
#    y 0.000000 2.315700 0.000000 
#    z 0.000000 0.000000 2.021120 
# 
# From -- ./inp_files/13508.got.cif
#   From: 2010.05.17/outbox.cif.g08.bks.cpg/sg24_7_cif.got.tgz:13508.got - 2010.06.04 00:33:39.
