data_PCOD9336599
_publ_section_title
;
Structure prediction by ZEFSAII (Michael W. Deem and Ramdas Pophale) SiO2 
 PCOD9336599
Probable space group: I 21 21 21
;
_chemical_formula_sum "Si O2"
_cell_formula_units_Z 32
_cell_length_a 16.297091
_cell_length_b 19.158093
_cell_length_c 4.927006
_cell_angle_alpha 90.000000
_cell_angle_beta 90.000000
_cell_angle_gamma 90.000000
_cell_volume 1538.315652
_symmetry_space_group_name_H-M "I 21 21 21"
_symmetry_group_IT_number 24
_symmetry_cell_setting 'orthorhombic'
loop_
_space_group_symop_operation_xyz
x,y,z
-x,1/2-y,z
x,-y,1/2-z
1/2-x,y,-z
1/2+x,1/2+y,1/2+z
1/2-x,-y,1/2+z
1/2+x,1/2-y,-z
-x,1/2+y,1/2-z
loop_
_atom_site_type_symbol
_atom_site_label
_atom_site_fract_x
_atom_site_fract_y
_atom_site_fract_z
Si Si1 0.438366 0.813551 0.611946
Si Si2 0.464641 0.546186 0.483432
Si Si3 0.838479 0.276783 0.618025
Si Si4 0.306026 0.381083 0.260755
O O1 0.500000 0.750000 0.546619
O O2 0.483187 0.886287 0.563622
O O3 0.360340 0.803742 0.415640
O O4 0.408181 0.804734 0.918058
O O5 0.507184 0.500000 0.250000
O O6 0.380862 0.573357 0.345524
O O7 0.448846 0.500000 0.750000
O O8 0.750000 0.297049 0.500000
O O9 0.839414 0.192319 0.623467
O O10 0.250000 0.413399 0.500000
O O11 0.250000 0.364854 0.000000
#
# Coordination Sequence:
#
# PCOD9336599 Si02
#       4
#     8   8   8   8
#     4  12  24  42  71  98 130 177 227 277 327 387
#     4  12  27  44  66  98 141 183 223 269 334 400
#     4  11  23  40  70 102 132 164 223 285 336 381
#     4  11  23  41  67  99 138 178 220 265 330 411
#
# _framework density 20.801970000000001
#
# number of rings (size 3 to 8) (size 9 to 14) (size 15 to 20)
#    0.000    0.500    2.500    7.500    3.500    2.000 
#    0.000    0.000    0.000   15.000    0.000    0.000 
#    0.000    0.000    0.000    0.000    0.000    0.000 
#
# Total GULP energy -89597.411334 kJ/mol
# GULP energy per Si atom -5599.838208 kJ/mol
# Density = 2.075462 g / cm^3
# Si number density = 20.801970 Si / 1000 Ang^3
#
#
#
# Elastic Constant Matrix: (Units=GPa)
#
#
# Indices 1 2 3 4 5 6 
#
# 1 60.4718 38.3691 4.7214 0.0000 0.0000 0.0000
# 2 38.3691 113.5140 19.5459 0.0000 0.0000 0.0000
# 3 4.7214 19.5459 94.3312 0.0000 0.0000 0.0000
# 4 0.0000 0.0000 0.0000 41.5188 0.0000 0.0000
# 5 0.0000 0.0000 0.0000 0.0000 42.4087 0.0000
# 6 0.0000 0.0000 0.0000 0.0000 0.0000 -1.3681
#
#
#
# Elastic Compliance Matrix: (Units=1/GPa)
#
#
# Indices 1 2 3 4 5 6 
#
# 1 0.021069 -0.007197 0.000437 0.000000 0.000000 0.000000
# 2 -0.007197 0.011594 -0.002042 0.000000 0.000000 0.000000
# 3 0.000437 -0.002042 0.011002 0.000000 0.000000 0.000000
# 4 0.000000 0.000000 0.000000 0.024085 0.000000 0.000000
# 5 0.000000 0.000000 0.000000 0.000000 0.023580 0.000000
# 6 0.000000 0.000000 0.000000 0.000000 0.000000 -0.730926
#
#
# Mechanical properties :
#
#
# Convention : Reuss Voigt Hill
#
# Bulk Modulus (GPa) = 38.37222 43.73221 41.05221
# Shear Modulus (GPa) = -8.15256 30.22392 11.03568
#
# Velocity S-wave (km/s) = -1.98183 3.81587 2.30578
# Velocity P-wave (km/s) = 3.64000 6.36265 5.18329
#
# Compressibility (1/GPa) = 0.02606052
#
# Stress axis : x y z
#
# Youngs Moduli (GPa) = 47.46350 86.25387 90.89077
#
# Poissons Ratio (x) = 0.62074 -0.03969
# Poissons Ratio (y) = 0.34158 0.18561
# Poissons Ratio (z) = -0.02073 0.17614
#
# Static dielectric constant tensor:
#      x y z
#    x 1.740500 0.000000 0.000000 
#    y 0.000000 1.734050 0.000000 
#    z 0.000000 0.000000 1.739140 
# 
# From -- ./inp_files/3048.got.cif
#   From: 2010.05.17/outbox.cif.g08.bks.cpg/sg24_2_cif.got.tgz:3048.got - 2010.06.04 00:33:39.
