data_PCOD9336866
_publ_section_title
;
Structure prediction by ZEFSAII (Michael W. Deem and Ramdas Pophale) SiO2 
 PCOD9336866
Probable space group: I 21 21 21
;
_chemical_formula_sum "Si O2"
_cell_formula_units_Z 36
_cell_length_a 18.781834
_cell_length_b 14.483698
_cell_length_c 6.580300
_cell_angle_alpha 90.000000
_cell_angle_beta 90.000000
_cell_angle_gamma 90.000000
_cell_volume 1790.041717
_symmetry_space_group_name_H-M "I 21 21 21"
_symmetry_group_IT_number 24
_symmetry_cell_setting 'orthorhombic'
loop_
_space_group_symop_operation_xyz
x,y,z
-x,1/2-y,z
x,-y,1/2-z
1/2-x,y,-z
1/2+x,1/2+y,1/2+z
1/2-x,-y,1/2+z
1/2+x,1/2-y,-z
-x,1/2+y,1/2-z
loop_
_atom_site_type_symbol
_atom_site_label
_atom_site_fract_x
_atom_site_fract_y
_atom_site_fract_z
Si Si1 0.154798 0.000000 0.250000
Si Si2 0.250000 0.145059 0.500000
Si Si3 0.564585 0.351125 0.925927
Si Si4 0.937935 0.890982 0.724715
Si Si5 0.000000 0.750000 0.054601
Si Si6 0.683319 0.767953 0.348327
O O1 0.102897 0.949309 0.406346
O O2 0.202616 0.077114 0.359993
O O3 0.206217 0.211973 0.648605
O O4 0.552632 0.304715 0.706318
O O5 0.489416 0.361468 0.038500
O O6 0.619884 0.290365 0.050666
O O7 0.855431 0.864831 0.692092
O O8 0.947087 0.000000 0.750000
O O9 0.963630 0.827358 0.913260
O O10 0.750000 0.773815 0.500000
#
# Coordination Sequence:
#
# PCOD9336866 Si02
#       6
#     4   4   8   8   4   8
#     4  12  24  40  70 112 140 184 242 290 364 432
#     4  12  26  44  70 104 148 190 226 300 368 424
#     4  12  24  45  70 107 144 180 236 298 358 424
#     4  12  27  46  75 107 139 190 246 295 353 426
#     4  12  22  48  74 100 148 186 228 308 360 402
#     4  12  25  48  68  99 149 189 234 284 363 427
#
# _framework density 20.111263999999998
#
# number of rings (size 3 to 8) (size 9 to 14) (size 15 to 20)
#    0.000    0.000    6.667    4.000    3.111    0.000 
#    2.000    0.000    0.000    0.000    0.000    0.000 
#    0.000    0.000    0.000    0.000    0.000    0.000 
#
# Total GULP energy -100648.815930 kJ/mol
# GULP energy per Si atom -5591.600885 kJ/mol
# Density = 2.006549 g / cm^3
# Si number density = 20.111264 Si / 1000 Ang^3
#
#
#
# Elastic Constant Matrix: (Units=GPa)
#
#
# Indices 1 2 3 4 5 6 
#
# 1 122.2588 58.0391 51.9609 0.0000 0.0000 0.0000
# 2 58.0391 128.5528 48.0131 0.0000 0.0000 0.0000
# 3 51.9609 48.0131 103.9388 0.0000 0.0000 0.0000
# 4 0.0000 0.0000 0.0000 24.6341 0.0000 0.0000
# 5 0.0000 0.0000 0.0000 0.0000 33.6543 0.0000
# 6 0.0000 0.0000 0.0000 0.0000 0.0000 45.0424
#
#
#
# Elastic Compliance Matrix: (Units=1/GPa)
#
#
# Indices 1 2 3 4 5 6 
#
# 1 0.011711 -0.003747 -0.004123 0.000000 0.000000 0.000000
# 2 -0.003747 0.010600 -0.003023 0.000000 0.000000 0.000000
# 3 -0.004123 -0.003023 0.013079 0.000000 0.000000 0.000000
# 4 0.000000 0.000000 0.000000 0.040594 0.000000 0.000000
# 5 0.000000 0.000000 0.000000 0.000000 0.029714 0.000000
# 6 0.000000 0.000000 0.000000 0.000000 0.000000 0.022201
#
#
# Mechanical properties :
#
#
# Convention : Reuss Voigt Hill
#
# Bulk Modulus (GPa) = 73.51888 74.53074 74.02481
# Shear Modulus (GPa) = 32.42114 33.78197 33.10155
#
# Velocity S-wave (km/s) = 4.01944 4.10293 4.06140
# Velocity P-wave (km/s) = 7.62736 7.71913 7.67338
#
# Compressibility (1/GPa) = 0.01360195
#
# Stress axis : x y z
#
# Youngs Moduli (GPa) = 85.39186 94.34164 76.45856
#
# Poissons Ratio (x) = 0.35351 0.31528
# Poissons Ratio (y) = 0.31997 0.23115
# Poissons Ratio (z) = 0.35211 0.28521
#
# Static dielectric constant tensor:
#      x y z
#    x 1.714090 0.000000 0.000000 
#    y 0.000000 1.781920 0.000000 
#    z 0.000000 0.000000 1.758980 
# 
# From -- ./inp_files/3375.got.cif
#   From: 2010.05.17/outbox.cif.g08.bks.cpg/sg24_2_cif.got.tgz:3375.got - 2010.06.04 00:33:39.
