data_PCOD9336091
_publ_section_title
;
Structure prediction by ZEFSAII (Michael W. Deem and Ramdas Pophale) SiO2 
 PCOD9336091
Probable space group: I 21 21 21
;
_chemical_formula_sum "Si O2"
_cell_formula_units_Z 48
_cell_length_a 8.054957
_cell_length_b 15.233348
_cell_length_c 18.761969
_cell_angle_alpha 90.000000
_cell_angle_beta 90.000000
_cell_angle_gamma 90.000000
_cell_volume 2302.167952
_symmetry_space_group_name_H-M "I 21 21 21"
_symmetry_group_IT_number 24
_symmetry_cell_setting 'orthorhombic'
loop_
_space_group_symop_operation_xyz
x,y,z
-x,1/2-y,z
x,-y,1/2-z
1/2-x,y,-z
1/2+x,1/2+y,1/2+z
1/2-x,-y,1/2+z
1/2+x,1/2-y,-z
-x,1/2+y,1/2-z
loop_
_atom_site_type_symbol
_atom_site_label
_atom_site_fract_x
_atom_site_fract_y
_atom_site_fract_z
Si Si1 0.816768 0.422901 0.694791
Si Si2 0.299682 0.240718 0.781944
Si Si3 0.795128 0.911222 0.791730
Si Si4 0.363764 0.824026 0.568918
Si Si5 0.374147 0.668905 0.935692
Si Si6 0.387654 0.018120 0.559701
O O1 0.773702 0.500000 0.750000
O O2 0.768206 0.328949 0.725854
O O3 0.706816 0.439917 0.626174
O O4 0.014909 0.427058 0.684399
O O5 0.500000 0.250000 0.776057
O O6 0.217700 0.334038 0.766611
O O7 0.264618 0.201188 0.859782
O O8 0.702040 0.870209 0.861427
O O9 0.735241 0.000000 0.750000
O O10 0.500000 0.750000 0.559693
O O11 0.250000 0.824437 0.500000
O O12 0.445084 0.919984 0.578772
O O13 0.500000 0.750000 0.921383
O O14 0.473186 0.584829 0.965384
O O15 0.250000 0.696339 0.000000
O O16 0.250000 0.008608 0.500000
#
# Coordination Sequence:
#
# PCOD9336091 Si02
#       6
#     8   8   8   8   8   8
#     4  11  22  42  65  96 135 177 221 275 331 406
#     4  11  23  41  66  96 130 177 217 271 336 396
#     4  11  26  42  67 104 137 175 229 282 341 406
#     4  10  24  42  63  95 128 172 216 268 331 403
#     4  12  27  47  71 104 137 185 231 289 342 407
#     4  11  23  43  69  96 133 177 222 270 338 400
#
# _framework density 20.849913000000001
#
# number of rings (size 3 to 8) (size 9 to 14) (size 15 to 20)
#    0.000    1.000    1.667    4.500    4.667    4.667 
#    3.000    0.000    0.000    0.000    0.000    0.000 
#    0.000    0.000    0.000    0.000    0.000    0.000 
#
# Total GULP energy -134092.726188 kJ/mol
# GULP energy per Si atom -5587.196924 kJ/mol
# Density = 2.080246 g / cm^3
# Si number density = 20.849913 Si / 1000 Ang^3
#
#
#
# Elastic Constant Matrix: (Units=GPa)
#
#
# Indices 1 2 3 4 5 6 
#
# 1 51.9279 20.1629 22.2887 0.0000 0.0000 0.0000
# 2 20.1629 173.1689 43.5411 0.0000 0.0000 0.0000
# 3 22.2887 43.5411 96.4408 0.0000 0.0000 0.0000
# 4 0.0000 0.0000 0.0000 21.1197 0.0000 0.0000
# 5 0.0000 0.0000 0.0000 0.0000 28.6953 0.0000
# 6 0.0000 0.0000 0.0000 0.0000 0.0000 68.0737
#
#
#
# Elastic Compliance Matrix: (Units=1/GPa)
#
#
# Indices 1 2 3 4 5 6 
#
# 1 0.021686 -0.001427 -0.004368 0.000000 0.000000 0.000000
# 2 -0.001427 0.006608 -0.002654 0.000000 0.000000 0.000000
# 3 -0.004368 -0.002654 0.012577 0.000000 0.000000 0.000000
# 4 0.000000 0.000000 0.000000 0.047349 0.000000 0.000000
# 5 0.000000 0.000000 0.000000 0.000000 0.034849 0.000000
# 6 0.000000 0.000000 0.000000 0.000000 0.000000 0.014690
#
#
# Mechanical properties :
#
#
# Convention : Reuss Voigt Hill
#
# Bulk Modulus (GPa) = 41.71122 54.83588 48.27355
# Shear Modulus (GPa) = 30.74143 39.28072 35.01107
#
# Velocity S-wave (km/s) = 3.84398 4.34519 4.10224
# Velocity P-wave (km/s) = 6.30480 7.17855 6.75581
#
# Compressibility (1/GPa) = 0.02397436
#
# Stress axis : x y z
#
# Youngs Moduli (GPa) = 46.11220 151.33024 79.51283
#
# Poissons Ratio (x) = 0.21592 0.34730
# Poissons Ratio (y) = 0.06579 0.21100
# Poissons Ratio (z) = 0.20141 0.40158
#
# Static dielectric constant tensor:
#      x y z
#    x 1.747200 0.000000 0.000000 
#    y 0.000000 1.745860 0.000000 
#    z 0.000000 0.000000 1.728320 
# 
# From -- ./inp_files/14151.got.cif
#   From: 2010.05.17/outbox.cif.g08.bks.cpg/sg24_8_cif.got.tgz:14151.got - 2010.06.04 00:33:39.
