data_PCOD9336115
_publ_section_title
;
Structure prediction by ZEFSAII (Michael W. Deem and Ramdas Pophale) SiO2 
 PCOD9336115
Probable space group: I 21 21 21
;
_chemical_formula_sum "Si O2"
_cell_formula_units_Z 56
_cell_length_a 15.014519
_cell_length_b 15.707616
_cell_length_c 10.804830
_cell_angle_alpha 90.000000
_cell_angle_beta 90.000000
_cell_angle_gamma 90.000000
_cell_volume 2548.235946
_symmetry_space_group_name_H-M "I 21 21 21"
_symmetry_group_IT_number 24
_symmetry_cell_setting 'orthorhombic'
loop_
_space_group_symop_operation_xyz
x,y,z
-x,1/2-y,z
x,-y,1/2-z
1/2-x,y,-z
1/2+x,1/2+y,1/2+z
1/2-x,-y,1/2+z
1/2+x,1/2-y,-z
-x,1/2+y,1/2-z
loop_
_atom_site_type_symbol
_atom_site_label
_atom_site_fract_x
_atom_site_fract_y
_atom_site_fract_z
Si Si1 0.476592 0.848596 0.494763
Si Si2 0.096152 0.202205 0.750001
Si Si3 0.388119 0.096118 0.749999
Si Si4 0.289222 0.729865 0.749999
Si Si5 0.846580 0.907545 0.057179
Si Si6 0.523408 0.348596 0.494761
Si Si7 0.346580 0.407544 0.942822
O O1 0.500000 0.750000 0.518722
O O2 0.408857 0.850064 0.379047
O O3 0.443322 0.889025 0.623270
O O4 0.571281 0.892056 0.465437
O O5 0.181583 0.264729 0.750001
O O6 0.091142 0.149935 0.620956
O O7 0.000000 0.250000 0.750002
O O8 0.317242 0.172154 0.750000
O O9 0.443321 0.110975 0.623267
O O10 0.353141 0.000000 0.750000
O O11 0.333413 0.676805 0.861101
O O12 0.333413 0.676806 0.638897
O O13 0.863954 0.000000 0.117724
O O14 0.750000 0.914680 0.000000
O O15 0.928718 0.892056 0.965437
O O16 0.500000 0.250000 0.518719
O O17 0.250000 0.414681 0.000000
#
# Coordination Sequence:
#
# PCOD9336115 Si02
#       7
#     8   8   8   8   8   8   8
#     4  11  21  44  68 103 138 186 228 291 354 418
#     4  10  24  42  74 102 137 187 234 282 362 427
#     4  12  26  43  69 100 132 183 246 290 340 413
#     4  12  24  44  70  97 139 184 235 297 345 421
#     4  11  23  39  67 104 139 178 227 285 355 431
#     4  11  21  44  68 103 138 186 228 291 354 418
#     4  11  23  39  67 104 139 178 227 285 355 431
#
# _framework density 21.975988000000001
#
# number of rings (size 3 to 8) (size 9 to 14) (size 15 to 20)
#    0.000    0.857    2.857    6.000    0.000    0.000 
#    0.000    8.571    0.000    1.714    0.000    0.000 
#    0.000    0.000    0.000    0.000    0.000    0.000 
#
# Total GULP energy -156066.063088 kJ/mol
# GULP energy per Si atom -5573.787967 kJ/mol
# Density = 2.192597 g / cm^3
# Si number density = 21.975988 Si / 1000 Ang^3
#
#
#
# Elastic Constant Matrix: (Units=GPa)
#
#
# Indices 1 2 3 4 5 6 
#
# 1 87.6530 30.3119 12.9979 0.0000 0.0000 0.0000
# 2 30.3119 167.1925 29.9072 0.0000 0.0000 0.0000
# 3 12.9979 29.9072 106.7822 0.0000 0.0000 0.0000
# 4 0.0000 0.0000 0.0000 19.0358 0.0000 0.0000
# 5 0.0000 0.0000 0.0000 0.0000 22.3464 0.0000
# 6 0.0000 0.0000 0.0000 0.0000 0.0000 11.3092
#
#
#
# Elastic Compliance Matrix: (Units=1/GPa)
#
#
# Indices 1 2 3 4 5 6 
#
# 1 0.012256 -0.002058 -0.000915 0.000000 0.000000 0.000000
# 2 -0.002058 0.006642 -0.001610 0.000000 0.000000 0.000000
# 3 -0.000915 -0.001610 0.009927 0.000000 0.000000 0.000000
# 4 0.000000 0.000000 0.000000 0.052533 0.000000 0.000000
# 5 0.000000 0.000000 0.000000 0.000000 0.044750 0.000000
# 6 0.000000 0.000000 0.000000 0.000000 0.000000 0.088424
#
#
# Mechanical properties :
#
#
# Convention : Reuss Voigt Hill
#
# Bulk Modulus (GPa) = 50.86830 56.45131 53.65981
# Shear Modulus (GPa) = 21.71536 29.76565 25.74050
#
# Velocity S-wave (km/s) = 3.14688 3.68430 3.42614
# Velocity P-wave (km/s) = 6.03335 6.62134 6.33417
#
# Compressibility (1/GPa) = 0.01965861
#
# Stress axis : x y z
#
# Youngs Moduli (GPa) = 81.59166 150.55133 100.73390
#
# Poissons Ratio (x) = 0.30988 0.09221
# Poissons Ratio (y) = 0.16794 0.16216
# Poissons Ratio (z) = 0.07469 0.24236
#
# Static dielectric constant tensor:
#      x y z
#    x 1.816370 0.000000 0.000000 
#    y 0.000000 1.820500 0.000000 
#    z 0.000000 0.000000 1.875680 
# 
# From -- ./inp_files/20852.got.cif
#   From: 2010.05.17/outbox.cif.g08.bks.cpg/sg24_11_cif.got.tgz:20852.got - 2010.06.04 00:33:39.
