data_PCOD9336485
_publ_section_title
;
Structure prediction by ZEFSAII (Michael W. Deem and Ramdas Pophale) SiO2 
 PCOD9336485
Probable space group: I 21 21 21
;
_chemical_formula_sum "Si O2"
_cell_formula_units_Z 48
_cell_length_a 6.052502
_cell_length_b 13.260215
_cell_length_c 29.257055
_cell_angle_alpha 90.000000
_cell_angle_beta 90.000000
_cell_angle_gamma 90.000000
_cell_volume 2348.097442
_symmetry_space_group_name_H-M "I 21 21 21"
_symmetry_group_IT_number 24
_symmetry_cell_setting 'orthorhombic'
loop_
_space_group_symop_operation_xyz
x,y,z
-x,1/2-y,z
x,-y,1/2-z
1/2-x,y,-z
1/2+x,1/2+y,1/2+z
1/2-x,-y,1/2+z
1/2+x,1/2-y,-z
-x,1/2+y,1/2-z
loop_
_atom_site_type_symbol
_atom_site_label
_atom_site_fract_x
_atom_site_fract_y
_atom_site_fract_z
Si Si1 0.532492 0.857970 0.915199
Si Si2 0.000000 0.750000 0.247943
Si Si3 0.308599 0.944382 0.552043
Si Si4 0.707840 0.185055 0.174508
Si Si5 0.000000 0.250000 0.096960
Si Si6 0.695772 0.667898 0.169802
Si Si7 0.567096 0.010651 0.376727
O O1 0.500000 0.750000 0.940140
O O2 0.372733 0.837796 0.871524
O O3 0.767870 0.903721 0.897747
O O4 0.436389 0.949913 0.944237
O O5 0.129324 0.677501 0.282666
O O6 0.169997 0.808013 0.215303
O O7 0.250000 0.923267 0.500000
O O8 0.463275 0.852132 0.568844
O O9 0.093240 0.963018 0.584425
O O10 0.500000 0.250000 0.191284
O O11 0.797878 0.251001 0.132290
O O12 0.687620 0.078261 0.149863
O O13 0.500000 0.750000 0.164642
O O14 0.576853 0.561970 0.163186
#
# Coordination Sequence:
#
# PCOD9336485 Si02
#       7
#     8   4   8   8   4   8   8
#     4  11  22  44  71  97 140 187 231 290 352 421
#     4  11  24  40  66  98 142 170 238 292 336 429
#     4  11  26  43  70 111 136 180 238 291 351 425
#     4  11  23  43  67  95 133 186 227 292 352 413
#     4  11  22  44  72  94 138 180 230 286 362 417
#     4  11  21  42  67  96 129 182 234 282 348 408
#     4  11  23  43  73  94 139 186 230 286 364 416
#
# _framework density 20.442083
#
# number of rings (size 3 to 8) (size 9 to 14) (size 15 to 20)
#    0.000    1.000    5.833    0.500    0.000    2.000 
#    3.000   12.500    0.000    0.000    0.000    0.000 
#    0.000    0.000    0.000    0.000    0.000    0.000 
#
# Total GULP energy -133720.571811 kJ/mol
# GULP energy per Si atom -5571.690492 kJ/mol
# Density = 2.039556 g / cm^3
# Si number density = 20.442083 Si / 1000 Ang^3
#
#
#
# Elastic Constant Matrix: (Units=GPa)
#
#
# Indices 1 2 3 4 5 6 
#
# 1 72.0912 11.4717 20.9674 0.0000 0.0000 0.0000
# 2 11.4717 70.4685 13.6622 0.0000 0.0000 0.0000
# 3 20.9674 13.6622 91.2177 0.0000 0.0000 0.0000
# 4 0.0000 0.0000 0.0000 9.8799 0.0000 0.0000
# 5 0.0000 0.0000 0.0000 0.0000 19.3433 0.0000
# 6 0.0000 0.0000 0.0000 0.0000 0.0000 39.0778
#
#
#
# Elastic Compliance Matrix: (Units=1/GPa)
#
#
# Indices 1 2 3 4 5 6 
#
# 1 0.015093 -0.001838 -0.003194 0.000000 0.000000 0.000000
# 2 -0.001838 0.014839 -0.001800 0.000000 0.000000 0.000000
# 3 -0.003194 -0.001800 0.011967 0.000000 0.000000 0.000000
# 4 0.000000 0.000000 0.000000 0.101216 0.000000 0.000000
# 5 0.000000 0.000000 0.000000 0.000000 0.051697 0.000000
# 6 0.000000 0.000000 0.000000 0.000000 0.000000 0.025590
#
#
# Mechanical properties :
#
#
# Convention : Reuss Voigt Hill
#
# Bulk Modulus (GPa) = 35.41758 36.22001 35.81879
# Shear Modulus (GPa) = 20.53583 26.17193 23.35388
#
# Velocity S-wave (km/s) = 3.17296 3.58200 3.38367
# Velocity P-wave (km/s) = 5.54860 5.90462 5.72938
#
# Compressibility (1/GPa) = 0.02823457
#
# Stress axis : x y z
#
# Youngs Moduli (GPa) = 66.25721 67.39048 83.56617
#
# Poissons Ratio (x) = 0.12385 0.26691
# Poissons Ratio (y) = 0.12176 0.15043
# Poissons Ratio (z) = 0.21162 0.12131
#
# Static dielectric constant tensor:
#      x y z
#    x 1.903220 0.000000 0.000000 
#    y 0.000000 1.773940 0.000000 
#    z 0.000000 0.000000 1.669890 
# 
# From -- ./inp_files/36492.got.cif
#   From: 2010.05.17/outbox.cif.g08.bks.cpg/sg24_19_cif.got.tgz:36492.got - 2010.06.04 00:33:39.
