data_PCOD9336124
_publ_section_title
;
Structure prediction by ZEFSAII (Michael W. Deem and Ramdas Pophale) SiO2 
 PCOD9336124
Probable space group: I 21 21 21
;
_chemical_formula_sum "Si O2"
_cell_formula_units_Z 56
_cell_length_a 32.299015
_cell_length_b 6.859499
_cell_length_c 12.881430
_cell_angle_alpha 90.000000
_cell_angle_beta 90.000000
_cell_angle_gamma 90.000000
_cell_volume 2853.946011
_symmetry_space_group_name_H-M "I 21 21 21"
_symmetry_group_IT_number 24
_symmetry_cell_setting 'orthorhombic'
loop_
_space_group_symop_operation_xyz
x,y,z
-x,1/2-y,z
x,-y,1/2-z
1/2-x,y,-z
1/2+x,1/2+y,1/2+z
1/2-x,-y,1/2+z
1/2+x,1/2-y,-z
-x,1/2+y,1/2-z
loop_
_atom_site_type_symbol
_atom_site_label
_atom_site_fract_x
_atom_site_fract_y
_atom_site_fract_z
Si Si1 0.231979 0.613192 0.155053
Si Si2 0.886819 0.256137 0.529200
Si Si3 0.313457 0.493062 0.051203
Si Si4 0.348487 0.143251 0.929759
Si Si5 0.033460 0.920846 0.866700
Si Si6 0.212350 0.000000 0.250000
Si Si7 0.500000 0.250000 0.978860
Si Si8 0.078575 0.561702 0.369544
O O1 0.211162 0.500000 0.250000
O O2 0.274954 0.507375 0.128086
O O3 0.238053 0.833700 0.191505
O O4 0.203320 0.596116 0.054487
O O5 0.853068 0.117769 0.584335
O O6 0.865000 0.442372 0.477252
O O7 0.922007 0.333356 0.605393
O O8 0.907743 0.121549 0.440456
O O9 0.326237 0.276783 0.016848
O O10 0.386583 0.272513 0.887293
O O11 0.316837 0.096795 0.837132
O O12 0.000000 0.750000 0.878328
O O13 0.032205 0.000000 0.750000
O O14 0.022218 0.092154 0.947157
O O15 0.534887 0.144404 0.910068
O O16 0.076733 0.500000 0.250000
#
# Coordination Sequence:
#
# PCOD9336124 Si02
#       8
#     8   8   8   8   8   4   4   8
#     4  11  23  43  63  93 130 172 220 268 326 402
#     4  11  23  44  67  99 132 171 226 276 331 402
#     4  10  24  43  63  92 133 169 214 274 330 388
#     4  11  22  40  67  93 131 175 220 271 332 391
#     4  12  25  46  72  96 127 176 230 275 328 389
#     4  12  22  38  70  94 124 178 226 260 332 404
#     4  12  24  44  66 100 136 178 214 276 334 386
#     4  11  25  40  66  99 141 175 219 270 335 406
#
# _framework density 19.621953999999999
#
# number of rings (size 3 to 8) (size 9 to 14) (size 15 to 20)
#    0.000    0.857    6.429    0.857    2.000    2.286 
#    5.143    0.000    0.000    0.000    0.000    0.000 
#    0.000    0.000    0.000    0.000    0.000    0.000 
#
# Total GULP energy -156557.950935 kJ/mol
# GULP energy per Si atom -5591.355391 kJ/mol
# Density = 1.957729 g / cm^3
# Si number density = 19.621954 Si / 1000 Ang^3
#
#
#
# Elastic Constant Matrix: (Units=GPa)
#
#
# Indices 1 2 3 4 5 6 
#
# 1 88.9280 29.9373 0.6515 0.0000 0.0000 0.0000
# 2 29.9373 116.6594 8.6463 0.0000 0.0000 0.0000
# 3 0.6515 8.6463 26.8333 0.0000 0.0000 0.0000
# 4 0.0000 0.0000 0.0000 16.5628 0.0000 0.0000
# 5 0.0000 0.0000 0.0000 0.0000 1.7084 0.0000
# 6 0.0000 0.0000 0.0000 0.0000 0.0000 29.8664
#
#
#
# Elastic Compliance Matrix: (Units=1/GPa)
#
#
# Indices 1 2 3 4 5 6 
#
# 1 0.012323 -0.003217 0.000737 0.000000 0.000000 0.000000
# 2 -0.003217 0.009621 -0.003022 0.000000 0.000000 0.000000
# 3 0.000737 -0.003022 0.038223 0.000000 0.000000 0.000000
# 4 0.000000 0.000000 0.000000 0.060376 0.000000 0.000000
# 5 0.000000 0.000000 0.000000 0.000000 0.585329 0.000000
# 6 0.000000 0.000000 0.000000 0.000000 0.000000 0.033482
#
#
# Mechanical properties :
#
#
# Convention : Reuss Voigt Hill
#
# Bulk Modulus (GPa) = 20.34021 34.54344 27.44182
# Shear Modulus (GPa) = 6.52107 22.50656 14.51381
#
# Velocity S-wave (km/s) = 1.82498 3.39043 2.72264
# Velocity P-wave (km/s) = 3.85088 5.74190 4.88869
#
# Compressibility (1/GPa) = 0.04916371
#
# Stress axis : x y z
#
# Youngs Moduli (GPa) = 81.15166 103.93416 26.16227
#
# Poissons Ratio (x) = 0.33435 -0.01929
# Poissons Ratio (y) = 0.26106 0.07907
# Poissons Ratio (z) = -0.05984 0.31410
#
# Static dielectric constant tensor:
#      x y z
#    x 1.677100 0.000000 0.000000 
#    y 0.000000 1.687790 0.000000 
#    z 0.000000 0.000000 1.648190 
# 
# From -- ./inp_files/28261.got.cif
#   From: 2010.05.17/outbox.cif.g08.bks.cpg/sg24_15_cif.got.tgz:28261.got - 2010.06.04 00:33:39.
