data_PCOD9336768
_publ_section_title
;
Structure prediction by ZEFSAII (Michael W. Deem and Ramdas Pophale) SiO2 
 PCOD9336768
Probable space group: I 21 21 21
;
_chemical_formula_sum "Si O2"
_cell_formula_units_Z 60
_cell_length_a 28.089452
_cell_length_b 10.964270
_cell_length_c 9.310907
_cell_angle_alpha 90.000000
_cell_angle_beta 90.000000
_cell_angle_gamma 90.000000
_cell_volume 2867.576265
_symmetry_space_group_name_H-M "I 21 21 21"
_symmetry_group_IT_number 24
_symmetry_cell_setting 'orthorhombic'
loop_
_space_group_symop_operation_xyz
x,y,z
-x,1/2-y,z
x,-y,1/2-z
1/2-x,y,-z
1/2+x,1/2+y,1/2+z
1/2-x,-y,1/2+z
1/2+x,1/2-y,-z
-x,1/2+y,1/2-z
loop_
_atom_site_type_symbol
_atom_site_label
_atom_site_fract_x
_atom_site_fract_y
_atom_site_fract_z
Si Si1 0.518754 0.617265 0.839287
Si Si2 0.703312 0.172534 0.188466
Si Si3 0.649794 0.851869 0.579787
Si Si4 0.983576 0.882092 0.834145
Si Si5 0.232070 0.878166 0.163893
Si Si6 0.723600 0.000000 0.750000
Si Si7 0.877527 0.299417 0.322648
Si Si8 0.376940 0.603230 0.078615
O O1 0.500000 0.750000 0.785292
O O2 0.501869 0.500000 0.750000
O O3 0.576139 0.618433 0.844904
O O4 0.500014 0.608452 0.001321
O O5 0.738964 0.267291 0.262836
O O6 0.664312 0.136546 0.308108
O O7 0.735079 0.054331 0.144877
O O8 0.678514 0.218826 0.044070
O O9 0.684657 0.898549 0.706795
O O10 0.615064 0.765970 0.668074
O O11 0.630323 0.971173 0.496618
O O12 0.926542 0.887283 0.838991
O O13 0.000000 0.750000 0.777476
O O14 0.001902 0.000000 0.750000
O O15 0.174900 0.859295 0.172635
O O16 0.244193 0.000000 0.250000
O O17 0.250000 0.884574 0.000000
O O18 0.877851 0.200799 0.450635
#
# Coordination Sequence:
#
# PCOD9336768 Si02
#       8
#     8   8   8   8   8   4   8   8
#     4  11  26  49  74 105 139 178 233 297 359 429
#     4  12  25  41  63 101 140 179 228 286 336 408
#     4  12  24  37  69 103 141 184 228 277 346 421
#     4  11  25  48  76 104 142 182 233 296 365 435
#     4  12  28  45  67  92 137 190 237 282 341 415
#     4  12  22  34  64 100 140 174 216 268 334 394
#     4  12  24  44  69  98 141 179 231 287 352 416
#     4  12  22  45  67 105 139 180 222 293 352 418
#
# _framework density 20.923594000000001
#
# number of rings (size 3 to 8) (size 9 to 14) (size 15 to 20)
#    0.000    0.267    8.000    1.600    3.733    0.533 
#    2.400    1.333    0.000    0.000    0.000    0.000 
#    0.000    0.000    0.000    0.000    0.000    0.000 
#
# Total GULP energy -167191.271764 kJ/mol
# GULP energy per Si atom -5573.042392 kJ/mol
# Density = 2.087597 g / cm^3
# Si number density = 20.923594 Si / 1000 Ang^3
#
#
#
# Elastic Constant Matrix: (Units=GPa)
#
#
# Indices 1 2 3 4 5 6 
#
# 1 108.7570 44.9234 4.0011 0.0000 0.0000 0.0000
# 2 44.9234 113.2731 60.9519 0.0000 0.0000 0.0000
# 3 4.0011 60.9519 79.3005 0.0000 0.0000 0.0000
# 4 0.0000 0.0000 0.0000 38.0139 0.0000 0.0000
# 5 0.0000 0.0000 0.0000 0.0000 8.4612 0.0000
# 6 0.0000 0.0000 0.0000 0.0000 0.0000 -30.8755
#
#
#
# Elastic Compliance Matrix: (Units=1/GPa)
#
#
# Indices 1 2 3 4 5 6 
#
# 1 0.012167 -0.007665 0.005278 0.000000 0.000000 0.000000
# 2 -0.007665 0.019884 -0.014896 0.000000 0.000000 0.000000
# 3 0.005278 -0.014896 0.023794 0.000000 0.000000 0.000000
# 4 0.000000 0.000000 0.000000 0.026306 0.000000 0.000000
# 5 0.000000 0.000000 0.000000 0.000000 0.118187 0.000000
# 6 0.000000 0.000000 0.000000 0.000000 0.000000 -0.032388
#
#
# Mechanical properties :
#
#
# Convention : Reuss Voigt Hill
#
# Bulk Modulus (GPa) = 46.99984 57.89815 52.44899
# Shear Modulus (GPa) = 23.85385 15.88352 19.86869
#
# Velocity S-wave (km/s) = 3.38012 2.75820 3.08487
# Velocity P-wave (km/s) = 6.14369 6.15426 6.14898
#
# Compressibility (1/GPa) = 0.02127667
#
# Stress axis : x y z
#
# Youngs Moduli (GPa) = 82.19036 50.29176 42.02795
#
# Poissons Ratio (x) = 0.38550 -0.22182
# Poissons Ratio (y) = 0.63001 0.62607
# Poissons Ratio (z) = -0.43379 0.74917
#
# Static dielectric constant tensor:
#      x y z
#    x 1.761770 0.000000 0.000000 
#    y 0.000000 1.815800 0.000000 
#    z 0.000000 0.000000 1.730550 
# 
# From -- ./inp_files/16441.got.cif
#   From: 2010.05.17/outbox.cif.g08.bks.cpg/sg24_9_cif.got.tgz:16441.got - 2010.06.04 00:33:39.
