data_PCOD9336512
_publ_section_title
;
Structure prediction by ZEFSAII (Michael W. Deem and Ramdas Pophale) SiO2 
 PCOD9336512
Probable space group: I 21 21 21
;
_chemical_formula_sum "Si O2"
_cell_formula_units_Z 60
_cell_length_a 5.253683
_cell_length_b 25.497258
_cell_length_c 20.951455
_cell_angle_alpha 90.000000
_cell_angle_beta 90.000000
_cell_angle_gamma 90.000000
_cell_volume 2806.541907
_symmetry_space_group_name_H-M "I 21 21 21"
_symmetry_group_IT_number 24
_symmetry_cell_setting 'orthorhombic'
loop_
_space_group_symop_operation_xyz
x,y,z
-x,1/2-y,z
x,-y,1/2-z
1/2-x,y,-z
1/2+x,1/2+y,1/2+z
1/2-x,-y,1/2+z
1/2+x,1/2-y,-z
-x,1/2+y,1/2-z
loop_
_atom_site_type_symbol
_atom_site_label
_atom_site_fract_x
_atom_site_fract_y
_atom_site_fract_z
Si Si1 0.492033 0.391529 0.680995
Si Si2 0.250000 0.626150 0.500000
Si Si3 0.931650 0.537873 0.438193
Si Si4 0.865401 0.385347 0.858661
Si Si5 0.351197 0.697009 0.416284
Si Si6 0.496543 0.582302 0.957492
Si Si7 0.453063 0.689444 0.709789
Si Si8 0.988423 0.060850 0.737723
O O1 0.508654 0.382696 0.605733
O O2 0.422020 0.341591 0.724518
O O3 0.760273 0.414692 0.705380
O O4 0.260789 0.431106 0.695304
O O5 0.356323 0.580780 0.548541
O O6 0.115710 0.677454 0.458474
O O7 0.750000 0.538898 0.500000
O O8 0.779793 0.562062 0.379220
O O9 0.020226 0.478272 0.432941
O O10 0.679112 0.342028 0.827158
O O11 0.052141 0.407201 0.804000
O O12 0.983550 0.357453 0.922737
O O13 0.500000 0.750000 0.428272
O O14 0.271800 0.693956 0.342524
O O15 0.250000 0.592973 0.000000
O O16 0.750000 0.586835 0.000000
O O17 0.500000 0.750000 0.724387
O O18 0.029474 0.000000 0.750000
#
# Coordination Sequence:
#
# PCOD9336512 Si02
#       8
#     8   4   8   8   8   8   8   8
#     4  11  24  42  66  98 128 168 221 267 333 405
#     4  12  24  36  58  84 122 166 228 268 316 378
#     4  11  22  37  58  85 122 171 214 262 317 386
#     4  11  22  37  59  84 122 162 214 268 318 379
#     4  12  24  38  59  85 118 170 225 278 323 372
#     4  11  24  43  68  97 132 170 211 264 330 407
#     4  11  23  41  64  88 122 167 215 275 332 387
#     4  11  23  39  62  96 132 168 210 269 330 394
#
# _framework density 21.378622
#
# number of rings (size 3 to 8) (size 9 to 14) (size 15 to 20)
#    0.000    0.800    6.000    2.000    0.000    4.800 
#    0.000    0.000    0.000    0.800    0.000    0.000 
#    0.000    0.000    0.000    0.000    0.000    0.000 
#
# Total GULP energy -167164.590498 kJ/mol
# GULP energy per Si atom -5572.153017 kJ/mol
# Density = 2.132996 g / cm^3
# Si number density = 21.378622 Si / 1000 Ang^3
#
#
#
# Elastic Constant Matrix: (Units=GPa)
#
#
# Indices 1 2 3 4 5 6 
#
# 1 63.6842 -3.6161 25.5172 0.0000 0.0000 0.0000
# 2 -3.6161 64.1590 36.3576 0.0000 0.0000 0.0000
# 3 25.5172 36.3576 107.7978 0.0000 0.0000 0.0001
# 4 0.0000 0.0000 0.0000 37.4037 0.0000 0.0000
# 5 0.0000 0.0000 0.0000 0.0000 -26.3099 0.0001
# 6 0.0000 0.0000 0.0001 0.0000 0.0001 1452.3794
#
#
#
# Elastic Compliance Matrix: (Units=1/GPa)
#
#
# Indices 1 2 3 4 5 6 
#
# 1 0.018260 0.004300 -0.005773 0.000000 0.000000 0.000000
# 2 0.004300 0.020282 -0.007859 0.000000 0.000000 0.000000
# 3 -0.005773 -0.007859 0.013294 0.000000 0.000000 0.000000
# 4 0.000000 0.000000 0.000000 0.026735 0.000000 0.000000
# 5 0.000000 0.000000 0.000000 0.000000 -0.038008 0.000000
# 6 0.000000 0.000000 0.000000 0.000000 0.000000 0.000689
#
#
# Mechanical properties :
#
#
# Convention : Reuss Voigt Hill
#
# Bulk Modulus (GPa) = 30.14450 39.12870 34.63660
# Shear Modulus (GPa) = 70.45186 304.52011 187.48598
#
# Velocity S-wave (km/s) = 5.74682 11.94783 9.37487
# Velocity P-wave (km/s) = 7.62663 14.44564 11.55080
#
# Compressibility (1/GPa) = 0.03317355
#
# Stress axis : x y z
#
# Youngs Moduli (GPa) = 54.76530 49.30480 75.22386
#
# Poissons Ratio (x) = -0.21203 0.43425
# Poissons Ratio (y) = -0.23552 0.59116
# Poissons Ratio (z) = 0.31615 0.38747
#
# Static dielectric constant tensor:
#      x y z
#    x 1.828010 0.000000 0.000000 
#    y 0.000000 1.788910 0.000000 
#    z 0.000000 0.000000 1.702300 
# 
# From -- ./inp_files/6536.got.cif
#   From: 2010.05.17/outbox.cif.g08.bks.cpg/sg24_4_cif.got.tgz:6536.got - 2010.06.04 00:33:39.
