data_PCOD9336182
_publ_section_title
;
Structure prediction by ZEFSAII (Michael W. Deem and Ramdas Pophale) SiO2 
 PCOD9336182
Probable space group: I 21 21 21
;
_chemical_formula_sum "Si O2"
_cell_formula_units_Z 56
_cell_length_a 18.873830
_cell_length_b 9.360293
_cell_length_c 15.258302
_cell_angle_alpha 90.000000
_cell_angle_beta 90.000000
_cell_angle_gamma 90.000000
_cell_volume 2695.601497
_symmetry_space_group_name_H-M "I 21 21 21"
_symmetry_group_IT_number 24
_symmetry_cell_setting 'orthorhombic'
loop_
_space_group_symop_operation_xyz
x,y,z
-x,1/2-y,z
x,-y,1/2-z
1/2-x,y,-z
1/2+x,1/2+y,1/2+z
1/2-x,-y,1/2+z
1/2+x,1/2-y,-z
-x,1/2+y,1/2-z
loop_
_atom_site_type_symbol
_atom_site_label
_atom_site_fract_x
_atom_site_fract_y
_atom_site_fract_z
Si Si1 0.882479 0.424375 0.843053
Si Si2 0.678976 0.159420 0.251840
Si Si3 0.656308 0.157289 0.735657
Si Si4 0.075237 0.682351 0.057212
Si Si5 0.683117 0.672371 0.065177
Si Si6 0.941506 0.624542 0.318686
Si Si7 0.487980 0.919865 0.497658
O O1 0.894215 0.500000 0.750000
O O2 0.859207 0.264701 0.816801
O O3 0.822239 0.512537 0.895730
O O4 0.950284 0.443024 0.905155
O O5 0.762706 0.147727 0.234488
O O6 0.681266 0.226958 0.349101
O O7 0.647968 0.000000 0.250000
O O8 0.632053 0.181553 0.635602
O O9 0.627220 0.289984 0.790019
O O10 0.623809 0.000000 0.750000
O O11 0.000000 0.750000 0.085998
O O12 0.111645 0.781320 0.984809
O O13 0.053868 0.525844 0.018356
O O14 0.750000 0.689859 0.000000
O O15 0.956495 0.500000 0.250000
O O16 0.938683 0.561342 0.416074
O O17 0.000000 0.750000 0.314719
O O18 0.500000 0.750000 0.498472
#
# Coordination Sequence:
#
# PCOD9336182 Si02
#       7
#     8   8   8   8   8   8   8
#     4  10  24  47  67  93 137 178 239 289 348 428
#     4  10  24  45  68  98 134 181 233 287 353 421
#     4  11  22  40  65 100 137 177 224 281 348 430
#     4  12  23  41  69  99 136 180 231 285 359 424
#     4  11  23  45  70  99 134 184 234 290 354 434
#     4  11  22  37  62  93 137 179 220 278 354 420
#     4  11  24  41  62 101 138 178 230 296 351 427
#
# _framework density 20.774584999999998
#
# number of rings (size 3 to 8) (size 9 to 14) (size 15 to 20)
#    0.000    1.143    2.857    4.286    2.000    2.857 
#    5.143    0.714    0.000    0.000    0.000    0.000 
#    0.000    0.000    0.000    0.000    0.000    0.000 
#
# Total GULP energy -156139.610358 kJ/mol
# GULP energy per Si atom -5576.414656 kJ/mol
# Density = 2.072730 g / cm^3
# Si number density = 20.774585 Si / 1000 Ang^3
#
#
#
# Elastic Constant Matrix: (Units=GPa)
#
#
# Indices 1 2 3 4 5 6 
#
# 1 28.7262 9.5454 13.7086 0.0000 0.0000 0.0000
# 2 9.5454 129.0311 34.1345 0.0000 0.0000 0.0000
# 3 13.7086 34.1345 101.1835 0.0000 0.0000 0.0000
# 4 0.0000 0.0000 0.0000 28.4691 0.0000 0.0000
# 5 0.0000 0.0000 0.0000 0.0000 5.8028 0.0000
# 6 0.0000 0.0000 0.0000 0.0000 0.0000 23.2698
#
#
#
# Elastic Compliance Matrix: (Units=1/GPa)
#
#
# Indices 1 2 3 4 5 6 
#
# 1 0.037505 -0.001570 -0.004551 0.000000 0.000000 0.000000
# 2 -0.001570 0.008575 -0.002680 0.000000 0.000000 0.000000
# 3 -0.004551 -0.002680 0.011404 0.000000 0.000000 0.000000
# 4 0.000000 0.000000 0.000000 0.035126 0.000000 0.000000
# 5 0.000000 0.000000 0.000000 0.000000 0.172331 0.000000
# 6 0.000000 0.000000 0.000000 0.000000 0.000000 0.042974
#
#
# Mechanical properties :
#
#
# Convention : Reuss Voigt Hill
#
# Bulk Modulus (GPa) = 25.07507 41.52420 33.29964
# Shear Modulus (GPa) = 14.75740 24.94516 19.85128
#
# Velocity S-wave (km/s) = 2.66815 3.46895 3.09456
# Velocity P-wave (km/s) = 4.64632 6.00634 5.36957
#
# Compressibility (1/GPa) = 0.03988024
#
# Stress axis : x y z
#
# Youngs Moduli (GPa) = 26.66287 116.61458 87.68990
#
# Poissons Ratio (x) = 0.18314 0.39912
# Poissons Ratio (y) = 0.04187 0.23502
# Poissons Ratio (z) = 0.12136 0.31254
#
# Static dielectric constant tensor:
#      x y z
#    x 1.779730 0.000000 0.000000 
#    y 0.000000 1.826030 0.000000 
#    z 0.000000 0.000000 1.763690 
# 
# From -- ./inp_files/13154.got.cif
#   From: 2010.05.17/outbox.cif.g08.bks.cpg/sg24_7_cif.got.tgz:13154.got - 2010.06.04 00:33:39.
