data_PCOD9336107
_publ_section_title
;
Structure prediction by ZEFSAII (Michael W. Deem and Ramdas Pophale) SiO2 
 PCOD9336107
Probable space group: I 21 21 21
;
_chemical_formula_sum "Si O2"
_cell_formula_units_Z 16
_cell_length_a 4.683567
_cell_length_b 8.998590
_cell_length_c 14.612705
_cell_angle_alpha 90.000000
_cell_angle_beta 90.000000
_cell_angle_gamma 90.000000
_cell_volume 615.859746
_symmetry_space_group_name_H-M "I 21 21 21"
_symmetry_group_IT_number 24
_symmetry_cell_setting 'orthorhombic'
loop_
_space_group_symop_operation_xyz
x,y,z
-x,1/2-y,z
x,-y,1/2-z
1/2-x,y,-z
1/2+x,1/2+y,1/2+z
1/2-x,-y,1/2+z
1/2+x,1/2-y,-z
-x,1/2+y,1/2-z
loop_
_atom_site_type_symbol
_atom_site_label
_atom_site_fract_x
_atom_site_fract_y
_atom_site_fract_z
Si Si1 0.250000 0.643206 0.000000
Si Si2 0.538930 0.000000 0.750000
Si Si3 0.502817 0.407298 0.138421
O O1 0.500000 0.750000 0.964853
O O2 0.368724 0.537144 0.078437
O O3 0.782316 0.877244 0.723809
O O4 0.309553 0.967008 0.670087
O O5 0.500000 0.250000 0.087727
#
# Coordination Sequence:
#
# PCOD9336107 Si02
#       3
#     4   4   8
#     4  12  28  46  70 104 144 184 230 292 346 404
#     4  10  24  42  70 104 132 172 232 290 338 398
#     4  11  25  46  73 102 140 187 232 282 347 421
#
# _framework density 25.979938000000001
#
# number of rings (size 3 to 8) (size 9 to 14) (size 15 to 20)
#    0.000    1.000    0.000    4.500    0.000   26.000 
#    0.000    0.000    0.000    0.000    0.000    0.000 
#    0.000    0.000    0.000    0.000    0.000    0.000 
#
# Total GULP energy -44594.865107 kJ/mol
# GULP energy per Si atom -5574.358138 kJ/mol
# Density = 2.592081 g / cm^3
# Si number density = 25.979938 Si / 1000 Ang^3
#
#
#
# Elastic Constant Matrix: (Units=GPa)
#
#
# Indices 1 2 3 4 5 6 
#
# 1 237.6444 62.2726 26.6348 0.0000 0.0000 0.0000
# 2 62.2726 176.6237 37.2274 0.0000 0.0000 0.0000
# 3 26.6348 37.2274 46.4451 0.0000 0.0000 0.0000
# 4 0.0000 0.0000 0.0000 22.9531 0.0000 0.0000
# 5 0.0000 0.0000 0.0000 0.0000 48.1047 0.0000
# 6 0.0000 0.0000 0.0000 0.0000 0.0000 39.0272
#
#
#
# Elastic Compliance Matrix: (Units=1/GPa)
#
#
# Indices 1 2 3 4 5 6 
#
# 1 0.004740 -0.001322 -0.001659 0.000000 0.000000 0.000000
# 2 -0.001322 0.007181 -0.004998 0.000000 0.000000 0.000000
# 3 -0.001659 -0.004998 0.026488 0.000000 0.000000 0.000000
# 4 0.000000 0.000000 0.000000 0.043567 0.000000 0.000000
# 5 0.000000 0.000000 0.000000 0.000000 0.020788 0.000000
# 6 0.000000 0.000000 0.000000 0.000000 0.000000 0.025623
#
#
# Mechanical properties :
#
#
# Convention : Reuss Voigt Hill
#
# Bulk Modulus (GPa) = 44.53887 79.22030 61.87959
# Shear Modulus (GPa) = 32.93164 44.32220 38.62692
#
# Velocity S-wave (km/s) = 3.56417 4.13488 3.86009
# Velocity P-wave (km/s) = 5.84111 7.30447 6.61339
#
# Compressibility (1/GPa) = 0.02245230
#
# Stress axis : x y z
#
# Youngs Moduli (GPa) = 210.96047 139.25317 37.75240
#
# Poissons Ratio (x) = 0.18403 0.06263
# Poissons Ratio (y) = 0.27880 0.18869
# Poissons Ratio (z) = 0.35000 0.69600
#
# Static dielectric constant tensor:
#      x y z
#    x 1.991920 0.000000 0.000000 
#    y 0.000000 2.160130 0.000000 
#    z 0.000000 0.000000 2.292950 
# 
# From -- ./inp_files/4048.got.cif
#   From: 2010.05.17/outbox.cif.g08.bks.cpg/sg24_3_cif.got.tgz:4048.got - 2010.06.04 00:33:39.
