data_PCOD9336346
_publ_section_title
;
Structure prediction by ZEFSAII (Michael W. Deem and Ramdas Pophale) SiO2 
 PCOD9336346
Probable space group: I 21 21 21
;
_chemical_formula_sum "Si O2"
_cell_formula_units_Z 36
_cell_length_a 5.511618
_cell_length_b 11.709162
_cell_length_c 21.543619
_cell_angle_alpha 90.000000
_cell_angle_beta 90.000000
_cell_angle_gamma 90.000000
_cell_volume 1390.348217
_symmetry_space_group_name_H-M "I 21 21 21"
_symmetry_group_IT_number 24
_symmetry_cell_setting 'orthorhombic'
loop_
_space_group_symop_operation_xyz
x,y,z
-x,1/2-y,z
x,-y,1/2-z
1/2-x,y,-z
1/2+x,1/2+y,1/2+z
1/2-x,-y,1/2+z
1/2+x,1/2-y,-z
-x,1/2+y,1/2-z
loop_
_atom_site_type_symbol
_atom_site_label
_atom_site_fract_x
_atom_site_fract_y
_atom_site_fract_z
Si Si1 0.315062 0.000000 0.250000
Si Si2 0.372541 0.374479 0.344970
Si Si3 0.500000 0.750000 0.891638
Si Si4 0.051338 0.445961 0.955536
Si Si5 0.750000 0.637692 0.000000
Si Si6 0.750587 0.678050 0.643295
O O1 0.496680 0.916725 0.214828
O O2 0.199990 0.920631 0.304728
O O3 0.500000 0.250000 0.352959
O O4 0.088004 0.347823 0.346369
O O5 0.382751 0.477019 0.395122
O O6 0.705103 0.713688 0.940597
O O7 0.969188 0.550112 0.999520
O O8 0.834522 0.372467 0.924421
O O9 0.250000 0.385687 0.000000
O O10 0.500000 0.750000 0.638052
O O11 0.000000 0.750000 0.659977
#
# Coordination Sequence:
#
# PCOD9336346 Si02
#       6
#     4   8   4   8   4   8
#     4  10  26  52  80 110 158 210 278 350 418 482
#     4  11  22  44  67 113 152 212 261 338 416 487
#     4  12  22  36  72 108 164 206 266 332 416 484
#     4  11  24  43  75 113 163 206 263 332 408 494
#     4  12  22  38  66 114 154 202 254 334 402 486
#     4  11  28  55  82 120 161 218 281 342 410 494
#
# _framework density 25.892795
#
# number of rings (size 3 to 8) (size 9 to 14) (size 15 to 20)
#    0.000    0.889    4.444    2.000    3.111    0.889 
#   10.000    0.000    0.000    0.000    0.000    0.000 
#    0.000    0.000    0.000    0.000    0.000    0.000 
#
# Total GULP energy -100205.281800 kJ/mol
# GULP energy per Si atom -5566.960100 kJ/mol
# Density = 2.583386 g / cm^3
# Si number density = 25.892795 Si / 1000 Ang^3
#
#
#
# Elastic Constant Matrix: (Units=GPa)
#
#
# Indices 1 2 3 4 5 6 
#
# 1 127.5532 73.9423 58.7210 0.0000 0.0000 0.0000
# 2 73.9423 123.4553 69.0864 0.0000 0.0000 0.0000
# 3 58.7210 69.0864 134.2700 0.0000 0.0000 0.0000
# 4 0.0000 0.0000 0.0000 274.9155 0.0000 0.0000
# 5 0.0000 0.0000 0.0000 0.0000 18.7518 0.0000
# 6 0.0000 0.0000 0.0000 0.0000 0.0000 41.2450
#
#
#
# Elastic Compliance Matrix: (Units=1/GPa)
#
#
# Indices 1 2 3 4 5 6 
#
# 1 0.012481 -0.006209 -0.002264 0.000000 0.000000 0.000000
# 2 -0.006209 0.014464 -0.004727 0.000000 0.000000 0.000000
# 3 -0.002264 -0.004727 0.010870 0.000000 0.000000 0.000000
# 4 0.000000 0.000000 0.000000 0.003637 0.000000 0.000000
# 5 0.000000 0.000000 0.000000 0.000000 0.053328 0.000000
# 6 0.000000 0.000000 0.000000 0.000000 0.000000 0.024245
#
#
# Mechanical properties :
#
#
# Convention : Reuss Voigt Hill
#
# Bulk Modulus (GPa) = 87.59531 87.64200 87.61866
# Shear Modulus (GPa) = 33.50526 79.21771 56.36148
#
# Velocity S-wave (km/s) = 3.60112 5.53723 4.67060
# Velocity P-wave (km/s) = 7.15501 8.64886 7.93716
#
# Compressibility (1/GPa) = 0.01141614
#
# Stress axis : x y z
#
# Youngs Moduli (GPa) = 80.12046 69.13779 91.99684
#
# Poissons Ratio (x) = 0.42925 0.20828
# Poissons Ratio (y) = 0.49743 0.43486
# Poissons Ratio (z) = 0.18139 0.32681
#
# Static dielectric constant tensor:
#      x y z
#    x 1.392020 0.000000 0.000000 
#    y 0.000000 2.082950 0.000000 
#    z 0.000000 0.000000 2.042830 
# 
# From -- ./inp_files/17555.got.cif
#   From: 2010.05.17/outbox.cif.g08.bks.cpg/sg24_9_cif.got.tgz:17555.got - 2010.06.04 00:33:39.
