data_PCOD9336436
_publ_section_title
;
Structure prediction by ZEFSAII (Michael W. Deem and Ramdas Pophale) SiO2 
 PCOD9336436
Probable space group: I 21 21 21
;
_chemical_formula_sum "Si O2"
_cell_formula_units_Z 40
_cell_length_a 8.206878
_cell_length_b 15.880904
_cell_length_c 13.650610
_cell_angle_alpha 90.000000
_cell_angle_beta 90.000000
_cell_angle_gamma 90.000000
_cell_volume 1779.120062
_symmetry_space_group_name_H-M "I 21 21 21"
_symmetry_group_IT_number 24
_symmetry_cell_setting 'orthorhombic'
loop_
_space_group_symop_operation_xyz
x,y,z
-x,1/2-y,z
x,-y,1/2-z
1/2-x,y,-z
1/2+x,1/2+y,1/2+z
1/2-x,-y,1/2+z
1/2+x,1/2-y,-z
-x,1/2+y,1/2-z
loop_
_atom_site_type_symbol
_atom_site_label
_atom_site_fract_x
_atom_site_fract_y
_atom_site_fract_z
Si Si1 0.513189 0.012148 0.561263
Si Si2 0.849891 0.683585 0.099152
Si Si3 0.333788 0.720006 0.252750
Si Si4 0.101856 0.667063 0.424446
Si Si5 0.128648 0.549370 0.850730
O O1 0.403187 0.086682 0.601521
O O2 0.519813 0.025524 0.443834
O O3 0.689669 0.028430 0.610982
O O4 0.484707 0.913874 0.580593
O O5 0.743157 0.703862 0.193423
O O6 0.000000 0.750000 0.100011
O O7 0.750000 0.699130 0.000000
O O8 0.500000 0.750000 0.303935
O O9 0.197293 0.682726 0.323520
O O10 0.378104 0.647697 0.174591
O O11 0.250000 0.649915 0.500000
O O12 0.000000 0.750000 0.449483
O O13 0.094211 0.500000 0.750000
#
# Coordination Sequence:
#
# PCOD9336436 Si02
#       5
#     8   8   8   8   8
#     4  11  23  42  68 102 136 185 234 280 349 420
#     4  12  24  41  69 107 145 175 228 293 363 421
#     4  12  25  44  70 106 140 181 232 291 358 422
#     4  12  26  48  73  98 138 190 239 290 344 418
#     4  11  20  40  71  97 130 186 232 276 344 425
#
# _framework density 22.483025000000001
#
# number of rings (size 3 to 8) (size 9 to 14) (size 15 to 20)
#    0.000    0.400    6.000    4.200    0.000    0.800 
#    0.000    2.000    0.000    1.200    0.000    0.000 
#    0.000    0.000    0.000    0.000    0.000    0.000 
#
# Total GULP energy -111941.410935 kJ/mol
# GULP energy per Si atom -5597.070547 kJ/mol
# Density = 2.243185 g / cm^3
# Si number density = 22.483025 Si / 1000 Ang^3
#
#
#
# Elastic Constant Matrix: (Units=GPa)
#
#
# Indices 1 2 3 4 5 6 
#
# 1 58.2311 47.1073 19.5671 0.0000 0.0000 0.0000
# 2 47.1073 180.4138 52.2850 0.0000 0.0000 0.0000
# 3 19.5671 52.2850 114.4446 0.0000 0.0000 0.0000
# 4 0.0000 0.0000 0.0000 7.8011 0.0000 0.0000
# 5 0.0000 0.0000 0.0000 0.0000 16.8982 0.0000
# 6 0.0000 0.0000 0.0000 0.0000 0.0000 16.2998
#
#
#
# Elastic Compliance Matrix: (Units=1/GPa)
#
#
# Indices 1 2 3 4 5 6 
#
# 1 0.021940 -0.005350 -0.001307 0.000000 0.000000 0.000000
# 2 -0.005350 0.007693 -0.002600 0.000000 0.000000 0.000000
# 3 -0.001307 -0.002600 0.010149 0.000000 0.000000 0.000000
# 4 0.000000 0.000000 0.000000 0.128187 0.000000 0.000000
# 5 0.000000 0.000000 0.000000 0.000000 0.059178 0.000000
# 6 0.000000 0.000000 0.000000 0.000000 0.000000 0.061350
#
#
# Mechanical properties :
#
#
# Convention : Reuss Voigt Hill
#
# Bulk Modulus (GPa) = 47.01787 65.66761 56.34274
# Shear Modulus (GPa) = 15.91844 23.80851 19.86347
#
# Velocity S-wave (km/s) = 2.66375 3.25769 2.97558
# Velocity P-wave (km/s) = 5.51532 6.58947 6.07618
#
# Compressibility (1/GPa) = 0.02126851
#
# Stress axis : x y z
#
# Youngs Moduli (GPa) = 45.57868 129.98473 98.53035
#
# Poissons Ratio (x) = 0.69541 0.12878
# Poissons Ratio (y) = 0.24384 0.25618
# Poissons Ratio (z) = 0.05957 0.33796
#
# Static dielectric constant tensor:
#      x y z
#    x 1.891770 0.000000 0.000000 
#    y 0.000000 1.845520 0.000000 
#    z 0.000000 0.000000 1.811180 
# 
# From -- ./inp_files/24527.got.cif
#   From: 2010.05.17/outbox.cif.g08.bks.cpg/sg24_13_cif.got.tgz:24527.got - 2010.06.04 00:33:39.
