data_PCOD9336222
_publ_section_title
;
Structure prediction by ZEFSAII (Michael W. Deem and Ramdas Pophale) SiO2 
 PCOD9336222
Probable space group: I 21 21 21
;
_chemical_formula_sum "Si O2"
_cell_formula_units_Z 44
_cell_length_a 8.557488
_cell_length_b 28.221315
_cell_length_c 8.233358
_cell_angle_alpha 90.000000
_cell_angle_beta 90.000000
_cell_angle_gamma 90.000000
_cell_volume 1988.385304
_symmetry_space_group_name_H-M "I 21 21 21"
_symmetry_group_IT_number 24
_symmetry_cell_setting 'orthorhombic'
loop_
_space_group_symop_operation_xyz
x,y,z
-x,1/2-y,z
x,-y,1/2-z
1/2-x,y,-z
1/2+x,1/2+y,1/2+z
1/2-x,-y,1/2+z
1/2+x,1/2-y,-z
-x,1/2+y,1/2-z
loop_
_atom_site_type_symbol
_atom_site_label
_atom_site_fract_x
_atom_site_fract_y
_atom_site_fract_z
Si Si1 0.918283 0.962202 0.475034
Si Si2 0.421773 0.635973 0.320852
Si Si3 0.750000 0.877480 0.000000
Si Si4 0.073378 0.799163 0.424720
Si Si5 0.735018 0.363327 0.674239
Si Si6 0.479173 0.944550 0.890449
O O1 0.750000 0.985834 0.500000
O O2 0.911703 0.915300 0.586988
O O3 0.941188 0.950007 0.286601
O O4 0.036644 0.006504 0.489851
O O5 0.445529 0.677079 0.454843
O O6 0.595268 0.636135 0.248206
O O7 0.293983 0.645445 0.177668
O O8 0.595866 0.909291 0.980946
O O9 0.250000 0.792014 0.500000
O O10 0.109889 0.836620 0.283785
O O11 0.000000 0.750000 0.368511
O O12 0.750000 0.339252 0.500000
O O13 0.677494 0.416763 0.650000
#
# Coordination Sequence:
#
# PCOD9336222 Si02
#       6
#     8   8   4   8   8   8
#     4  11  22  39  64  95 137 179 235 279 324 408
#     4  11  24  43  69  97 140 181 232 287 353 414
#     4  12  22  38  66  98 132 186 228 280 340 398
#     4  10  24  47  75 100 131 175 230 290 359 440
#     4  11  23  46  67 100 140 175 224 288 349 420
#     4  11  23  39  62  95 134 183 228 278 338 388
#
# _framework density 22.128508
#
# number of rings (size 3 to 8) (size 9 to 14) (size 15 to 20)
#    0.000    1.091    6.364    0.000    0.000    2.909 
#    6.545    3.636    4.000    0.000    0.000    0.000 
#    0.000    0.000    0.000    0.000    0.000    0.000 
#
# Total GULP energy -122592.581511 kJ/mol
# GULP energy per Si atom -5572.390069 kJ/mol
# Density = 2.207814 g / cm^3
# Si number density = 22.128508 Si / 1000 Ang^3
#
#
#
# Elastic Constant Matrix: (Units=GPa)
#
#
# Indices 1 2 3 4 5 6 
#
# 1 42.1530 25.8628 22.0767 -0.0001 0.0006 0.0000
# 2 25.8628 91.1199 24.7340 -0.0014 -0.0003 0.0001
# 3 22.0767 24.7340 101.5090 -0.0078 -0.0035 0.0004
# 4 -0.0001 -0.0014 -0.0078 10.1076 -0.0014 -0.0007
# 5 0.0006 -0.0003 -0.0035 -0.0014 43.6983 -0.0004
# 6 0.0000 0.0001 0.0004 -0.0007 -0.0004 31.3475
#
#
#
# Elastic Compliance Matrix: (Units=1/GPa)
#
#
# Indices 1 2 3 4 5 6 
#
# 1 0.030844 -0.007425 -0.004899 -0.000004 -0.000001 0.000000
# 2 -0.007425 0.013539 -0.001684 0.000001 0.000000 0.000000
# 3 -0.004899 -0.001684 0.011327 0.000008 0.000001 0.000000
# 4 -0.000004 0.000001 0.000008 0.098935 0.000003 0.000002
# 5 -0.000001 0.000000 0.000001 0.000003 0.022884 0.000000
# 6 0.000000 0.000000 0.000000 0.000002 0.000000 0.031900
#
#
# Mechanical properties :
#
#
# Convention : Reuss Voigt Hill
#
# Bulk Modulus (GPa) = 36.10822 42.23657 39.17240
# Shear Modulus (GPa) = 20.26933 27.83791 24.05362
#
# Velocity S-wave (km/s) = 3.02980 3.55069 3.30054
# Velocity P-wave (km/s) = 5.34720 5.99485 5.68027
#
# Compressibility (1/GPa) = 0.02769453
#
# Stress axis : x y z
#
# Youngs Moduli (GPa) = 32.42087 73.86000 88.28316
#
# Poissons Ratio (x) = 0.54840 0.43250
# Poissons Ratio (y) = 0.24072 0.14869
# Poissons Ratio (z) = 0.15883 0.12439
#
# Static dielectric constant tensor:
#      x y z
#    x 1.693520 -0.000010 0.000000 
#    y -0.000010 1.829180 0.000000 
#    z 0.000000 0.000000 1.913370 
# 
# From -- ./inp_files/9644.got.cif
#   From: 2010.05.17/outbox.cif.g08.bks.cpg/sg24_5_cif.got.tgz:9644.got - 2010.06.04 00:33:39.
