data_PCOD9336320
_publ_section_title
;
Structure prediction by ZEFSAII (Michael W. Deem and Ramdas Pophale) SiO2 
 PCOD9336320
Probable space group: I 21 21 21
;
_chemical_formula_sum "Si O2"
_cell_formula_units_Z 28
_cell_length_a 11.627673
_cell_length_b 19.961294
_cell_length_c 5.451172
_cell_angle_alpha 90.000000
_cell_angle_beta 90.000000
_cell_angle_gamma 90.000000
_cell_volume 1265.235551
_symmetry_space_group_name_H-M "I 21 21 21"
_symmetry_group_IT_number 24
_symmetry_cell_setting 'orthorhombic'
loop_
_space_group_symop_operation_xyz
x,y,z
-x,1/2-y,z
x,-y,1/2-z
1/2-x,y,-z
1/2+x,1/2+y,1/2+z
1/2-x,-y,1/2+z
1/2+x,1/2-y,-z
-x,1/2+y,1/2-z
loop_
_atom_site_type_symbol
_atom_site_label
_atom_site_fract_x
_atom_site_fract_y
_atom_site_fract_z
Si Si1 0.984406 0.602506 0.265352
Si Si2 0.817686 0.000000 0.250000
Si Si3 0.152799 0.075493 0.742545
Si Si4 0.500000 0.750000 0.874069
Si Si5 0.750000 0.302700 0.500000
O O1 0.103258 0.564556 0.270742
O O2 0.006409 0.681477 0.273182
O O3 0.917938 0.580775 0.508842
O O4 0.925564 0.582544 0.003496
O O5 0.750000 0.005961 0.500000
O O6 0.233338 0.141751 0.718130
O O7 0.204219 0.000000 0.750000
O O8 0.629027 0.738687 0.997565
#
# Coordination Sequence:
#
# PCOD9336320 Si02
#       5
#     8   4   8   4   4
#     4  11  24  46  71 102 150 189 242 305 362 443
#     4  12  24  42  72 108 142 200 250 298 368 440
#     4  11  22  45  74 103 139 185 244 308 368 423
#     4  10  26  48  70 110 144 200 240 302 376 436
#     4  10  26  46  76 104 150 190 248 302 370 448
#
# _framework density 22.130265999999999
#
# number of rings (size 3 to 8) (size 9 to 14) (size 15 to 20)
#    0.000    1.143    2.857    1.714    2.000   13.714 
#    5.143    0.000    0.000    0.000    0.000    0.000 
#    0.000    0.000    0.000    0.000    0.000    0.000 
#
# Total GULP energy -78033.723408 kJ/mol
# GULP energy per Si atom -5573.837386 kJ/mol
# Density = 2.207990 g / cm^3
# Si number density = 22.130266 Si / 1000 Ang^3
#
#
#
# Elastic Constant Matrix: (Units=GPa)
#
#
# Indices 1 2 3 4 5 6 
#
# 1 154.7548 51.4160 80.1440 0.0000 -0.0002 -0.0004
# 2 51.4160 172.8272 36.8214 -0.0011 0.0012 0.0003
# 3 80.1440 36.8214 196.0779 -0.0073 0.0076 0.0010
# 4 0.0000 -0.0011 -0.0073 24.1005 0.0021 0.0010
# 5 -0.0002 0.0012 0.0076 0.0021 41.4447 -0.0012
# 6 -0.0004 0.0003 0.0010 0.0010 -0.0012 58.7467
#
#
#
# Elastic Compliance Matrix: (Units=1/GPa)
#
#
# Indices 1 2 3 4 5 6 
#
# 1 0.008770 -0.001922 -0.003224 -0.000001 0.000001 0.000000
# 2 -0.001922 0.006449 -0.000425 0.000000 0.000000 0.000000
# 3 -0.003224 -0.000425 0.006497 0.000002 -0.000001 0.000000
# 4 -0.000001 0.000000 0.000002 0.041493 -0.000002 -0.000001
# 5 0.000001 0.000000 -0.000001 -0.000002 0.024129 0.000000
# 6 0.000000 0.000000 0.000000 -0.000001 0.000000 0.017022
#
#
# Mechanical properties :
#
#
# Convention : Reuss Voigt Hill
#
# Bulk Modulus (GPa) = 94.57403 95.60252 95.08828
# Shear Modulus (GPa) = 42.00746 48.54361 45.27553
#
# Velocity S-wave (km/s) = 4.36155 4.68860 4.52803
# Velocity P-wave (km/s) = 8.25785 8.52082 8.39036
#
# Compressibility (1/GPa) = 0.01057373
#
# Stress axis : x y z
#
# Youngs Moduli (GPa) = 114.02619 155.07233 153.90585
#
# Poissons Ratio (x) = 0.29809 0.49613
# Poissons Ratio (y) = 0.21919 0.06546
# Poissons Ratio (z) = 0.36757 0.06595
#
# Static dielectric constant tensor:
#      x y z
#    x 1.939430 0.000000 0.000000 
#    y 0.000000 2.011520 -0.000010 
#    z 0.000000 -0.000010 1.795210 
# 
# From -- ./inp_files/1919.got.cif
#   From: 2010.05.17/outbox.cif.g08.bks.cpg/sg24_1_cif.got.tgz:1919.got - 2010.06.04 00:33:39.
