data_PCOD9336168
_publ_section_title
;
Structure prediction by ZEFSAII (Michael W. Deem and Ramdas Pophale) SiO2 
 PCOD9336168
Probable space group: I 21 21 21
;
_chemical_formula_sum "Si O2"
_cell_formula_units_Z 40
_cell_length_a 17.049518
_cell_length_b 19.802413
_cell_length_c 4.965631
_cell_angle_alpha 90.000000
_cell_angle_beta 90.000000
_cell_angle_gamma 90.000000
_cell_volume 1676.504268
_symmetry_space_group_name_H-M "I 21 21 21"
_symmetry_group_IT_number 24
_symmetry_cell_setting 'orthorhombic'
loop_
_space_group_symop_operation_xyz
x,y,z
-x,1/2-y,z
x,-y,1/2-z
1/2-x,y,-z
1/2+x,1/2+y,1/2+z
1/2-x,-y,1/2+z
1/2+x,1/2-y,-z
-x,1/2+y,1/2-z
loop_
_atom_site_type_symbol
_atom_site_label
_atom_site_fract_x
_atom_site_fract_y
_atom_site_fract_z
Si Si1 0.805080 0.000000 0.250000
Si Si2 0.500000 0.750000 0.021194
Si Si3 0.939025 0.423989 0.260801
Si Si4 0.604888 0.643741 0.271316
Si Si5 0.750000 0.296428 0.500000
Si Si6 0.099756 0.631940 0.300602
Si Si7 0.750000 0.198235 0.000000
O O1 0.750000 0.981748 0.500000
O O2 0.853223 0.068254 0.335288
O O3 0.444884 0.696221 0.851349
O O4 0.557926 0.711934 0.222159
O O5 0.913666 0.500000 0.250000
O O6 0.941567 0.406820 0.574397
O O7 0.021901 0.408969 0.114080
O O8 0.884715 0.376693 0.077675
O O9 0.685326 0.655288 0.122061
O O10 0.734094 0.244837 0.743180
O O11 0.166250 0.658516 0.508973
#
# Coordination Sequence:
#
# PCOD9336168 Si02
#       7
#     4   4   8   8   4   8   4
#     4  12  28  46  72 106 156 204 248 314 392 472
#     4  10  24  44  72 108 146 202 252 320 370 454
#     4  11  25  46  71 103 142 189 240 309 370 448
#     4  11  25  43  72 100 144 183 246 298 378 437
#     4  12  26  46  67 109 140 190 238 310 370 452
#     4  11  25  47  70 109 149 200 255 309 380 466
#     4  12  26  42  71 101 150 190 242 302 376 444
#
# _framework density 23.859171
#
# number of rings (size 3 to 8) (size 9 to 14) (size 15 to 20)
#    0.000    0.800    4.000    1.800    7.000    4.000 
#    0.000    2.000    0.000    0.000    0.000    0.000 
#    0.000    0.000    0.000    0.000    0.000    0.000 
#
# Total GULP energy -111406.033329 kJ/mol
# GULP energy per Si atom -5570.301666 kJ/mol
# Density = 2.380487 g / cm^3
# Si number density = 23.859171 Si / 1000 Ang^3
#
#
#
# Elastic Constant Matrix: (Units=GPa)
#
#
# Indices 1 2 3 4 5 6 
#
# 1 74.4709 14.7876 1.4426 0.0000 0.0000 0.0000
# 2 14.7876 86.9717 4.0075 0.0000 0.0000 0.0000
# 3 1.4426 4.0075 67.8473 0.0000 0.0000 0.0000
# 4 0.0000 0.0000 0.0000 52.1983 0.0000 0.0000
# 5 0.0000 0.0000 0.0000 0.0000 18.9928 0.0000
# 6 0.0000 0.0000 0.0000 0.0000 0.0000 25.4573
#
#
#
# Elastic Compliance Matrix: (Units=1/GPa)
#
#
# Indices 1 2 3 4 5 6 
#
# 1 0.013899 -0.002356 -0.000156 0.000000 0.000000 0.000000
# 2 -0.002356 0.011929 -0.000654 0.000000 0.000000 0.000000
# 3 -0.000156 -0.000654 0.014781 0.000000 0.000000 0.000000
# 4 0.000000 0.000000 0.000000 0.019158 0.000000 0.000000
# 5 0.000000 0.000000 0.000000 0.000000 0.052651 0.000000
# 6 0.000000 0.000000 0.000000 0.000000 0.000000 0.039281
#
#
# Mechanical properties :
#
#
# Convention : Reuss Voigt Hill
#
# Bulk Modulus (GPa) = 29.17588 29.97394 29.57491
# Shear Modulus (GPa) = 29.50585 33.26649 31.38617
#
# Velocity S-wave (km/s) = 3.52044 3.73806 3.63088
# Velocity P-wave (km/s) = 5.36466 5.58757 5.47725
#
# Compressibility (1/GPa) = 0.03427489
#
# Stress axis : x y z
#
# Youngs Moduli (GPa) = 71.94802 83.83122 67.65459
#
# Poissons Ratio (x) = 0.19751 0.01058
# Poissons Ratio (y) = 0.16951 0.04428
# Poissons Ratio (z) = 0.01125 0.05487
#
# Static dielectric constant tensor:
#      x y z
#    x 2.007820 0.000000 0.000000 
#    y 0.000000 2.039010 0.000000 
#    z 0.000000 0.000000 1.911720 
# 
# From -- ./inp_files/4717.got.cif
#   From: 2010.05.17/outbox.cif.g08.bks.cpg/sg24_3_cif.got.tgz:4717.got - 2010.06.04 00:33:39.
