data_PCOD9336944
_publ_section_title
;
Structure prediction by ZEFSAII (Michael W. Deem and Ramdas Pophale) SiO2 
 PCOD9336944
Probable space group: I 21 21 21
;
_chemical_formula_sum "Si O2"
_cell_formula_units_Z 24
_cell_length_a 9.491480
_cell_length_b 5.346053
_cell_length_c 20.207584
_cell_angle_alpha 90.000000
_cell_angle_beta 90.000000
_cell_angle_gamma 90.000000
_cell_volume 1025.372321
_symmetry_space_group_name_H-M "I 21 21 21"
_symmetry_group_IT_number 24
_symmetry_cell_setting 'orthorhombic'
loop_
_space_group_symop_operation_xyz
x,y,z
-x,1/2-y,z
x,-y,1/2-z
1/2-x,y,-z
1/2+x,1/2+y,1/2+z
1/2-x,-y,1/2+z
1/2+x,1/2-y,-z
-x,1/2+y,1/2-z
loop_
_atom_site_type_symbol
_atom_site_label
_atom_site_fract_x
_atom_site_fract_y
_atom_site_fract_z
Si Si1 0.500000 0.250000 0.056100
Si Si2 0.224900 0.603724 0.873455
Si Si3 0.500000 0.250000 0.289574
Si Si4 0.750000 0.413784 0.500000
Si Si5 0.589782 0.000000 0.750000
O O1 0.395733 0.419079 0.099734
O O2 0.388795 0.079479 0.015366
O O3 0.324311 0.480212 0.819046
O O4 0.137289 0.810653 0.832660
O O5 0.287140 0.737211 0.937630
O O6 0.466085 0.500000 0.250000
O O7 0.500000 0.750000 0.756746
#
# Coordination Sequence:
#
# PCOD9336944 Si02
#       5
#     4   8   4   4   4
#     4  12  27  52  84 118 166 223 274 350 417 508
#     4  12  28  51  82 118 164 212 282 339 426 490
#     4  12  25  46  88 118 152 207 272 340 403 494
#     4  12  28  50  80 128 160 224 276 350 414 504
#     4  12  34  54  82 124 170 224 274 352 422 506
#
# _framework density 23.406131999999999
#
# number of rings (size 3 to 8) (size 9 to 14) (size 15 to 20)
#    0.000    0.000    5.000    2.000    7.000    5.333 
#    3.000    0.000    0.000    0.000    0.000    0.000 
#    0.000    0.000    0.000    0.000    0.000    0.000 
#
# Total GULP energy -67148.144480 kJ/mol
# GULP energy per Si atom -5595.678707 kJ/mol
# Density = 2.335286 g / cm^3
# Si number density = 23.406132 Si / 1000 Ang^3
#
#
#
# Elastic Constant Matrix: (Units=GPa)
#
#
# Indices 1 2 3 4 5 6 
#
# 1 133.6114 71.1951 75.8409 0.0000 0.0000 0.0000
# 2 71.1951 120.1017 62.7639 0.0000 0.0000 0.0000
# 3 75.8409 62.7639 168.0220 0.0000 0.0000 0.0000
# 4 0.0000 0.0000 0.0000 19.6611 0.0000 0.0000
# 5 0.0000 0.0000 0.0000 0.0000 64.7386 0.0000
# 6 0.0000 0.0000 0.0000 0.0000 0.0000 44.9643
#
#
#
# Elastic Compliance Matrix: (Units=1/GPa)
#
#
# Indices 1 2 3 4 5 6 
#
# 1 0.012443 -0.005518 -0.003555 0.000000 0.000000 0.000000
# 2 -0.005518 0.012793 -0.002288 0.000000 0.000000 0.000000
# 3 -0.003555 -0.002288 0.008411 0.000000 0.000000 0.000000
# 4 0.000000 0.000000 0.000000 0.050862 0.000000 0.000000
# 5 0.000000 0.000000 0.000000 0.000000 0.015447 0.000000
# 6 0.000000 0.000000 0.000000 0.000000 0.000000 0.022240
#
#
# Mechanical properties :
#
#
# Convention : Reuss Voigt Hill
#
# Bulk Modulus (GPa) = 91.53909 93.48166 92.51038
# Shear Modulus (GPa) = 33.65667 40.00180 36.82924
#
# Velocity S-wave (km/s) = 3.79614 4.13853 3.97102
# Velocity P-wave (km/s) = 7.64252 7.92857 7.78686
#
# Compressibility (1/GPa) = 0.01092429
#
# Stress axis : x y z
#
# Youngs Moduli (GPa) = 80.36901 78.16748 118.89244
#
# Poissons Ratio (x) = 0.43133 0.42267
# Poissons Ratio (y) = 0.44348 0.27204
# Poissons Ratio (z) = 0.28572 0.17885
#
# Static dielectric constant tensor:
#      x y z
#    x 1.888610 0.000000 0.000000 
#    y 0.000000 1.919270 0.000000 
#    z 0.000000 0.000000 1.955050 
# 
# From -- ./inp_files/887.got.cif
#   From: 2010.05.17/outbox.cif.g08.bks.cpg/sg24_1_cif.got.tgz:887.got - 2010.06.04 00:33:39.
