data_PCOD9336625
_publ_section_title
;
Structure prediction by ZEFSAII (Michael W. Deem and Ramdas Pophale) SiO2 
 PCOD9336625
Probable space group: I 21 21 21
;
_chemical_formula_sum "Si O2"
_cell_formula_units_Z 36
_cell_length_a 12.960501
_cell_length_b 16.116153
_cell_length_c 8.208693
_cell_angle_alpha 90.000000
_cell_angle_beta 90.000000
_cell_angle_gamma 90.000000
_cell_volume 1714.577757
_symmetry_space_group_name_H-M "I 21 21 21"
_symmetry_group_IT_number 24
_symmetry_cell_setting 'orthorhombic'
loop_
_space_group_symop_operation_xyz
x,y,z
-x,1/2-y,z
x,-y,1/2-z
1/2-x,y,-z
1/2+x,1/2+y,1/2+z
1/2-x,-y,1/2+z
1/2+x,1/2-y,-z
-x,1/2+y,1/2-z
loop_
_atom_site_type_symbol
_atom_site_label
_atom_site_fract_x
_atom_site_fract_y
_atom_site_fract_z
Si Si1 0.000000 0.250000 0.179919
Si Si2 0.542231 0.967285 0.929016
Si Si3 0.631925 0.355574 0.554885
Si Si4 0.137193 0.694478 0.917786
Si Si5 0.868524 0.128829 0.945795
O O1 0.085290 0.196232 0.286341
O O2 0.065495 0.312917 0.067485
O O3 0.422304 0.944475 0.939071
O O4 0.570342 0.000000 0.750000
O O5 0.589846 0.877897 0.970458
O O6 0.580898 0.037885 0.049038
O O7 0.750000 0.369990 0.500000
O O8 0.595320 0.288684 0.420157
O O9 0.134554 0.663657 0.735243
O O10 0.250000 0.703496 0.000000
O O11 0.750000 0.122278 0.000000
#
# Coordination Sequence:
#
# PCOD9336625 Si02
#       5
#     4   8   8   8   8
#     4  12  24  48  76 106 144 184 238 310 346 426
#     4  12  22  43  69 103 146 184 234 294 354 420
#     4  11  23  45  75 101 140 198 237 284 362 424
#     4  11  23  43  73 103 139 187 236 293 362 422
#     4  12  26  44  72 110 142 182 242 299 358 423
#
# _framework density 20.996424000000001
#
# number of rings (size 3 to 8) (size 9 to 14) (size 15 to 20)
#    0.000    0.444    4.444    5.333    3.111    0.000 
#    0.000    3.333    0.000    0.000    0.000    0.000 
#    0.000    0.000    0.000    0.000    0.000    0.000 
#
# Total GULP energy -100324.733929 kJ/mol
# GULP energy per Si atom -5573.596329 kJ/mol
# Density = 2.094864 g / cm^3
# Si number density = 20.996424 Si / 1000 Ang^3
#
#
#
# Elastic Constant Matrix: (Units=GPa)
#
#
# Indices 1 2 3 4 5 6 
#
# 1 96.3640 26.8811 23.8783 0.0000 0.0000 0.0000
# 2 26.8811 105.8395 33.6568 0.0000 0.0000 0.0000
# 3 23.8783 33.6568 122.0390 0.0000 0.0000 0.0000
# 4 0.0000 0.0000 0.0000 16.3544 0.0000 0.0000
# 5 0.0000 0.0000 0.0000 0.0000 38.3664 0.0000
# 6 0.0000 0.0000 0.0000 0.0000 0.0000 34.2351
#
#
#
# Elastic Compliance Matrix: (Units=1/GPa)
#
#
# Indices 1 2 3 4 5 6 
#
# 1 0.011438 -0.002404 -0.001575 0.000000 0.000000 0.000000
# 2 -0.002404 0.010862 -0.002525 0.000000 0.000000 0.000000
# 3 -0.001575 -0.002525 0.009199 0.000000 0.000000 0.000000
# 4 0.000000 0.000000 0.000000 0.061146 0.000000 0.000000
# 5 0.000000 0.000000 0.000000 0.000000 0.026064 0.000000
# 6 0.000000 0.000000 0.000000 0.000000 0.000000 0.029210
#
#
# Mechanical properties :
#
#
# Convention : Reuss Voigt Hill
#
# Bulk Modulus (GPa) = 54.08304 54.78610 54.43457
# Shear Modulus (GPa) = 29.92385 33.77960 31.85173
#
# Velocity S-wave (km/s) = 3.77926 4.01537 3.89910
# Velocity P-wave (km/s) = 6.69760 6.90270 6.80093
#
# Compressibility (1/GPa) = 0.01849009
#
# Stress axis : x y z
#
# Youngs Moduli (GPa) = 87.42592 92.06496 108.71138
#
# Poissons Ratio (x) = 0.22135 0.17122
# Poissons Ratio (y) = 0.21019 0.27451
# Poissons Ratio (z) = 0.13769 0.23248
#
# Static dielectric constant tensor:
#      x y z
#    x 2.040080 0.000000 0.000000 
#    y 0.000000 1.749400 0.000000 
#    z 0.000000 0.000000 1.755760 
# 
# From -- ./inp_files/12196.got.cif
#   From: 2010.05.17/outbox.cif.g08.bks.cpg/sg24_7_cif.got.tgz:12196.got - 2010.06.04 00:33:39.
