data_PCOD9336614
_publ_section_title
;
Structure prediction by ZEFSAII (Michael W. Deem and Ramdas Pophale) SiO2 
 PCOD9336614
Probable space group: I 21 21 21
;
_chemical_formula_sum "Si O2"
_cell_formula_units_Z 52
_cell_length_a 13.744324
_cell_length_b 8.415189
_cell_length_c 18.409503
_cell_angle_alpha 90.000000
_cell_angle_beta 90.000000
_cell_angle_gamma 90.000000
_cell_volume 2129.263075
_symmetry_space_group_name_H-M "I 21 21 21"
_symmetry_group_IT_number 24
_symmetry_cell_setting 'orthorhombic'
loop_
_space_group_symop_operation_xyz
x,y,z
-x,1/2-y,z
x,-y,1/2-z
1/2-x,y,-z
1/2+x,1/2+y,1/2+z
1/2-x,-y,1/2+z
1/2+x,1/2-y,-z
-x,1/2+y,1/2-z
loop_
_atom_site_type_symbol
_atom_site_label
_atom_site_fract_x
_atom_site_fract_y
_atom_site_fract_z
Si Si1 0.371645 0.121668 0.817582
Si Si2 0.183364 0.765909 0.589820
Si Si3 0.056809 0.917510 0.471456
Si Si4 0.792256 0.114493 0.575130
Si Si5 0.097512 0.181944 0.761713
Si Si6 0.000000 0.250000 0.547748
Si Si7 0.294754 0.664137 0.782664
O O1 0.276862 0.162153 0.867722
O O2 0.440063 0.068170 0.883241
O O3 0.382705 0.281383 0.768755
O O4 0.362290 0.000000 0.750000
O O5 0.150344 0.870317 0.521227
O O6 0.195481 0.578086 0.572913
O O7 0.103840 0.774175 0.653604
O O8 0.000000 0.750000 0.482786
O O9 0.019461 0.085740 0.502799
O O10 0.750000 0.173593 0.500000
O O11 0.704547 0.147871 0.631874
O O12 0.896799 0.201163 0.586737
O O13 0.200847 0.226555 0.728557
O O14 0.000000 0.250000 0.728715
O O15 0.086947 0.000000 0.750000
O O16 0.259508 0.500000 0.750000
#
# Coordination Sequence:
#
# PCOD9336614 Si02
#       7
#     8   8   8   8   8   4   8
#     4  11  26  48  74 111 149 209 261 315 400 469
#     4  11  23  46  76 104 151 206 253 321 396 465
#     4  12  27  52  75 110 156 206 267 328 396 462
#     4  12  27  47  75 116 153 201 262 326 394 475
#     4  11  24  37  61 100 149 194 237 298 382 469
#     4  12  32  46  82 120 156 206 272 328 392 478
#     4  11  23  42  69 103 143 194 248 305 382 467
#
# _framework density 24.421593000000001
#
# number of rings (size 3 to 8) (size 9 to 14) (size 15 to 20)
#    0.000    0.615    4.615    4.154    7.538    0.000 
#    1.385    0.000    0.000    0.000    0.000    0.000 
#    0.000    0.000    0.000    0.000    0.000    0.000 
#
# Total GULP energy -144882.242389 kJ/mol
# GULP energy per Si atom -5572.393938 kJ/mol
# Density = 2.436601 g / cm^3
# Si number density = 24.421593 Si / 1000 Ang^3
#
#
#
# Elastic Constant Matrix: (Units=GPa)
#
#
# Indices 1 2 3 4 5 6 
#
# 1 41.6451 11.9149 8.6622 0.0000 0.0000 0.0000
# 2 11.9149 128.8464 3.9409 0.0000 0.0000 0.0000
# 3 8.6622 3.9409 168.0001 0.0000 0.0000 0.0000
# 4 0.0000 0.0000 0.0000 51.3831 0.0000 0.0000
# 5 0.0000 0.0000 0.0000 0.0000 39.0082 0.0000
# 6 0.0000 0.0000 0.0000 0.0000 0.0000 -38.0170
#
#
#
# Elastic Compliance Matrix: (Units=1/GPa)
#
#
# Indices 1 2 3 4 5 6 
#
# 1 0.024917 -0.002266 -0.001232 0.000000 0.000000 0.000000
# 2 -0.002266 0.007973 -0.000070 0.000000 0.000000 0.000000
# 3 -0.001232 -0.000070 0.006018 0.000000 0.000000 0.000000
# 4 0.000000 0.000000 0.000000 0.019462 0.000000 0.000000
# 5 0.000000 0.000000 0.000000 0.000000 0.025636 0.000000
# 6 0.000000 0.000000 0.000000 0.000000 0.000000 -0.026304
#
#
# Mechanical properties :
#
#
# Convention : Reuss Voigt Hill
#
# Bulk Modulus (GPa) = 31.47524 43.05862 37.26693
# Shear Modulus (GPa) = 66.28882 31.40645 48.84763
#
# Velocity S-wave (km/s) = 5.21560 3.58999 4.47719
# Velocity P-wave (km/s) = 7.01329 5.90370 6.48228
#
# Compressibility (1/GPa) = 0.03177101
#
# Stress axis : x y z
#
# Youngs Moduli (GPa) = 40.13318 125.42459 166.18127
#
# Poissons Ratio (x) = 0.28427 0.20466
# Poissons Ratio (y) = 0.09096 0.01166
# Poissons Ratio (z) = 0.04943 0.00880
#
# Static dielectric constant tensor:
#      x y z
#    x 1.931470 0.000000 0.000000 
#    y 0.000000 1.817000 0.000000 
#    z 0.000000 0.000000 2.076030 
# 
# From -- ./inp_files/31129.got.cif
#   From: 2010.05.17/outbox.cif.g08.bks.cpg/sg24_16_cif.got.tgz:31129.got - 2010.06.04 00:33:39.
