data_PCOD9336592
_publ_section_title
;
Structure prediction by ZEFSAII (Michael W. Deem and Ramdas Pophale) SiO2 
 PCOD9336592
Probable space group: I 21 21 21
;
_chemical_formula_sum "Si O2"
_cell_formula_units_Z 64
_cell_length_a 8.415258
_cell_length_b 19.836740
_cell_length_c 17.351457
_cell_angle_alpha 90.000000
_cell_angle_beta 90.000000
_cell_angle_gamma 90.000000
_cell_volume 2896.501013
_symmetry_space_group_name_H-M "I 21 21 21"
_symmetry_group_IT_number 24
_symmetry_cell_setting 'orthorhombic'
loop_
_space_group_symop_operation_xyz
x,y,z
-x,1/2-y,z
x,-y,1/2-z
1/2-x,y,-z
1/2+x,1/2+y,1/2+z
1/2-x,-y,1/2+z
1/2+x,1/2-y,-z
-x,1/2+y,1/2-z
loop_
_atom_site_type_symbol
_atom_site_label
_atom_site_fract_x
_atom_site_fract_y
_atom_site_fract_z
Si Si1 0.365175 0.195683 0.069640
Si Si2 0.660978 0.488407 0.421036
Si Si3 0.676524 0.398626 0.819146
Si Si4 0.176512 0.136380 0.360708
Si Si5 0.108775 0.421178 0.939733
Si Si6 0.183534 0.729135 0.911877
Si Si7 0.335368 0.459087 0.829308
Si Si8 0.330131 0.597329 0.917227
O O1 0.500000 0.250000 0.091766
O O2 0.254283 0.165257 0.137266
O O3 0.471638 0.132193 0.042158
O O4 0.250000 0.219060 0.000000
O O5 0.750000 0.505907 0.500000
O O6 0.728002 0.536242 0.352491
O O7 0.694796 0.411262 0.402314
O O8 0.480553 0.507593 0.436040
O O9 0.675957 0.388338 0.727536
O O10 0.493454 0.415260 0.837418
O O11 0.222213 0.213790 0.365923
O O12 0.010021 0.124079 0.404836
O O13 0.186367 0.413940 0.854926
O O14 0.250000 0.414707 0.000000
O O15 0.221740 0.655281 0.877222
O O16 0.000000 0.750000 0.912364
O O17 0.250000 0.731534 0.000000
O O18 0.324402 0.500000 0.750000
O O19 0.341297 0.521698 0.887442
O O20 0.250000 0.595346 0.000000
#
# Coordination Sequence:
#
# PCOD9336592 Si02
#       8
#     8   8   8   8   8   8   8   8
#     4  11  25  48  76 104 140 194 252 311 381 455
#     4  11  23  39  68 100 137 188 242 296 368 434
#     4  11  23  46  69 104 147 188 240 312 373 457
#     4  12  24  44  72 100 147 191 242 302 381 442
#     4  11  24  40  67 102 140 179 236 303 365 439
#     4  11  25  46  69  99 140 185 244 301 356 442
#     4  12  23  42  68 105 144 188 238 302 372 448
#     4  11  24  43  73 100 141 190 247 297 365 445
#
# _framework density 22.095624999999998
#
# number of rings (size 3 to 8) (size 9 to 14) (size 15 to 20)
#    0.000    0.750    2.500    6.375    3.500    2.500 
#    2.250    1.250    0.000    0.000    0.000    0.000 
#    0.000    0.000    0.000    0.000    0.000    0.000 
#
# Total GULP energy -178807.938316 kJ/mol
# GULP energy per Si atom -5587.748072 kJ/mol
# Density = 2.204533 g / cm^3
# Si number density = 22.095625 Si / 1000 Ang^3
#
#
#
# Elastic Constant Matrix: (Units=GPa)
#
#
# Indices 1 2 3 4 5 6 
#
# 1 105.8540 5.7210 42.4072 0.0000 0.0000 0.0000
# 2 5.7210 76.0288 26.7020 0.0000 0.0000 0.0000
# 3 42.4072 26.7020 108.1627 0.0000 0.0000 0.0000
# 4 0.0000 0.0000 0.0000 3.5200 0.0000 0.0000
# 5 0.0000 0.0000 0.0000 0.0000 22.1395 0.0000
# 6 0.0000 0.0000 0.0000 0.0000 0.0000 52.3846
#
#
#
# Elastic Compliance Matrix: (Units=1/GPa)
#
#
# Indices 1 2 3 4 5 6 
#
# 1 0.011248 0.000769 -0.004600 0.000000 0.000000 0.000000
# 2 0.000769 0.014454 -0.003870 0.000000 0.000000 0.000000
# 3 -0.004600 -0.003870 0.012004 0.000000 0.000000 0.000000
# 4 0.000000 0.000000 0.000000 0.284087 0.000000 0.000000
# 5 0.000000 0.000000 0.000000 0.000000 0.045168 0.000000
# 6 0.000000 0.000000 0.000000 0.000000 0.000000 0.019090
#
#
# Mechanical properties :
#
#
# Convention : Reuss Voigt Hill
#
# Bulk Modulus (GPa) = 44.83247 48.85620 46.84433
# Shear Modulus (GPa) = 12.22829 29.95652 21.09240
#
# Velocity S-wave (km/s) = 2.35505 3.68607 3.09301
# Velocity P-wave (km/s) = 5.26586 6.34629 5.83115
#
# Compressibility (1/GPa) = 0.02230526
#
# Stress axis : x y z
#
# Youngs Moduli (GPa) = 88.90278 69.18422 83.30433
#
# Poissons Ratio (x) = -0.05321 0.38320
# Poissons Ratio (y) = -0.06838 0.32237
# Poissons Ratio (z) = 0.40895 0.26773
#
# Static dielectric constant tensor:
#      x y z
#    x 1.842210 0.000000 0.000000 
#    y 0.000000 1.846040 0.000000 
#    z 0.000000 0.000000 1.884030 
# 
# From -- ./inp_files/29841.got.cif
#   From: 2010.05.17/outbox.cif.g08.bks.cpg/sg24_15_cif.got.tgz:29841.got - 2010.06.04 00:33:39.
