data_PCOD9336884
_publ_section_title
;
Structure prediction by ZEFSAII (Michael W. Deem and Ramdas Pophale) SiO2 
 PCOD9336884
Probable space group: I 21 21 21
;
_chemical_formula_sum "Si O2"
_cell_formula_units_Z 24
_cell_length_a 6.946875
_cell_length_b 8.070909
_cell_length_c 20.276811
_cell_angle_alpha 90.000000
_cell_angle_beta 90.000000
_cell_angle_gamma 90.000000
_cell_volume 1136.872046
_symmetry_space_group_name_H-M "I 21 21 21"
_symmetry_group_IT_number 24
_symmetry_cell_setting 'orthorhombic'
loop_
_space_group_symop_operation_xyz
x,y,z
-x,1/2-y,z
x,-y,1/2-z
1/2-x,y,-z
1/2+x,1/2+y,1/2+z
1/2-x,-y,1/2+z
1/2+x,1/2-y,-z
-x,1/2+y,1/2-z
loop_
_atom_site_type_symbol
_atom_site_label
_atom_site_fract_x
_atom_site_fract_y
_atom_site_fract_z
Si Si1 0.500000 0.750000 0.610495
Si Si2 0.750000 0.648747 0.500000
Si Si3 0.097208 0.573341 0.941272
Si Si4 0.106581 0.431542 0.322267
O O1 0.677782 0.758573 0.560534
O O2 0.527788 0.580973 0.650310
O O3 0.574734 0.544977 0.468203
O O4 0.211901 0.558564 0.871790
O O5 0.000000 0.750000 0.935444
O O6 0.250000 0.584650 0.000000
O O7 0.160205 0.500000 0.250000
O O8 0.000000 0.250000 0.322381
#
# Coordination Sequence:
#
# PCOD9336884 Si02
#       4
#     4   4   8   8
#     4  12  24  46  76 106 148 188 244 310 370 434
#     4  12  24  44  76 110 150 186 250 316 368 446
#     4  12  23  45  76 112 149 195 248 312 372 440
#     4  12  26  49  74 107 152 201 248 309 374 446
#
# _framework density 21.110554
#
# number of rings (size 3 to 8) (size 9 to 14) (size 15 to 20)
#    0.000    0.000    6.667    5.000    0.000    0.000 
#    6.000    0.000    0.000    0.000    0.000    0.000 
#    0.000    0.000    0.000    0.000    0.000    0.000 
#
# Total GULP energy -66914.514451 kJ/mol
# GULP energy per Si atom -5576.209538 kJ/mol
# Density = 2.106251 g / cm^3
# Si number density = 21.110554 Si / 1000 Ang^3
#
#
#
# Elastic Constant Matrix: (Units=GPa)
#
#
# Indices 1 2 3 4 5 6 
#
# 1 108.3219 43.7488 75.0305 0.0000 0.0000 0.0000
# 2 43.7488 172.6097 78.8802 0.0000 0.0000 0.0000
# 3 75.0305 78.8802 201.7578 0.0000 0.0000 0.0000
# 4 0.0000 0.0000 0.0000 35.8226 0.0000 0.0000
# 5 0.0000 0.0000 0.0000 0.0000 29.5819 0.0000
# 6 0.0000 0.0000 0.0000 0.0000 0.0000 41.4355
#
#
#
# Elastic Compliance Matrix: (Units=1/GPa)
#
#
# Indices 1 2 3 4 5 6 
#
# 1 0.012666 -0.001288 -0.004207 0.000000 0.000000 0.000000
# 2 -0.001288 0.007185 -0.002330 0.000000 0.000000 0.000000
# 3 -0.004207 -0.002330 0.007432 0.000000 0.000000 0.000000
# 4 0.000000 0.000000 0.000000 0.027915 0.000000 0.000000
# 5 0.000000 0.000000 0.000000 0.000000 0.033804 0.000000
# 6 0.000000 0.000000 0.000000 0.000000 0.000000 0.024134
#
#
# Mechanical properties :
#
#
# Convention : Reuss Voigt Hill
#
# Bulk Modulus (GPa) = 85.96172 97.55649 91.75911
# Shear Modulus (GPa) = 37.68965 40.36998 39.02982
#
# Velocity S-wave (km/s) = 4.22992 4.37774 4.30447
# Velocity P-wave (km/s) = 8.04142 8.47734 8.26226
#
# Compressibility (1/GPa) = 0.01163308
#
# Stress axis : x y z
#
# Youngs Moduli (GPa) = 78.95367 139.18664 134.55712
#
# Poissons Ratio (x) = 0.17924 0.56604
# Poissons Ratio (y) = 0.10168 0.31352
# Poissons Ratio (z) = 0.33213 0.32431
#
# Static dielectric constant tensor:
#      x y z
#    x 1.835000 0.000000 0.000000 
#    y 0.000000 1.844040 0.000000 
#    z 0.000000 0.000000 1.782710 
# 
# From -- ./inp_files/29121.got.cif
#   From: 2010.05.17/outbox.cif.g08.bks.cpg/sg24_15_cif.got.tgz:29121.got - 2010.06.04 00:33:39.
