data_PCOD9336880
_publ_section_title
;
Structure prediction by ZEFSAII (Michael W. Deem and Ramdas Pophale) SiO2 
 PCOD9336880
Probable space group: I 21 21 21
;
_chemical_formula_sum "Si O2"
_cell_formula_units_Z 60
_cell_length_a 27.778803
_cell_length_b 7.216686
_cell_length_c 14.908808
_cell_angle_alpha 90.000000
_cell_angle_beta 90.000000
_cell_angle_gamma 90.000000
_cell_volume 2988.782138
_symmetry_space_group_name_H-M "I 21 21 21"
_symmetry_group_IT_number 24
_symmetry_cell_setting 'orthorhombic'
loop_
_space_group_symop_operation_xyz
x,y,z
-x,1/2-y,z
x,-y,1/2-z
1/2-x,y,-z
1/2+x,1/2+y,1/2+z
1/2-x,-y,1/2+z
1/2+x,1/2-y,-z
-x,1/2+y,1/2-z
loop_
_atom_site_type_symbol
_atom_site_label
_atom_site_fract_x
_atom_site_fract_y
_atom_site_fract_z
Si Si1 0.360931 0.007600 0.143423
Si Si2 0.048324 0.819328 0.401860
Si Si3 0.110670 0.000000 0.250000
Si Si4 0.954572 0.635640 0.962894
Si Si5 0.103212 0.454205 0.467726
Si Si6 0.651702 0.057776 0.146295
Si Si7 0.176274 0.330649 0.318245
Si Si8 0.726576 0.766593 0.097850
O O1 0.350191 0.223897 0.127028
O O2 0.365209 0.000000 0.250000
O O3 0.316115 0.882015 0.110891
O O4 0.410341 0.931834 0.099782
O O5 0.079215 0.939477 0.334263
O O6 0.079710 0.643744 0.433359
O O7 0.000000 0.750000 0.354864
O O8 0.031444 0.948436 0.484628
O O9 0.142690 0.825865 0.222697
O O10 0.000000 0.750000 0.922143
O O11 0.932952 0.781449 0.034842
O O12 0.150353 0.404502 0.409311
O O13 0.115372 0.474179 0.573028
O O14 0.702485 0.964216 0.121028
O O15 0.641260 0.000000 0.250000
O O16 0.180245 0.500000 0.250000
O O17 0.228397 0.243976 0.336521
O O18 0.750000 0.759032 0.000000
#
# Coordination Sequence:
#
# PCOD9336880 Si02
#       8
#     8   8   4   8   8   8   8   8
#     4  12  26  47  72 105 146 189 237 297 365 436
#     4  12  26  44  72 105 140 192 239 293 361 429
#     4  12  28  44  72 106 148 192 240 300 352 434
#     4  12  24  44  75 104 137 184 238 302 358 427
#     4  12  23  45  71 103 142 186 238 298 357 426
#     4  12  24  45  74 101 142 192 239 292 362 426
#     4  12  26  43  70 104 148 187 240 295 356 422
#     4  12  26  44  70 107 141 191 239 293 357 428
#
# _framework density 20.075066
#
# number of rings (size 3 to 8) (size 9 to 14) (size 15 to 20)
#    0.000    0.000    9.333    0.400    0.933    2.133 
#    0.000    2.667    0.000    0.000    0.000    0.000 
#    0.000    0.000    0.000    0.000    0.000    0.000 
#
# Total GULP energy -167584.581452 kJ/mol
# GULP energy per Si atom -5586.152715 kJ/mol
# Density = 2.002937 g / cm^3
# Si number density = 20.075066 Si / 1000 Ang^3
#
#
#
# Elastic Constant Matrix: (Units=GPa)
#
#
# Indices 1 2 3 4 5 6 
#
# 1 128.8514 49.3388 39.0246 0.0000 0.0000 0.0000
# 2 49.3388 129.9477 39.5776 0.0000 0.0000 0.0000
# 3 39.0246 39.5776 88.8311 0.0000 0.0000 0.0000
# 4 0.0000 0.0000 0.0000 28.6517 0.0000 0.0000
# 5 0.0000 0.0000 0.0000 0.0000 2.4914 0.0000
# 6 0.0000 0.0000 0.0000 0.0000 0.0000 20.9040
#
#
#
# Elastic Compliance Matrix: (Units=1/GPa)
#
#
# Indices 1 2 3 4 5 6 
#
# 1 0.009745 -0.002772 -0.003046 0.000000 0.000000 0.000000
# 2 -0.002772 0.009692 -0.003100 0.000000 0.000000 0.000000
# 3 -0.003046 -0.003100 0.013977 0.000000 0.000000 0.000000
# 4 0.000000 0.000000 0.000000 0.034902 0.000000 0.000000
# 5 0.000000 0.000000 0.000000 0.000000 0.401384 0.000000
# 6 0.000000 0.000000 0.000000 0.000000 0.000000 0.047838
#
#
# Mechanical properties :
#
#
# Convention : Reuss Voigt Hill
#
# Bulk Modulus (GPa) = 64.19799 67.05689 65.62744
# Shear Modulus (GPa) = 9.24955 25.05537 17.15246
#
# Velocity S-wave (km/s) = 2.14883 3.53666 2.92621
# Velocity P-wave (km/s) = 6.18102 7.08187 6.64672
#
# Compressibility (1/GPa) = 0.01557681
#
# Stress axis : x y z
#
# Youngs Moduli (GPa) = 102.61754 103.17514 71.54746
#
# Poissons Ratio (x) = 0.28603 0.21793
# Poissons Ratio (y) = 0.28449 0.22182
# Poissons Ratio (z) = 0.31256 0.31988
#
# Static dielectric constant tensor:
#      x y z
#    x 1.716910 0.000000 0.000000 
#    y 0.000000 1.739240 0.000000 
#    z 0.000000 0.000000 1.710780 
# 
# From -- ./inp_files/31679.got.cif
#   From: 2010.05.17/outbox.cif.g08.bks.cpg/sg24_16_cif.got.tgz:31679.got - 2010.06.04 00:33:39.
