data_PCOD9336770
_publ_section_title
;
Structure prediction by ZEFSAII (Michael W. Deem and Ramdas Pophale) SiO2 
 PCOD9336770
Probable space group: I 21 21 21
;
_chemical_formula_sum "Si O2"
_cell_formula_units_Z 32
_cell_length_a 6.267737
_cell_length_b 13.296520
_cell_length_c 16.697491
_cell_angle_alpha 90.000000
_cell_angle_beta 90.000000
_cell_angle_gamma 90.000000
_cell_volume 1391.553711
_symmetry_space_group_name_H-M "I 21 21 21"
_symmetry_group_IT_number 24
_symmetry_cell_setting 'orthorhombic'
loop_
_space_group_symop_operation_xyz
x,y,z
-x,1/2-y,z
x,-y,1/2-z
1/2-x,y,-z
1/2+x,1/2+y,1/2+z
1/2-x,-y,1/2+z
1/2+x,1/2-y,-z
-x,1/2+y,1/2-z
loop_
_atom_site_type_symbol
_atom_site_label
_atom_site_fract_x
_atom_site_fract_y
_atom_site_fract_z
Si Si1 0.211248 0.031476 0.877462
Si Si2 0.568771 0.863555 0.063246
Si Si3 0.899295 0.858144 0.744236
Si Si4 0.031573 0.500000 0.250000
Si Si5 0.750000 0.702692 0.500000
O O1 0.048131 0.070366 0.809507
O O2 0.391931 0.974387 0.827379
O O3 0.282018 0.130331 0.923973
O O4 0.100203 0.953374 0.936635
O O5 0.500000 0.750000 0.041800
O O6 0.615000 0.861070 0.158797
O O7 0.750000 0.891106 0.000000
O O8 0.667524 0.902717 0.723657
O O9 0.000000 0.750000 0.725990
O O10 0.500000 0.750000 0.489712
#
# Coordination Sequence:
#
# PCOD9336770 Si02
#       5
#     8   8   8   4   4
#     4  12  27  52  80 119 162 212 279 350 417 504
#     4  11  26  48  75 115 164 210 267 334 418 506
#     4  11  25  49  76 111 160 204 271 334 414 504
#     4  12  24  46  82 116 150 216 272 338 420 496
#     4  12  34  54  86 128 170 226 284 358 430 502
#
# _framework density 22.995878000000001
#
# number of rings (size 3 to 8) (size 9 to 14) (size 15 to 20)
#    0.000    0.500    5.000    0.750   14.000    0.000 
#    0.000    0.000    0.000    0.000    0.000    0.000 
#    0.000    0.000    0.000    0.000    0.000    0.000 
#
# Total GULP energy -89068.432102 kJ/mol
# GULP energy per Si atom -5566.777006 kJ/mol
# Density = 2.294354 g / cm^3
# Si number density = 22.995878 Si / 1000 Ang^3
#
#
#
# Elastic Constant Matrix: (Units=GPa)
#
#
# Indices 1 2 3 4 5 6 
#
# 1 133.1678 79.4942 56.4217 0.0000 0.0000 0.0000
# 2 79.4942 144.7276 41.4014 0.0000 0.0000 0.0000
# 3 56.4217 41.4014 105.1032 0.0000 0.0000 0.0000
# 4 0.0000 0.0000 0.0000 63.6909 0.0000 0.0000
# 5 0.0000 0.0000 0.0000 0.0000 -41.6990 0.0000
# 6 0.0000 0.0000 0.0000 0.0000 0.0000 35.6555
#
#
#
# Elastic Compliance Matrix: (Units=1/GPa)
#
#
# Indices 1 2 3 4 5 6 
#
# 1 0.012930 -0.005766 -0.004670 0.000000 0.000000 0.000000
# 2 -0.005766 0.010358 -0.000985 0.000000 0.000000 0.000000
# 3 -0.004670 -0.000985 0.012409 0.000000 0.000000 0.000000
# 4 0.000000 0.000000 0.000000 0.015701 0.000000 0.000000
# 5 0.000000 0.000000 0.000000 0.000000 -0.023981 0.000000
# 6 0.000000 0.000000 0.000000 0.000000 0.000000 0.028046
#
#
# Mechanical properties :
#
#
# Convention : Reuss Voigt Hill
#
# Bulk Modulus (GPa) = 77.78445 81.95923 79.87184
# Shear Modulus (GPa) = 60.53992 25.24156 42.89074
#
# Velocity S-wave (km/s) = 5.13649 3.31668 4.32342
# Velocity P-wave (km/s) = 8.31125 7.09827 7.72859
#
# Compressibility (1/GPa) = 0.01285604
#
# Stress axis : x y z
#
# Youngs Moduli (GPa) = 77.34003 96.53963 80.58515
#
# Poissons Ratio (x) = 0.55666 0.37631
# Poissons Ratio (y) = 0.44595 0.07937
# Poissons Ratio (z) = 0.36116 0.09508
#
# Static dielectric constant tensor:
#      x y z
#    x 1.919250 0.000000 0.000000 
#    y 0.000000 2.820690 0.000000 
#    z 0.000000 0.000000 1.840870 
# 
# From -- ./inp_files/28519.got.cif
#   From: 2010.05.17/outbox.cif.g08.bks.cpg/sg24_15_cif.got.tgz:28519.got - 2010.06.04 00:33:39.
