data_PCOD9336541
_publ_section_title
;
Structure prediction by ZEFSAII (Michael W. Deem and Ramdas Pophale) SiO2 
 PCOD9336541
Probable space group: I 21 21 21
;
_chemical_formula_sum "Si O2"
_cell_formula_units_Z 48
_cell_length_a 11.354270
_cell_length_b 11.285760
_cell_length_c 16.678536
_cell_angle_alpha 90.000000
_cell_angle_beta 90.000000
_cell_angle_gamma 90.000000
_cell_volume 2137.213725
_symmetry_space_group_name_H-M "I 21 21 21"
_symmetry_group_IT_number 24
_symmetry_cell_setting 'orthorhombic'
loop_
_space_group_symop_operation_xyz
x,y,z
-x,1/2-y,z
x,-y,1/2-z
1/2-x,y,-z
1/2+x,1/2+y,1/2+z
1/2-x,-y,1/2+z
1/2+x,1/2-y,-z
-x,1/2+y,1/2-z
loop_
_atom_site_type_symbol
_atom_site_label
_atom_site_fract_x
_atom_site_fract_y
_atom_site_fract_z
Si Si1 0.663037 0.494756 0.574281
Si Si2 0.394052 0.628721 0.146522
Si Si3 0.691315 0.019317 0.838417
Si Si4 0.862999 0.247490 0.061171
Si Si5 0.334490 0.118655 0.306849
Si Si6 0.565788 0.134669 0.536823
O O1 0.750000 0.498926 0.500000
O O2 0.654509 0.628015 0.606807
O O3 0.722957 0.405031 0.635739
O O4 0.537801 0.461807 0.537397
O O5 0.330749 0.503883 0.162723
O O6 0.339830 0.735104 0.202592
O O7 0.533034 0.610460 0.158376
O O8 0.384469 0.659326 0.051465
O O9 0.650885 0.140011 0.877806
O O10 0.642031 0.000000 0.750000
O O11 0.654160 0.914759 0.898377
O O12 0.000000 0.250000 0.028535
O O13 0.750000 0.235697 0.000000
O O14 0.328347 0.000000 0.250000
O O15 0.500000 0.250000 0.566471
#
# Coordination Sequence:
#
# PCOD9336541 Si02
#       6
#     8   8   8   8   8   8
#     4  11  22  41  70 103 139 185 243 299 372 440
#     4  11  23  47  73 104 146 193 255 303 388 460
#     4  12  28  44  69 105 147 193 245 309 382 455
#     4  11  25  47  74 107 149 195 251 315 388 462
#     4  11  24  43  72 109 149 188 242 321 383 459
#     4  12  22  43  74 100 135 189 250 308 352 450
#
# _framework density 22.459147999999999
#
# number of rings (size 3 to 8) (size 9 to 14) (size 15 to 20)
#    0.000    0.667    5.000    3.000    2.333    1.333 
#    0.000    0.000    0.000    0.000    0.000    0.000 
#    0.000    0.000    0.000    0.000    0.000    0.000 
#
# Total GULP energy -133658.587141 kJ/mol
# GULP energy per Si atom -5569.107798 kJ/mol
# Density = 2.240803 g / cm^3
# Si number density = 22.459148 Si / 1000 Ang^3
#
#
#
# Elastic Constant Matrix: (Units=GPa)
#
#
# Indices 1 2 3 4 5 6 
#
# 1 111.9797 21.5142 20.9034 0.0000 0.0000 0.0000
# 2 21.5142 121.6013 31.9945 0.0000 0.0000 0.0000
# 3 20.9034 31.9945 55.8652 0.0000 0.0000 0.0000
# 4 0.0000 0.0000 0.0000 25.3765 0.0000 0.0000
# 5 0.0000 0.0000 0.0000 0.0000 18.3651 0.0000
# 6 0.0000 0.0000 0.0000 0.0000 0.0000 30.6818
#
#
#
# Elastic Compliance Matrix: (Units=1/GPa)
#
#
# Indices 1 2 3 4 5 6 
#
# 1 0.009683 -0.000895 -0.003111 0.000000 0.000000 0.000000
# 2 -0.000895 0.009765 -0.005258 0.000000 0.000000 0.000000
# 3 -0.003111 -0.005258 0.022075 0.000000 0.000000 0.000000
# 4 0.000000 0.000000 0.000000 0.039407 0.000000 0.000000
# 5 0.000000 0.000000 0.000000 0.000000 0.054451 0.000000
# 6 0.000000 0.000000 0.000000 0.000000 0.000000 0.032593
#
#
# Mechanical properties :
#
#
# Convention : Reuss Voigt Hill
#
# Bulk Modulus (GPa) = 43.48399 48.69672 46.09035
# Shear Modulus (GPa) = 25.75119 29.22030 27.48575
#
# Velocity S-wave (km/s) = 3.38979 3.61091 3.50210
# Velocity P-wave (km/s) = 5.89273 6.25414 6.07613
#
# Compressibility (1/GPa) = 0.02299697
#
# Stress axis : x y z
#
# Youngs Moduli (GPa) = 103.27649 102.40351 45.29929
#
# Poissons Ratio (x) = 0.09162 0.14091
# Poissons Ratio (y) = 0.09240 0.23818
# Poissons Ratio (z) = 0.32126 0.53843
#
# Static dielectric constant tensor:
#      x y z
#    x 2.305780 0.000000 0.000000 
#    y 0.000000 1.923840 0.000000 
#    z 0.000000 0.000000 1.889700 
# 
# From -- ./inp_files/30193.got.cif
#   From: 2010.05.17/outbox.cif.g08.bks.cpg/sg24_16_cif.got.tgz:30193.got - 2010.06.04 00:33:39.
