data_PCOD9336494
_publ_section_title
;
Structure prediction by ZEFSAII (Michael W. Deem and Ramdas Pophale) SiO2 
 PCOD9336494
Probable space group: I 21 21 21
;
_chemical_formula_sum "Si O2"
_cell_formula_units_Z 40
_cell_length_a 8.954825
_cell_length_b 16.783499
_cell_length_c 11.801105
_cell_angle_alpha 90.000000
_cell_angle_beta 90.000000
_cell_angle_gamma 90.000000
_cell_volume 1773.626972
_symmetry_space_group_name_H-M "I 21 21 21"
_symmetry_group_IT_number 24
_symmetry_cell_setting 'orthorhombic'
loop_
_space_group_symop_operation_xyz
x,y,z
-x,1/2-y,z
x,-y,1/2-z
1/2-x,y,-z
1/2+x,1/2+y,1/2+z
1/2-x,-y,1/2+z
1/2+x,1/2-y,-z
-x,1/2+y,1/2-z
loop_
_atom_site_type_symbol
_atom_site_label
_atom_site_fract_x
_atom_site_fract_y
_atom_site_fract_z
Si Si1 0.096503 0.330406 0.564652
Si Si2 0.638722 0.612089 0.674037
Si Si3 0.484734 0.091360 0.210855
Si Si4 0.422728 0.676311 0.486743
Si Si5 0.894064 0.433410 0.421884
O O1 0.250000 0.313192 0.500000
O O2 0.000000 0.250000 0.553129
O O3 0.076883 0.359010 0.695108
O O4 0.029802 0.405980 0.497643
O O5 0.817549 0.623671 0.682652
O O6 0.529339 0.663943 0.595886
O O7 0.618464 0.523971 0.620193
O O8 0.594001 0.615323 0.805200
O O9 0.569025 0.098998 0.092283
O O10 0.466549 0.000000 0.250000
O O11 0.500000 0.750000 0.423143
O O12 0.250000 0.695378 0.500000
O O13 0.750000 0.416147 0.500000
#
# Coordination Sequence:
#
# PCOD9336494 Si02
#       5
#     8   8   8   8   8
#     4  12  28  45  71 104 149 192 238 300 363 433
#     4  11  23  42  78 102 141 189 236 296 355 434
#     4  12  24  47  76 105 143 189 241 298 360 436
#     4  12  28  48  71 105 146 191 243 301 364 432
#     4  11  21  44  71 109 139 185 241 289 360 431
#
# _framework density 22.552655999999999
#
# number of rings (size 3 to 8) (size 9 to 14) (size 15 to 20)
#    0.000    0.400    4.000    5.400    2.800    4.000 
#    0.000    0.000    0.000    0.000    0.000    0.000 
#    0.000    0.000    0.000    0.000    0.000    0.000 
#
# Total GULP energy -111668.228211 kJ/mol
# GULP energy per Si atom -5583.411411 kJ/mol
# Density = 2.250133 g / cm^3
# Si number density = 22.552656 Si / 1000 Ang^3
#
#
#
# Elastic Constant Matrix: (Units=GPa)
#
#
# Indices 1 2 3 4 5 6 
#
# 1 123.4800 41.8462 47.9294 0.0000 0.0000 0.0000
# 2 41.8462 78.1203 41.1938 0.0001 0.0000 0.0000
# 3 47.9294 41.1938 147.2740 0.0001 0.0000 0.0000
# 4 0.0000 0.0001 0.0001 123.4340 0.0000 0.0000
# 5 0.0000 0.0000 0.0000 0.0000 29.0549 0.0000
# 6 0.0000 0.0000 0.0000 0.0000 0.0000 18.8282
#
#
#
# Elastic Compliance Matrix: (Units=1/GPa)
#
#
# Indices 1 2 3 4 5 6 
#
# 1 0.010445 -0.004461 -0.002152 0.000000 0.000000 0.000000
# 2 -0.004461 0.016920 -0.003281 0.000000 0.000000 0.000000
# 3 -0.002152 -0.003281 0.008408 0.000000 0.000000 0.000000
# 4 0.000000 0.000000 0.000000 0.008101 0.000000 0.000000
# 5 0.000000 0.000000 0.000000 0.000000 0.034418 0.000000
# 6 0.000000 0.000000 0.000000 0.000000 0.000000 0.053112
#
#
# Mechanical properties :
#
#
# Convention : Reuss Voigt Hill
#
# Bulk Modulus (GPa) = 62.55091 67.86811 65.20951
# Shear Modulus (GPa) = 31.94476 48.79042 40.36759
#
# Velocity S-wave (km/s) = 3.76766 4.65628 4.23534
# Velocity P-wave (km/s) = 6.83540 7.68547 7.27287
#
# Compressibility (1/GPa) = 0.01598698
#
# Stress axis : x y z
#
# Youngs Moduli (GPa) = 95.73675 59.10065 118.93333
#
# Poissons Ratio (x) = 0.26362 0.25591
# Poissons Ratio (y) = 0.42704 0.39023
# Poissons Ratio (z) = 0.20600 0.19391
#
# Static dielectric constant tensor:
#      x y z
#    x 1.827050 0.000000 0.000000 
#    y 0.000000 1.883600 0.000000 
#    z 0.000000 0.000000 1.947200 
# 
# From -- ./inp_files/13834.got.cif
#   From: 2010.05.17/outbox.cif.g08.bks.cpg/sg24_7_cif.got.tgz:13834.got - 2010.06.04 00:33:39.
