data_PCOD9336872
_publ_section_title
;
Structure prediction by ZEFSAII (Michael W. Deem and Ramdas Pophale) SiO2 
 PCOD9336872
Probable space group: I 21 21 21
;
_chemical_formula_sum "Si O2"
_cell_formula_units_Z 48
_cell_length_a 10.986074
_cell_length_b 10.962844
_cell_length_c 17.497142
_cell_angle_alpha 90.000000
_cell_angle_beta 90.000000
_cell_angle_gamma 90.000000
_cell_volume 2107.331557
_symmetry_space_group_name_H-M "I 21 21 21"
_symmetry_group_IT_number 24
_symmetry_cell_setting 'orthorhombic'
loop_
_space_group_symop_operation_xyz
x,y,z
-x,1/2-y,z
x,-y,1/2-z
1/2-x,y,-z
1/2+x,1/2+y,1/2+z
1/2-x,-y,1/2+z
1/2+x,1/2-y,-z
-x,1/2+y,1/2-z
loop_
_atom_site_type_symbol
_atom_site_label
_atom_site_fract_x
_atom_site_fract_y
_atom_site_fract_z
Si Si1 0.738310 0.781458 0.142010
Si Si2 0.410844 0.460376 0.556711
Si Si3 0.598429 0.136302 0.214229
Si Si4 0.279948 0.301122 0.922792
Si Si5 0.500000 0.750000 0.052446
Si Si6 0.500000 0.750000 0.686285
Si Si7 0.083335 0.922898 0.190992
O O1 0.796894 0.886130 0.090817
O O2 0.700348 0.830446 0.223817
O O3 0.618225 0.729349 0.103140
O O4 0.838669 0.679306 0.150827
O O5 0.358686 0.590886 0.537228
O O6 0.472246 0.370761 0.496339
O O7 0.506759 0.481939 0.624207
O O8 0.500000 0.250000 0.215098
O O9 0.669615 0.147545 0.131822
O O10 0.556492 0.000000 0.250000
O O11 0.378408 0.242003 0.864682
O O12 0.250000 0.223706 0.000000
O O13 0.506459 0.861244 0.746955
O O14 0.164990 0.000000 0.250000
#
# Coordination Sequence:
#
# PCOD9336872 Si02
#       7
#     8   8   8   8   4   4   8
#     4  12  23  44  67 104 144 185 234 296 361 437
#     4  12  23  41  73 101 137 185 239 300 360 435
#     4  12  27  49  76 109 146 196 248 302 370 447
#     4  12  27  46  73 100 144 192 244 297 366 448
#     4  12  25  42  67 108 144 180 236 300 381 430
#     4  12  23  44  69 100 134 182 248 296 345 432
#     4  12  23  41  71 104 135 183 246 302 347 423
#
# _framework density 22.777621
#
# number of rings (size 3 to 8) (size 9 to 14) (size 15 to 20)
#    0.000    0.000    9.167    1.500    1.167    0.667 
#    0.000    1.667    0.000    0.000    0.000    0.000 
#    0.000    0.000    0.000    0.000    0.000    0.000 
#
# Total GULP energy -133836.245510 kJ/mol
# GULP energy per Si atom -5576.510230 kJ/mol
# Density = 2.272578 g / cm^3
# Si number density = 22.777621 Si / 1000 Ang^3
#
#
#
# Elastic Constant Matrix: (Units=GPa)
#
#
# Indices 1 2 3 4 5 6 
#
# 1 89.4947 21.3911 31.5569 0.0000 0.0000 0.0000
# 2 21.3911 53.7970 10.4540 0.0000 0.0000 0.0000
# 3 31.5569 10.4540 129.3611 0.0000 0.0000 0.0000
# 4 0.0000 0.0000 0.0000 17.1289 0.0000 0.0000
# 5 0.0000 0.0000 0.0000 0.0000 46.8861 0.0000
# 6 0.0000 0.0000 0.0000 0.0000 0.0000 14.3678
#
#
#
# Elastic Compliance Matrix: (Units=1/GPa)
#
#
# Indices 1 2 3 4 5 6 
#
# 1 0.013317 -0.004738 -0.002866 0.000000 0.000000 0.000000
# 2 -0.004738 0.020571 -0.000507 0.000000 0.000000 0.000000
# 3 -0.002866 -0.000507 0.008470 0.000000 0.000000 0.000000
# 4 0.000000 0.000000 0.000000 0.058381 0.000000 0.000000
# 5 0.000000 0.000000 0.000000 0.000000 0.021328 0.000000
# 6 0.000000 0.000000 0.000000 0.000000 0.000000 0.069600
#
#
# Mechanical properties :
#
#
# Convention : Reuss Voigt Hill
#
# Bulk Modulus (GPa) = 38.25972 44.38409 41.32190
# Shear Modulus (GPa) = 23.08400 29.62663 26.35531
#
# Velocity S-wave (km/s) = 3.18693 3.61042 3.40526
# Velocity P-wave (km/s) = 5.51140 6.07522 5.80017
#
# Compressibility (1/GPa) = 0.02613715
#
# Stress axis : x y z
#
# Youngs Moduli (GPa) = 75.09284 48.61244 118.05974
#
# Poissons Ratio (x) = 0.23034 0.33832
# Poissons Ratio (y) = 0.35581 0.05980
# Poissons Ratio (z) = 0.21519 0.02462
#
# Static dielectric constant tensor:
#      x y z
#    x 1.871600 0.000000 0.000000 
#    y 0.000000 2.018560 0.000000 
#    z 0.000000 0.000000 1.880100 
# 
# From -- ./inp_files/30240.got.cif
#   From: 2010.05.17/outbox.cif.g08.bks.cpg/sg24_16_cif.got.tgz:30240.got - 2010.06.04 00:33:39.
