data_PCOD9336043
_publ_section_title
;
Structure prediction by ZEFSAII (Michael W. Deem and Ramdas Pophale) SiO2 
 PCOD9336043
Probable space group: I 21 21 21
;
_chemical_formula_sum "Si O2"
_cell_formula_units_Z 48
_cell_length_a 15.029908
_cell_length_b 14.766529
_cell_length_c 8.941294
_cell_angle_alpha 90.000000
_cell_angle_beta 90.000000
_cell_angle_gamma 90.000000
_cell_volume 1984.426967
_symmetry_space_group_name_H-M "I 21 21 21"
_symmetry_group_IT_number 24
_symmetry_cell_setting 'orthorhombic'
loop_
_space_group_symop_operation_xyz
x,y,z
-x,1/2-y,z
x,-y,1/2-z
1/2-x,y,-z
1/2+x,1/2+y,1/2+z
1/2-x,-y,1/2+z
1/2+x,1/2-y,-z
-x,1/2+y,1/2-z
loop_
_atom_site_type_symbol
_atom_site_label
_atom_site_fract_x
_atom_site_fract_y
_atom_site_fract_z
Si Si1 0.330587 0.049287 0.405079
Si Si2 0.093434 0.699433 0.205155
Si Si3 0.500000 0.250000 0.262330
Si Si4 0.828148 0.946670 0.608941
Si Si5 0.153213 0.246526 0.961338
Si Si6 0.023730 0.424030 0.512798
Si Si7 0.250000 0.776565 0.000000
O O1 0.250000 0.007488 0.500000
O O2 0.420623 0.052176 0.498367
O O3 0.299969 0.153814 0.388301
O O4 0.343822 0.000000 0.250000
O O5 0.116032 0.721323 0.376378
O O6 0.175744 0.727123 0.097795
O O7 0.000000 0.750000 0.172771
O O8 0.067653 0.600906 0.145530
O O9 0.425522 0.209431 0.145439
O O10 0.472014 0.336034 0.371019
O O11 0.750000 0.970027 0.500000
O O12 0.923306 0.988986 0.570521
O O13 0.798883 0.000000 0.750000
O O14 0.826904 0.839817 0.625597
O O15 0.250000 0.202989 0.000000
#
# Coordination Sequence:
#
# PCOD9336043 Si02
#       7
#     8   8   4   8   8   8   4
#     4  10  23  47  66 100 137 184 240 281 351 425
#     4  12  24  46  70 103 137 182 239 296 357 427
#     4  12  24  46  70 108 138 184 236 298 366 420
#     4  11  26  46  67 102 142 186 229 289 360 429
#     4  11  28  45  69 107 145 181 239 298 368 428
#     4  12  25  44  74  97 139 192 235 290 357 428
#     4  10  24  44  70 104 142 186 242 294 364 426
#
# _framework density 24.188343
#
# number of rings (size 3 to 8) (size 9 to 14) (size 15 to 20)
#    0.500    0.333    5.000    0.500   10.500    0.000 
#    9.000    0.000    0.000    0.000    0.000    0.000 
#    0.000    0.000    0.000    0.000    0.000    0.000 
#
# Total GULP energy -133971.176968 kJ/mol
# GULP energy per Si atom -5582.132374 kJ/mol
# Density = 2.413329 g / cm^3
# Si number density = 24.188343 Si / 1000 Ang^3
#
#
#
# Elastic Constant Matrix: (Units=GPa)
#
#
# Indices 1 2 3 4 5 6 
#
# 1 122.5208 8.0396 10.8290 0.0000 0.0000 0.0000
# 2 8.0396 52.5502 -3.9971 0.0000 0.0000 0.0000
# 3 10.8290 -3.9971 71.8958 0.0000 0.0000 0.0000
# 4 0.0000 0.0000 0.0000 25.4351 0.0000 0.0000
# 5 0.0000 0.0000 0.0000 0.0000 44.7528 0.0000
# 6 0.0000 0.0000 0.0000 0.0000 0.0000 49.8871
#
#
#
# Elastic Compliance Matrix: (Units=1/GPa)
#
#
# Indices 1 2 3 4 5 6 
#
# 1 0.008371 -0.001382 -0.001338 0.000000 0.000000 0.000000
# 2 -0.001382 0.019339 0.001283 0.000000 0.000000 0.000000
# 3 -0.001338 0.001283 0.014182 0.000000 0.000000 0.000000
# 4 0.000000 0.000000 0.000000 0.039316 0.000000 0.000000
# 5 0.000000 0.000000 0.000000 0.000000 0.022345 0.000000
# 6 0.000000 0.000000 0.000000 0.000000 0.000000 0.020045
#
#
# Mechanical properties :
#
#
# Convention : Reuss Voigt Hill
#
# Bulk Modulus (GPa) = 25.62934 30.74554 28.18744
# Shear Modulus (GPa) = 35.84834 39.48803 37.66818
#
# Velocity S-wave (km/s) = 3.85392 4.04483 3.95053
# Velocity P-wave (km/s) = 5.51564 5.87816 5.69978
#
# Compressibility (1/GPa) = 0.03901778
#
# Stress axis : x y z
#
# Youngs Moduli (GPa) = 119.46262 51.71025 70.51265
#
# Poissons Ratio (x) = 0.07148 0.09432
# Poissons Ratio (y) = 0.16514 -0.09049
# Poissons Ratio (z) = 0.15980 -0.06636
#
# Static dielectric constant tensor:
#      x y z
#    x 1.915690 0.000000 0.000000 
#    y 0.000000 1.966690 0.000000 
#    z 0.000000 0.000000 1.950260 
# 
# From -- ./inp_files/12842.got.cif
#   From: 2010.05.17/outbox.cif.g08.bks.cpg/sg24_7_cif.got.tgz:12842.got - 2010.06.04 00:33:39.
