data_PCOD9336694
_publ_section_title
;
Structure prediction by ZEFSAII (Michael W. Deem and Ramdas Pophale) SiO2 
 PCOD9336694
Probable space group: I 21 21 21
;
_chemical_formula_sum "Si O2"
_cell_formula_units_Z 56
_cell_length_a 10.725829
_cell_length_b 15.938363
_cell_length_c 15.372639
_cell_angle_alpha 90.000000
_cell_angle_beta 90.000000
_cell_angle_gamma 90.000000
_cell_volume 2627.985782
_symmetry_space_group_name_H-M "I 21 21 21"
_symmetry_group_IT_number 24
_symmetry_cell_setting 'orthorhombic'
loop_
_space_group_symop_operation_xyz
x,y,z
-x,1/2-y,z
x,-y,1/2-z
1/2-x,y,-z
1/2+x,1/2+y,1/2+z
1/2-x,-y,1/2+z
1/2+x,1/2-y,-z
-x,1/2+y,1/2-z
loop_
_atom_site_type_symbol
_atom_site_label
_atom_site_fract_x
_atom_site_fract_y
_atom_site_fract_z
Si Si1 0.884443 0.797184 0.046365
Si Si2 0.020697 0.000000 0.750000
Si Si3 0.293962 0.063500 0.369819
Si Si4 0.807515 0.717742 0.227457
Si Si5 0.000000 0.750000 0.368683
Si Si6 0.105307 0.619570 0.506756
Si Si7 0.091297 0.327176 0.793325
Si Si8 0.452589 0.046269 0.534606
O O1 0.865944 0.748025 0.136607
O O2 0.000000 0.750000 0.998806
O O3 0.938407 0.890055 0.061157
O O4 0.750000 0.797667 0.000000
O O5 0.116260 0.006031 0.829670
O O6 0.942235 0.914838 0.753469
O O7 0.275110 0.138296 0.301213
O O8 0.372037 0.087145 0.455724
O O9 0.155541 0.033854 0.394073
O O10 0.908120 0.700559 0.302678
O O11 0.724709 0.793678 0.263509
O O12 0.925916 0.812205 0.432633
O O13 0.250000 0.594085 0.500000
O O14 0.086210 0.656409 0.603345
O O15 0.015659 0.540431 0.492087
O O16 0.000000 0.250000 0.771855
#
# Coordination Sequence:
#
# PCOD9336694 Si02
#       8
#     8   4   8   8   4   8   8   8
#     4  12  25  44  74 106 147 194 245 302 378 456
#     4  12  26  44  70 112 146 194 252 304 380 450
#     4  11  24  45  72 106 144 184 249 303 366 443
#     4  12  25  47  71 107 144 191 247 303 376 444
#     4  12  26  46  74 100 140 190 244 306 360 452
#     4  12  26  47  71 103 143 189 248 299 378 446
#     4  12  26  46  72 106 146 193 247 312 371 447
#     4  11  25  46  70 105 143 191 237 305 370 447
#
# _framework density 21.309096
#
# number of rings (size 3 to 8) (size 9 to 14) (size 15 to 20)
#    0.000    0.286    7.143    1.286    4.000    1.714 
#    2.571    0.000    0.000    0.000    0.000    0.000 
#    0.000    0.000    0.000    0.000    0.000    0.000 
#
# Total GULP energy -156390.069693 kJ/mol
# GULP energy per Si atom -5585.359632 kJ/mol
# Density = 2.126060 g / cm^3
# Si number density = 21.309096 Si / 1000 Ang^3
#
#
#
# Elastic Constant Matrix: (Units=GPa)
#
#
# Indices 1 2 3 4 5 6 
#
# 1 122.1686 32.9565 31.7129 0.0000 0.0000 0.0000
# 2 32.9565 82.7757 13.2579 0.0000 0.0000 0.0000
# 3 31.7129 13.2579 62.1835 0.0000 0.0000 0.0000
# 4 0.0000 0.0000 0.0000 29.1605 0.0000 0.0000
# 5 0.0000 0.0000 0.0000 0.0000 39.1466 0.0000
# 6 0.0000 0.0000 0.0000 0.0000 0.0000 35.9724
#
#
#
# Elastic Compliance Matrix: (Units=1/GPa)
#
#
# Indices 1 2 3 4 5 6 
#
# 1 0.010266 -0.003364 -0.004518 0.000000 0.000000 0.000000
# 2 -0.003364 0.013610 -0.001186 0.000000 0.000000 0.000000
# 3 -0.004518 -0.001186 0.018639 0.000000 0.000000 0.000000
# 4 0.000000 0.000000 0.000000 0.034293 0.000000 0.000000
# 5 0.000000 0.000000 0.000000 0.000000 0.025545 0.000000
# 6 0.000000 0.000000 0.000000 0.000000 0.000000 0.027799
#
#
# Mechanical properties :
#
#
# Convention : Reuss Voigt Hill
#
# Bulk Modulus (GPa) = 41.02057 46.99805 44.00931
# Shear Modulus (GPa) = 31.96656 33.46929 32.71792
#
# Velocity S-wave (km/s) = 3.87736 3.96745 3.92267
# Velocity P-wave (km/s) = 6.27195 6.56436 6.41982
#
# Compressibility (1/GPa) = 0.02437801
#
# Stress axis : x y z
#
# Youngs Moduli (GPa) = 97.41266 73.47534 53.65200
#
# Poissons Ratio (x) = 0.24713 0.24241
# Poissons Ratio (y) = 0.32765 0.06365
# Poissons Ratio (z) = 0.44013 0.08717
#
# Static dielectric constant tensor:
#      x y z
#    x 1.799200 0.000000 0.000000 
#    y 0.000000 1.774210 0.000000 
#    z 0.000000 0.000000 1.824300 
# 
# From -- ./inp_files/25870.got.cif
#   From: 2010.05.17/outbox.cif.g08.bks.cpg/sg24_13_cif.got.tgz:25870.got - 2010.06.04 00:33:39.
