data_PCOD9336765
_publ_section_title
;
Structure prediction by ZEFSAII (Michael W. Deem and Ramdas Pophale) SiO2 
 PCOD9336765
Probable space group: I 21 21 21
;
_chemical_formula_sum "Si O2"
_cell_formula_units_Z 40
_cell_length_a 9.214398
_cell_length_b 7.538203
_cell_length_c 23.101464
_cell_angle_alpha 90.000000
_cell_angle_beta 90.000000
_cell_angle_gamma 90.000000
_cell_volume 1604.627751
_symmetry_space_group_name_H-M "I 21 21 21"
_symmetry_group_IT_number 24
_symmetry_cell_setting 'orthorhombic'
loop_
_space_group_symop_operation_xyz
x,y,z
-x,1/2-y,z
x,-y,1/2-z
1/2-x,y,-z
1/2+x,1/2+y,1/2+z
1/2-x,-y,1/2+z
1/2+x,1/2-y,-z
-x,1/2+y,1/2-z
loop_
_atom_site_type_symbol
_atom_site_label
_atom_site_fract_x
_atom_site_fract_y
_atom_site_fract_z
Si Si1 0.308538 0.079482 0.145641
Si Si2 0.845964 0.288675 0.551291
Si Si3 0.989558 0.963841 0.149879
Si Si4 0.000000 0.750000 0.736578
Si Si5 0.244433 0.500000 0.250000
Si Si6 0.278437 0.597257 0.566681
O O1 0.427370 0.103808 0.194527
O O2 0.295974 0.258115 0.107559
O O3 0.353992 0.921651 0.103751
O O4 0.146884 0.035532 0.168063
O O5 0.750000 0.364746 0.500000
O O6 0.000000 0.250000 0.524043
O O7 0.787734 0.099573 0.572234
O O8 0.864638 0.016033 0.195790
O O9 0.000000 0.750000 0.144456
O O10 0.941334 0.058817 0.089961
O O11 0.144831 0.662225 0.763152
O O12 0.250000 0.647698 0.500000
#
# Coordination Sequence:
#
# PCOD9336765 Si02
#       6
#     8   8   8   4   4   8
#     4  12  26  51  78 113 158 208 260 334 396 476
#     4  11  26  44  73 111 161 209 261 318 394 475
#     4  12  28  52  82 116 158 212 265 334 398 487
#     4  12  30  52  80 114 156 204 268 342 404 472
#     4  12  32  52  80 118 156 210 272 330 410 472
#     4  11  25  47  75 116 159 200 262 315 389 469
#
# _framework density 24.927899
#
# number of rings (size 3 to 8) (size 9 to 14) (size 15 to 20)
#    0.000    0.400    4.000    2.400   11.200    0.000 
#   10.800    0.000    0.000    0.000    0.000    0.000 
#    0.000    0.000    0.000    0.000    0.000    0.000 
#
# Total GULP energy -112047.354350 kJ/mol
# GULP energy per Si atom -5602.367718 kJ/mol
# Density = 2.487116 g / cm^3
# Si number density = 24.927899 Si / 1000 Ang^3
#
#
#
# Elastic Constant Matrix: (Units=GPa)
#
#
# Indices 1 2 3 4 5 6 
#
# 1 139.9670 -27.6916 51.1756 0.0000 0.0000 0.0000
# 2 -27.6916 68.3886 23.9799 0.0000 0.0000 0.0000
# 3 51.1756 23.9799 107.0480 0.0000 0.0000 0.0000
# 4 0.0000 0.0000 0.0000 41.5822 0.0000 0.0000
# 5 0.0000 0.0000 0.0000 0.0000 20.3793 0.0000
# 6 0.0000 0.0000 0.0000 0.0000 0.0000 -0.7885
#
#
#
# Elastic Compliance Matrix: (Units=1/GPa)
#
#
# Indices 1 2 3 4 5 6 
#
# 1 0.010968 0.006815 -0.006770 0.000000 0.000000 0.000000
# 2 0.006815 0.020103 -0.007761 0.000000 0.000000 0.000000
# 3 -0.006770 -0.007761 0.014317 0.000000 0.000000 0.000000
# 4 0.000000 0.000000 0.000000 0.024049 0.000000 0.000000
# 5 0.000000 0.000000 0.000000 0.000000 0.049069 0.000000
# 6 0.000000 0.000000 0.000000 0.000000 0.000000 -1.268234
#
#
# Mechanical properties :
#
#
# Convention : Reuss Voigt Hill
#
# Bulk Modulus (GPa) = 33.38292 45.59237 39.48765
# Shear Modulus (GPa) = -4.44717 30.09726 12.82504
#
# Velocity S-wave (km/s) = -1.33712 3.47850 2.27069
# Velocity P-wave (km/s) = 3.32220 5.87049 4.76968
#
# Compressibility (1/GPa) = 0.02995544
#
# Stress axis : x y z
#
# Youngs Moduli (GPa) = 91.17255 49.74297 69.84799
#
# Poissons Ratio (x) = -0.33900 0.47288
# Poissons Ratio (y) = -0.62135 0.54212
# Poissons Ratio (z) = 0.61725 0.38608
#
# Static dielectric constant tensor:
#      x y z
#    x 2.013880 0.000000 0.000000 
#    y 0.000000 2.074800 0.000000 
#    z 0.000000 0.000000 1.977610 
# 
# From -- ./inp_files/35042.got.cif
#   From: 2010.05.17/outbox.cif.g08.bks.cpg/sg24_18_cif.got.tgz:35042.got - 2010.06.04 00:33:39.
