data_PCOD9336598
_publ_section_title
;
Structure prediction by ZEFSAII (Michael W. Deem and Ramdas Pophale) SiO2 
 PCOD9336598
Probable space group: I 21 21 21
;
_chemical_formula_sum "Si O2"
_cell_formula_units_Z 64
_cell_length_a 14.581546
_cell_length_b 18.445089
_cell_length_c 11.424821
_cell_angle_alpha 90.000000
_cell_angle_beta 90.000000
_cell_angle_gamma 90.000000
_cell_volume 3072.796021
_symmetry_space_group_name_H-M "I 21 21 21"
_symmetry_group_IT_number 24
_symmetry_cell_setting 'orthorhombic'
loop_
_space_group_symop_operation_xyz
x,y,z
-x,1/2-y,z
x,-y,1/2-z
1/2-x,y,-z
1/2+x,1/2+y,1/2+z
1/2-x,-y,1/2+z
1/2+x,1/2-y,-z
-x,1/2+y,1/2-z
loop_
_atom_site_type_symbol
_atom_site_label
_atom_site_fract_x
_atom_site_fract_y
_atom_site_fract_z
Si Si1 0.679064 0.835246 0.830214
Si Si2 0.651031 0.197330 0.940390
Si Si3 0.976631 0.092256 0.480362
Si Si4 0.153087 0.811954 0.019009
Si Si5 0.133906 0.394853 0.717879
Si Si6 0.465148 0.568923 0.450474
Si Si7 0.605670 0.263115 0.261117
Si Si8 0.847094 0.351518 0.947263
O O1 0.658411 0.814139 0.697498
O O2 0.680459 0.757151 0.899033
O O3 0.763445 0.894882 0.837154
O O4 0.594891 0.874650 0.891093
O O5 0.750000 0.185196 0.000000
O O6 0.582904 0.135788 0.985747
O O7 0.625037 0.279607 0.977535
O O8 0.940989 0.108896 0.613831
O O9 0.073194 0.130938 0.450939
O O10 0.968926 0.005656 0.479104
O O11 0.250000 0.851225 0.000000
O O12 0.116280 0.778578 0.897245
O O13 0.092909 0.439564 0.827991
O O14 0.145693 0.314242 0.768678
O O15 0.570852 0.591850 0.436658
O O16 0.500000 0.250000 0.228320
O O17 0.659025 0.321385 0.184905
O O18 0.750000 0.376491 0.000000
#
# Coordination Sequence:
#
# PCOD9336598 Si02
#       8
#     8   8   8   8   8   8   8   8
#     4  12  24  43  71 103 132 172 231 296 353 400
#     4  11  23  43  69 101 129 170 232 288 345 411
#     4  12  27  42  63 104 140 183 222 276 358 424
#     4  12  24  41  71 102 139 179 228 290 344 415
#     4  12  21  43  70 101 130 172 237 282 340 409
#     4  12  25  44  67  94 142 187 220 274 343 428
#     4  12  18  39  73 100 129 165 227 295 333 393
#     4  11  23  40  69 101 127 172 233 290 331 394
#
# _framework density 20.827936000000001
#
# number of rings (size 3 to 8) (size 9 to 14) (size 15 to 20)
#    0.000    0.250    7.500    2.250    0.000    4.000 
#    2.250    0.000    0.000    0.000    0.000    0.000 
#    0.000    0.000    0.000    0.000    0.000    0.000 
#
# Total GULP energy -178414.054534 kJ/mol
# GULP energy per Si atom -5575.439204 kJ/mol
# Density = 2.078053 g / cm^3
# Si number density = 20.827936 Si / 1000 Ang^3
#
#
#
# Elastic Constant Matrix: (Units=GPa)
#
#
# Indices 1 2 3 4 5 6 
#
# 1 134.6236 13.5399 10.0389 0.0000 0.0000 0.0000
# 2 13.5399 27.2519 -11.7808 0.0000 0.0000 0.0000
# 3 10.0389 -11.7808 98.0586 0.0000 0.0000 0.0000
# 4 0.0000 0.0000 0.0000 8.2294 0.0000 0.0000
# 5 0.0000 0.0000 0.0000 0.0000 24.6789 0.0000
# 6 0.0000 0.0000 0.0000 0.0000 0.0000 2.1081
#
#
#
# Elastic Compliance Matrix: (Units=1/GPa)
#
#
# Indices 1 2 3 4 5 6 
#
# 1 0.007989 -0.004559 -0.001366 0.000000 0.000000 0.000000
# 2 -0.004559 0.041307 0.005429 0.000000 0.000000 0.000000
# 3 -0.001366 0.005429 0.010990 0.000000 0.000000 0.000000
# 4 0.000000 0.000000 0.000000 0.121516 0.000000 0.000000
# 5 0.000000 0.000000 0.000000 0.000000 0.040520 0.000000
# 6 0.000000 0.000000 0.000000 0.000000 0.000000 0.474351
#
#
# Mechanical properties :
#
#
# Convention : Reuss Voigt Hill
#
# Bulk Modulus (GPa) = 16.86498 31.50336 24.18417
# Shear Modulus (GPa) = 6.96933 23.54568 15.25751
#
# Velocity S-wave (km/s) = 1.83123 3.36592 2.70950
# Velocity P-wave (km/s) = 3.54769 5.50129 4.62873
#
# Compressibility (1/GPa) = 0.05929446
#
# Stress axis : x y z
#
# Youngs Moduli (GPa) = 125.17963 24.20896 90.99113
#
# Poissons Ratio (x) = 0.11038 0.12426
# Poissons Ratio (y) = 0.57074 -0.49403
# Poissons Ratio (z) = 0.17095 -0.13144
#
# Static dielectric constant tensor:
#      x y z
#    x 2.099310 0.000000 0.000000 
#    y 0.000000 1.778830 0.000000 
#    z 0.000000 0.000000 1.828850 
# 
# From -- ./inp_files/21066.got.cif
#   From: 2010.05.17/outbox.cif.g08.bks.cpg/sg24_11_cif.got.tgz:21066.got - 2010.06.04 00:33:39.
