data_PCOD9336236
_publ_section_title
;
Structure prediction by ZEFSAII (Michael W. Deem and Ramdas Pophale) SiO2 
 PCOD9336236
Probable space group: I 21 21 21
;
_chemical_formula_sum "Si O2"
_cell_formula_units_Z 40
_cell_length_a 5.547318
_cell_length_b 23.156727
_cell_length_c 13.795364
_cell_angle_alpha 90.000000
_cell_angle_beta 90.000000
_cell_angle_gamma 90.000000
_cell_volume 1772.121123
_symmetry_space_group_name_H-M "I 21 21 21"
_symmetry_group_IT_number 24
_symmetry_cell_setting 'orthorhombic'
loop_
_space_group_symop_operation_xyz
x,y,z
-x,1/2-y,z
x,-y,1/2-z
1/2-x,y,-z
1/2+x,1/2+y,1/2+z
1/2-x,-y,1/2+z
1/2+x,1/2-y,-z
-x,1/2+y,1/2-z
loop_
_atom_site_type_symbol
_atom_site_label
_atom_site_fract_x
_atom_site_fract_y
_atom_site_fract_z
Si Si1 0.750000 0.121553 0.500000
Si Si2 0.644226 0.807530 0.190172
Si Si3 0.554852 0.467876 0.848707
Si Si4 0.000000 0.250000 0.163929
Si Si5 0.846144 0.649110 0.633239
Si Si6 0.250000 0.407720 0.000000
Si Si7 0.750000 0.551031 0.000000
O O1 0.738210 0.159330 0.402662
O O2 0.498681 0.086540 0.500312
O O3 0.500000 0.750000 0.159291
O O4 0.855639 0.791060 0.263541
O O5 0.471150 0.841581 0.262879
O O6 0.490737 0.500000 0.750000
O O7 0.679506 0.405679 0.846082
O O8 0.329960 0.451339 0.915499
O O9 0.732866 0.509962 0.906854
O O10 0.806721 0.292142 0.112191
O O11 0.039183 0.631628 0.549104
#
# Coordination Sequence:
#
# PCOD9336236 Si02
#       7
#     4   8   8   4   8   4   4
#     4  12  29  45  76 122 163 206 267 326 402 482
#     4  10  25  45  79 109 156 205 258 323 400 472
#     4  12  27  48  78 110 164 206 261 328 404 488
#     4  10  24  48  76 110 148 204 262 320 400 470
#     4  11  24  49  78 108 155 205 263 328 398 486
#     4  12  25  48  80 113 155 208 263 330 406 490
#     4  12  28  49  72 123 154 212 274 322 408 488
#
# _framework density 22.571822999999998
#
# number of rings (size 3 to 8) (size 9 to 14) (size 15 to 20)
#    0.000    0.800    2.000    3.000   12.600    0.800 
#    0.000    0.000   99.000    0.000    0.000    0.000 
#    0.000    0.000    0.000    0.000    0.000    0.000 
#
# Total GULP energy -111834.921575 kJ/mol
# GULP energy per Si atom -5591.746079 kJ/mol
# Density = 2.252045 g / cm^3
# Si number density = 22.571823 Si / 1000 Ang^3
#
#
#
# Elastic Constant Matrix: (Units=GPa)
#
#
# Indices 1 2 3 4 5 6 
#
# 1 125.1814 67.1492 66.7341 0.0000 0.0000 0.0000
# 2 67.1492 119.4737 94.6103 0.0000 0.0000 0.0001
# 3 66.7341 94.6103 171.4345 0.0000 0.0001 0.0003
# 4 0.0000 0.0000 0.0000 78.4012 0.0000 0.0001
# 5 0.0000 0.0000 0.0001 0.0000 532.3969 0.0003
# 6 0.0000 0.0001 0.0003 0.0001 0.0003 -108.3956
#
#
#
# Elastic Compliance Matrix: (Units=1/GPa)
#
#
# Indices 1 2 3 4 5 6 
#
# 1 0.011691 -0.005270 -0.001642 0.000000 0.000000 0.000000
# 2 -0.005270 0.017243 -0.007465 0.000000 0.000000 0.000000
# 3 -0.001642 -0.007465 0.010592 0.000000 0.000000 0.000000
# 4 0.000000 0.000000 0.000000 0.012755 0.000000 0.000000
# 5 0.000000 0.000000 0.000000 0.000000 0.001878 0.000000
# 6 0.000000 0.000000 0.000000 0.000000 0.000000 -0.009225
#
#
# Mechanical properties :
#
#
# Convention : Reuss Voigt Hill
#
# Bulk Modulus (GPa) = 92.83503 97.00854 94.92179
# Shear Modulus (GPa) = 64.70059 112.98691 88.84375
#
# Velocity S-wave (km/s) = 5.35971 7.08275 6.28060
# Velocity P-wave (km/s) = 8.91740 10.48609 9.73340
#
# Compressibility (1/GPa) = 0.01077180
#
# Stress axis : x y z
#
# Youngs Moduli (GPa) = 85.53591 57.99372 94.41074
#
# Poissons Ratio (x) = 0.30564 0.15507
# Poissons Ratio (y) = 0.45079 0.70474
# Poissons Ratio (z) = 0.14049 0.43290
#
# Static dielectric constant tensor:
#      x y z
#    x 1.842770 0.000000 0.000000 
#    y 0.000000 0.990340 0.000000 
#    z 0.000000 0.000000 1.855340 
# 
# From -- ./inp_files/23760.got.cif
#   From: 2010.05.17/outbox.cif.g08.bks.cpg/sg24_12_cif.got.tgz:23760.got - 2010.06.04 00:33:39.
