data_PCOD9336754
_publ_section_title
;
Structure prediction by ZEFSAII (Michael W. Deem and Ramdas Pophale) SiO2 
 PCOD9336754
Probable space group: I 21 21 21
;
_chemical_formula_sum "Si O2"
_cell_formula_units_Z 48
_cell_length_a 8.317753
_cell_length_b 17.453618
_cell_length_c 13.790088
_cell_angle_alpha 90.000000
_cell_angle_beta 90.000000
_cell_angle_gamma 90.000000
_cell_volume 2001.974419
_symmetry_space_group_name_H-M "I 21 21 21"
_symmetry_group_IT_number 24
_symmetry_cell_setting 'orthorhombic'
loop_
_space_group_symop_operation_xyz
x,y,z
-x,1/2-y,z
x,-y,1/2-z
1/2-x,y,-z
1/2+x,1/2+y,1/2+z
1/2-x,-y,1/2+z
1/2+x,1/2-y,-z
-x,1/2+y,1/2-z
loop_
_atom_site_type_symbol
_atom_site_label
_atom_site_fract_x
_atom_site_fract_y
_atom_site_fract_z
Si Si1 0.392063 0.423811 0.566589
Si Si2 0.387868 0.182499 0.430045
Si Si3 0.390809 0.320189 0.929089
Si Si4 0.154841 0.907908 0.743483
Si Si5 0.781621 0.906905 0.744589
Si Si6 0.121038 0.058435 0.075241
O O1 0.250000 0.459716 0.500000
O O2 0.498430 0.371614 0.495870
O O3 0.299853 0.382131 0.653991
O O4 0.509653 0.488788 0.608972
O O5 0.500000 0.250000 0.390796
O O6 0.250000 0.214410 0.500000
O O7 0.306677 0.133932 0.344096
O O8 0.500000 0.250000 0.897403
O O9 0.317385 0.367646 0.840397
O O10 0.507741 0.381653 0.980483
O O11 0.250000 0.294272 0.000000
O O12 0.284702 0.895918 0.659136
O O13 0.968164 0.885985 0.728926
O O14 0.155492 0.000000 0.750000
O O15 0.776174 0.000000 0.750000
O O16 0.250000 0.026311 0.000000
#
# Coordination Sequence:
#
# PCOD9336754 Si02
#       6
#     8   8   8   8   8   8
#     4  12  24  47  76 115 154 205 253 318 387 462
#     4  12  28  47  75 110 161 204 254 311 389 466
#     4  12  28  50  78 110 153 205 257 320 387 456
#     4  11  25  46  73 112 152 200 253 312 380 457
#     4  11  25  45  77 113 150 196 254 320 388 458
#     4  12  26  44  78 110 150 198 259 321 377 458
#
# _framework density 23.976330000000001
#
# number of rings (size 3 to 8) (size 9 to 14) (size 15 to 20)
#    0.000    0.333    3.333    5.000    7.000    2.000 
#    0.000    0.833    0.000    0.000    0.000    0.000 
#    0.000    0.000    0.000    0.000    0.000    0.000 
#
# Total GULP energy -134363.658600 kJ/mol
# GULP energy per Si atom -5598.485775 kJ/mol
# Density = 2.392176 g / cm^3
# Si number density = 23.976330 Si / 1000 Ang^3
#
#
#
# Elastic Constant Matrix: (Units=GPa)
#
#
# Indices 1 2 3 4 5 6 
#
# 1 131.0600 28.9293 45.7203 0.0000 0.0000 0.0000
# 2 28.9293 76.5946 20.1249 0.0000 0.0000 0.0000
# 3 45.7203 20.1249 125.2731 0.0000 0.0000 0.0000
# 4 0.0000 0.0000 0.0000 28.3314 0.0000 0.0000
# 5 0.0000 0.0000 0.0000 0.0000 46.0490 0.0000
# 6 0.0000 0.0000 0.0000 0.0000 0.0000 32.3158
#
#
#
# Elastic Compliance Matrix: (Units=1/GPa)
#
#
# Indices 1 2 3 4 5 6 
#
# 1 0.009257 -0.002724 -0.002941 0.000000 0.000000 0.000000
# 2 -0.002724 0.014432 -0.001325 0.000000 0.000000 0.000000
# 3 -0.002941 -0.001325 0.009269 0.000000 0.000000 0.000000
# 4 0.000000 0.000000 0.000000 0.035297 0.000000 0.000000
# 5 0.000000 0.000000 0.000000 0.000000 0.021716 0.000000
# 6 0.000000 0.000000 0.000000 0.000000 0.000000 0.030945
#
#
# Mechanical properties :
#
#
# Convention : Reuss Voigt Hill
#
# Bulk Modulus (GPa) = 52.68688 58.05294 55.36991
# Shear Modulus (GPa) = 35.40559 37.21613 36.31086
#
# Velocity S-wave (km/s) = 3.84694 3.94407 3.89581
# Velocity P-wave (km/s) = 6.46175 6.70866 6.58636
#
# Compressibility (1/GPa) = 0.01898006
#
# Stress axis : x y z
#
# Youngs Moduli (GPa) = 108.02318 69.28817 107.88988
#
# Poissons Ratio (x) = 0.18872 0.31731
# Poissons Ratio (y) = 0.29422 0.14290
# Poissons Ratio (z) = 0.31770 0.09177
#
# Static dielectric constant tensor:
#      x y z
#    x 1.938860 0.000000 0.000000 
#    y 0.000000 1.895300 0.000000 
#    z 0.000000 0.000000 1.908030 
# 
# From -- ./inp_files/24800.got.cif
#   From: 2010.05.17/outbox.cif.g08.bks.cpg/sg24_13_cif.got.tgz:24800.got - 2010.06.04 00:33:39.
