data_PCOD9336268
_publ_section_title
;
Structure prediction by ZEFSAII (Michael W. Deem and Ramdas Pophale) SiO2 
 PCOD9336268
Probable space group: I 21 21 21
;
_chemical_formula_sum "Si O2"
_cell_formula_units_Z 48
_cell_length_a 21.705277
_cell_length_b 8.426313
_cell_length_c 11.500469
_cell_angle_alpha 90.000000
_cell_angle_beta 90.000000
_cell_angle_gamma 90.000000
_cell_volume 2103.383542
_symmetry_space_group_name_H-M "I 21 21 21"
_symmetry_group_IT_number 24
_symmetry_cell_setting 'orthorhombic'
loop_
_space_group_symop_operation_xyz
x,y,z
-x,1/2-y,z
x,-y,1/2-z
1/2-x,y,-z
1/2+x,1/2+y,1/2+z
1/2-x,-y,1/2+z
1/2+x,1/2-y,-z
-x,1/2+y,1/2-z
loop_
_atom_site_type_symbol
_atom_site_label
_atom_site_fract_x
_atom_site_fract_y
_atom_site_fract_z
Si Si1 0.127357 0.217802 0.596037
Si Si2 0.358304 0.028533 0.613326
Si Si3 0.250000 0.164432 0.000000
Si Si4 0.190739 0.324201 0.794782
Si Si5 0.501179 0.946376 0.878031
Si Si6 0.069702 0.434395 0.905974
Si Si7 0.539704 0.500000 0.250000
O O1 0.141507 0.194592 0.460017
O O2 0.186224 0.214380 0.681001
O O3 0.097475 0.389546 0.617691
O O4 0.080572 0.094601 0.656373
O O5 0.431155 0.990905 0.605010
O O6 0.342583 0.000000 0.750000
O O7 0.310827 0.934296 0.532040
O O8 0.239414 0.269039 0.886975
O O9 0.203446 0.500000 0.750000
O O10 0.125145 0.321830 0.865197
O O11 0.500000 0.750000 0.893091
O O12 0.519648 0.000000 0.750000
O O13 0.545861 0.041533 0.964130
O O14 0.009164 0.408511 0.830227
#
# Coordination Sequence:
#
# PCOD9336268 Si02
#       7
#     8   8   4   8   8   8   4
#     4  11  21  41  69 100 139 173 217 281 349 410
#     4  11  26  44  71 102 132 186 230 287 342 415
#     4  12  28  52  64 102 134 174 262 282 336 424
#     4  10  25  46  69 100 135 181 232 288 352 413
#     4  11  23  44  68 104 147 188 231 289 365 433
#     4  11  21  39  66 103 138 175 222 277 354 421
#     4  12  18  32  66 106 136 176 208 272 344 412
#
# _framework density 22.820373
#
# number of rings (size 3 to 8) (size 9 to 14) (size 15 to 20)
#    0.000    1.000    5.833    1.500    2.333    2.667 
#    6.000    0.000    0.000    0.000    0.000    0.000 
#    0.000    0.000    0.000    0.000    0.000    0.000 
#
# Total GULP energy -133812.438608 kJ/mol
# GULP energy per Si atom -5575.518275 kJ/mol
# Density = 2.276843 g / cm^3
# Si number density = 22.820373 Si / 1000 Ang^3
#
#
#
# Elastic Constant Matrix: (Units=GPa)
#
#
# Indices 1 2 3 4 5 6 
#
# 1 41.9026 18.2176 7.7968 0.0000 0.0000 0.0000
# 2 18.2176 56.0611 21.4960 0.0000 0.0000 0.0000
# 3 7.7968 21.4960 147.2851 0.0000 0.0000 0.0000
# 4 0.0000 0.0000 0.0000 32.0030 0.0000 0.0000
# 5 0.0000 0.0000 0.0000 0.0000 42.9024 0.0000
# 6 0.0000 0.0000 0.0000 0.0000 0.0000 16.0385
#
#
#
# Elastic Compliance Matrix: (Units=1/GPa)
#
#
# Indices 1 2 3 4 5 6 
#
# 1 0.027795 -0.008970 -0.000162 0.000000 0.000000 0.000000
# 2 -0.008970 0.021790 -0.002705 0.000000 0.000000 0.000000
# 3 -0.000162 -0.002705 0.007193 0.000000 0.000000 0.000000
# 4 0.000000 0.000000 0.000000 0.031247 0.000000 0.000000
# 5 0.000000 0.000000 0.000000 0.000000 0.023309 0.000000
# 6 0.000000 0.000000 0.000000 0.000000 0.000000 0.062350
#
#
# Mechanical properties :
#
#
# Convention : Reuss Voigt Hill
#
# Bulk Modulus (GPa) = 30.20910 37.80772 34.00841
# Shear Modulus (GPa) = 23.99314 31.37134 27.68224
#
# Velocity S-wave (km/s) = 3.24603 3.71173 3.48666
# Velocity P-wave (km/s) = 5.22642 5.91377 5.58069
#
# Compressibility (1/GPa) = 0.03310261
#
# Stress axis : x y z
#
# Youngs Moduli (GPa) = 35.97791 45.89278 139.02436
#
# Poissons Ratio (x) = 0.41166 0.02255
# Poissons Ratio (y) = 0.32272 0.37611
# Poissons Ratio (z) = 0.00584 0.12416
#
# Static dielectric constant tensor:
#      x y z
#    x 1.896170 0.000000 0.000000 
#    y 0.000000 1.924430 0.000000 
#    z 0.000000 0.000000 1.914600 
# 
# From -- ./inp_files/22602.got.cif
#   From: 2010.05.17/outbox.cif.g08.bks.cpg/sg24_12_cif.got.tgz:22602.got - 2010.06.04 00:33:39.
