data_PCOD9336615
_publ_section_title
;
Structure prediction by ZEFSAII (Michael W. Deem and Ramdas Pophale) SiO2 
 PCOD9336615
Probable space group: I 21 21 21
;
_chemical_formula_sum "Si O2"
_cell_formula_units_Z 56
_cell_length_a 13.499999
_cell_length_b 12.821760
_cell_length_c 13.662761
_cell_angle_alpha 90.000000
_cell_angle_beta 90.000000
_cell_angle_gamma 90.000000
_cell_volume 2364.938498
_symmetry_space_group_name_H-M "I 21 21 21"
_symmetry_group_IT_number 24
_symmetry_cell_setting 'orthorhombic'
loop_
_space_group_symop_operation_xyz
x,y,z
-x,1/2-y,z
x,-y,1/2-z
1/2-x,y,-z
1/2+x,1/2+y,1/2+z
1/2-x,-y,1/2+z
1/2+x,1/2-y,-z
-x,1/2+y,1/2-z
loop_
_atom_site_type_symbol
_atom_site_label
_atom_site_fract_x
_atom_site_fract_y
_atom_site_fract_z
Si Si1 0.138012 0.667370 0.816675
Si Si2 0.900398 0.319682 0.346247
Si Si3 0.087714 0.903692 0.816856
Si Si4 0.567558 0.491617 0.979647
Si Si5 0.850013 0.935218 0.448271
Si Si6 0.712732 0.000000 0.750000
Si Si7 0.750000 0.216717 0.500000
Si Si8 0.885369 0.287945 0.120967
O O1 0.133781 0.790722 0.794097
O O2 0.216405 0.600384 0.755938
O O3 0.029639 0.618468 0.804041
O O4 0.170334 0.660240 0.930342
O O5 0.926679 0.433827 0.385598
O O6 0.817110 0.276512 0.420233
O O7 0.864624 0.315588 0.233963
O O8 0.000000 0.250000 0.354287
O O9 0.119644 0.000000 0.750000
O O10 0.104941 0.942122 0.927926
O O11 0.453969 0.456070 0.000846
O O12 0.624447 0.386630 0.950058
O O13 0.750000 0.968617 0.500000
O O14 0.853553 0.995768 0.345570
O O15 0.834503 0.814346 0.420919
O O16 0.000000 0.250000 0.121887
#
# Coordination Sequence:
#
# PCOD9336615 Si02
#       8
#     8   8   8   8   8   4   4   8
#     4  11  25  44  70 106 143 184 246 303 364 433
#     4  11  23  42  71 104 144 184 242 307 364 434
#     4  11  24  47  71 104 144 197 243 296 368 448
#     4  11  23  44  71 102 140 196 240 298 373 436
#     4  11  26  43  69 107 146 185 242 306 365 437
#     4  12  26  42  70 112 136 186 246 310 368 418
#     4  12  24  42  72 104 142 184 238 302 368 438
#     4   9  22  43  68 102 141 188 239 298 370 429
#
# _framework density 23.679262000000001
#
# number of rings (size 3 to 8) (size 9 to 14) (size 15 to 20)
#    0.000    1.143    2.143    3.000   11.000    1.143 
#    6.429    2.857    0.000    0.000    0.000    0.000 
#    0.000    0.000    0.000    0.000    0.000    0.000 
#
# Total GULP energy -156702.123675 kJ/mol
# GULP energy per Si atom -5596.504417 kJ/mol
# Density = 2.362537 g / cm^3
# Si number density = 23.679262 Si / 1000 Ang^3
#
#
#
# Elastic Constant Matrix: (Units=GPa)
#
#
# Indices 1 2 3 4 5 6 
#
# 1 57.7592 16.4223 11.1303 0.0000 0.0000 0.0000
# 2 16.4223 167.9988 26.7559 0.0000 0.0000 0.0000
# 3 11.1303 26.7559 64.0871 0.0000 0.0000 0.0000
# 4 0.0000 0.0000 0.0000 18.5444 0.0000 0.0000
# 5 0.0000 0.0000 0.0000 0.0000 24.5309 0.0000
# 6 0.0000 0.0000 0.0000 0.0000 0.0000 21.9924
#
#
#
# Elastic Compliance Matrix: (Units=1/GPa)
#
#
# Indices 1 2 3 4 5 6 
#
# 1 0.018201 -0.001367 -0.002591 0.000000 0.000000 0.000000
# 2 -0.001367 0.006479 -0.002468 0.000000 0.000000 0.000000
# 3 -0.002591 -0.002468 0.017084 0.000000 0.000000 0.000000
# 4 0.000000 0.000000 0.000000 0.053925 0.000000 0.000000
# 5 0.000000 0.000000 0.000000 0.000000 0.040765 0.000000
# 6 0.000000 0.000000 0.000000 0.000000 0.000000 0.045470
#
#
# Mechanical properties :
#
#
# Convention : Reuss Voigt Hill
#
# Bulk Modulus (GPa) = 34.58476 44.27356 39.42916
# Shear Modulus (GPa) = 24.46051 28.71599 26.58825
#
# Velocity S-wave (km/s) = 3.21751 3.48617 3.35453
# Velocity P-wave (km/s) = 5.33295 5.91120 5.62950
#
# Compressibility (1/GPa) = 0.02891447
#
# Stress axis : x y z
#
# Youngs Moduli (GPa) = 54.94196 154.34461 58.53474
#
# Poissons Ratio (x) = 0.21093 0.15163
# Poissons Ratio (y) = 0.07509 0.14444
# Poissons Ratio (z) = 0.14233 0.38086
#
# Static dielectric constant tensor:
#      x y z
#    x 1.900570 0.000000 0.000000 
#    y 0.000000 1.933640 0.000000 
#    z 0.000000 0.000000 1.883500 
# 
# From -- ./inp_files/26583.got.cif
#   From: 2010.05.17/outbox.cif.g08.bks.cpg/sg24_14_cif.got.tgz:26583.got - 2010.06.04 00:33:39.
