data_PCOD9336275
_publ_section_title
;
Structure prediction by ZEFSAII (Michael W. Deem and Ramdas Pophale) SiO2 
 PCOD9336275
Probable space group: I 21 21 21
;
_chemical_formula_sum "Si O2"
_cell_formula_units_Z 40
_cell_length_a 16.248970
_cell_length_b 18.424537
_cell_length_c 6.317491
_cell_angle_alpha 90.000000
_cell_angle_beta 90.000000
_cell_angle_gamma 90.000000
_cell_volume 1891.328870
_symmetry_space_group_name_H-M "I 21 21 21"
_symmetry_group_IT_number 24
_symmetry_cell_setting 'orthorhombic'
loop_
_space_group_symop_operation_xyz
x,y,z
-x,1/2-y,z
x,-y,1/2-z
1/2-x,y,-z
1/2+x,1/2+y,1/2+z
1/2-x,-y,1/2+z
1/2+x,1/2-y,-z
-x,1/2+y,1/2-z
loop_
_atom_site_type_symbol
_atom_site_label
_atom_site_fract_x
_atom_site_fract_y
_atom_site_fract_z
Si Si1 0.549946 0.311706 0.886646
Si Si2 0.325351 0.582348 0.163812
Si Si3 0.678727 0.766422 0.343651
Si Si4 0.160233 0.151226 0.496698
Si Si5 0.006645 0.913856 0.757132
O O1 0.500000 0.250000 0.755875
O O2 0.619887 0.342820 0.733423
O O3 0.593731 0.258553 0.054449
O O4 0.506062 0.374974 0.024503
O O5 0.324350 0.500000 0.250000
O O6 0.310378 0.647934 0.324975
O O7 0.421850 0.599422 0.110284
O O8 0.250000 0.587276 0.000000
O O9 0.750000 0.738407 0.500000
O O10 0.677321 0.727918 0.115674
O O11 0.250000 0.114234 0.500000
O O12 0.089188 0.113855 0.633158
O O13 0.012488 0.000000 0.750000
#
# Coordination Sequence:
#
# PCOD9336275 Si02
#       5
#     8   8   8   8   8
#     4  11  23  41  71  99 135 181 222 284 343 410
#     4  11  24  44  66  97 138 185 230 281 346 418
#     4  11  22  40  65  98 137 170 227 283 337 408
#     4  11  24  42  68 104 129 177 232 281 346 409
#     4  10  25  47  65  97 140 176 228 283 342 415
#
# _framework density 21.149151
#
# number of rings (size 3 to 8) (size 9 to 14) (size 15 to 20)
#    0.000    1.200    4.000    1.200    2.800    0.800 
#   10.800    0.000    0.000    0.000    0.000    0.000 
#    0.000    0.000    0.000    0.000    0.000    0.000 
#
# Total GULP energy -111338.507917 kJ/mol
# GULP energy per Si atom -5566.925396 kJ/mol
# Density = 2.110101 g / cm^3
# Si number density = 21.149151 Si / 1000 Ang^3
#
#
#
# Elastic Constant Matrix: (Units=GPa)
#
#
# Indices 1 2 3 4 5 6 
#
# 1 172.4231 36.3070 36.7105 0.0000 0.0000 0.0000
# 2 36.3070 105.2413 28.0337 0.0000 0.0000 0.0000
# 3 36.7105 28.0337 52.9792 0.0000 0.0000 0.0000
# 4 0.0000 0.0000 0.0000 11.6641 0.0000 0.0000
# 5 0.0000 0.0000 0.0000 0.0000 34.3494 0.0000
# 6 0.0000 0.0000 0.0000 0.0000 0.0000 25.5285
#
#
#
# Elastic Compliance Matrix: (Units=1/GPa)
#
#
# Indices 1 2 3 4 5 6 
#
# 1 0.006952 -0.001298 -0.004131 0.000000 0.000000 0.000000
# 2 -0.001298 0.011303 -0.005082 0.000000 0.000000 0.000000
# 3 -0.004131 -0.005082 0.024426 0.000000 0.000000 0.000000
# 4 0.000000 0.000000 0.000000 0.085733 0.000000 0.000000
# 5 0.000000 0.000000 0.000000 0.000000 0.029113 0.000000
# 6 0.000000 0.000000 0.000000 0.000000 0.000000 0.039172
#
#
# Mechanical properties :
#
#
# Convention : Reuss Voigt Hill
#
# Bulk Modulus (GPa) = 46.16478 59.19399 52.67939
# Shear Modulus (GPa) = 22.22805 29.61457 25.92131
#
# Velocity S-wave (km/s) = 3.24545 3.74608 3.50472
# Velocity P-wave (km/s) = 5.99329 6.83816 6.42962
#
# Compressibility (1/GPa) = 0.02166153
#
# Stress axis : x y z
#
# Youngs Moduli (GPa) = 143.83325 88.46847 40.93932
#
# Poissons Ratio (x) = 0.11485 0.16910
# Poissons Ratio (y) = 0.18673 0.20804
# Poissons Ratio (z) = 0.59411 0.44956
#
# Static dielectric constant tensor:
#      x y z
#    x 1.901060 0.000000 0.000000 
#    y 0.000000 1.746410 0.000000 
#    z 0.000000 0.000000 1.796260 
# 
# From -- ./inp_files/4486.got.cif
#   From: 2010.05.17/outbox.cif.g08.bks.cpg/sg24_3_cif.got.tgz:4486.got - 2010.06.04 00:33:39.
