data_PCOD9336087
_publ_section_title
;
Structure prediction by ZEFSAII (Michael W. Deem and Ramdas Pophale) SiO2 
 PCOD9336087
Probable space group: I 21 21 21
;
_chemical_formula_sum "Si O2"
_cell_formula_units_Z 56
_cell_length_a 20.165821
_cell_length_b 9.775935
_cell_length_c 13.654739
_cell_angle_alpha 90.000000
_cell_angle_beta 90.000000
_cell_angle_gamma 90.000000
_cell_volume 2691.891905
_symmetry_space_group_name_H-M "I 21 21 21"
_symmetry_group_IT_number 24
_symmetry_cell_setting 'orthorhombic'
loop_
_space_group_symop_operation_xyz
x,y,z
-x,1/2-y,z
x,-y,1/2-z
1/2-x,y,-z
1/2+x,1/2+y,1/2+z
1/2-x,-y,1/2+z
1/2+x,1/2-y,-z
-x,1/2+y,1/2-z
loop_
_atom_site_type_symbol
_atom_site_label
_atom_site_fract_x
_atom_site_fract_y
_atom_site_fract_z
Si Si1 0.936365 0.157325 0.535624
Si Si2 0.238575 0.163792 0.752076
Si Si3 0.064893 0.662699 0.532115
Si Si4 0.662799 0.647190 0.580550
Si Si5 0.388517 0.652138 0.250065
Si Si6 0.446961 0.140493 0.751742
Si Si7 0.843306 0.335790 0.418335
O O1 0.932759 0.158299 0.653313
O O2 0.867638 0.227344 0.498493
O O3 0.000000 0.250000 0.507317
O O4 0.940620 0.997884 0.502581
O O5 0.273163 0.194852 0.857604
O O6 0.168638 0.236012 0.745929
O O7 0.284032 0.200967 0.657114
O O8 0.233633 0.000000 0.750000
O O9 0.129725 0.741455 0.490087
O O10 0.071521 0.666067 0.649501
O O11 0.000000 0.750000 0.503360
O O12 0.609200 0.629787 0.667086
O O13 0.669939 0.490502 0.541348
O O14 0.357115 0.500000 0.250000
O O15 0.500000 0.250000 0.774929
O O16 0.407692 0.162451 0.652060
O O17 0.485706 0.000000 0.750000
#
# Coordination Sequence:
#
# PCOD9336087 Si02
#       7
#     8   8   8   8   8   8   8
#     4  11  23  39  59  84 113 149 191 237 287 337
#     4   9  20  39  62  87 116 151 190 228 276 337
#     4  11  23  39  59  84 113 149 191 237 287 337
#     4   9  19  36  56  82 114 146 183 229 278 335
#     4  10  24  42  58  80 114 152 192 238 286 334
#     4   9  17  29  47  73 108 143 176 218 270 327
#     4   9  19  36  56  82 114 146 183 229 278 335
#
# _framework density 20.803213
#
# number of rings (size 3 to 8) (size 9 to 14) (size 15 to 20)
#    0.000    2.286    0.000    3.857    0.000    8.000 
#    0.000    8.571    0.000    0.000    0.000    0.000 
#    0.000    0.000    0.000    0.000    0.000    0.000 
#
# Total GULP energy -156173.327763 kJ/mol
# GULP energy per Si atom -5577.618849 kJ/mol
# Density = 2.075586 g / cm^3
# Si number density = 20.803213 Si / 1000 Ang^3
#
#
#
# Elastic Constant Matrix: (Units=GPa)
#
#
# Indices 1 2 3 4 5 6 
#
# 1 64.6086 34.4048 -5.4080 0.0000 0.0000 0.0000
# 2 34.4048 98.0429 25.6847 0.0000 0.0000 0.0000
# 3 -5.4080 25.6847 57.7384 0.0000 0.0000 0.0000
# 4 0.0000 0.0000 0.0000 23.8391 0.0000 0.0000
# 5 0.0000 0.0000 0.0000 0.0000 25.5563 0.0000
# 6 0.0000 0.0000 0.0000 0.0000 0.0000 27.4324
#
#
#
# Elastic Compliance Matrix: (Units=1/GPa)
#
#
# Indices 1 2 3 4 5 6 
#
# 1 0.020636 -0.008770 0.005834 0.000000 0.000000 0.000000
# 2 -0.008770 0.015272 -0.007615 0.000000 0.000000 0.000000
# 3 0.005834 -0.007615 0.021254 0.000000 0.000000 0.000000
# 4 0.000000 0.000000 0.000000 0.041948 0.000000 0.000000
# 5 0.000000 0.000000 0.000000 0.000000 0.039129 0.000000
# 6 0.000000 0.000000 0.000000 0.000000 0.000000 0.036453
#
#
# Mechanical properties :
#
#
# Convention : Reuss Voigt Hill
#
# Bulk Modulus (GPa) = 27.73160 36.63919 32.18540
# Shear Modulus (GPa) = 24.05996 26.41281 25.23638
#
# Velocity S-wave (km/s) = 3.40450 3.56708 3.48674
# Velocity P-wave (km/s) = 5.36782 5.88353 5.63158
#
# Compressibility (1/GPa) = 0.03605995
#
# Stress axis : x y z
#
# Youngs Moduli (GPa) = 48.45835 65.47879 47.05102
#
# Poissons Ratio (x) = 0.57425 -0.27450
# Poissons Ratio (y) = 0.42498 0.35830
# Poissons Ratio (z) = -0.28271 0.49863
#
# Static dielectric constant tensor:
#      x y z
#    x 1.711260 0.000000 0.000000 
#    y 0.000000 1.755590 0.000000 
#    z 0.000000 0.000000 1.789280 
# 
# From -- ./inp_files/27534.got.cif
#   From: 2010.05.17/outbox.cif.g08.bks.cpg/sg24_14_cif.got.tgz:27534.got - 2010.06.04 00:33:39.
