data_PCOD9336736
_publ_section_title
;
Structure prediction by ZEFSAII (Michael W. Deem and Ramdas Pophale) SiO2 
 PCOD9336736
Probable space group: I 21 21 21
;
_chemical_formula_sum "Si O2"
_cell_formula_units_Z 48
_cell_length_a 28.590011
_cell_length_b 7.835763
_cell_length_c 9.153876
_cell_angle_alpha 90.000000
_cell_angle_beta 90.000000
_cell_angle_gamma 90.000000
_cell_volume 2050.692955
_symmetry_space_group_name_H-M "I 21 21 21"
_symmetry_group_IT_number 24
_symmetry_cell_setting 'orthorhombic'
loop_
_space_group_symop_operation_xyz
x,y,z
-x,1/2-y,z
x,-y,1/2-z
1/2-x,y,-z
1/2+x,1/2+y,1/2+z
1/2-x,-y,1/2+z
1/2+x,1/2-y,-z
-x,1/2+y,1/2-z
loop_
_atom_site_type_symbol
_atom_site_label
_atom_site_fract_x
_atom_site_fract_y
_atom_site_fract_z
Si Si1 0.142250 0.959699 0.581337
Si Si2 0.609581 0.000000 0.250000
Si Si3 0.293107 0.500000 0.750000
Si Si4 0.859816 0.183867 0.473838
Si Si5 0.947399 0.705041 0.214430
Si Si6 0.785884 0.356331 0.123423
Si Si7 0.054982 0.753403 0.544306
O O1 0.167421 0.820588 0.476713
O O2 0.086531 0.922239 0.573076
O O3 0.154424 0.000000 0.750000
O O4 0.157755 0.125371 0.493462
O O5 0.637806 0.111466 0.363782
O O6 0.578407 0.118911 0.149558
O O7 0.326520 0.427865 0.623905
O O8 0.269088 0.673604 0.690442
O O9 0.909878 0.216756 0.396151
O O10 0.943142 0.500000 0.250000
O O11 0.940222 0.789071 0.373412
O O12 0.000000 0.750000 0.165111
O O13 0.790157 0.500000 0.250000
O O14 0.750000 0.416115 0.000000
O O15 0.000000 0.750000 0.574649
#
# Coordination Sequence:
#
# PCOD9336736 Si02
#       7
#     8   4   4   8   8   8   8
#     4  12  24  48  76 108 150 204 252 319 390 460
#     4  12  26  40  63 102 144 194 250 326 373 444
#     4  12  28  50  83 114 154 200 250 306 385 476
#     4  12  25  44  75 103 146 194 255 311 378 453
#     4  11  25  42  66  96 139 199 259 321 381 451
#     4  12  28  55  84 121 156 201 252 315 389 468
#     4  11  26  42  66 102 145 198 261 320 385 458
#
# _framework density 23.40672
#
# number of rings (size 3 to 8) (size 9 to 14) (size 15 to 20)
#    0.000    0.333    5.000    3.500    7.000    1.333 
#    3.000    0.000    0.000    0.000    0.000    0.000 
#    0.000    0.000    0.000    0.000    0.000    0.000 
#
# Total GULP energy -134065.372263 kJ/mol
# GULP energy per Si atom -5586.057178 kJ/mol
# Density = 2.335345 g / cm^3
# Si number density = 23.406720 Si / 1000 Ang^3
#
#
#
# Elastic Constant Matrix: (Units=GPa)
#
#
# Indices 1 2 3 4 5 6 
#
# 1 58.0543 1.4532 33.7140 0.0000 0.0000 0.0000
# 2 1.4532 102.9772 37.4126 0.0000 0.0000 0.0000
# 3 33.7140 37.4126 115.2835 0.0000 0.0000 0.0000
# 4 0.0000 0.0000 0.0000 51.3088 0.0000 0.0000
# 5 0.0000 0.0000 0.0000 0.0000 -86.6587 0.0000
# 6 0.0000 0.0000 0.0000 0.0000 0.0000 13.4803
#
#
#
# Elastic Compliance Matrix: (Units=1/GPa)
#
#
# Indices 1 2 3 4 5 6 
#
# 1 0.021185 0.002213 -0.006913 0.000000 0.000000 0.000000
# 2 0.002213 0.011240 -0.004295 0.000000 0.000000 0.000000
# 3 -0.006913 -0.004295 0.012090 0.000000 0.000000 0.000000
# 4 0.000000 0.000000 0.000000 0.019490 0.000000 0.000000
# 5 0.000000 0.000000 0.000000 0.000000 -0.011540 0.000000
# 6 0.000000 0.000000 0.000000 0.000000 0.000000 0.074182
#
#
# Mechanical properties :
#
#
# Convention : Reuss Voigt Hill
#
# Bulk Modulus (GPa) = 37.70222 46.83050 42.26636
# Shear Modulus (GPa) = 32.57764 9.20842 20.89303
#
# Velocity S-wave (km/s) = 3.73474 1.98561 2.99090
# Velocity P-wave (km/s) = 5.89407 5.03066 5.47940
#
# Compressibility (1/GPa) = 0.02652364
#
# Stress axis : x y z
#
# Youngs Moduli (GPa) = 47.20375 88.96791 82.71395
#
# Poissons Ratio (x) = -0.19687 0.57184
# Poissons Ratio (y) = -0.10445 0.35524
# Poissons Ratio (z) = 0.32634 0.38210
#
# Static dielectric constant tensor:
#      x y z
#    x 1.871970 0.000000 0.000000 
#    y 0.000000 2.055820 0.000000 
#    z 0.000000 0.000000 1.840850 
# 
# From -- ./inp_files/16882.got.cif
#   From: 2010.05.17/outbox.cif.g08.bks.cpg/sg24_9_cif.got.tgz:16882.got - 2010.06.04 00:33:39.
