data_PCOD9336097
_publ_section_title
;
Structure prediction by ZEFSAII (Michael W. Deem and Ramdas Pophale) SiO2 
 PCOD9336097
Probable space group: I 21 21 21
;
_chemical_formula_sum "Si O2"
_cell_formula_units_Z 60
_cell_length_a 27.482062
_cell_length_b 8.526583
_cell_length_c 12.048170
_cell_angle_alpha 90.000000
_cell_angle_beta 90.000000
_cell_angle_gamma 90.000000
_cell_volume 2823.224576
_symmetry_space_group_name_H-M "I 21 21 21"
_symmetry_group_IT_number 24
_symmetry_cell_setting 'orthorhombic'
loop_
_space_group_symop_operation_xyz
x,y,z
-x,1/2-y,z
x,-y,1/2-z
1/2-x,y,-z
1/2+x,1/2+y,1/2+z
1/2-x,-y,1/2+z
1/2+x,1/2-y,-z
-x,1/2+y,1/2-z
loop_
_atom_site_type_symbol
_atom_site_label
_atom_site_fract_x
_atom_site_fract_y
_atom_site_fract_z
Si Si1 0.389808 0.334474 0.646077
Si Si2 0.302523 0.684441 0.447137
Si Si3 0.581214 0.000000 0.250000
Si Si4 0.851962 0.683594 0.763175
Si Si5 0.954698 0.461250 0.366524
Si Si6 0.393148 0.248494 0.896581
Si Si7 0.544147 0.961834 0.490888
Si Si8 0.694010 0.187951 0.479722
O O1 0.385861 0.340232 0.779659
O O2 0.411149 0.461544 0.560034
O O3 0.337745 0.297342 0.591714
O O4 0.433028 0.209468 0.633039
O O5 0.250000 0.716527 0.500000
O O6 0.312409 0.773065 0.331681
O O7 0.345467 0.737292 0.529525
O O8 0.307212 0.494355 0.437372
O O9 0.610904 0.833537 0.248514
O O10 0.550644 0.993161 0.362536
O O11 0.868523 0.500000 0.750000
O O12 0.829707 0.705099 0.885254
O O13 0.981539 0.500000 0.250000
O O14 0.907265 0.571270 0.366813
O O15 0.993254 0.482565 0.462876
O O16 0.441525 0.288350 0.969787
O O17 0.750000 0.227554 0.500000
#
# Coordination Sequence:
#
# PCOD9336097 Si02
#       8
#     8   8   4   8   8   8   8   8
#     4  11  22  40  65  98 130 172 226 284 342 415
#     4  11  24  43  69 100 138 183 235 291 346 422
#     4  12  24  48  68 106 142 186 242 286 344 414
#     4  12  24  46  71  98 145 198 227 290 355 410
#     4  10  24  42  65  97 136 175 222 290 357 415
#     4  11  22  40  65  98 130 172 226 284 342 415
#     4  12  22  42  68  91 137 175 228 283 339 421
#     4  11  24  43  69 100 138 183 235 291 346 422
#
# _framework density 21.252296000000001
#
# number of rings (size 3 to 8) (size 9 to 14) (size 15 to 20)
#    0.000    0.800    5.333    2.000    3.733    2.667 
#    0.000    4.000    0.000    0.000    0.000    0.000 
#    0.000    0.000    0.000    0.000    0.000    0.000 
#
# Total GULP energy -167320.377123 kJ/mol
# GULP energy per Si atom -5577.345904 kJ/mol
# Density = 2.120392 g / cm^3
# Si number density = 21.252296 Si / 1000 Ang^3
#
#
#
# Elastic Constant Matrix: (Units=GPa)
#
#
# Indices 1 2 3 4 5 6 
#
# 1 69.3912 -6.4679 25.9753 0.0000 0.0000 0.0000
# 2 -6.4679 44.9719 17.5554 0.0000 0.0000 0.0000
# 3 25.9753 17.5554 140.0712 0.0000 0.0000 0.0000
# 4 0.0000 0.0000 0.0000 22.3725 0.0000 0.0000
# 5 0.0000 0.0000 0.0000 0.0000 16.0962 0.0000
# 6 0.0000 0.0000 0.0000 0.0000 0.0000 -2.4168
#
#
#
# Elastic Compliance Matrix: (Units=1/GPa)
#
#
# Indices 1 2 3 4 5 6 
#
# 1 0.016035 0.003645 -0.003430 0.000000 0.000000 0.000000
# 2 0.003645 0.024209 -0.003710 0.000000 0.000000 0.000000
# 3 -0.003430 -0.003710 0.008240 0.000000 0.000000 0.000000
# 4 0.000000 0.000000 0.000000 0.044698 0.000000 0.000000
# 5 0.000000 0.000000 0.000000 0.000000 0.062127 0.000000
# 6 0.000000 0.000000 0.000000 0.000000 0.000000 -0.413776
#
#
# Mechanical properties :
#
#
# Convention : Reuss Voigt Hill
#
# Bulk Modulus (GPa) = 24.10021 36.50665 30.30343
# Shear Modulus (GPa) = -21.03970 21.70182 0.33106
#
# Velocity S-wave (km/s) = -3.14983 3.19901 0.39511
# Velocity P-wave (km/s) = 1.36526 5.55517 3.80762
#
# Compressibility (1/GPa) = 0.04149341
#
# Stress axis : x y z
#
# Youngs Moduli (GPa) = 62.36382 41.30755 121.35374
#
# Poissons Ratio (x) = -0.15058 0.41630
# Poissons Ratio (y) = -0.22733 0.45023
# Poissons Ratio (z) = 0.21394 0.15326
#
# Static dielectric constant tensor:
#      x y z
#    x 1.713410 0.000000 0.000000 
#    y 0.000000 2.012300 0.000000 
#    z 0.000000 0.000000 1.750220 
# 
# From -- ./inp_files/23165.got.cif
#   From: 2010.05.17/outbox.cif.g08.bks.cpg/sg24_12_cif.got.tgz:23165.got - 2010.06.04 00:33:39.
