data_PCOD9336735
_publ_section_title
;
Structure prediction by ZEFSAII (Michael W. Deem and Ramdas Pophale) SiO2 
 PCOD9336735
Probable space group: I 21 21 21
;
_chemical_formula_sum "Si O2"
_cell_formula_units_Z 36
_cell_length_a 12.513858
_cell_length_b 5.231852
_cell_length_c 22.082678
_cell_angle_alpha 90.000000
_cell_angle_beta 90.000000
_cell_angle_gamma 90.000000
_cell_volume 1445.767349
_symmetry_space_group_name_H-M "I 21 21 21"
_symmetry_group_IT_number 24
_symmetry_cell_setting 'orthorhombic'
loop_
_space_group_symop_operation_xyz
x,y,z
-x,1/2-y,z
x,-y,1/2-z
1/2-x,y,-z
1/2+x,1/2+y,1/2+z
1/2-x,-y,1/2+z
1/2+x,1/2-y,-z
-x,1/2+y,1/2-z
loop_
_atom_site_type_symbol
_atom_site_label
_atom_site_fract_x
_atom_site_fract_y
_atom_site_fract_z
Si Si1 0.657022 0.686671 0.586731
Si Si2 0.000000 0.250000 0.598798
Si Si3 0.844421 0.755403 0.787611
Si Si4 0.612915 0.816276 0.839554
Si Si5 0.388095 0.666851 0.450617
O O1 0.631171 0.406824 0.610593
O O2 0.620495 0.724571 0.517574
O O3 0.784037 0.750183 0.585196
O O4 0.608154 0.908141 0.628577
O O5 0.093115 0.214596 0.649983
O O6 0.085298 0.369614 0.549636
O O7 0.855610 0.500000 0.750000
O O8 0.718844 0.801753 0.799722
O O9 0.885561 0.000000 0.750000
O O10 0.500000 0.750000 0.808745
O O11 0.500000 0.750000 0.418633
#
# Coordination Sequence:
#
# PCOD9336735 Si02
#       5
#     8   4   8   8   8
#     4  11  26  45  69 111 153 195 243 304 369 473
#     4  12  26  46  74 108 152 194 252 320 380 460
#     4  12  28  49  75 106 145 196 262 321 382 434
#     4  12  25  48  74 105 151 192 250 309 379 448
#     4  11  25  41  73 106 152 198 248 297 386 457
#
# _framework density 24.900272000000001
#
# number of rings (size 3 to 8) (size 9 to 14) (size 15 to 20)
#    0.000    0.444    2.222    5.333    7.778    2.667 
#    0.000    0.000    0.000    0.000    0.000    0.000 
#    0.000    0.000    0.000    0.000    0.000    0.000 
#
# Total GULP energy -100538.625496 kJ/mol
# GULP energy per Si atom -5585.479194 kJ/mol
# Density = 2.484360 g / cm^3
# Si number density = 24.900272 Si / 1000 Ang^3
#
#
#
# Elastic Constant Matrix: (Units=GPa)
#
#
# Indices 1 2 3 4 5 6 
#
# 1 186.3708 -0.7523 4.1203 0.0000 0.0000 0.0000
# 2 -0.7523 118.5130 59.0816 0.0000 0.0000 0.0000
# 3 4.1203 59.0816 62.4786 0.0000 0.0000 0.0000
# 4 0.0000 0.0000 0.0000 47.7015 0.0000 0.0000
# 5 0.0000 0.0000 0.0000 0.0000 -15.1480 0.0000
# 6 0.0000 0.0000 0.0000 0.0000 0.0000 27.1511
#
#
#
# Elastic Compliance Matrix: (Units=1/GPa)
#
#
# Indices 1 2 3 4 5 6 
#
# 1 0.005383 0.000399 -0.000733 0.000000 0.000000 0.000000
# 2 0.000399 0.015993 -0.015150 0.000000 0.000000 0.000000
# 3 -0.000733 -0.015150 0.030380 0.000000 0.000000 0.000000
# 4 0.000000 0.000000 0.000000 0.020964 0.000000 0.000000
# 5 0.000000 0.000000 0.000000 0.000000 -0.066015 0.000000
# 6 0.000000 0.000000 0.000000 0.000000 0.000000 0.036831
#
#
# Mechanical properties :
#
#
# Convention : Reuss Voigt Hill
#
# Bulk Modulus (GPa) = 48.09970 54.69572 51.39771
# Shear Modulus (GPa) = 61.40105 32.26843 46.83474
#
# Velocity S-wave (km/s) = 4.97115 3.60378 4.34163
# Velocity P-wave (km/s) = 7.23247 6.27135 6.76899
#
# Compressibility (1/GPa) = 0.02079015
#
# Stress axis : x y z
#
# Youngs Moduli (GPa) = 185.75410 62.52756 32.91658
#
# Poissons Ratio (x) = -0.02498 0.02412
# Poissons Ratio (y) = -0.07421 0.49868
# Poissons Ratio (z) = 0.13612 0.94728
#
# Static dielectric constant tensor:
#      x y z
#    x 2.029730 0.000000 0.000000 
#    y 0.000000 1.344970 0.000000 
#    z 0.000000 0.000000 1.872090 
# 
# From -- ./inp_files/22444.got.cif
#   From: 2010.05.17/outbox.cif.g08.bks.cpg/sg24_12_cif.got.tgz:22444.got - 2010.06.04 00:33:39.
