data_PCOD9336764
_publ_section_title
;
Structure prediction by ZEFSAII (Michael W. Deem and Ramdas Pophale) SiO2 
 PCOD9336764
Probable space group: I 21 21 21
;
_chemical_formula_sum "Si O2"
_cell_formula_units_Z 32
_cell_length_a 18.281564
_cell_length_b 7.598765
_cell_length_c 9.579381
_cell_angle_alpha 90.000000
_cell_angle_beta 90.000000
_cell_angle_gamma 90.000000
_cell_volume 1330.741827
_symmetry_space_group_name_H-M "I 21 21 21"
_symmetry_group_IT_number 24
_symmetry_cell_setting 'orthorhombic'
loop_
_space_group_symop_operation_xyz
x,y,z
-x,1/2-y,z
x,-y,1/2-z
1/2-x,y,-z
1/2+x,1/2+y,1/2+z
1/2-x,-y,1/2+z
1/2+x,1/2-y,-z
-x,1/2+y,1/2-z
loop_
_atom_site_type_symbol
_atom_site_label
_atom_site_fract_x
_atom_site_fract_y
_atom_site_fract_z
Si Si1 0.277024 0.173093 0.658609
Si Si2 0.817617 0.237573 0.894939
Si Si3 0.557821 0.044329 0.403868
Si Si4 0.592689 0.419561 0.497379
O O1 0.250000 0.177582 0.500000
O O2 0.225033 0.298165 0.748892
O O3 0.364375 0.159590 0.631877
O O4 0.262790 0.000000 0.750000
O O5 0.875033 0.084989 0.928971
O O6 0.862257 0.420388 0.926606
O O7 0.750000 0.239452 0.000000
O O8 0.583789 0.246283 0.401850
O O9 0.491438 0.021719 0.512704
O O10 0.528020 0.000000 0.250000
#
# Coordination Sequence:
#
# PCOD9336764 Si02
#       4
#     8   8   8   8
#     4  12  22  42  76 104 145 194 245 307 386 442
#     4  12  26  47  78 109 143 196 255 313 375 453
#     4  11  28  42  73 109 148 196 256 301 373 467
#     4  11  25  47  69 108 151 192 243 316 378 438
#
# _framework density 24.046738000000001
#
# number of rings (size 3 to 8) (size 9 to 14) (size 15 to 20)
#    0.000    0.500    5.000    2.250   10.500    4.000 
#    0.000    5.000    0.000    0.000    0.000    0.000 
#    0.000    0.000    0.000    0.000    0.000    0.000 
#
# Total GULP energy -89241.565948 kJ/mol
# GULP energy per Si atom -5577.597872 kJ/mol
# Density = 2.399201 g / cm^3
# Si number density = 24.046738 Si / 1000 Ang^3
#
#
#
# Elastic Constant Matrix: (Units=GPa)
#
#
# Indices 1 2 3 4 5 6 
#
# 1 233.3538 89.8391 59.9698 0.0000 0.0000 0.0000
# 2 89.8391 154.8339 29.8733 0.0000 0.0000 0.0000
# 3 59.9698 29.8733 89.0794 0.0000 0.0000 0.0000
# 4 0.0000 0.0000 0.0000 20.5401 0.0000 0.0000
# 5 0.0000 0.0000 0.0000 0.0000 50.4054 0.0000
# 6 0.0000 0.0000 0.0000 0.0000 0.0000 51.7752
#
#
#
# Elastic Compliance Matrix: (Units=1/GPa)
#
#
# Indices 1 2 3 4 5 6 
#
# 1 0.006273 -0.003021 -0.003210 0.000000 0.000000 0.000000
# 2 -0.003021 0.008360 -0.000770 0.000000 0.000000 0.000000
# 3 -0.003210 -0.000770 0.013645 0.000000 0.000000 0.000000
# 4 0.000000 0.000000 0.000000 0.048685 0.000000 0.000000
# 5 0.000000 0.000000 0.000000 0.000000 0.019839 0.000000
# 6 0.000000 0.000000 0.000000 0.000000 0.000000 0.019314
#
#
# Mechanical properties :
#
#
# Convention : Reuss Voigt Hill
#
# Bulk Modulus (GPa) = 70.04434 92.95904 81.50169
# Shear Modulus (GPa) = 37.07066 44.38313 40.72689
#
# Velocity S-wave (km/s) = 3.93059 4.30082 4.11987
# Velocity P-wave (km/s) = 7.05628 7.96269 7.52314
#
# Compressibility (1/GPa) = 0.01427667
#
# Stress axis : x y z
#
# Youngs Moduli (GPa) = 159.40755 119.62165 73.28480
#
# Poissons Ratio (x) = 0.36132 0.23527
# Poissons Ratio (y) = 0.48149 0.05643
# Poissons Ratio (z) = 0.51175 0.09211
#
# Static dielectric constant tensor:
#      x y z
#    x 2.033660 0.000000 0.000000 
#    y 0.000000 2.023310 0.000000 
#    z 0.000000 0.000000 2.049810 
# 
# From -- ./inp_files/14776.got.cif
#   From: 2010.05.17/outbox.cif.g08.bks.cpg/sg24_8_cif.got.tgz:14776.got - 2010.06.04 00:33:39.
