data_PCOD9336332
_publ_section_title
;
Structure prediction by ZEFSAII (Michael W. Deem and Ramdas Pophale) SiO2 
 PCOD9336332
Probable space group: I 21 21 21
;
_chemical_formula_sum "Si O2"
_cell_formula_units_Z 20
_cell_length_a 15.251112
_cell_length_b 10.448468
_cell_length_c 4.664649
_cell_angle_alpha 90.000000
_cell_angle_beta 90.000000
_cell_angle_gamma 90.000000
_cell_volume 743.315343
_symmetry_space_group_name_H-M "I 21 21 21"
_symmetry_group_IT_number 24
_symmetry_cell_setting 'orthorhombic'
loop_
_space_group_symop_operation_xyz
x,y,z
-x,1/2-y,z
x,-y,1/2-z
1/2-x,y,-z
1/2+x,1/2+y,1/2+z
1/2-x,-y,1/2+z
1/2+x,1/2-y,-z
-x,1/2+y,1/2-z
loop_
_atom_site_type_symbol
_atom_site_label
_atom_site_fract_x
_atom_site_fract_y
_atom_site_fract_z
Si Si1 0.846515 0.294306 0.370181
Si Si2 0.065761 0.000000 0.750000
Si Si3 0.897952 0.133065 0.840140
O O1 0.750000 0.272402 0.500000
O O2 0.875544 0.428822 0.513233
O O3 0.909550 0.197322 0.534592
O O4 0.853763 0.237095 0.049446
O O5 0.995971 0.911103 0.576306
O O6 0.849083 0.000000 0.750000
#
# Coordination Sequence:
#
# PCOD9336332 Si02
#       3
#     8   4   8
#     4  12  26  49  80 115 158 204 268 335 395 466
#     4  10  28  50  78 112 158 212 266 320 396 486
#     4  10  26  49  79 108 159 209 267 317 401 483
#
# _framework density 26.906479999999998
#
# number of rings (size 3 to 8) (size 9 to 14) (size 15 to 20)
#    1.200    0.000    0.000    3.600    0.000   17.600 
#    0.000    0.000    0.000    0.000    0.000    0.000 
#    0.000    0.000    0.000    0.000    0.000    0.000 
#
# Total GULP energy -55706.796231 kJ/mol
# GULP energy per Si atom -5570.679623 kJ/mol
# Density = 2.684524 g / cm^3
# Si number density = 26.906480 Si / 1000 Ang^3
#
#
#
# Elastic Constant Matrix: (Units=GPa)
#
#
# Indices 1 2 3 4 5 6 
#
# 1 126.2989 31.2903 29.2565 0.0000 0.0000 0.0000
# 2 31.2903 111.6560 54.3367 0.0000 0.0000 0.0000
# 3 29.2565 54.3367 170.5761 0.0000 0.0000 0.0000
# 4 0.0000 0.0000 0.0000 63.5967 0.0000 0.0000
# 5 0.0000 0.0000 0.0000 0.0000 20.9273 0.0000
# 6 0.0000 0.0000 0.0000 0.0000 0.0000 31.5236
#
#
#
# Elastic Compliance Matrix: (Units=1/GPa)
#
#
# Indices 1 2 3 4 5 6 
#
# 1 0.008608 -0.002005 -0.000838 0.000000 0.000000 0.000000
# 2 -0.002005 0.011066 -0.003181 0.000000 0.000000 0.000000
# 3 -0.000838 -0.003181 0.007020 0.000000 0.000000 0.000000
# 4 0.000000 0.000000 0.000000 0.015724 0.000000 0.000000
# 5 0.000000 0.000000 0.000000 0.000000 0.047784 0.000000
# 6 0.000000 0.000000 0.000000 0.000000 0.000000 0.031722
#
#
# Mechanical properties :
#
#
# Convention : Reuss Voigt Hill
#
# Bulk Modulus (GPa) = 68.27591 70.92199 69.59895
# Shear Modulus (GPa) = 36.00893 42.78603 39.39748
#
# Velocity S-wave (km/s) = 3.66225 3.99203 3.83069
# Velocity P-wave (km/s) = 6.58127 6.90393 6.74453
#
# Compressibility (1/GPa) = 0.01464646
#
# Stress axis : x y z
#
# Youngs Moduli (GPa) = 116.16460 90.36712 142.45891
#
# Poissons Ratio (x) = 0.18116 0.11937
# Poissons Ratio (y) = 0.23287 0.45319
# Poissons Ratio (z) = 0.09734 0.28748
#
# Static dielectric constant tensor:
#      x y z
#    x 2.071350 0.000000 0.000000 
#    y 0.000000 2.451080 0.000000 
#    z 0.000000 0.000000 2.028170 
# 
# From -- ./inp_files/2811.got.cif
#   From: 2010.05.17/outbox.cif.g08.bks.cpg/sg24_2_cif.got.tgz:2811.got - 2010.06.04 00:33:39.
