data_PCOD9336900
_publ_section_title
;
Structure prediction by ZEFSAII (Michael W. Deem and Ramdas Pophale) SiO2 
 PCOD9336900
Probable space group: I 21 21 21
;
_chemical_formula_sum "Si O2"
_cell_formula_units_Z 56
_cell_length_a 13.262696
_cell_length_b 21.641753
_cell_length_c 9.087508
_cell_angle_alpha 90.000000
_cell_angle_beta 90.000000
_cell_angle_gamma 90.000000
_cell_volume 2608.369164
_symmetry_space_group_name_H-M "I 21 21 21"
_symmetry_group_IT_number 24
_symmetry_cell_setting 'orthorhombic'
loop_
_space_group_symop_operation_xyz
x,y,z
-x,1/2-y,z
x,-y,1/2-z
1/2-x,y,-z
1/2+x,1/2+y,1/2+z
1/2-x,-y,1/2+z
1/2+x,1/2-y,-z
-x,1/2+y,1/2-z
loop_
_atom_site_type_symbol
_atom_site_label
_atom_site_fract_x
_atom_site_fract_y
_atom_site_fract_z
Si Si1 0.858667 0.429524 0.763682
Si Si2 0.975671 0.945623 0.481828
Si Si3 0.533274 0.917538 0.030742
Si Si4 0.008511 0.342830 0.260703
Si Si5 0.291219 0.699192 0.664110
Si Si6 0.800569 0.932598 0.717360
Si Si7 0.775769 0.319484 0.327228
O O1 0.817986 0.500000 0.750000
O O2 0.930725 0.414109 0.624743
O O3 0.776998 0.375603 0.761299
O O4 0.934147 0.431668 0.902512
O O5 0.991198 0.902027 0.345075
O O6 0.870589 0.934646 0.570746
O O7 0.975675 0.017780 0.445681
O O8 0.621891 0.924386 0.148187
O O9 0.550722 0.861926 0.920607
O O10 0.087797 0.298060 0.180762
O O11 0.894518 0.324559 0.295455
O O12 0.250000 0.708792 0.500000
O O13 0.264444 0.628978 0.709487
O O14 0.243828 0.752291 0.766211
O O15 0.751550 0.000000 0.750000
O O16 0.750000 0.324989 0.500000
#
# Coordination Sequence:
#
# PCOD9336900 Si02
#       7
#     8   8   8   8   8   8   8
#     4   9  20  44  71  98 139 184 229 284 357 420
#     4   9  19  38  68 106 139 177 228 289 350 418
#     4   9  19  38  68 106 139 177 228 289 350 418
#     4  12  24  42  68 100 139 178 235 294 341 420
#     4  12  28  49  68 101 141 187 238 292 350 421
#     4   9  20  44  71  98 139 184 229 284 357 420
#     4  12  28  49  68 101 141 187 238 292 350 421
#
# _framework density 21.469355
#
# number of rings (size 3 to 8) (size 9 to 14) (size 15 to 20)
#    0.000    1.714    2.857    2.571    4.000    2.286 
#    0.000    2.857    0.000    0.000    0.000    0.000 
#    0.000    0.000    0.000    0.000    0.000    0.000 
#
# Total GULP energy -156404.005072 kJ/mol
# GULP energy per Si atom -5585.857324 kJ/mol
# Density = 2.142049 g / cm^3
# Si number density = 21.469355 Si / 1000 Ang^3
#
#
#
# Elastic Constant Matrix: (Units=GPa)
#
#
# Indices 1 2 3 4 5 6 
#
# 1 100.2095 50.8488 22.7050 0.0001 0.0000 0.0000
# 2 50.8488 94.9755 33.0532 0.0002 0.0000 0.0003
# 3 22.7050 33.0532 77.5893 0.0009 -0.0003 0.0005
# 4 0.0001 0.0002 0.0009 26.9382 -0.0001 0.0001
# 5 0.0000 0.0000 -0.0003 -0.0001 20.6308 0.0002
# 6 0.0000 0.0003 0.0005 0.0001 0.0002 1.0290
#
#
#
# Elastic Compliance Matrix: (Units=1/GPa)
#
#
# Indices 1 2 3 4 5 6 
#
# 1 0.013773 -0.007011 -0.001044 0.000000 0.000000 0.000002
# 2 -0.007011 0.015930 -0.004735 0.000000 0.000000 -0.000002
# 3 -0.001044 -0.004735 0.015211 0.000000 0.000000 -0.000006
# 4 0.000000 0.000000 0.000000 0.037122 0.000000 -0.000005
# 5 0.000000 0.000000 0.000000 0.000000 0.048471 -0.000012
# 6 0.000002 -0.000002 -0.000006 -0.000005 -0.000012 0.971802
#
#
# Mechanical properties :
#
#
# Convention : Reuss Voigt Hill
#
# Bulk Modulus (GPa) = 51.71822 53.99871 52.85846
# Shear Modulus (GPa) = 4.40788 20.79742 12.60265
#
# Velocity S-wave (km/s) = 1.43442 3.11578 2.42545
# Velocity P-wave (km/s) = 5.18508 6.17659 5.70242
#
# Compressibility (1/GPa) = 0.01933555
#
# Stress axis : x y z
#
# Youngs Moduli (GPa) = 72.60605 62.77374 65.74242
#
# Poissons Ratio (x) = 0.44008 0.06863
# Poissons Ratio (y) = 0.50901 0.31128
# Poissons Ratio (z) = 0.07579 0.29722
#
# Static dielectric constant tensor:
#      x y z
#    x 1.793580 0.000000 0.000000 
#    y 0.000000 1.787090 0.000000 
#    z 0.000000 0.000000 1.796770 
# 
# From -- ./inp_files/13146.got.cif
#   From: 2010.05.17/outbox.cif.g08.bks.cpg/sg24_7_cif.got.tgz:13146.got - 2010.06.04 00:33:39.
