data_PCOD9336378
_publ_section_title
;
Structure prediction by ZEFSAII (Michael W. Deem and Ramdas Pophale) SiO2 
 PCOD9336378
Probable space group: I 21 21 21
;
_chemical_formula_sum "Si O2"
_cell_formula_units_Z 48
_cell_length_a 12.150435
_cell_length_b 18.254411
_cell_length_c 10.477458
_cell_angle_alpha 90.000000
_cell_angle_beta 90.000000
_cell_angle_gamma 90.000000
_cell_volume 2323.890067
_symmetry_space_group_name_H-M "I 21 21 21"
_symmetry_group_IT_number 24
_symmetry_cell_setting 'orthorhombic'
loop_
_space_group_symop_operation_xyz
x,y,z
-x,1/2-y,z
x,-y,1/2-z
1/2-x,y,-z
1/2+x,1/2+y,1/2+z
1/2-x,-y,1/2+z
1/2+x,1/2-y,-z
-x,1/2+y,1/2-z
loop_
_atom_site_type_symbol
_atom_site_label
_atom_site_fract_x
_atom_site_fract_y
_atom_site_fract_z
Si Si1 0.975979 0.083221 0.965849
Si Si2 0.322091 0.823683 0.373473
Si Si3 0.437367 0.929850 0.953015
Si Si4 0.207638 0.665427 0.646082
Si Si5 0.448141 0.332114 0.763497
Si Si6 0.287328 0.929768 0.176536
O O1 0.875424 0.098022 0.868090
O O2 0.079227 0.121240 0.898743
O O3 0.969635 0.126720 0.101502
O O4 0.991308 0.999057 0.003233
O O5 0.250000 0.820093 0.500000
O O6 0.355635 0.742061 0.335071
O O7 0.251347 0.862908 0.265137
O O8 0.500876 0.876537 0.856247
O O9 0.325428 0.959025 0.885736
O O10 0.379147 0.898178 0.080226
O O11 0.250000 0.669052 0.500000
O O12 0.313910 0.666735 0.737255
O O13 0.500000 0.250000 0.768604
O O14 0.333912 0.000000 0.250000
#
# Coordination Sequence:
#
# PCOD9336378 Si02
#       6
#     8   8   8   8   8   8
#     4  11  20  36  62  95 128 166 220 277 332 379
#     4  11  19  34  63  96 131 164 209 280 333 382
#     4  11  23  37  63  93 134 171 211 271 333 400
#     4   9  20  35  60  94 123 164 218 274 325 382
#     4  11  21  39  64  96 130 170 222 267 327 404
#     4  11  21  36  57  98 129 163 210 267 343 391
#
# _framework density 20.655021000000001
#
# number of rings (size 3 to 8) (size 9 to 14) (size 15 to 20)
#    0.000    1.333    1.667    8.000    0.000    0.000 
#    0.000    1.667   22.000    2.000    0.000    0.000 
#    0.000    0.000    0.000    0.000    0.000    0.000 
#
# Total GULP energy -133709.916822 kJ/mol
# GULP energy per Si atom -5571.246534 kJ/mol
# Density = 2.060801 g / cm^3
# Si number density = 20.655021 Si / 1000 Ang^3
#
#
#
# Elastic Constant Matrix: (Units=GPa)
#
#
# Indices 1 2 3 4 5 6 
#
# 1 103.4202 46.0816 35.0391 0.0000 0.0000 0.0000
# 2 46.0816 100.4139 30.8611 0.0000 0.0000 0.0000
# 3 35.0391 30.8611 64.4696 0.0003 0.0000 0.0000
# 4 0.0000 0.0000 0.0003 -2.0766 0.0000 0.0000
# 5 0.0000 0.0000 0.0000 0.0000 31.6485 0.0000
# 6 0.0000 0.0000 0.0000 0.0000 0.0000 27.4388
#
#
#
# Elastic Compliance Matrix: (Units=1/GPa)
#
#
# Indices 1 2 3 4 5 6 
#
# 1 0.013451 -0.004603 -0.005107 -0.000001 0.000000 0.000000
# 2 -0.004603 0.013252 -0.003842 0.000000 0.000000 0.000000
# 3 -0.005107 -0.003842 0.020126 0.000003 0.000000 0.000000
# 4 -0.000001 0.000000 0.000003 -0.481547 0.000000 0.000000
# 5 0.000000 0.000000 0.000000 0.000000 0.031597 0.000000
# 6 0.000000 0.000000 0.000000 0.000000 0.000000 0.036445
#
#
# Mechanical properties :
#
#
# Convention : Reuss Voigt Hill
#
# Bulk Modulus (GPa) = 50.69789 54.69636 52.69713
# Shear Modulus (GPa) = -15.01510 21.82360 3.40425
#
# Velocity S-wave (km/s) = -2.69912 3.25403 1.28519
# Velocity P-wave (km/s) = 3.85807 6.37626 5.26979
#
# Compressibility (1/GPa) = 0.01972469
#
# Stress axis : x y z
#
# Youngs Moduli (GPa) = 74.34629 75.46038 49.68745
#
# Poissons Ratio (x) = 0.34736 0.25375
# Poissons Ratio (y) = 0.34223 0.19089
# Poissons Ratio (z) = 0.37968 0.28991
#
# Static dielectric constant tensor:
#      x y z
#    x 1.822620 0.000000 0.000000 
#    y 0.000000 1.762210 0.000000 
#    z 0.000000 0.000000 1.775700 
# 
# From -- ./inp_files/19712.got.cif
#   From: 2010.05.17/outbox.cif.g08.bks.cpg/sg24_10_cif.got.tgz:19712.got - 2010.06.04 00:33:39.
