data_PCOD9336535
_publ_section_title
;
Structure prediction by ZEFSAII (Michael W. Deem and Ramdas Pophale) SiO2 
 PCOD9336535
Probable space group: I 21 21 21
;
_chemical_formula_sum "Si O2"
_cell_formula_units_Z 40
_cell_length_a 16.539463
_cell_length_b 7.731123
_cell_length_c 14.838714
_cell_angle_alpha 90.000000
_cell_angle_beta 90.000000
_cell_angle_gamma 90.000000
_cell_volume 1897.405923
_symmetry_space_group_name_H-M "I 21 21 21"
_symmetry_group_IT_number 24
_symmetry_cell_setting 'orthorhombic'
loop_
_space_group_symop_operation_xyz
x,y,z
-x,1/2-y,z
x,-y,1/2-z
1/2-x,y,-z
1/2+x,1/2+y,1/2+z
1/2-x,-y,1/2+z
1/2+x,1/2-y,-z
-x,1/2+y,1/2-z
loop_
_atom_site_type_symbol
_atom_site_label
_atom_site_fract_x
_atom_site_fract_y
_atom_site_fract_z
Si Si1 0.046063 0.000000 0.250000
Si Si2 0.333864 0.961618 0.448853
Si Si3 0.799092 0.500000 0.750000
Si Si4 0.501975 0.547545 0.945948
Si Si5 0.670042 0.200215 0.782395
Si Si6 0.835051 0.095248 0.011590
O O1 0.999555 0.022191 0.156422
O O2 0.099154 0.823622 0.242276
O O3 0.250000 0.017782 0.500000
O O4 0.341840 0.025984 0.346523
O O5 0.329258 0.754058 0.443721
O O6 0.413737 0.998712 0.507155
O O7 0.745407 0.325851 0.761040
O O8 0.500000 0.750000 0.938850
O O9 0.420884 0.494834 0.998195
O O10 0.662295 0.181614 0.889604
O O11 0.675016 0.000000 0.750000
O O12 0.750000 0.993236 0.000000
#
# Coordination Sequence:
#
# PCOD9336535 Si02
#       6
#     4   8   4   8   8   8
#     4  11  24  42  64 107 150 180 230 299 372 437
#     4  11  22  46  72  99 143 192 231 300 368 423
#     4  11  22  44  74 103 140 190 250 293 360 427
#     4  12  27  41  69 107 146 188 243 299 363 438
#     4  11  22  40  70 107 140 184 235 295 361 436
#     4  11  23  45  70  97 145 195 231 291 376 421
#
# _framework density 21.081413999999999
#
# number of rings (size 3 to 8) (size 9 to 14) (size 15 to 20)
#    0.000    0.800    6.000    3.000    4.200    2.400 
#    0.000    2.000    2.200    0.000    0.000    0.000 
#    0.000    0.000    0.000    0.000    0.000    0.000 
#
# Total GULP energy -111589.864733 kJ/mol
# GULP energy per Si atom -5579.493237 kJ/mol
# Density = 2.103343 g / cm^3
# Si number density = 21.081414 Si / 1000 Ang^3
#
#
#
# Elastic Constant Matrix: (Units=GPa)
#
#
# Indices 1 2 3 4 5 6 
#
# 1 172.9306 30.0946 53.2929 0.0000 0.0000 0.0000
# 2 30.0946 115.7896 14.8095 0.0000 0.0000 0.0000
# 3 53.2929 14.8095 115.5803 0.0000 0.0000 0.0000
# 4 0.0000 0.0000 0.0000 26.0235 0.0000 0.0000
# 5 0.0000 0.0000 0.0000 0.0000 26.3667 0.0000
# 6 0.0000 0.0000 0.0000 0.0000 0.0000 2808.6570
#
#
#
# Elastic Compliance Matrix: (Units=1/GPa)
#
#
# Indices 1 2 3 4 5 6 
#
# 1 0.006964 -0.001423 -0.003029 0.000000 0.000000 0.000000
# 2 -0.001423 0.009071 -0.000506 0.000000 0.000000 0.000000
# 3 -0.003029 -0.000506 0.010113 0.000000 0.000000 0.000000
# 4 0.000000 0.000000 0.000000 0.038427 0.000000 0.000000
# 5 0.000000 0.000000 0.000000 0.000000 0.037927 0.000000
# 6 0.000000 0.000000 0.000000 0.000000 0.000000 0.000356
#
#
# Mechanical properties :
#
#
# Convention : Reuss Voigt Hill
#
# Bulk Modulus (GPa) = 61.60350 66.74383 64.17366
# Shear Modulus (GPa) = 42.30725 592.61632 317.46179
#
# Velocity S-wave (km/s) = 4.48465 16.78448 12.28476
# Velocity P-wave (km/s) = 7.49008 20.18300 15.22260
#
# Compressibility (1/GPa) = 0.01623284
#
# Stress axis : x y z
#
# Youngs Moduli (GPa) = 143.60498 110.24331 98.87959
#
# Poissons Ratio (x) = 0.15682 0.29946
# Poissons Ratio (y) = 0.20428 0.05007
# Poissons Ratio (z) = 0.43491 0.05582
#
# Static dielectric constant tensor:
#      x y z
#    x 1.931540 0.000000 0.000000 
#    y 0.000000 1.804010 0.000000 
#    z 0.000000 0.000000 1.488910 
# 
# From -- ./inp_files/26326.got.cif
#   From: 2010.05.17/outbox.cif.g08.bks.cpg/sg24_14_cif.got.tgz:26326.got - 2010.06.04 00:33:39.
