data_PCOD9336759
_publ_section_title
;
Structure prediction by ZEFSAII (Michael W. Deem and Ramdas Pophale) SiO2 
 PCOD9336759
Probable space group: I 21 21 21
;
_chemical_formula_sum "Si O2"
_cell_formula_units_Z 32
_cell_length_a 17.307857
_cell_length_b 15.394231
_cell_length_c 5.063941
_cell_angle_alpha 90.000000
_cell_angle_beta 90.000000
_cell_angle_gamma 90.000000
_cell_volume 1349.242257
_symmetry_space_group_name_H-M "I 21 21 21"
_symmetry_group_IT_number 24
_symmetry_cell_setting 'orthorhombic'
loop_
_space_group_symop_operation_xyz
x,y,z
-x,1/2-y,z
x,-y,1/2-z
1/2-x,y,-z
1/2+x,1/2+y,1/2+z
1/2-x,-y,1/2+z
1/2+x,1/2-y,-z
-x,1/2+y,1/2-z
loop_
_atom_site_type_symbol
_atom_site_label
_atom_site_fract_x
_atom_site_fract_y
_atom_site_fract_z
Si Si1 0.661503 0.085150 0.089368
Si Si2 0.803002 0.267990 0.742693
Si Si3 0.026296 0.647856 0.206917
Si Si4 0.437883 0.095557 0.203783
O O1 0.667531 0.169477 0.275857
O O2 0.635389 0.000000 0.250000
O O3 0.750000 0.067461 0.000000
O O4 0.607801 0.118257 0.842945
O O5 0.750000 0.291101 0.500000
O O6 0.874895 0.330935 0.756255
O O7 0.750000 0.273510 0.000000
O O8 0.000000 0.750000 0.222428
O O9 0.967908 0.601238 0.407642
O O10 0.006160 0.615993 0.913186
O O11 0.406230 0.000000 0.250000
#
# Coordination Sequence:
#
# PCOD9336759 Si02
#       4
#     8   8   8   8
#     4  11  26  47  75 114 156 204 260 322 392 470
#     4  11  25  46  75 108 152 201 255 314 387 463
#     4  12  26  49  77 108 154 203 254 321 388 461
#     4  12  27  47  74 112 148 198 257 317 384 458
#
# _framework density 23.717016999999998
#
# number of rings (size 3 to 8) (size 9 to 14) (size 15 to 20)
#    0.000    0.500    2.500    4.500    3.500    5.000 
#    0.000    0.000    0.000    0.000    0.000    0.000 
#    0.000    0.000    0.000    0.000    0.000    0.000 
#
# Total GULP energy -89651.116313 kJ/mol
# GULP energy per Si atom -5603.194770 kJ/mol
# Density = 2.366304 g / cm^3
# Si number density = 23.717017 Si / 1000 Ang^3
#
#
#
# Elastic Constant Matrix: (Units=GPa)
#
#
# Indices 1 2 3 4 5 6 
#
# 1 144.3038 48.0758 22.1529 0.0000 0.0000 0.0000
# 2 48.0758 157.6046 7.3794 0.0000 0.0000 0.0000
# 3 22.1529 7.3794 67.2181 0.0000 0.0000 0.0000
# 4 0.0000 0.0000 0.0000 24.4983 0.0000 0.0000
# 5 0.0000 0.0000 0.0000 0.0000 22.7333 0.0000
# 6 0.0000 0.0000 0.0000 0.0000 0.0000 36.5306
#
#
#
# Elastic Compliance Matrix: (Units=1/GPa)
#
#
# Indices 1 2 3 4 5 6 
#
# 1 0.008083 -0.002353 -0.002406 0.000000 0.000000 0.000000
# 2 -0.002353 0.007063 0.000000 0.000000 0.000000 0.000000
# 3 -0.002406 0.000000 0.015670 0.000000 0.000000 0.000000
# 4 0.000000 0.000000 0.000000 0.040819 0.000000 0.000000
# 5 0.000000 0.000000 0.000000 0.000000 0.043988 0.000000
# 6 0.000000 0.000000 0.000000 0.000000 0.000000 0.027374
#
#
# Mechanical properties :
#
#
# Convention : Reuss Voigt Hill
#
# Bulk Modulus (GPa) = 46.95158 58.26029 52.60594
# Shear Modulus (GPa) = 31.32560 36.18700 33.75630
#
# Velocity S-wave (km/s) = 3.63823 3.91036 3.77675
# Velocity P-wave (km/s) = 6.12279 6.70865 6.42240
#
# Compressibility (1/GPa) = 0.02129854
#
# Stress axis : x y z
#
# Youngs Moduli (GPa) = 123.71582 141.58779 63.81731
#
# Poissons Ratio (x) = 0.33316 0.15352
# Poissons Ratio (y) = 0.29111 -0.00001
# Poissons Ratio (z) = 0.29761 -0.00001
#
# Static dielectric constant tensor:
#      x y z
#    x 1.918130 0.000000 0.000000 
#    y 0.000000 1.868140 0.000000 
#    z 0.000000 0.000000 1.886180 
# 
# From -- ./inp_files/4291.got.cif
#   From: 2010.05.17/outbox.cif.g08.bks.cpg/sg24_3_cif.got.tgz:4291.got - 2010.06.04 00:33:39.
