data_PCOD9336503
_publ_section_title
;
Structure prediction by ZEFSAII (Michael W. Deem and Ramdas Pophale) SiO2 
 PCOD9336503
Probable space group: I 21 21 21
;
_chemical_formula_sum "Si O2"
_cell_formula_units_Z 64
_cell_length_a 29.143325
_cell_length_b 14.756936
_cell_length_c 7.923710
_cell_angle_alpha 90.000000
_cell_angle_beta 90.000000
_cell_angle_gamma 90.000000
_cell_volume 3407.719706
_symmetry_space_group_name_H-M "I 21 21 21"
_symmetry_group_IT_number 24
_symmetry_cell_setting 'orthorhombic'
loop_
_space_group_symop_operation_xyz
x,y,z
-x,1/2-y,z
x,-y,1/2-z
1/2-x,y,-z
1/2+x,1/2+y,1/2+z
1/2-x,-y,1/2+z
1/2+x,1/2-y,-z
-x,1/2+y,1/2-z
loop_
_atom_site_type_symbol
_atom_site_label
_atom_site_fract_x
_atom_site_fract_y
_atom_site_fract_z
Si Si1 0.626717 0.351048 0.951128
Si Si2 0.626717 0.351047 0.548872
Si Si3 0.055948 1.000000 0.947983
Si Si4 0.876278 0.853836 0.456617
Si Si5 0.950411 1.000000 0.046058
Si Si6 0.302910 0.000000 0.546275
Si Si7 0.623722 0.853836 0.956617
Si Si8 0.197030 0.500000 0.452661
O O1 0.632916 0.342805 0.750000
O O2 0.623830 0.249177 0.018651
O O3 0.669124 0.411819 0.016264
O O4 0.581503 0.411452 0.979752
O O5 0.581503 0.411452 0.520247
O O6 0.669124 0.411818 0.483736
O O7 0.623830 0.249177 0.481349
O O8 0.064167 0.000000 0.750000
O O9 0.002134 1.000000 0.983734
O O10 0.920812 0.912226 0.507371
O O11 0.876466 0.852661 0.250000
O O12 0.831707 0.911786 0.510138
O O13 0.951587 0.000000 0.250000
O O14 0.920812 0.912226 0.992628
O O15 0.250000 1.000000 0.500000
O O16 0.306266 0.000000 0.750000
O O17 0.668293 0.911786 0.010138
O O18 0.194550 0.500000 0.250000
O O19 0.250000 0.500001 0.500000
#
# Coordination Sequence:
#
# PCOD9336503 Si02
#       8
#     8   8   8   8   8   8   8   8
#     4   9  18  35  54  71  93 129 171 205 235 281
#     4   9  18  35  54  71  93 129 171 205 235 281
#     4  11  22  34  48  72 103 129 154 199 253 298
#     4   8  16  32  54  74  95 126 169 208 235 275
#     4   9  17  33  55  75  94 125 164 201 238 285
#     4   9  18  30  47  69  95 124 158 198 239 279
#     4   8  16  32  54  74  95 126 169 208 235 275
#     4   9  17  31  50  76 105 132 162 200 243 288
#
# _framework density 18.780887
#
# number of rings (size 3 to 8) (size 9 to 14) (size 15 to 20)
#    0.000    3.000    0.000    3.375    0.000    4.000 
#    0.000   10.000    0.000    0.000    0.000    0.000 
#    0.000    0.000    0.000    0.000    0.000    0.000 
#
# Total GULP energy -178384.286486 kJ/mol
# GULP energy per Si atom -5574.508953 kJ/mol
# Density = 1.873814 g / cm^3
# Si number density = 18.780887 Si / 1000 Ang^3
#
#
#
# Elastic Constant Matrix: (Units=GPa)
#
#
# Indices 1 2 3 4 5 6 
#
# 1 173.3577 100.2463 -8.8966 0.0000 0.0000 0.0000
# 2 100.2463 212.8171 6.5029 0.0000 0.0000 0.0000
# 3 -8.8966 6.5029 8.9089 0.0000 0.0000 0.0000
# 4 0.0000 0.0000 0.0000 -4.9602 0.0000 0.0000
# 5 0.0000 0.0000 0.0000 0.0000 29.0317 0.0000
# 6 0.0000 0.0000 0.0000 0.0000 0.0000 0.5002
#
#
#
# Elastic Compliance Matrix: (Units=1/GPa)
#
#
# Indices 1 2 3 4 5 6 
#
# 1 0.009114 -0.004676 0.012515 0.000000 0.000000 0.000000
# 2 -0.004676 0.007205 -0.009928 0.000000 0.000000 0.000000
# 3 0.012515 -0.009928 0.131992 0.000000 0.000000 0.000000
# 4 0.000000 0.000000 0.000000 -0.201606 0.000000 0.000000
# 5 0.000000 0.000000 0.000000 0.000000 0.034445 0.000000
# 6 0.000000 0.000000 0.000000 0.000000 0.000000 1.999396
#
#
# Mechanical properties :
#
#
# Convention : Reuss Voigt Hill
#
# Bulk Modulus (GPa) = 6.93806 65.64321 36.29064
# Shear Modulus (GPa) = 2.45970 24.72975 13.59472
#
# Velocity S-wave (km/s) = 1.14566 3.63264 2.69338
# Velocity P-wave (km/s) = 2.33501 7.25416 5.38865
#
# Compressibility (1/GPa) = 0.14413257
#
# Stress axis : x y z
#
# Youngs Moduli (GPa) = 109.71565 138.79807 7.57624
#
# Poissons Ratio (x) = 0.64898 -0.09482
# Poissons Ratio (y) = 0.51300 0.07522
# Poissons Ratio (z) = -1.37307 1.37801
#
# Static dielectric constant tensor:
#      x y z
#    x 1.618070 0.000000 0.000000 
#    y 0.000000 1.734940 0.000000 
#    z 0.000000 0.000000 1.681700 
# 
# From -- ./inp_files/17053.got.cif
#   From: 2010.05.17/outbox.cif.g08.bks.cpg/sg24_9_cif.got.tgz:17053.got - 2010.06.04 00:33:39.
