data_PCOD9336898
_publ_section_title
;
Structure prediction by ZEFSAII (Michael W. Deem and Ramdas Pophale) SiO2 
 PCOD9336898
Probable space group: I 21 21 21
;
_chemical_formula_sum "Si O2"
_cell_formula_units_Z 36
_cell_length_a 5.039789
_cell_length_b 12.114648
_cell_length_c 25.236063
_cell_angle_alpha 90.000000
_cell_angle_beta 90.000000
_cell_angle_gamma 90.000000
_cell_volume 1540.794633
_symmetry_space_group_name_H-M "I 21 21 21"
_symmetry_group_IT_number 24
_symmetry_cell_setting 'orthorhombic'
loop_
_space_group_symop_operation_xyz
x,y,z
-x,1/2-y,z
x,-y,1/2-z
1/2-x,y,-z
1/2+x,1/2+y,1/2+z
1/2-x,-y,1/2+z
1/2+x,1/2-y,-z
-x,1/2+y,1/2-z
loop_
_atom_site_type_symbol
_atom_site_label
_atom_site_fract_x
_atom_site_fract_y
_atom_site_fract_z
Si Si1 0.637449 0.507914 0.688278
Si Si2 0.639538 0.852488 0.552134
Si Si3 0.750582 0.675331 0.898995
Si Si4 0.871366 0.131514 0.846131
Si Si5 0.750000 0.530560 0.000000
O O1 0.571830 0.500000 0.750000
O O2 0.639034 0.402820 0.648699
O O3 0.429547 0.599048 0.667297
O O4 0.938404 0.548023 0.683535
O O5 0.500000 0.750000 0.581397
O O6 0.750000 0.795983 0.500000
O O7 0.875372 0.888820 0.590602
O O8 0.464831 0.952231 0.529756
O O9 0.500000 0.750000 0.915292
O O10 0.000000 0.750000 0.880934
O O11 0.843489 0.607252 0.951079
O O12 0.000000 0.250000 0.835028
#
# Coordination Sequence:
#
# PCOD9336898 Si02
#       5
#     8   8   8   8   4
#     4  12  27  51  78 111 153 203 258 333 398 467
#     4  12  24  41  70 111 154 199 246 318 398 482
#     4  12  28  50  73 107 150 207 268 319 379 463
#     4  12  26  47  76 114 150 195 252 316 409 485
#     4  12  26  46  74 108 156 206 258 322 396 472
#
# _framework density 23.364568999999999
#
# number of rings (size 3 to 8) (size 9 to 14) (size 15 to 20)
#    0.000    0.000    3.333    6.667    3.111    2.667 
#    0.000    0.000    0.000    0.000    0.000    0.000 
#    0.000    0.000    0.000    0.000    0.000    0.000 
#
# Total GULP energy -100557.039966 kJ/mol
# GULP energy per Si atom -5586.502220 kJ/mol
# Density = 2.331139 g / cm^3
# Si number density = 23.364569 Si / 1000 Ang^3
#
#
#
# Elastic Constant Matrix: (Units=GPa)
#
#
# Indices 1 2 3 4 5 6 
#
# 1 88.8481 34.7720 11.3574 0.0000 0.0000 0.0000
# 2 34.7720 115.3915 57.4769 0.0000 0.0000 0.0000
# 3 11.3574 57.4769 137.0444 0.0000 0.0000 0.0000
# 4 0.0000 0.0000 0.0000 -257.7173 0.0000 0.0000
# 5 0.0000 0.0000 0.0000 0.0000 39.8143 0.0000
# 6 0.0000 0.0000 0.0000 0.0000 0.0000 55.8599
#
#
#
# Elastic Compliance Matrix: (Units=1/GPa)
#
#
# Indices 1 2 3 4 5 6 
#
# 1 0.012814 -0.004212 0.000705 0.000000 0.000000 0.000000
# 2 -0.004212 0.012339 -0.004826 0.000000 0.000000 0.000000
# 3 0.000705 -0.004826 0.009263 0.000000 0.000000 0.000000
# 4 0.000000 0.000000 0.000000 -0.003880 0.000000 0.000000
# 5 0.000000 0.000000 0.000000 0.000000 0.025117 0.000000
# 6 0.000000 0.000000 0.000000 0.000000 0.000000 0.017902
#
#
# Mechanical properties :
#
#
# Convention : Reuss Voigt Hill
#
# Bulk Modulus (GPa) = 56.34345 60.94408 58.64376
# Shear Modulus (GPa) = 52.00900 -16.56344 17.72278
#
# Velocity S-wave (km/s) = 4.72314 -2.66543 2.75713
# Velocity P-wave (km/s) = 7.34244 4.08263 5.94051
#
# Compressibility (1/GPa) = 0.01774829
#
# Stress axis : x y z
#
# Youngs Moduli (GPa) = 78.04203 81.04144 107.96124
#
# Poissons Ratio (x) = 0.34137 -0.07608
# Poissons Ratio (y) = 0.32873 0.52103
# Poissons Ratio (z) = -0.05500 0.39111
#
# Static dielectric constant tensor:
#      x y z
#    x 1.991830 0.000000 0.000000 
#    y 0.000000 1.903150 0.000000 
#    z 0.000000 0.000000 1.913680 
# 
# From -- ./inp_files/34547.got.cif
#   From: 2010.05.17/outbox.cif.g08.bks.cpg/sg24_18_cif.got.tgz:34547.got - 2010.06.04 00:33:39.
