data_PCOD9336702
_publ_section_title
;
Structure prediction by ZEFSAII (Michael W. Deem and Ramdas Pophale) SiO2 
 PCOD9336702
Probable space group: I 21 21 21
;
_chemical_formula_sum "Si O2"
_cell_formula_units_Z 32
_cell_length_a 10.646010
_cell_length_b 7.633815
_cell_length_c 15.746185
_cell_angle_alpha 90.000000
_cell_angle_beta 90.000000
_cell_angle_gamma 90.000000
_cell_volume 1279.687272
_symmetry_space_group_name_H-M "I 21 21 21"
_symmetry_group_IT_number 24
_symmetry_cell_setting 'orthorhombic'
loop_
_space_group_symop_operation_xyz
x,y,z
-x,1/2-y,z
x,-y,1/2-z
1/2-x,y,-z
1/2+x,1/2+y,1/2+z
1/2-x,-y,1/2+z
1/2+x,1/2-y,-z
-x,1/2+y,1/2-z
loop_
_atom_site_type_symbol
_atom_site_label
_atom_site_fract_x
_atom_site_fract_y
_atom_site_fract_z
Si Si1 0.211788 0.000000 0.750000
Si Si2 0.760726 0.839465 0.816031
Si Si3 0.319254 0.107867 0.077722
Si Si4 0.418884 0.494770 0.042559
Si Si5 0.500000 0.250000 0.607644
O O1 0.154229 0.816156 0.779391
O O2 0.265358 0.918445 0.660829
O O3 0.622920 0.756107 0.832189
O O4 0.755919 0.000000 0.750000
O O5 0.817879 0.894621 0.905858
O O6 0.359262 0.299983 0.043253
O O7 0.454011 0.024869 0.096329
O O8 0.250000 0.015927 0.000000
O O9 0.466792 0.586591 0.955990
#
# Coordination Sequence:
#
# PCOD9336702 Si02
#       5
#     4   8   8   8   4
#     4  12  26  44  78 108 160 206 266 332 428 480
#     4  12  27  49  76 117 164 207 274 340 415 507
#     4  11  24  45  76 119 157 210 276 345 420 506
#     4  11  25  47  79 109 159 210 274 345 410 500
#     4  12  26  48  78 112 160 216 270 336 424 494
#
# _framework density 25.006111000000001
#
# number of rings (size 3 to 8) (size 9 to 14) (size 15 to 20)
#    0.000    0.500    2.500    5.250    3.500    0.000 
#    0.000    0.000    0.000    0.000    0.000    0.000 
#    0.000    0.000    0.000    0.000    0.000    0.000 
#
# Total GULP energy -89088.797922 kJ/mol
# GULP energy per Si atom -5568.049870 kJ/mol
# Density = 2.494920 g / cm^3
# Si number density = 25.006111 Si / 1000 Ang^3
#
#
#
# Elastic Constant Matrix: (Units=GPa)
#
#
# Indices 1 2 3 4 5 6 
#
# 1 129.2132 45.2877 40.1734 0.0000 0.0000 0.0000
# 2 45.2877 142.8165 32.8290 0.0000 0.0000 0.0000
# 3 40.1734 32.8290 141.6273 0.0000 0.0000 0.0000
# 4 0.0000 0.0000 0.0000 43.7876 0.0000 0.0000
# 5 0.0000 0.0000 0.0000 0.0000 29.3909 0.0000
# 6 0.0000 0.0000 0.0000 0.0000 0.0000 21.9234
#
#
#
# Elastic Compliance Matrix: (Units=1/GPa)
#
#
# Indices 1 2 3 4 5 6 
#
# 1 0.009238 -0.002458 -0.002051 0.000000 0.000000 0.000000
# 2 -0.002458 0.008050 -0.001169 0.000000 0.000000 0.000000
# 3 -0.002051 -0.001169 0.007913 0.000000 0.000000 0.000000
# 4 0.000000 0.000000 0.000000 0.022838 0.000000 0.000000
# 5 0.000000 0.000000 0.000000 0.000000 0.034024 0.000000
# 6 0.000000 0.000000 0.000000 0.000000 0.000000 0.045613
#
#
# Mechanical properties :
#
#
# Convention : Reuss Voigt Hill
#
# Bulk Modulus (GPa) = 72.21951 72.24857 72.23404
# Shear Modulus (GPa) = 34.80744 38.71152 36.75948
#
# Velocity S-wave (km/s) = 3.73494 3.93884 3.83824
# Velocity P-wave (km/s) = 6.89516 7.04564 6.97080
#
# Compressibility (1/GPa) = 0.01384667
#
# Stress axis : x y z
#
# Youngs Moduli (GPa) = 108.24552 124.22171 126.36805
#
# Poissons Ratio (x) = 0.30535 0.25914
# Poissons Ratio (y) = 0.26608 0.14769
# Poissons Ratio (z) = 0.22198 0.14518
#
# Static dielectric constant tensor:
#      x y z
#    x 2.076080 0.000000 0.000000 
#    y 0.000000 2.097010 0.000000 
#    z 0.000000 0.000000 2.024790 
# 
# From -- ./inp_files/24315.got.cif
#   From: 2010.05.17/outbox.cif.g08.bks.cpg/sg24_13_cif.got.tgz:24315.got - 2010.06.04 00:33:39.
