data_PCOD9336577
_publ_section_title
;
Structure prediction by ZEFSAII (Michael W. Deem and Ramdas Pophale) SiO2 
 PCOD9336577
Probable space group: I 21 21 21
;
_chemical_formula_sum "Si O2"
_cell_formula_units_Z 40
_cell_length_a 7.927812
_cell_length_b 15.954599
_cell_length_c 14.151772
_cell_angle_alpha 90.000000
_cell_angle_beta 90.000000
_cell_angle_gamma 90.000000
_cell_volume 1789.987750
_symmetry_space_group_name_H-M "I 21 21 21"
_symmetry_group_IT_number 24
_symmetry_cell_setting 'orthorhombic'
loop_
_space_group_symop_operation_xyz
x,y,z
-x,1/2-y,z
x,-y,1/2-z
1/2-x,y,-z
1/2+x,1/2+y,1/2+z
1/2-x,-y,1/2+z
1/2+x,1/2-y,-z
-x,1/2+y,1/2-z
loop_
_atom_site_type_symbol
_atom_site_label
_atom_site_fract_x
_atom_site_fract_y
_atom_site_fract_z
Si Si1 0.507003 0.508348 0.863405
Si Si2 0.196274 0.739457 0.270334
Si Si3 0.804523 0.617587 0.596715
Si Si4 0.393066 0.320613 0.567532
Si Si5 0.841871 0.062493 0.839736
O O1 0.509055 0.500000 0.750000
O O2 0.663719 0.454543 0.897313
O O3 0.507997 0.604480 0.894069
O O4 0.322773 0.474008 0.891198
O O5 0.289077 0.819291 0.314798
O O6 0.187356 0.726843 0.157776
O O7 0.280271 0.654027 0.306129
O O8 0.000000 0.750000 0.300962
O O9 0.750000 0.664519 0.500000
O O10 0.988773 0.576425 0.600924
O O11 0.500000 0.250000 0.514761
O O12 0.250000 0.354610 0.500000
O O13 0.876079 0.000000 0.750000
#
# Coordination Sequence:
#
# PCOD9336577 Si02
#       5
#     8   8   8   8   8
#     4  11  22  49  72  99 146 190 234 302 360 422
#     4  11  22  47  71  97 145 188 233 297 365 425
#     4  12  28  42  71 113 143 187 237 300 362 437
#     4  11  25  44  73 105 142 193 239 301 364 426
#     4  11  23  44  74 102 135 194 240 283 363 433
#
# _framework density 22.346522
#
# number of rings (size 3 to 8) (size 9 to 14) (size 15 to 20)
#    0.000    0.800    6.000    2.400    2.800    4.000 
#    0.000    0.000    0.000    0.000    0.000    0.000 
#    0.000    0.000    0.000    0.000    0.000    0.000 
#
# Total GULP energy -111792.010836 kJ/mol
# GULP energy per Si atom -5589.600542 kJ/mol
# Density = 2.229566 g / cm^3
# Si number density = 22.346522 Si / 1000 Ang^3
#
#
#
# Elastic Constant Matrix: (Units=GPa)
#
#
# Indices 1 2 3 4 5 6 
#
# 1 132.5923 40.5825 28.8139 0.0000 0.0000 0.0000
# 2 40.5825 134.6476 26.0632 0.0000 0.0000 0.0000
# 3 28.8139 26.0632 52.6841 0.0000 0.0000 0.0000
# 4 0.0000 0.0000 0.0000 14.8806 0.0000 0.0000
# 5 0.0000 0.0000 0.0000 0.0000 23.8832 0.0000
# 6 0.0000 0.0000 0.0000 0.0000 0.0000 21.9950
#
#
#
# Elastic Compliance Matrix: (Units=1/GPa)
#
#
# Indices 1 2 3 4 5 6 
#
# 1 0.008998 -0.001946 -0.003958 0.000000 0.000000 0.000000
# 2 -0.001946 0.008634 -0.003207 0.000000 0.000000 0.000000
# 3 -0.003958 -0.003207 0.022733 0.000000 0.000000 0.000000
# 4 0.000000 0.000000 0.000000 0.067202 0.000000 0.000000
# 5 0.000000 0.000000 0.000000 0.000000 0.041870 0.000000
# 6 0.000000 0.000000 0.000000 0.000000 0.000000 0.045465
#
#
# Mechanical properties :
#
#
# Convention : Reuss Voigt Hill
#
# Bulk Modulus (GPa) = 45.16366 56.76036 50.96201
# Shear Modulus (GPa) = 22.67527 27.11604 24.89566
#
# Velocity S-wave (km/s) = 3.18891 3.48722 3.34139
# Velocity P-wave (km/s) = 5.81492 6.45519 6.14340
#
# Compressibility (1/GPa) = 0.02214169
#
# Stress axis : x y z
#
# Youngs Moduli (GPa) = 111.14023 115.82103 43.98962
#
# Poissons Ratio (x) = 0.22535 0.17413
# Poissons Ratio (y) = 0.21624 0.14108
# Poissons Ratio (z) = 0.43994 0.37146
#
# Static dielectric constant tensor:
#      x y z
#    x 1.833180 0.000000 0.000000 
#    y 0.000000 1.824840 0.000000 
#    z 0.000000 0.000000 1.884190 
# 
# From -- ./inp_files/24535.got.cif
#   From: 2010.05.17/outbox.cif.g08.bks.cpg/sg24_13_cif.got.tgz:24535.got - 2010.06.04 00:33:39.
