data_PCOD9336382
_publ_section_title
;
Structure prediction by ZEFSAII (Michael W. Deem and Ramdas Pophale) SiO2 
 PCOD9336382
Probable space group: I 21 21 21
;
_chemical_formula_sum "Si O2"
_cell_formula_units_Z 40
_cell_length_a 11.568567
_cell_length_b 8.993731
_cell_length_c 18.816366
_cell_angle_alpha 90.000000
_cell_angle_beta 90.000000
_cell_angle_gamma 90.000000
_cell_volume 1957.740891
_symmetry_space_group_name_H-M "I 21 21 21"
_symmetry_group_IT_number 24
_symmetry_cell_setting 'orthorhombic'
loop_
_space_group_symop_operation_xyz
x,y,z
-x,1/2-y,z
x,-y,1/2-z
1/2-x,y,-z
1/2+x,1/2+y,1/2+z
1/2-x,-y,1/2+z
1/2+x,1/2-y,-z
-x,1/2+y,1/2-z
loop_
_atom_site_type_symbol
_atom_site_label
_atom_site_fract_x
_atom_site_fract_y
_atom_site_fract_z
Si Si1 0.272347 0.899549 0.812732
Si Si2 0.797449 0.966630 0.430408
Si Si3 0.635723 0.732732 0.064029
Si Si4 0.048461 0.095501 0.420874
Si Si5 0.884162 0.842446 0.285907
O O1 0.181899 0.867706 0.873353
O O2 0.377284 0.973279 0.857789
O O3 0.315298 0.751202 0.773224
O O4 0.228148 0.000000 0.750000
O O5 0.750000 0.881597 0.500000
O O6 0.807519 0.879776 0.356016
O O7 0.712780 0.114237 0.429268
O O8 0.932408 0.011458 0.443592
O O9 0.500000 0.750000 0.077242
O O10 0.628428 0.650315 0.986628
O O11 0.000000 0.250000 0.389827
O O12 0.000000 0.750000 0.303014
O O13 0.914485 0.000000 0.250000
#
# Coordination Sequence:
#
# PCOD9336382 Si02
#       5
#     8   8   8   8   8
#     4  12  24  42  63  98 134 168 213 274 327 387
#     4  12  21  40  66  97 131 169 218 271 324 382
#     4  11  22  39  65  95 125 174 230 263 308 394
#     4  11  19  35  68  94 118 161 227 268 307 365
#     4  12  24  41  68  99 132 164 211 276 337 380
#
# _framework density 20.431712000000001
#
# number of rings (size 3 to 8) (size 9 to 14) (size 15 to 20)
#    0.000    0.400    8.000    4.200    0.000    0.000 
#    3.600    4.000    0.000    0.000    0.000    0.000 
#    0.000    0.000    0.000    0.000    0.000    0.000 
#
# Total GULP energy -111514.672608 kJ/mol
# GULP energy per Si atom -5575.733630 kJ/mol
# Density = 2.038521 g / cm^3
# Si number density = 20.431712 Si / 1000 Ang^3
#
#
#
# Elastic Constant Matrix: (Units=GPa)
#
#
# Indices 1 2 3 4 5 6 
#
# 1 88.9001 12.0913 53.6791 0.0000 0.0000 0.0000
# 2 12.0913 54.5187 32.5601 0.0000 0.0000 0.0000
# 3 53.6791 32.5601 164.5236 0.0000 0.0000 0.0000
# 4 0.0000 0.0000 0.0000 34.5640 0.0000 0.0000
# 5 0.0000 0.0000 0.0000 0.0000 54.6147 0.0000
# 6 0.0000 0.0000 0.0000 0.0000 0.0000 24.3739
#
#
#
# Elastic Compliance Matrix: (Units=1/GPa)
#
#
# Indices 1 2 3 4 5 6 
#
# 1 0.014017 -0.000428 -0.004489 0.000000 0.000000 0.000000
# 2 -0.000428 0.020814 -0.003980 0.000000 0.000000 0.000000
# 3 -0.004489 -0.003980 0.008330 0.000000 0.000000 0.000000
# 4 0.000000 0.000000 0.000000 0.028932 0.000000 0.000000
# 5 0.000000 0.000000 0.000000 0.000000 0.018310 0.000000
# 6 0.000000 0.000000 0.000000 0.000000 0.000000 0.041028
#
#
# Mechanical properties :
#
#
# Convention : Reuss Voigt Hill
#
# Bulk Modulus (GPa) = 39.41833 56.06703 47.74268
# Shear Modulus (GPa) = 31.70990 36.68465 34.19727
#
# Velocity S-wave (km/s) = 3.94381 4.24190 4.09557
# Velocity P-wave (km/s) = 6.33031 7.17582 6.76628
#
# Compressibility (1/GPa) = 0.02536891
#
# Stress axis : x y z
#
# Youngs Moduli (GPa) = 71.34147 48.04466 120.04455
#
# Poissons Ratio (x) = 0.02056 0.53884
# Poissons Ratio (y) = 0.03053 0.47772
# Poissons Ratio (z) = 0.32023 0.19120
#
# Static dielectric constant tensor:
#      x y z
#    x 1.775360 0.000000 0.000000 
#    y 0.000000 1.775380 0.000000 
#    z 0.000000 0.000000 1.758870 
# 
# From -- ./inp_files/33257.got.cif
#   From: 2010.05.17/outbox.cif.g08.bks.cpg/sg24_17_cif.got.tgz:33257.got - 2010.06.04 00:33:39.
