data_PCOD9336175
_publ_section_title
;
Structure prediction by ZEFSAII (Michael W. Deem and Ramdas Pophale) SiO2 
 PCOD9336175
Probable space group: I 21 21 21
;
_chemical_formula_sum "Si O2"
_cell_formula_units_Z 40
_cell_length_a 5.825066
_cell_length_b 12.316733
_cell_length_c 20.306967
_cell_angle_alpha 90.000000
_cell_angle_beta 90.000000
_cell_angle_gamma 90.000000
_cell_volume 1456.939240
_symmetry_space_group_name_H-M "I 21 21 21"
_symmetry_group_IT_number 24
_symmetry_cell_setting 'orthorhombic'
loop_
_space_group_symop_operation_xyz
x,y,z
-x,1/2-y,z
x,-y,1/2-z
1/2-x,y,-z
1/2+x,1/2+y,1/2+z
1/2-x,-y,1/2+z
1/2+x,1/2-y,-z
-x,1/2+y,1/2-z
loop_
_atom_site_type_symbol
_atom_site_label
_atom_site_fract_x
_atom_site_fract_y
_atom_site_fract_z
Si Si1 0.305237 0.819505 0.569671
Si Si2 0.493651 0.428659 0.164923
Si Si3 0.878515 0.977571 0.070382
Si Si4 0.882619 0.500000 0.250000
Si Si5 0.500000 0.250000 0.712090
Si Si6 0.000000 0.750000 0.777552
Si Si7 0.000000 0.250000 0.462009
O O1 0.500000 0.750000 0.606831
O O2 0.250000 0.765044 0.500000
O O3 0.079703 0.850840 0.607526
O O4 0.431141 0.932641 0.558376
O O5 0.281241 0.491505 0.132889
O O6 0.714794 0.497965 0.186351
O O7 0.465376 0.647839 0.271840
O O8 0.982482 0.859600 0.079118
O O9 0.750000 0.974181 0.000000
O O10 0.990191 0.624638 0.247822
O O11 0.239714 0.247765 0.684605
O O12 0.250000 0.241751 0.500000
#
# Coordination Sequence:
#
# PCOD9336175 Si02
#       7
#     8   8   8   4   4   4   4
#     4  12  25  40  69 116 157 201 259 333 409 490
#     4  11  25  45  74 109 152 203 265 332 403 487
#     4  11  23  44  72 104 150 198 259 320 399 474
#     4  10  26  50  84 114 156 220 270 338 410 484
#     4  10  24  50  79 107 154 201 278 319 400 478
#     4  10  24  44  76 106 148 204 244 326 400 460
#     4  10  24  44  77 101 150 207 252 311 396 474
#
# _framework density 27.454816000000001
#
# number of rings (size 3 to 8) (size 9 to 14) (size 15 to 20)
#    0.000    1.200    2.000    2.400   15.400    3.200 
#    0.000    1.000   13.200    0.000    0.000    0.000 
#    0.000    0.000    0.000    0.000    0.000    0.000 
#
# Total GULP energy -111681.696814 kJ/mol
# GULP energy per Si atom -5584.084841 kJ/mol
# Density = 2.739233 g / cm^3
# Si number density = 27.454816 Si / 1000 Ang^3
#
#
#
# Elastic Constant Matrix: (Units=GPa)
#
#
# Indices 1 2 3 4 5 6 
#
# 1 194.5085 61.2506 31.8399 0.0000 0.0000 0.0000
# 2 61.2506 226.3138 24.6710 0.0000 0.0000 0.0000
# 3 31.8399 24.6710 99.1176 0.0000 0.0000 0.0000
# 4 0.0000 0.0000 0.0000 54.9897 0.0000 0.0000
# 5 0.0000 0.0000 0.0000 0.0000 43.0034 0.0000
# 6 0.0000 0.0000 0.0000 0.0000 0.0000 49.8263
#
#
#
# Elastic Compliance Matrix: (Units=1/GPa)
#
#
# Indices 1 2 3 4 5 6 
#
# 1 0.005835 -0.001413 -0.001523 0.000000 0.000000 0.000000
# 2 -0.001413 0.004884 -0.000762 0.000000 0.000000 0.000000
# 3 -0.001523 -0.000762 0.010768 0.000000 0.000000 0.000000
# 4 0.000000 0.000000 0.000000 0.018185 0.000000 0.000000
# 5 0.000000 0.000000 0.000000 0.000000 0.023254 0.000000
# 6 0.000000 0.000000 0.000000 0.000000 0.000000 0.020070
#
#
# Mechanical properties :
#
#
# Convention : Reuss Voigt Hill
#
# Bulk Modulus (GPa) = 70.96296 83.94032 77.45164
# Shear Modulus (GPa) = 52.58214 56.37575 54.47895
#
# Velocity S-wave (km/s) = 4.38108 4.53636 4.45940
# Velocity P-wave (km/s) = 7.17601 7.62092 7.40181
#
# Compressibility (1/GPa) = 0.01409186
#
# Stress axis : x y z
#
# Youngs Moduli (GPa) = 171.36512 204.74222 92.86966
#
# Poissons Ratio (x) = 0.28937 0.14142
# Poissons Ratio (y) = 0.24220 0.07074
# Poissons Ratio (z) = 0.26095 0.15595
#
# Static dielectric constant tensor:
#      x y z
#    x 2.253100 0.000000 0.000000 
#    y 0.000000 2.236180 0.000000 
#    z 0.000000 0.000000 2.218180 
# 
# From -- ./inp_files/36360.got.cif
#   From: 2010.05.17/outbox.cif.g08.bks.cpg/sg24_19_cif.got.tgz:36360.got - 2010.06.04 00:33:39.
