data_PCOD9336942
_publ_section_title
;
Structure prediction by ZEFSAII (Michael W. Deem and Ramdas Pophale) SiO2 
 PCOD9336942
Probable space group: I 21 21 21
;
_chemical_formula_sum "Si O2"
_cell_formula_units_Z 32
_cell_length_a 20.550999
_cell_length_b 12.789955
_cell_length_c 5.072635
_cell_angle_alpha 90.000000
_cell_angle_beta 90.000000
_cell_angle_gamma 90.000000
_cell_volume 1333.323607
_symmetry_space_group_name_H-M "I 21 21 21"
_symmetry_group_IT_number 24
_symmetry_cell_setting 'orthorhombic'
loop_
_space_group_symop_operation_xyz
x,y,z
-x,1/2-y,z
x,-y,1/2-z
1/2-x,y,-z
1/2+x,1/2+y,1/2+z
1/2-x,-y,1/2+z
1/2+x,1/2-y,-z
-x,1/2+y,1/2-z
loop_
_atom_site_type_symbol
_atom_site_label
_atom_site_fract_x
_atom_site_fract_y
_atom_site_fract_z
Si Si1 0.219292 0.000000 0.750000
Si Si2 0.034135 0.141678 0.396680
Si Si3 0.379321 0.163521 0.127934
Si Si4 0.425137 0.500000 0.750000
Si Si5 0.825034 0.890195 0.586798
O O1 0.250000 0.061191 0.500000
O O2 0.179831 0.085927 0.920879
O O3 0.088951 0.120277 0.606840
O O4 0.000000 0.250000 0.463210
O O5 0.976981 0.057343 0.434273
O O6 0.067967 0.154643 0.109263
O O7 0.351953 0.279811 0.190822
O O8 0.376581 0.587141 0.643962
O O9 0.750000 0.878754 0.500000
O O10 0.828325 0.000000 0.750000
#
# Coordination Sequence:
#
# PCOD9336942 Si02
#       5
#     4   8   8   4   8
#     4  12  26  49  76 107 148 198 252 306 366 440
#     4  12  25  46  74 107 145 190 244 310 371 436
#     4  12  27  49  76 111 148 194 255 307 376 444
#     4  12  26  47  72 109 152 192 252 310 376 456
#     4  12  27  47  74 108 154 200 249 310 375 456
#
# _framework density 24.000177000000001
#
# number of rings (size 3 to 8) (size 9 to 14) (size 15 to 20)
#    0.000    0.000    3.750    6.000    3.500    1.000 
#    0.000    0.000    0.000    0.000    0.000    0.000 
#    0.000    0.000    0.000    0.000    0.000    0.000 
#
# Total GULP energy -89331.936645 kJ/mol
# GULP energy per Si atom -5583.246040 kJ/mol
# Density = 2.394555 g / cm^3
# Si number density = 24.000177 Si / 1000 Ang^3
#
#
#
# Elastic Constant Matrix: (Units=GPa)
#
#
# Indices 1 2 3 4 5 6 
#
# 1 132.7595 26.0817 22.9879 0.0000 0.0000 0.0000
# 2 26.0817 82.1946 -3.5015 0.0000 0.0000 0.0000
# 3 22.9879 -3.5015 69.0229 0.0000 0.0000 0.0000
# 4 0.0000 0.0000 0.0000 21.9357 0.0000 0.0000
# 5 0.0000 0.0000 0.0000 0.0000 34.3881 0.0000
# 6 0.0000 0.0000 0.0000 0.0000 0.0000 22.1835
#
#
#
# Elastic Compliance Matrix: (Units=1/GPa)
#
#
# Indices 1 2 3 4 5 6 
#
# 1 0.008617 -0.002863 -0.003015 0.000000 0.000000 0.000000
# 2 -0.002863 0.013144 0.001620 0.000000 0.000000 0.000000
# 3 -0.003015 0.001620 0.015574 0.000000 0.000000 0.000000
# 4 0.000000 0.000000 0.000000 0.045588 0.000000 0.000000
# 5 0.000000 0.000000 0.000000 0.000000 0.029080 0.000000
# 6 0.000000 0.000000 0.000000 0.000000 0.000000 0.045079
#
#
# Mechanical properties :
#
#
# Convention : Reuss Voigt Hill
#
# Bulk Modulus (GPa) = 34.69852 41.67924 38.18888
# Shear Modulus (GPa) = 28.53837 31.59539 30.06688
#
# Velocity S-wave (km/s) = 3.45206 3.63225 3.54330
# Velocity P-wave (km/s) = 5.51162 5.91565 5.71720
#
# Compressibility (1/GPa) = 0.02881967
#
# Stress axis : x y z
#
# Youngs Moduli (GPa) = 116.05111 76.08231 64.20840
#
# Poissons Ratio (x) = 0.21780 0.19359
# Poissons Ratio (y) = 0.33222 -0.10403
# Poissons Ratio (z) = 0.34990 -0.12327
#
# Static dielectric constant tensor:
#      x y z
#    x 1.909390 0.000000 0.000000 
#    y 0.000000 1.966200 0.000000 
#    z 0.000000 0.000000 1.862700 
# 
# From -- ./inp_files/3109.got.cif
#   From: 2010.05.17/outbox.cif.g08.bks.cpg/sg24_2_cif.got.tgz:3109.got - 2010.06.04 00:33:39.
