data_PCOD9336546
_publ_section_title
;
Structure prediction by ZEFSAII (Michael W. Deem and Ramdas Pophale) SiO2 
 PCOD9336546
Probable space group: I 21 21 21
;
_chemical_formula_sum "Si O2"
_cell_formula_units_Z 56
_cell_length_a 25.148969
_cell_length_b 20.740263
_cell_length_c 5.230911
_cell_angle_alpha 90.000000
_cell_angle_beta 90.000000
_cell_angle_gamma 90.000000
_cell_volume 2728.423464
_symmetry_space_group_name_H-M "I 21 21 21"
_symmetry_group_IT_number 24
_symmetry_cell_setting 'orthorhombic'
loop_
_space_group_symop_operation_xyz
x,y,z
-x,1/2-y,z
x,-y,1/2-z
1/2-x,y,-z
1/2+x,1/2+y,1/2+z
1/2-x,-y,1/2+z
1/2+x,1/2-y,-z
-x,1/2+y,1/2-z
loop_
_atom_site_type_symbol
_atom_site_label
_atom_site_fract_x
_atom_site_fract_y
_atom_site_fract_z
Si Si1 0.283606 0.206397 0.765277
Si Si2 0.435188 0.655084 0.246631
Si Si3 0.394890 0.278888 0.764425
Si Si4 0.100442 0.931415 0.808922
Si Si5 0.988190 0.060757 0.421012
Si Si6 0.536871 0.660887 0.537738
Si Si7 0.694343 0.428837 0.648105
O O1 0.250000 0.206594 0.500000
O O2 0.337160 0.247265 0.745833
O O3 0.296516 0.131394 0.834845
O O4 0.250000 0.233409 0.000000
O O5 0.401319 0.669933 0.501468
O O6 0.495656 0.677022 0.312113
O O7 0.410288 0.692774 0.009726
O O8 0.446923 0.582947 0.138712
O O9 0.436009 0.222064 0.838303
O O10 0.081426 0.886802 0.578325
O O11 0.126139 0.000000 0.750000
O O12 0.046224 0.950428 0.955784
O O13 0.145705 0.900312 0.980229
O O14 0.972501 0.000000 0.250000
O O15 0.000990 0.120774 0.235253
O O16 0.679973 0.500000 0.750000
O O17 0.750000 0.438026 0.500000
#
# Coordination Sequence:
#
# PCOD9336546 Si02
#       7
#     8   8   8   8   8   8   8
#     4  11  26  46  67  91 122 168 220 274 334 383
#     4  11  26  41  63  96 127 169 212 260 321 384
#     4  12  26  42  66  91 131 168 218 266 323 382
#     4  11  23  36  58  87 120 172 226 271 322 375
#     4  11  22  42  60  91 128 172 211 262 313 387
#     4  11  25  38  64  89 130 173 215 266 310 385
#     4  11  24  39  58  83 118 163 229 293 341 367
#
# _framework density 20.524674000000001
#
# number of rings (size 3 to 8) (size 9 to 14) (size 15 to 20)
#    0.000    0.857    2.857    3.429   14.000    0.000 
#    0.000    0.000    0.000    0.000    0.000    0.000 
#    0.000    3.429    0.571    0.000    0.000    0.000 
#
# Total GULP energy -156472.325472 kJ/mol
# GULP energy per Si atom -5588.297338 kJ/mol
# Density = 2.047796 g / cm^3
# Si number density = 20.524674 Si / 1000 Ang^3
#
#
#
# Elastic Constant Matrix: (Units=GPa)
#
#
# Indices 1 2 3 4 5 6 
#
# 1 92.4128 23.8372 40.0867 0.0000 0.0000 0.0000
# 2 23.8372 44.6924 22.1608 0.0000 0.0000 0.0000
# 3 40.0867 22.1608 110.0946 0.0000 0.0000 0.0000
# 4 0.0000 0.0000 0.0000 32.8933 0.0000 0.0000
# 5 0.0000 0.0000 0.0000 0.0000 41.4250 0.0000
# 6 0.0000 0.0000 0.0000 0.0000 0.0000 24.4173
#
#
#
# Elastic Compliance Matrix: (Units=1/GPa)
#
#
# Indices 1 2 3 4 5 6 
#
# 1 0.013959 -0.005471 -0.003981 0.000000 0.000000 0.000000
# 2 -0.005471 0.027000 -0.003443 0.000000 0.000000 0.000000
# 3 -0.003981 -0.003443 0.011226 0.000000 0.000000 0.000000
# 4 0.000000 0.000000 0.000000 0.030401 0.000000 0.000000
# 5 0.000000 0.000000 0.000000 0.000000 0.024140 0.000000
# 6 0.000000 0.000000 0.000000 0.000000 0.000000 0.040955
#
#
# Mechanical properties :
#
#
# Convention : Reuss Voigt Hill
#
# Bulk Modulus (GPa) = 37.88637 46.59659 42.24148
# Shear Modulus (GPa) = 27.43175 30.48811 28.95993
#
# Velocity S-wave (km/s) = 3.65982 3.85832 3.76038
# Velocity P-wave (km/s) = 6.02976 6.52693 6.28327
#
# Compressibility (1/GPa) = 0.02639472
#
# Stress axis : x y z
#
# Youngs Moduli (GPa) = 71.63657 37.03648 89.08056
#
# Poissons Ratio (x) = 0.20263 0.35467
# Poissons Ratio (y) = 0.39194 0.30668
# Poissons Ratio (z) = 0.28522 0.12751
#
# Static dielectric constant tensor:
#      x y z
#    x 1.755450 0.000000 0.000000 
#    y 0.000000 1.781400 0.000000 
#    z 0.000000 0.000000 1.874120 
# 
# From -- ./inp_files/6509.got.cif
#   From: 2010.05.17/outbox.cif.g08.bks.cpg/sg24_4_cif.got.tgz:6509.got - 2010.06.04 00:33:39.
