data_PCOD9336423
_publ_section_title
;
Structure prediction by ZEFSAII (Michael W. Deem and Ramdas Pophale) SiO2 
 PCOD9336423
Probable space group: I 21 21 21
;
_chemical_formula_sum "Si O2"
_cell_formula_units_Z 48
_cell_length_a 20.793756
_cell_length_b 14.836050
_cell_length_c 8.096696
_cell_angle_alpha 90.000000
_cell_angle_beta 90.000000
_cell_angle_gamma 90.000000
_cell_volume 2497.808075
_symmetry_space_group_name_H-M "I 21 21 21"
_symmetry_group_IT_number 24
_symmetry_cell_setting 'orthorhombic'
loop_
_space_group_symop_operation_xyz
x,y,z
-x,1/2-y,z
x,-y,1/2-z
1/2-x,y,-z
1/2+x,1/2+y,1/2+z
1/2-x,-y,1/2+z
1/2+x,1/2-y,-z
-x,1/2+y,1/2-z
loop_
_atom_site_type_symbol
_atom_site_label
_atom_site_fract_x
_atom_site_fract_y
_atom_site_fract_z
Si Si1 0.624064 0.185973 0.094862
Si Si2 0.500627 0.400525 0.214893
Si Si3 0.061447 0.183531 0.471658
Si Si4 0.178442 0.308546 0.568918
Si Si5 0.323609 0.493266 0.946060
Si Si6 0.443512 0.174317 0.894371
O O1 0.557600 0.171082 0.197401
O O2 0.677368 0.201322 0.233428
O O3 0.635690 0.091678 0.004760
O O4 0.615500 0.266961 0.966845
O O5 0.474707 0.500000 0.250000
O O6 0.547311 0.376068 0.366743
O O7 0.536207 0.394291 0.038227
O O8 0.126665 0.240148 0.494543
O O9 0.064511 0.137890 0.290422
O O10 0.000000 0.250000 0.465271
O O11 0.250000 0.296716 0.500000
O O12 0.157377 0.411077 0.525351
O O13 0.326958 0.500000 0.750000
O O14 0.250000 0.477375 0.000000
O O15 0.500000 0.250000 0.886016
#
# Coordination Sequence:
#
# PCOD9336423 Si02
#       6
#     8   8   8   8   8   8
#     4  11  20  38  56  83 126 160 198 245 296 362
#     4  11  21  37  59  85 116 153 199 258 307 344
#     4  11  20  38  61  82 119 155 194 250 298 353
#     4  11  21  35  58  87 116 159 198 237 299 362
#     4  11  22  35  52  84 126 166 202 238 288 367
#     4   9  20  35  55  85 113 151 200 240 293 357
#
# _framework density 19.216850000000001
#
# number of rings (size 3 to 8) (size 9 to 14) (size 15 to 20)
#    0.000    1.333    3.333    5.000    0.000    0.667 
#    0.000    0.000    0.000    0.000    4.333    0.000 
#    0.000    0.000    0.000    0.000    0.000    0.000 
#
# Total GULP energy -133983.405639 kJ/mol
# GULP energy per Si atom -5582.641902 kJ/mol
# Density = 1.917311 g / cm^3
# Si number density = 19.216850 Si / 1000 Ang^3
#
#
#
# Elastic Constant Matrix: (Units=GPa)
#
#
# Indices 1 2 3 4 5 6 
#
# 1 59.8631 8.2000 24.9679 0.0000 0.0000 0.0000
# 2 8.2000 15.0397 3.9256 0.0000 0.0000 0.0000
# 3 24.9679 3.9256 148.1405 0.0000 0.0000 0.0000
# 4 0.0000 0.0000 0.0000 -66.7958 0.0000 0.0000
# 5 0.0000 0.0000 0.0000 0.0000 21.3684 0.0000
# 6 0.0000 0.0000 0.0000 0.0000 0.0000 26.3295
#
#
#
# Elastic Compliance Matrix: (Units=1/GPa)
#
#
# Indices 1 2 3 4 5 6 
#
# 1 0.019286 -0.009734 -0.002993 0.000000 0.000000 0.000000
# 2 -0.009734 0.071867 -0.000264 0.000000 0.000000 0.000000
# 3 -0.002993 -0.000264 0.007262 0.000000 0.000000 0.000000
# 4 0.000000 0.000000 0.000000 -0.014971 0.000000 0.000000
# 5 0.000000 0.000000 0.000000 0.000000 0.046798 0.000000
# 6 0.000000 0.000000 0.000000 0.000000 0.000000 0.037980
#
#
# Mechanical properties :
#
#
# Convention : Reuss Voigt Hill
#
# Bulk Modulus (GPa) = 13.80571 33.02560 23.41566
# Shear Modulus (GPa) = 22.89917 8.57706 15.73812
#
# Velocity S-wave (km/s) = 3.45573 2.11494 2.86488
# Velocity P-wave (km/s) = 4.80859 4.81529 4.81194
#
# Compressibility (1/GPa) = 0.07243379
#
# Stress axis : x y z
#
# Youngs Moduli (GPa) = 51.85016 13.91457 137.70838
#
# Poissons Ratio (x) = 0.13545 0.41211
# Poissons Ratio (y) = 0.50472 0.03633
# Poissons Ratio (z) = 0.15517 0.00367
#
# Static dielectric constant tensor:
#      x y z
#    x 1.757390 0.000000 0.000000 
#    y 0.000000 1.658500 0.000000 
#    z 0.000000 0.000000 1.725660 
# 
# From -- ./inp_files/14182.got.cif
#   From: 2010.05.17/outbox.cif.g08.bks.cpg/sg24_8_cif.got.tgz:14182.got - 2010.06.04 00:33:39.
