data_PCOD9336504
_publ_section_title
;
Structure prediction by ZEFSAII (Michael W. Deem and Ramdas Pophale) SiO2 
 PCOD9336504
Probable space group: I 21 21 21
;
_chemical_formula_sum "Si O2"
_cell_formula_units_Z 28
_cell_length_a 26.852858
_cell_length_b 4.782161
_cell_length_c 12.353801
_cell_angle_alpha 90.000000
_cell_angle_beta 90.000000
_cell_angle_gamma 90.000000
_cell_volume 1586.409529
_symmetry_space_group_name_H-M "I 21 21 21"
_symmetry_group_IT_number 24
_symmetry_cell_setting 'orthorhombic'
loop_
_space_group_symop_operation_xyz
x,y,z
-x,1/2-y,z
x,-y,1/2-z
1/2-x,y,-z
1/2+x,1/2+y,1/2+z
1/2-x,-y,1/2+z
1/2+x,1/2-y,-z
-x,1/2+y,1/2-z
loop_
_atom_site_type_symbol
_atom_site_label
_atom_site_fract_x
_atom_site_fract_y
_atom_site_fract_z
Si Si1 0.620685 0.675165 0.860087
Si Si2 0.730034 0.255218 0.171558
Si Si3 0.466242 0.500000 0.750000
Si Si4 0.671940 0.209836 0.956654
O O1 0.631791 0.500000 0.750000
O O2 0.569459 0.837598 0.834377
O O3 0.626877 0.430719 0.948038
O O4 0.657168 0.922502 0.897793
O O5 0.712297 0.500000 0.250000
O O6 0.780851 0.335542 0.108960
O O7 0.741169 0.000000 0.250000
O O8 0.691006 0.172011 0.078422
O O9 0.500000 0.750000 0.702650
#
# Coordination Sequence:
#
# PCOD9336504 Si02
#       4
#     8   8   4   8
#     4  12  20  35  55  79 109 150 175 221 265 353
#     4  11  22  35  51  75 114 150 193 244 254 301
#     4  12  22  36  54  84 116 142 166 224 288 344
#     4  11  22  34  53  79 106 153 202 215 273 321
#
# _framework density 17.649918
#
# number of rings (size 3 to 8) (size 9 to 14) (size 15 to 20)
#    0.000    0.571    4.286    6.000    0.000    4.571 
#    0.000    0.000    0.000    0.000    0.000    0.000 
#    0.000   64.000    0.000    0.000    0.000    0.000 
#
# Total GULP energy -78045.607281 kJ/mol
# GULP energy per Si atom -5574.686234 kJ/mol
# Density = 1.760975 g / cm^3
# Si number density = 17.649918 Si / 1000 Ang^3
#
#
#
# Elastic Constant Matrix: (Units=GPa)
#
#
# Indices 1 2 3 4 5 6 
#
# 1 61.6221 40.0788 42.0873 0.0000 0.0000 0.0000
# 2 40.0788 120.7084 31.5635 0.0000 0.0000 0.0000
# 3 42.0873 31.5635 86.6356 0.0000 0.0000 0.0000
# 4 0.0000 0.0000 0.0000 19.5521 0.0000 0.0000
# 5 0.0000 0.0000 0.0000 0.0000 -0.5964 0.0000
# 6 0.0000 0.0000 0.0000 0.0000 0.0000 92.2903
#
#
#
# Elastic Compliance Matrix: (Units=1/GPa)
#
#
# Indices 1 2 3 4 5 6 
#
# 1 0.028114 -0.006370 -0.011337 0.000000 0.000000 0.000000
# 2 -0.006370 0.010600 -0.000767 0.000000 0.000000 0.000000
# 3 -0.011337 -0.000767 0.017330 0.000000 0.000000 0.000000
# 4 0.000000 0.000000 0.000000 0.051145 0.000000 0.000000
# 5 0.000000 0.000000 0.000000 0.000000 -1.676712 0.000000
# 6 0.000000 0.000000 0.000000 0.000000 0.000000 0.010835
#
#
# Mechanical properties :
#
#
# Convention : Reuss Voigt Hill
#
# Bulk Modulus (GPa) = 52.36974 55.15837 53.76405
# Shear Modulus (GPa) = -3.29952 32.59830 14.64939
#
# Velocity S-wave (km/s) = -1.36875 4.30226 2.88409
# Velocity P-wave (km/s) = 5.21899 7.48321 6.45121
#
# Compressibility (1/GPa) = 0.01909500
#
# Stress axis : x y z
#
# Youngs Moduli (GPa) = 35.56930 94.33803 57.70492
#
# Poissons Ratio (x) = 0.60096 0.65419
# Poissons Ratio (y) = 0.22659 0.04427
# Poissons Ratio (z) = 0.40325 0.07238
#
# Static dielectric constant tensor:
#      x y z
#    x 1.640250 0.000000 0.000000 
#    y 0.000000 1.839550 0.000000 
#    z 0.000000 0.000000 1.588030 
# 
# From -- ./inp_files/22387.got.cif
#   From: 2010.05.17/outbox.cif.g08.bks.cpg/sg24_12_cif.got.tgz:22387.got - 2010.06.04 00:33:39.
