data_PCOD9336701
_publ_section_title
;
Structure prediction by ZEFSAII (Michael W. Deem and Ramdas Pophale) SiO2 
 PCOD9336701
Probable space group: I 21 21 21
;
_chemical_formula_sum "Si O2"
_cell_formula_units_Z 40
_cell_length_a 18.013063
_cell_length_b 11.553983
_cell_length_c 8.655707
_cell_angle_alpha 90.000000
_cell_angle_beta 90.000000
_cell_angle_gamma 90.000000
_cell_volume 1801.448451
_symmetry_space_group_name_H-M "I 21 21 21"
_symmetry_group_IT_number 24
_symmetry_cell_setting 'orthorhombic'
loop_
_space_group_symop_operation_xyz
x,y,z
-x,1/2-y,z
x,-y,1/2-z
1/2-x,y,-z
1/2+x,1/2+y,1/2+z
1/2-x,-y,1/2+z
1/2+x,1/2-y,-z
-x,1/2+y,1/2-z
loop_
_atom_site_type_symbol
_atom_site_label
_atom_site_fract_x
_atom_site_fract_y
_atom_site_fract_z
Si Si1 0.423429 0.912071 0.103907
Si Si2 0.336514 0.288201 0.506336
Si Si3 0.584893 0.222580 0.839200
Si Si4 0.081916 0.501143 0.935454
Si Si5 0.180169 0.939511 0.407725
O O1 0.393231 0.780210 0.112343
O O2 0.420270 0.000000 0.250000
O O3 0.503956 0.932005 0.026403
O O4 0.360096 0.956224 0.991201
O O5 0.250000 0.252487 0.500000
O O6 0.368991 0.287555 0.680469
O O7 0.346019 0.422667 0.466619
O O8 0.500000 0.250000 0.801106
O O9 0.620376 0.338164 0.908498
O O10 0.585630 0.115672 0.961377
O O11 0.077766 0.500000 0.750000
O O12 0.250000 0.894910 0.500000
O O13 0.205052 0.000000 0.250000
#
# Coordination Sequence:
#
# PCOD9336701 Si02
#       5
#     8   8   8   8   8
#     4  11  24  45  76 105 148 191 251 309 375 452
#     4  12  28  46  72 109 152 196 253 314 384 452
#     4  12  26  48  78 109 150 205 256 313 382 465
#     4  11  27  47  75 106 148 201 255 312 376 454
#     4  12  26  44  74 111 150 189 250 313 389 445
#
# _framework density 22.204355
#
# number of rings (size 3 to 8) (size 9 to 14) (size 15 to 20)
#    0.000    0.400    4.000    3.600    5.600    2.400 
#    0.000    0.000    0.000    0.000    0.000    0.000 
#    0.000    0.000    0.000    0.000    0.000    0.000 
#
# Total GULP energy -111505.791988 kJ/mol
# GULP energy per Si atom -5575.289599 kJ/mol
# Density = 2.215382 g / cm^3
# Si number density = 22.204355 Si / 1000 Ang^3
#
#
#
# Elastic Constant Matrix: (Units=GPa)
#
#
# Indices 1 2 3 4 5 6 
#
# 1 144.5511 32.8124 28.4073 0.0000 0.0000 0.0000
# 2 32.8124 93.5479 25.1890 0.0000 0.0000 0.0000
# 3 28.4073 25.1890 89.3591 0.0000 0.0000 0.0000
# 4 0.0000 0.0000 0.0000 26.7020 0.0000 0.0000
# 5 0.0000 0.0000 0.0000 0.0000 31.6583 0.0000
# 6 0.0000 0.0000 0.0000 0.0000 0.0000 46.7794
#
#
#
# Elastic Compliance Matrix: (Units=1/GPa)
#
#
# Indices 1 2 3 4 5 6 
#
# 1 0.007788 -0.002235 -0.001846 0.000000 0.000000 0.000000
# 2 -0.002235 0.012209 -0.002731 0.000000 0.000000 0.000000
# 3 -0.001846 -0.002731 0.012547 0.000000 0.000000 0.000000
# 4 0.000000 0.000000 0.000000 0.037450 0.000000 0.000000
# 5 0.000000 0.000000 0.000000 0.000000 0.031587 0.000000
# 6 0.000000 0.000000 0.000000 0.000000 0.000000 0.021377
#
#
# Mechanical properties :
#
#
# Convention : Reuss Voigt Hill
#
# Bulk Modulus (GPa) = 52.85115 55.58617 54.21866
# Shear Modulus (GPa) = 34.99214 37.09792 36.04503
#
# Velocity S-wave (km/s) = 3.97408 4.09191 4.03343
# Velocity P-wave (km/s) = 6.70161 6.88573 6.79430
#
# Compressibility (1/GPa) = 0.01892106
#
# Stress axis : x y z
#
# Youngs Moduli (GPa) = 128.40312 81.90744 79.69739
#
# Poissons Ratio (x) = 0.18303 0.14711
# Poissons Ratio (y) = 0.28693 0.21766
# Poissons Ratio (z) = 0.23702 0.22370
#
# Static dielectric constant tensor:
#      x y z
#    x 1.818030 0.000000 0.000000 
#    y 0.000000 3.326200 0.000000 
#    z 0.000000 0.000000 1.996260 
# 
# From -- ./inp_files/13817.got.cif
#   From: 2010.05.17/outbox.cif.g08.bks.cpg/sg24_7_cif.got.tgz:13817.got - 2010.06.04 00:33:39.
