data_PCOD9336335
_publ_section_title
;
Structure prediction by ZEFSAII (Michael W. Deem and Ramdas Pophale) SiO2 
 PCOD9336335
Probable space group: I 21 21 21
;
_chemical_formula_sum "Si O2"
_cell_formula_units_Z 40
_cell_length_a 26.706568
_cell_length_b 13.479340
_cell_length_c 4.990528
_cell_angle_alpha 90.000000
_cell_angle_beta 90.000000
_cell_angle_gamma 90.000000
_cell_volume 1796.524756
_symmetry_space_group_name_H-M "I 21 21 21"
_symmetry_group_IT_number 24
_symmetry_cell_setting 'orthorhombic'
loop_
_space_group_symop_operation_xyz
x,y,z
-x,1/2-y,z
x,-y,1/2-z
1/2-x,y,-z
1/2+x,1/2+y,1/2+z
1/2-x,-y,1/2+z
1/2+x,1/2-y,-z
-x,1/2+y,1/2-z
loop_
_atom_site_type_symbol
_atom_site_label
_atom_site_fract_x
_atom_site_fract_y
_atom_site_fract_z
Si Si1 0.641702 0.198168 0.443484
Si Si2 0.552943 0.065419 0.484426
Si Si3 0.000000 0.750000 0.251386
Si Si4 0.340067 0.000000 0.750000
Si Si5 0.750000 0.742718 0.000000
Si Si6 0.750000 0.405963 0.000000
Si Si7 0.395316 0.807583 0.555662
O O1 0.605995 0.106702 0.374225
O O2 0.701162 0.192431 0.438882
O O3 0.627542 0.224225 0.748530
O O4 0.625597 0.286870 0.240373
O O5 0.521050 0.161328 0.568523
O O6 0.528987 0.000000 0.250000
O O7 0.559592 0.000000 0.750000
O O8 0.045373 0.792463 0.428221
O O9 0.298802 0.023935 0.981131
O O10 0.376823 0.092159 0.802385
O O11 0.756625 0.668820 0.251160
#
# Coordination Sequence:
#
# PCOD9336335 Si02
#       7
#     8   8   4   4   4   4   8
#     4  11  23  45  66  97 135 186 232 291 361 433
#     4  11  25  46  74 103 141 191 244 312 373 436
#     4  10  26  50  70 108 144 192 250 308 370 436
#     4  12  24  42  62 112 138 194 244 296 370 462
#     4  12  21  44  64  95 134 196 226 295 378 423
#     4  12  25  36  66  95 152 184 234 303 364 459
#     4  11  25  41  68  95 146 184 235 300 350 440
#
# _framework density 22.265208000000001
#
# number of rings (size 3 to 8) (size 9 to 14) (size 15 to 20)
#    0.000    0.800    4.000    3.000    1.400    9.600 
#    0.000    1.000    0.000    0.000    0.000    0.000 
#    0.000    0.000    0.000    0.000    0.000    0.000 
#
# Total GULP energy -111670.830158 kJ/mol
# GULP energy per Si atom -5583.541508 kJ/mol
# Density = 2.221453 g / cm^3
# Si number density = 22.265208 Si / 1000 Ang^3
#
#
#
# Elastic Constant Matrix: (Units=GPa)
#
#
# Indices 1 2 3 4 5 6 
#
# 1 181.4227 41.5762 15.4074 0.0000 0.0000 0.0000
# 2 41.5762 101.5975 20.4947 0.0000 0.0000 0.0000
# 3 15.4074 20.4947 112.4679 0.0000 0.0000 0.0000
# 4 0.0000 0.0000 0.0000 24.5886 0.0000 0.0000
# 5 0.0000 0.0000 0.0000 0.0000 14.6563 0.0000
# 6 0.0000 0.0000 0.0000 0.0000 0.0000 16.0320
#
#
#
# Elastic Compliance Matrix: (Units=1/GPa)
#
#
# Indices 1 2 3 4 5 6 
#
# 1 0.006099 -0.002416 -0.000395 0.000000 0.000000 0.000000
# 2 -0.002416 0.011176 -0.001705 0.000000 0.000000 0.000000
# 3 -0.000395 -0.001705 0.009256 0.000000 0.000000 0.000000
# 4 0.000000 0.000000 0.000000 0.040669 0.000000 0.000000
# 5 0.000000 0.000000 0.000000 0.000000 0.068230 0.000000
# 6 0.000000 0.000000 0.000000 0.000000 0.000000 0.062375
#
#
# Mechanical properties :
#
#
# Convention : Reuss Voigt Hill
#
# Bulk Modulus (GPa) = 57.15184 61.16053 59.15618
# Shear Modulus (GPa) = 23.51032 32.25601 27.88317
#
# Velocity S-wave (km/s) = 3.25302 3.81033 3.54265
# Velocity P-wave (km/s) = 6.31141 6.84740 6.58486
#
# Compressibility (1/GPa) = 0.01749725
#
# Stress axis : x y z
#
# Youngs Moduli (GPa) = 163.95379 89.48079 108.03378
#
# Poissons Ratio (x) = 0.21621 0.04270
# Poissons Ratio (y) = 0.39615 0.18425
# Poissons Ratio (z) = 0.06480 0.15261
#
# Static dielectric constant tensor:
#      x y z
#    x 1.862910 0.000000 0.000000 
#    y 0.000000 1.850910 0.000000 
#    z 0.000000 0.000000 1.832210 
# 
# From -- ./inp_files/6952.got.cif
#   From: 2010.05.17/outbox.cif.g08.bks.cpg/sg24_4_cif.got.tgz:6952.got - 2010.06.04 00:33:39.
