data_PCOD9336470
_publ_section_title
;
Structure prediction by ZEFSAII (Michael W. Deem and Ramdas Pophale) SiO2 
 PCOD9336470
Probable space group: I 21 21 21
;
_chemical_formula_sum "Si O2"
_cell_formula_units_Z 52
_cell_length_a 17.829878
_cell_length_b 15.621943
_cell_length_c 8.750731
_cell_angle_alpha 90.000000
_cell_angle_beta 90.000000
_cell_angle_gamma 90.000000
_cell_volume 2437.405317
_symmetry_space_group_name_H-M "I 21 21 21"
_symmetry_group_IT_number 24
_symmetry_cell_setting 'orthorhombic'
loop_
_space_group_symop_operation_xyz
x,y,z
-x,1/2-y,z
x,-y,1/2-z
1/2-x,y,-z
1/2+x,1/2+y,1/2+z
1/2-x,-y,1/2+z
1/2+x,1/2-y,-z
-x,1/2+y,1/2-z
loop_
_atom_site_type_symbol
_atom_site_label
_atom_site_fract_x
_atom_site_fract_y
_atom_site_fract_z
Si Si1 0.667499 0.383951 0.070216
Si Si2 0.905220 0.025927 0.080678
Si Si3 0.268710 0.664903 0.161877
Si Si4 0.169629 0.163258 0.579915
Si Si5 0.422002 0.028437 0.583531
Si Si6 0.330978 0.291990 0.915615
Si Si7 0.661140 0.000000 0.250000
O O1 0.670980 0.376002 0.251421
O O2 0.750000 0.398489 0.000000
O O3 0.614678 0.461806 0.031398
O O4 0.639120 0.296015 0.988447
O O5 0.886913 0.127882 0.071038
O O6 0.872299 0.000000 0.250000
O O7 0.878984 0.991288 0.914533
O O8 0.989880 0.990612 0.086963
O O9 0.331099 0.735532 0.120699
O O10 0.198250 0.712580 0.240415
O O11 0.293031 0.587192 0.266152
O O12 0.250000 0.624490 0.000000
O O13 0.250000 0.147525 0.500000
O O14 0.105729 0.121204 0.474195
O O15 0.392115 0.000000 0.750000
O O16 0.250000 0.302124 0.000000
#
# Coordination Sequence:
#
# PCOD9336470 Si02
#       7
#     8   8   8   8   8   8   4
#     4  11  21  40  68  98 123 176 224 290 358 413
#     4  11  26  44  65  97 137 186 234 285 355 436
#     4  11  24  39  70 108 136 174 222 301 360 422
#     4  11  22  41  66  99 135 170 227 292 347 420
#     4  11  26  43  64  93 135 188 233 283 350 434
#     4  11  21  42  65 100 135 165 233 290 355 423
#     4  12  24  42  70 102 132 184 224 288 366 426
#
# _framework density 21.334161999999999
#
# number of rings (size 3 to 8) (size 9 to 14) (size 15 to 20)
#    0.000    0.923    4.615    2.769    7.538    0.615 
#    0.000    0.769    0.000    0.000    0.000    0.000 
#    0.000    0.000    0.000    0.000    0.000    0.000 
#
# Total GULP energy -144928.694013 kJ/mol
# GULP energy per Si atom -5574.180539 kJ/mol
# Density = 2.128560 g / cm^3
# Si number density = 21.334162 Si / 1000 Ang^3
#
#
#
# Elastic Constant Matrix: (Units=GPa)
#
#
# Indices 1 2 3 4 5 6 
#
# 1 52.7809 32.4346 10.8003 0.0000 0.0000 0.0000
# 2 32.4346 109.7024 9.6015 0.0000 0.0000 0.0000
# 3 10.8003 9.6015 125.0339 0.0000 0.0000 0.0000
# 4 0.0000 0.0000 0.0000 38.9307 0.0000 0.0000
# 5 0.0000 0.0000 0.0000 0.0000 33.7627 0.0000
# 6 0.0000 0.0000 0.0000 0.0000 0.0000 19.6536
#
#
#
# Elastic Compliance Matrix: (Units=1/GPa)
#
#
# Indices 1 2 3 4 5 6 
#
# 1 0.023430 -0.006796 -0.001502 0.000000 0.000000 0.000000
# 2 -0.006796 0.011148 -0.000269 0.000000 0.000000 0.000000
# 3 -0.001502 -0.000269 0.008148 0.000000 0.000000 0.000000
# 4 0.000000 0.000000 0.000000 0.025687 0.000000 0.000000
# 5 0.000000 0.000000 0.000000 0.000000 0.029619 0.000000
# 6 0.000000 0.000000 0.000000 0.000000 0.000000 0.050881
#
#
# Mechanical properties :
#
#
# Convention : Reuss Voigt Hill
#
# Bulk Modulus (GPa) = 39.07375 43.68776 41.38075
# Shear Modulus (GPa) = 28.64060 34.11477 31.37769
#
# Velocity S-wave (km/s) = 3.66796 4.00317 3.83923
# Velocity P-wave (km/s) = 6.02440 6.47221 6.25232
#
# Compressibility (1/GPa) = 0.02559263
#
# Stress axis : x y z
#
# Youngs Moduli (GPa) = 42.68091 89.69930 122.72595
#
# Poissons Ratio (x) = 0.60957 0.18433
# Poissons Ratio (y) = 0.29005 0.03302
# Poissons Ratio (z) = 0.06411 0.02414
#
# Static dielectric constant tensor:
#      x y z
#    x 1.809830 0.000000 0.000000 
#    y 0.000000 1.821490 0.000000 
#    z 0.000000 0.000000 1.917150 
# 
# From -- ./inp_files/15183.got.cif
#   From: 2010.05.17/outbox.cif.g08.bks.cpg/sg24_8_cif.got.tgz:15183.got - 2010.06.04 00:33:39.
