data_PCOD9336298
_publ_section_title
;
Structure prediction by ZEFSAII (Michael W. Deem and Ramdas Pophale) SiO2 
 PCOD9336298
Probable space group: I 21 21 21
;
_chemical_formula_sum "Si O2"
_cell_formula_units_Z 48
_cell_length_a 20.423135
_cell_length_b 7.718710
_cell_length_c 13.240652
_cell_angle_alpha 90.000000
_cell_angle_beta 90.000000
_cell_angle_gamma 90.000000
_cell_volume 2087.259776
_symmetry_space_group_name_H-M "I 21 21 21"
_symmetry_group_IT_number 24
_symmetry_cell_setting 'orthorhombic'
loop_
_space_group_symop_operation_xyz
x,y,z
-x,1/2-y,z
x,-y,1/2-z
1/2-x,y,-z
1/2+x,1/2+y,1/2+z
1/2-x,-y,1/2+z
1/2+x,1/2-y,-z
-x,1/2+y,1/2-z
loop_
_atom_site_type_symbol
_atom_site_label
_atom_site_fract_x
_atom_site_fract_y
_atom_site_fract_z
Si Si1 0.822642 0.436984 0.947498
Si Si2 0.772118 0.818704 0.701922
Si Si3 0.750000 0.042287 0.000000
Si Si4 0.861726 0.204520 0.279408
Si Si5 0.632622 0.800323 0.020659
Si Si6 0.557731 0.613518 0.602960
Si Si7 0.500000 0.750000 0.968784
O O1 0.821080 0.316012 0.848746
O O2 0.750000 0.437637 0.000000
O O3 0.838562 0.634658 0.923759
O O4 0.881862 0.384432 0.022964
O O5 0.714777 0.741479 0.770193
O O6 0.795762 0.000000 0.750000
O O7 0.729140 0.866975 0.602187
O O8 0.814609 0.946202 0.964688
O O9 0.871749 0.222820 0.398802
O O10 0.908144 0.319505 0.207351
O O11 0.869680 0.000000 0.250000
O O12 0.557086 0.820317 0.042298
O O13 0.500000 0.750000 0.580403
O O14 0.522904 0.422732 0.593805
#
# Coordination Sequence:
#
# PCOD9336298 Si02
#       7
#     8   8   4   8   8   8   4
#     4  11  22  40  62  94 140 182 231 285 354 418
#     4  11  22  39  67 105 134 182 239 290 351 423
#     4  12  20  38  70  92 138 182 222 298 346 416
#     4  11  21  39  64 102 141 185 244 285 352 445
#     4  11  24  41  61  97 138 189 223 290 359 423
#     4  11  24  42  66  97 144 194 229 297 356 443
#     4  10  26  40  58  98 132 188 236 276 360 436
#
# _framework density 22.996656999999999
#
# number of rings (size 3 to 8) (size 9 to 14) (size 15 to 20)
#    0.000    1.000    6.667    1.000    3.500    2.667 
#    0.000    2.500    0.000    0.000    2.167    2.333 
#    0.000    0.000    0.000    0.000    0.000    0.000 
#
# Total GULP energy -133788.856328 kJ/mol
# GULP energy per Si atom -5574.535680 kJ/mol
# Density = 2.294432 g / cm^3
# Si number density = 22.996657 Si / 1000 Ang^3
#
#
#
# Elastic Constant Matrix: (Units=GPa)
#
#
# Indices 1 2 3 4 5 6 
#
# 1 121.5664 18.2752 9.7526 0.0000 0.0000 0.0000
# 2 18.2752 112.9787 17.5914 0.0000 0.0000 0.0000
# 3 9.7526 17.5914 40.6730 0.0000 0.0000 0.0000
# 4 0.0000 0.0000 0.0000 62.9357 0.0000 0.0000
# 5 0.0000 0.0000 0.0000 0.0000 28.1224 0.0000
# 6 0.0000 0.0000 0.0000 0.0000 0.0000 32.3284
#
#
#
# Elastic Compliance Matrix: (Units=1/GPa)
#
#
# Indices 1 2 3 4 5 6 
#
# 1 0.008521 -0.001137 -0.001552 0.000000 0.000000 0.000000
# 2 -0.001137 0.009642 -0.003898 0.000000 0.000000 0.000000
# 3 -0.001552 -0.003898 0.026644 0.000000 0.000000 0.000000
# 4 0.000000 0.000000 0.000000 0.015889 0.000000 0.000000
# 5 0.000000 0.000000 0.000000 0.000000 0.035559 0.000000
# 6 0.000000 0.000000 0.000000 0.000000 0.000000 0.030933
#
#
# Mechanical properties :
#
#
# Convention : Reuss Voigt Hill
#
# Bulk Modulus (GPa) = 31.61018 40.71740 36.16379
# Shear Modulus (GPa) = 33.13335 39.98389 36.55862
#
# Velocity S-wave (km/s) = 3.79989 4.17427 3.99148
# Velocity P-wave (km/s) = 5.74697 6.40133 6.08295
#
# Compressibility (1/GPa) = 0.03163537
#
# Stress axis : x y z
#
# Youngs Moduli (GPa) = 117.35257 103.71290 37.53171
#
# Poissons Ratio (x) = 0.11790 0.05823
# Poissons Ratio (y) = 0.13341 0.14629
# Poissons Ratio (z) = 0.18208 0.40424
#
# Static dielectric constant tensor:
#      x y z
#    x 1.826810 0.000000 0.000000 
#    y 0.000000 2.025320 0.000000 
#    z 0.000000 0.000000 1.894600 
# 
# From -- ./inp_files/27452.got.cif
#   From: 2010.05.17/outbox.cif.g08.bks.cpg/sg24_14_cif.got.tgz:27452.got - 2010.06.04 00:33:39.
