data_PCOD9336653
_publ_section_title
;
Structure prediction by ZEFSAII (Michael W. Deem and Ramdas Pophale) SiO2 
 PCOD9336653
Probable space group: I 21 21 21
;
_chemical_formula_sum "Si O2"
_cell_formula_units_Z 28
_cell_length_a 7.666062
_cell_length_b 10.749210
_cell_length_c 14.021078
_cell_angle_alpha 90.000000
_cell_angle_beta 90.000000
_cell_angle_gamma 90.000000
_cell_volume 1155.394458
_symmetry_space_group_name_H-M "I 21 21 21"
_symmetry_group_IT_number 24
_symmetry_cell_setting 'orthorhombic'
loop_
_space_group_symop_operation_xyz
x,y,z
-x,1/2-y,z
x,-y,1/2-z
1/2-x,y,-z
1/2+x,1/2+y,1/2+z
1/2-x,-y,1/2+z
1/2+x,1/2-y,-z
-x,1/2+y,1/2-z
loop_
_atom_site_type_symbol
_atom_site_label
_atom_site_fract_x
_atom_site_fract_y
_atom_site_fract_z
Si Si1 0.383406 0.058974 0.850023
Si Si2 0.811025 0.299173 0.399919
Si Si3 0.500000 0.750000 0.248948
Si Si4 0.251357 0.663668 0.612386
O O1 0.295586 0.188771 0.878248
O O2 0.587907 0.088794 0.844982
O O3 0.326176 0.000000 0.750000
O O4 0.347696 0.944359 0.918380
O O5 0.750000 0.239786 0.500000
O O6 0.660863 0.278377 0.321791
O O7 0.000000 0.250000 0.366534
O O8 0.421110 0.647799 0.323436
O O9 0.250000 0.634716 0.500000
#
# Coordination Sequence:
#
# PCOD9336653 Si02
#       4
#     8   8   4   8
#     4  11  23  47  73 102 157 192 252 332 382 467
#     4  12  26  48  74 113 157 203 263 326 396 480
#     4  12  24  48  78 104 156 206 252 324 402 460
#     4  11  25  48  76 113 149 202 266 323 399 480
#
# _framework density 24.234148999999999
#
# number of rings (size 3 to 8) (size 9 to 14) (size 15 to 20)
#    0.000    0.571    4.286    4.286    0.000    1.143 
#   20.571    0.000    0.000    0.000    0.000    0.000 
#    0.000    0.000    0.000    0.000    0.000    0.000 
#
# Total GULP energy -78229.006789 kJ/mol
# GULP energy per Si atom -5587.786199 kJ/mol
# Density = 2.417899 g / cm^3
# Si number density = 24.234149 Si / 1000 Ang^3
#
#
#
# Elastic Constant Matrix: (Units=GPa)
#
#
# Indices 1 2 3 4 5 6 
#
# 1 190.9426 21.7822 69.4314 0.0000 0.0000 0.0000
# 2 21.7822 68.2584 22.8110 0.0000 0.0000 0.0000
# 3 69.4314 22.8110 127.0797 0.0000 0.0000 0.0000
# 4 0.0000 0.0000 0.0000 0.7933 0.0000 0.0000
# 5 0.0000 0.0000 0.0000 0.0000 40.3762 0.0000
# 6 0.0000 0.0000 0.0000 0.0000 0.0000 19.1508
#
#
#
# Elastic Compliance Matrix: (Units=1/GPa)
#
#
# Indices 1 2 3 4 5 6 
#
# 1 0.006594 -0.000958 -0.003431 0.000000 0.000000 0.000000
# 2 -0.000958 0.015724 -0.002299 0.000000 0.000000 0.000000
# 3 -0.003431 -0.002299 0.010156 0.000000 0.000000 0.000000
# 4 0.000000 0.000000 0.000000 1.260553 0.000000 0.000000
# 5 0.000000 0.000000 0.000000 0.000000 0.024767 0.000000
# 6 0.000000 0.000000 0.000000 0.000000 0.000000 0.052217
#
#
# Mechanical properties :
#
#
# Convention : Reuss Voigt Hill
#
# Bulk Modulus (GPa) = 52.35897 68.25888 60.30892
# Shear Modulus (GPa) = 3.59776 30.21448 16.90612
#
# Velocity S-wave (km/s) = 1.21976 3.53480 2.64411
# Velocity P-wave (km/s) = 4.86170 6.69980 5.85335
#
# Compressibility (1/GPa) = 0.01909892
#
# Stress axis : x y z
#
# Youngs Moduli (GPa) = 151.65448 63.59617 98.46175
#
# Poissons Ratio (x) = 0.06091 0.33780
# Poissons Ratio (y) = 0.14524 0.22639
# Poissons Ratio (z) = 0.52029 0.14622
#
# Static dielectric constant tensor:
#      x y z
#    x 1.957830 0.000000 0.000000 
#    y 0.000000 1.960640 0.000000 
#    z 0.000000 0.000000 1.986070 
# 
# From -- ./inp_files/17982.got.cif
#   From: 2010.05.17/outbox.cif.g08.bks.cpg/sg24_9_cif.got.tgz:17982.got - 2010.06.04 00:33:39.
