data_PCOD9336466
_publ_section_title
;
Structure prediction by ZEFSAII (Michael W. Deem and Ramdas Pophale) SiO2 
 PCOD9336466
Probable space group: I 21 21 21
;
_chemical_formula_sum "Si O2"
_cell_formula_units_Z 56
_cell_length_a 8.429078
_cell_length_b 14.211802
_cell_length_c 22.956478
_cell_angle_alpha 90.000000
_cell_angle_beta 90.000000
_cell_angle_gamma 90.000000
_cell_volume 2750.011310
_symmetry_space_group_name_H-M "I 21 21 21"
_symmetry_group_IT_number 24
_symmetry_cell_setting 'orthorhombic'
loop_
_space_group_symop_operation_xyz
x,y,z
-x,1/2-y,z
x,-y,1/2-z
1/2-x,y,-z
1/2+x,1/2+y,1/2+z
1/2-x,-y,1/2+z
1/2+x,1/2-y,-z
-x,1/2+y,1/2-z
loop_
_atom_site_type_symbol
_atom_site_label
_atom_site_fract_x
_atom_site_fract_y
_atom_site_fract_z
Si Si1 0.380244 0.936733 0.954889
Si Si2 0.870477 0.500000 0.250000
Si Si3 0.000000 0.250000 0.519088
Si Si4 0.813852 0.065682 0.058880
Si Si5 0.338922 0.612914 0.103759
Si Si6 0.827403 0.799402 0.197813
Si Si7 0.821521 0.383064 0.658144
Si Si8 0.590135 0.149795 0.819181
O O1 0.288418 0.910095 0.896342
O O2 0.516919 0.013618 0.948196
O O3 0.250000 0.973594 0.000000
O O4 0.443772 0.838024 0.981244
O O5 0.755199 0.438072 0.288894
O O6 0.975126 0.568051 0.292147
O O7 0.132001 0.297881 0.561245
O O8 0.829367 0.121588 0.119918
O O9 0.690828 0.979759 0.066743
O O10 0.750000 0.116222 0.000000
O O11 0.190259 0.622899 0.147715
O O12 0.498301 0.598878 0.140802
O O13 0.699922 0.724580 0.176520
O O14 0.796875 0.833725 0.263016
O O15 0.000000 0.750000 0.196358
O O16 0.500000 0.250000 0.827379
#
# Coordination Sequence:
#
# PCOD9336466 Si02
#       8
#     8   4   4   8   8   8   8   8
#     4  12  24  39  62  96 139 183 222 272 337 421
#     4  12  22  42  70 104 122 178 224 288 346 412
#     4  12  24  34  60  92 142 174 216 260 346 408
#     4  12  25  43  68  98 133 185 233 287 346 407
#     4  12  24  39  62 103 144 175 216 279 346 418
#     4  11  21  39  65  94 131 178 220 269 335 411
#     4  12  23  39  63  98 136 175 219 275 342 406
#     4  11  24  45  73  99 131 177 237 288 349 418
#
# _framework density 20.363553
#
# number of rings (size 3 to 8) (size 9 to 14) (size 15 to 20)
#    0.000    0.286    8.571    1.714    5.000    1.143 
#    0.000    0.714    0.000    0.000    0.000    0.000 
#    0.000    0.000    0.000    0.000    0.000    0.000 
#
# Total GULP energy -156442.291760 kJ/mol
# GULP energy per Si atom -5587.224706 kJ/mol
# Density = 2.031720 g / cm^3
# Si number density = 20.363553 Si / 1000 Ang^3
#
#
#
# Elastic Constant Matrix: (Units=GPa)
#
#
# Indices 1 2 3 4 5 6 
#
# 1 72.8304 -1.6186 23.8126 0.0000 0.0000 0.0000
# 2 -1.6186 37.4782 11.0348 0.0000 0.0000 0.0000
# 3 23.8126 11.0348 142.6400 0.0000 0.0000 0.0000
# 4 0.0000 0.0000 0.0000 44.7311 0.0000 0.0000
# 5 0.0000 0.0000 0.0000 0.0000 40.5168 0.0000
# 6 0.0000 0.0000 0.0000 0.0000 0.0000 18.0212
#
#
#
# Elastic Compliance Matrix: (Units=1/GPa)
#
#
# Indices 1 2 3 4 5 6 
#
# 1 0.014593 0.001379 -0.002543 0.000000 0.000000 0.000000
# 2 0.001379 0.027434 -0.002353 0.000000 0.000000 0.000000
# 3 -0.002543 -0.002353 0.007617 0.000000 0.000000 0.000000
# 4 0.000000 0.000000 0.000000 0.022356 0.000000 0.000000
# 5 0.000000 0.000000 0.000000 0.000000 0.024681 0.000000
# 6 0.000000 0.000000 0.000000 0.000000 0.000000 0.055490
#
#
# Mechanical properties :
#
#
# Convention : Reuss Voigt Hill
#
# Bulk Modulus (GPa) = 23.46799 35.48958 29.47879
# Shear Modulus (GPa) = 28.83376 35.30181 32.06778
#
# Velocity S-wave (km/s) = 3.76699 4.16814 3.97263
# Velocity P-wave (km/s) = 5.51995 6.37420 5.96239
#
# Compressibility (1/GPa) = 0.04261123
#
# Stress axis : x y z
#
# Youngs Moduli (GPa) = 68.52802 36.45059 131.28273
#
# Poissons Ratio (x) = -0.05026 0.33382
# Poissons Ratio (y) = -0.09449 0.30885
# Poissons Ratio (z) = 0.17425 0.08575
#
# Static dielectric constant tensor:
#      x y z
#    x 1.738710 0.000000 0.000000 
#    y 0.000000 1.777690 0.000000 
#    z 0.000000 0.000000 1.811220 
# 
# From -- ./inp_files/32867.got.cif
#   From: 2010.05.17/outbox.cif.g08.bks.cpg/sg24_17_cif.got.tgz:32867.got - 2010.06.04 00:33:39.
