data_PCOD9336167
_publ_section_title
;
Structure prediction by ZEFSAII (Michael W. Deem and Ramdas Pophale) SiO2 
 PCOD9336167
Probable space group: I 21 21 21
;
_chemical_formula_sum "Si O2"
_cell_formula_units_Z 36
_cell_length_a 5.204918
_cell_length_b 18.901629
_cell_length_c 14.966235
_cell_angle_alpha 90.000000
_cell_angle_beta 90.000000
_cell_angle_gamma 90.000000
_cell_volume 1472.399586
_symmetry_space_group_name_H-M "I 21 21 21"
_symmetry_group_IT_number 24
_symmetry_cell_setting 'orthorhombic'
loop_
_space_group_symop_operation_xyz
x,y,z
-x,1/2-y,z
x,-y,1/2-z
1/2-x,y,-z
1/2+x,1/2+y,1/2+z
1/2-x,-y,1/2+z
1/2+x,1/2-y,-z
-x,1/2+y,1/2-z
loop_
_atom_site_type_symbol
_atom_site_label
_atom_site_fract_x
_atom_site_fract_y
_atom_site_fract_z
Si Si1 0.000000 0.250000 0.943919
Si Si2 0.477079 0.613598 0.337471
Si Si3 0.657646 0.500000 0.750000
Si Si4 0.450500 0.087959 0.589290
Si Si5 0.750000 0.969888 0.500000
Si Si6 0.571209 0.168098 0.361776
O O1 0.089406 0.182366 0.886858
O O2 0.750000 0.228853 0.000000
O O3 0.669990 0.551215 0.310633
O O4 0.293565 0.577420 0.411687
O O5 0.391622 0.645420 0.242078
O O6 0.501770 0.451356 0.683908
O O7 0.665145 0.148647 0.589030
O O8 0.169882 0.123431 0.598019
O O9 0.519448 0.024617 0.521146
O O10 0.500000 0.250000 0.366845
#
# Coordination Sequence:
#
# PCOD9336167 Si02
#       6
#     4   8   4   8   4   8
#     4  12  28  46  66 108 150 190 228 292 370 434
#     4  11  24  45  74 104 148 186 241 294 360 427
#     4  10  24  44  72 106 142 196 244 296 348 426
#     4  11  25  43  71 105 141 184 242 293 357 421
#     4  12  24  44  74 108 146 186 238 304 360 424
#     4  11  24  48  73 104 140 190 238 295 356 434
#
# _framework density 24.449884999999998
#
# number of rings (size 3 to 8) (size 9 to 14) (size 15 to 20)
#    0.000    0.889    2.222    4.667    3.111    7.111 
#    0.000    2.222    0.000    0.000    0.000    0.000 
#    0.000    0.000    0.000    0.000    0.000    0.000 
#
# Total GULP energy -100670.855739 kJ/mol
# GULP energy per Si atom -5592.825319 kJ/mol
# Density = 2.439424 g / cm^3
# Si number density = 24.449885 Si / 1000 Ang^3
#
#
#
# Elastic Constant Matrix: (Units=GPa)
#
#
# Indices 1 2 3 4 5 6 
#
# 1 87.5648 37.3888 33.1754 0.0000 0.0000 0.0000
# 2 37.3888 183.5228 47.5044 0.0000 0.0000 0.0000
# 3 33.1754 47.5044 107.3004 0.0000 0.0000 0.0000
# 4 0.0000 0.0000 0.0000 243.3189 0.0000 0.0000
# 5 0.0000 0.0000 0.0000 0.0000 35.6980 0.0000
# 6 0.0000 0.0000 0.0000 0.0000 0.0000 24.7665
#
#
#
# Elastic Compliance Matrix: (Units=1/GPa)
#
#
# Indices 1 2 3 4 5 6 
#
# 1 0.013489 -0.001884 -0.003336 0.000000 0.000000 0.000000
# 2 -0.001884 0.006417 -0.002259 0.000000 0.000000 0.000000
# 3 -0.003336 -0.002259 0.011351 0.000000 0.000000 0.000000
# 4 0.000000 0.000000 0.000000 0.004110 0.000000 0.000000
# 5 0.000000 0.000000 0.000000 0.000000 0.028013 0.000000
# 6 0.000000 0.000000 0.000000 0.000000 0.000000 0.040377
#
#
# Mechanical properties :
#
#
# Convention : Reuss Voigt Hill
#
# Bulk Modulus (GPa) = 61.35396 68.28056 64.81726
# Shear Modulus (GPa) = 40.27447 78.11131 59.19289
#
# Velocity S-wave (km/s) = 4.06301 5.65835 4.92569
# Velocity P-wave (km/s) = 6.86724 8.40693 7.67579
#
# Compressibility (1/GPa) = 0.01629887
#
# Stress axis : x y z
#
# Youngs Moduli (GPa) = 74.13602 155.82531 88.09785
#
# Poissons Ratio (x) = 0.29365 0.29391
# Poissons Ratio (y) = 0.13971 0.19897
# Poissons Ratio (z) = 0.24733 0.35193
#
# Static dielectric constant tensor:
#      x y z
#    x 2.005900 0.000000 0.000000 
#    y 0.000000 1.902670 0.000000 
#    z 0.000000 0.000000 1.996720 
# 
# From -- ./inp_files/23650.got.cif
#   From: 2010.05.17/outbox.cif.g08.bks.cpg/sg24_12_cif.got.tgz:23650.got - 2010.06.04 00:33:39.
