data_PCOD9336474
_publ_section_title
;
Structure prediction by ZEFSAII (Michael W. Deem and Ramdas Pophale) SiO2 
 PCOD9336474
Probable space group: I 21 21 21
;
_chemical_formula_sum "Si O2"
_cell_formula_units_Z 40
_cell_length_a 12.493166
_cell_length_b 15.798515
_cell_length_c 7.056429
_cell_angle_alpha 90.000000
_cell_angle_beta 90.000000
_cell_angle_gamma 90.000000
_cell_volume 1392.751881
_symmetry_space_group_name_H-M "I 21 21 21"
_symmetry_group_IT_number 24
_symmetry_cell_setting 'orthorhombic'
loop_
_space_group_symop_operation_xyz
x,y,z
-x,1/2-y,z
x,-y,1/2-z
1/2-x,y,-z
1/2+x,1/2+y,1/2+z
1/2-x,-y,1/2+z
1/2+x,1/2-y,-z
-x,1/2+y,1/2-z
loop_
_atom_site_type_symbol
_atom_site_label
_atom_site_fract_x
_atom_site_fract_y
_atom_site_fract_z
Si Si1 0.970615 0.601272 0.654949
Si Si2 0.098554 0.930982 0.037380
Si Si3 0.894413 0.000000 0.250000
Si Si4 0.775710 0.304860 0.225244
Si Si5 0.500000 0.250000 0.859917
Si Si6 0.709878 0.872969 0.280518
O O1 0.912440 0.625976 0.848329
O O2 0.905057 0.524797 0.557782
O O3 0.093336 0.584502 0.714630
O O4 0.989717 0.671221 0.499730
O O5 0.191731 0.107139 0.330933
O O6 0.988958 0.939796 0.154837
O O7 0.801043 0.931056 0.192687
O O8 0.701507 0.224739 0.283364
O O9 0.750000 0.320695 0.000000
O O10 0.890269 0.256191 0.249512
O O11 0.750000 0.868725 0.500000
#
# Coordination Sequence:
#
# PCOD9336474 Si02
#       6
#     8   8   4   8   4   8
#     4  11  24  43  71 118 161 212 277 361 452 511
#     4  11  24  42  71 112 160 213 275 355 444 522
#     4  12  22  38  72 108 154 212 272 344 432 506
#     4  11  23  44  75 112 160 220 285 345 433 528
#     4  12  22  44  76 108 156 216 276 360 428 524
#     4  11  21  41  69 115 162 207 276 356 422 522
#
# _framework density 28.720120999999999
#
# number of rings (size 3 to 8) (size 9 to 14) (size 15 to 20)
#    0.000    0.800    6.000    3.600    0.000    2.400 
#    0.000    1.000    0.000   14.400    5.200    0.000 
#    0.000    0.000    0.000    0.000    0.000    0.000 
#
# Total GULP energy -111381.164268 kJ/mol
# GULP energy per Si atom -5569.058213 kJ/mol
# Density = 2.865475 g / cm^3
# Si number density = 28.720121 Si / 1000 Ang^3
#
#
#
# Elastic Constant Matrix: (Units=GPa)
#
#
# Indices 1 2 3 4 5 6 
#
# 1 175.8476 75.7370 30.0742 0.0000 0.0000 0.0000
# 2 75.7370 198.0840 49.1435 0.0000 0.0000 0.0000
# 3 30.0742 49.1435 121.3929 0.0000 0.0000 0.0000
# 4 0.0000 0.0000 0.0000 103.8165 0.0000 0.0000
# 5 0.0000 0.0000 0.0000 0.0000 33.9938 0.0000
# 6 0.0000 0.0000 0.0000 0.0000 0.0000 24.1130
#
#
#
# Elastic Compliance Matrix: (Units=1/GPa)
#
#
# Indices 1 2 3 4 5 6 
#
# 1 0.006862 -0.002448 -0.000709 0.000000 0.000000 0.000000
# 2 -0.002448 0.006485 -0.002019 0.000000 0.000000 0.000000
# 3 -0.000709 -0.002019 0.009231 0.000000 0.000000 0.000000
# 4 0.000000 0.000000 0.000000 0.009632 0.000000 0.000000
# 5 0.000000 0.000000 0.000000 0.000000 0.029417 0.000000
# 6 0.000000 0.000000 0.000000 0.000000 0.000000 0.041471
#
#
# Mechanical properties :
#
#
# Convention : Reuss Voigt Hill
#
# Bulk Modulus (GPa) = 81.79059 89.47044 85.63052
# Shear Modulus (GPa) = 42.54361 55.07597 48.80979
#
# Velocity S-wave (km/s) = 3.85296 4.38388 4.12697
# Velocity P-wave (km/s) = 6.95227 7.53954 7.25186
#
# Compressibility (1/GPa) = 0.01222635
#
# Stress axis : x y z
#
# Youngs Moduli (GPa) = 145.72360 154.19749 108.33375
#
# Poissons Ratio (x) = 0.37745 0.07682
# Poissons Ratio (y) = 0.35671 0.21872
# Poissons Ratio (z) = 0.10334 0.31132
#
# Static dielectric constant tensor:
#      x y z
#    x 2.040820 0.000000 0.000000 
#    y 0.000000 2.489630 0.000000 
#    z 0.000000 0.000000 0.652790 
# 
# From -- ./inp_files/12575.got.cif
#   From: 2010.05.17/outbox.cif.g08.bks.cpg/sg24_7_cif.got.tgz:12575.got - 2010.06.04 00:33:39.
