data_PCOD9336914
_publ_section_title
;
Structure prediction by ZEFSAII (Michael W. Deem and Ramdas Pophale) SiO2 
 PCOD9336914
Probable space group: I 21 21 21
;
_chemical_formula_sum "Si O2"
_cell_formula_units_Z 32
_cell_length_a 8.506112
_cell_length_b 18.445273
_cell_length_c 8.567149
_cell_angle_alpha 90.000000
_cell_angle_beta 90.000000
_cell_angle_gamma 90.000000
_cell_volume 1344.164757
_symmetry_space_group_name_H-M "I 21 21 21"
_symmetry_group_IT_number 24
_symmetry_cell_setting 'orthorhombic'
loop_
_space_group_symop_operation_xyz
x,y,z
-x,1/2-y,z
x,-y,1/2-z
1/2-x,y,-z
1/2+x,1/2+y,1/2+z
1/2-x,-y,1/2+z
1/2+x,1/2-y,-z
-x,1/2+y,1/2-z
loop_
_atom_site_type_symbol
_atom_site_label
_atom_site_fract_x
_atom_site_fract_y
_atom_site_fract_z
Si Si1 0.191934 0.882636 0.171742
Si Si2 0.750000 0.180064 0.000000
Si Si3 0.000000 0.250000 0.237050
Si Si4 0.528576 0.837129 0.240020
Si Si5 0.750000 0.080305 0.500000
Si Si6 0.460510 0.500000 0.750000
O O1 0.087371 0.809807 0.158194
O O2 0.355850 0.868856 0.254590
O O3 0.250000 0.908353 0.000000
O O4 0.081076 0.934052 0.272951
O O5 0.628983 0.139660 0.109895
O O6 0.861153 0.222751 0.122189
O O7 0.500000 0.750000 0.234274
O O8 0.630633 0.868891 0.097577
O O9 0.851419 0.029239 0.387475
#
# Coordination Sequence:
#
# PCOD9336914 Si02
#       6
#     8   4   4   8   4   4
#     4  12  28  50  81 119 161 210 265 328 397 472
#     4  12  24  45  70 128 159 198 256 334 400 461
#     4  12  24  46  80 118 158 210 264 332 388 462
#     4  12  27  50  84 123 159 201 270 331 402 462
#     4  12  30  55  80 116 157 220 258 330 394 477
#     4  12  30  56  76 116 166 212 268 316 402 480
#
# _framework density 23.806607
#
# number of rings (size 3 to 8) (size 9 to 14) (size 15 to 20)
#    0.000    0.000    6.250    1.500    3.500    5.000 
#   11.250    0.000    0.000    0.000    0.000    0.000 
#    0.000    0.000    0.000    0.000    0.000    0.000 
#
# Total GULP energy -89529.060941 kJ/mol
# GULP energy per Si atom -5595.566309 kJ/mol
# Density = 2.375242 g / cm^3
# Si number density = 23.806607 Si / 1000 Ang^3
#
#
#
# Elastic Constant Matrix: (Units=GPa)
#
#
# Indices 1 2 3 4 5 6 
#
# 1 233.9284 71.6172 71.1059 0.0000 0.0000 0.0000
# 2 71.6172 78.8540 43.8770 0.0000 0.0000 0.0000
# 3 71.1059 43.8770 111.8170 -0.0003 0.0003 0.0001
# 4 0.0000 0.0000 -0.0003 2.0816 0.0002 0.0001
# 5 0.0000 0.0000 0.0003 0.0002 43.9525 0.0000
# 6 0.0000 0.0000 0.0001 0.0001 0.0000 38.5097
#
#
#
# Elastic Compliance Matrix: (Units=1/GPa)
#
#
# Indices 1 2 3 4 5 6 
#
# 1 0.006341 -0.004497 -0.002268 0.000000 0.000000 0.000000
# 2 -0.004497 0.019414 -0.004758 0.000000 0.000000 0.000000
# 3 -0.002268 -0.004758 0.012252 0.000002 0.000000 0.000000
# 4 0.000000 0.000000 0.000002 0.480407 -0.000002 -0.000002
# 5 0.000000 0.000000 0.000000 -0.000002 0.022752 0.000000
# 6 0.000000 0.000000 0.000000 -0.000002 0.000000 0.025968
#
#
# Mechanical properties :
#
#
# Convention : Reuss Voigt Hill
#
# Bulk Modulus (GPa) = 66.84005 88.64440 77.74223
# Shear Modulus (GPa) = 8.40102 32.77537 20.58820
#
# Velocity S-wave (km/s) = 1.88056 3.71446 2.94396
# Velocity P-wave (km/s) = 5.73172 7.46407 6.65451
#
# Compressibility (1/GPa) = 0.01496109
#
# Stress axis : x y z
#
# Youngs Moduli (GPa) = 157.70666 51.50998 81.61777
#
# Poissons Ratio (x) = 0.23165 0.18507
# Poissons Ratio (y) = 0.70924 0.38835
# Poissons Ratio (z) = 0.35761 0.24509
#
# Static dielectric constant tensor:
#      x y z
#    x 1.908930 0.000000 0.000000 
#    y 0.000000 1.989890 0.000000 
#    z 0.000000 0.000000 1.939960 
# 
# From -- ./inp_files/9028.got.cif
#   From: 2010.05.17/outbox.cif.g08.bks.cpg/sg24_5_cif.got.tgz:9028.got - 2010.06.04 00:33:39.
