data_PCOD9336780
_publ_section_title
;
Structure prediction by ZEFSAII (Michael W. Deem and Ramdas Pophale) SiO2 
 PCOD9336780
Probable space group: I 21 21 21
;
_chemical_formula_sum "Si O2"
_cell_formula_units_Z 28
_cell_length_a 22.933315
_cell_length_b 7.342318
_cell_length_c 7.117585
_cell_angle_alpha 90.000000
_cell_angle_beta 90.000000
_cell_angle_gamma 90.000000
_cell_volume 1198.485237
_symmetry_space_group_name_H-M "I 21 21 21"
_symmetry_group_IT_number 24
_symmetry_cell_setting 'orthorhombic'
loop_
_space_group_symop_operation_xyz
x,y,z
-x,1/2-y,z
x,-y,1/2-z
1/2-x,y,-z
1/2+x,1/2+y,1/2+z
1/2-x,-y,1/2+z
1/2+x,1/2-y,-z
-x,1/2+y,1/2-z
loop_
_atom_site_type_symbol
_atom_site_label
_atom_site_fract_x
_atom_site_fract_y
_atom_site_fract_z
Si Si1 0.834952 0.349130 0.536220
Si Si2 0.750000 0.055478 0.500000
Si Si3 0.338825 0.237880 0.903857
Si Si4 0.431929 0.708899 0.302164
O O1 0.787862 0.204592 0.618496
O O2 0.842846 0.296976 0.317497
O O3 0.816063 0.440564 0.981572
O O4 0.894450 0.322334 0.649843
O O5 0.799253 0.914828 0.432949
O O6 0.402170 0.263855 0.995724
O O7 0.500000 0.750000 0.299026
O O8 0.422787 0.500000 0.250000
#
# Coordination Sequence:
#
# PCOD9336780 Si02
#       4
#     8   4   8   8
#     4  11  26  46  70 106 148 193 241 304 368 433
#     4  12  24  44  70 108 152 186 244 292 368 448
#     4  11  26  46  70 106 148 193 241 304 368 433
#     4  12  26  48  76 105 147 196 251 302 362 442
#
# _framework density 23.362822999999999
#
# number of rings (size 3 to 8) (size 9 to 14) (size 15 to 20)
#    0.000    0.571    2.857    4.286    8.000    1.143 
#    0.000    0.000    0.000    0.000    0.000    0.000 
#    0.000    0.000    0.000    0.000    0.000    0.000 
#
# Total GULP energy -78297.492433 kJ/mol
# GULP energy per Si atom -5592.678031 kJ/mol
# Density = 2.330965 g / cm^3
# Si number density = 23.362823 Si / 1000 Ang^3
#
#
#
# Elastic Constant Matrix: (Units=GPa)
#
#
# Indices 1 2 3 4 5 6 
#
# 1 193.7052 53.5816 56.9655 0.0000 0.0000 0.0000
# 2 53.5816 201.0405 49.0703 0.0000 0.0000 0.0000
# 3 56.9655 49.0703 101.6001 0.0000 0.0000 0.0000
# 4 0.0000 0.0000 0.0000 36.9393 0.0000 0.0000
# 5 0.0000 0.0000 0.0000 0.0000 30.1135 0.0000
# 6 0.0000 0.0000 0.0000 0.0000 0.0000 39.2603
#
#
#
# Elastic Compliance Matrix: (Units=1/GPa)
#
#
# Indices 1 2 3 4 5 6 
#
# 1 0.006332 -0.000931 -0.003101 0.000000 0.000000 0.000000
# 2 -0.000931 0.005776 -0.002268 0.000000 0.000000 0.000000
# 3 -0.003101 -0.002268 0.012676 0.000000 0.000000 0.000000
# 4 0.000000 0.000000 0.000000 0.027071 0.000000 0.000000
# 5 0.000000 0.000000 0.000000 0.000000 0.033208 0.000000
# 6 0.000000 0.000000 0.000000 0.000000 0.000000 0.025471
#
#
# Mechanical properties :
#
#
# Convention : Reuss Voigt Hill
#
# Bulk Modulus (GPa) = 82.06380 90.62008 86.34194
# Shear Modulus (GPa) = 39.31014 43.71118 41.51066
#
# Velocity S-wave (km/s) = 4.10639 4.33017 4.21976
# Velocity P-wave (km/s) = 7.59509 7.99205 7.79609
#
# Compressibility (1/GPa) = 0.01218564
#
# Stress axis : x y z
#
# Youngs Moduli (GPa) = 157.93351 173.13977 78.88809
#
# Poissons Ratio (x) = 0.16115 0.24460
# Poissons Ratio (y) = 0.14700 0.17889
# Poissons Ratio (z) = 0.48969 0.39262
#
# Static dielectric constant tensor:
#      x y z
#    x 1.849710 0.000000 0.000000 
#    y 0.000000 1.940600 0.000000 
#    z 0.000000 0.000000 1.989710 
# 
# From -- ./inp_files/21958.got.cif
#   From: 2010.05.17/outbox.cif.g08.bks.cpg/sg24_11_cif.got.tgz:21958.got - 2010.06.04 00:33:39.
