data_PCOD9336271
_publ_section_title
;
Structure prediction by ZEFSAII (Michael W. Deem and Ramdas Pophale) SiO2 
 PCOD9336271
Probable space group: I 21 21 21
;
_chemical_formula_sum "Si O2"
_cell_formula_units_Z 36
_cell_length_a 24.675150
_cell_length_b 13.914781
_cell_length_c 5.459235
_cell_angle_alpha 90.000000
_cell_angle_beta 90.000000
_cell_angle_gamma 90.000000
_cell_volume 1874.424562
_symmetry_space_group_name_H-M "I 21 21 21"
_symmetry_group_IT_number 24
_symmetry_cell_setting 'orthorhombic'
loop_
_space_group_symop_operation_xyz
x,y,z
-x,1/2-y,z
x,-y,1/2-z
1/2-x,y,-z
1/2+x,1/2+y,1/2+z
1/2-x,-y,1/2+z
1/2+x,1/2-y,-z
-x,1/2+y,1/2-z
loop_
_atom_site_type_symbol
_atom_site_label
_atom_site_fract_x
_atom_site_fract_y
_atom_site_fract_z
Si Si1 0.898122 0.729805 0.472408
Si Si2 0.519902 0.605688 0.264733
Si Si3 0.089892 0.441424 0.999975
Si Si4 0.685653 0.559348 0.502569
Si Si5 0.000000 0.250000 0.381689
O O1 0.935766 0.686337 0.686548
O O2 0.879986 0.839241 0.501223
O O3 0.848992 0.655956 0.465440
O O4 0.943650 0.729265 0.258961
O O5 0.545057 0.500000 0.250000
O O6 0.473575 0.590210 0.468792
O O7 0.490078 0.651057 0.032374
O O8 0.098447 0.500000 0.250000
O O9 0.101561 0.500000 0.750000
O O10 0.673529 0.500000 0.750000
O O11 0.750000 0.579381 0.500000
O O12 0.673945 0.500000 0.250000
#
# Coordination Sequence:
#
# PCOD9336271 Si02
#       5
#     8   8   8   8   4
#     4  12  23  37  62  89 127 171 212 267 322 385
#     4  11  23  34  52  83 128 167 209 253 309 383
#     4  11  23  38  56  82 125 165 204 252 305 377
#     4  10  25  46  69  99 129 167 221 275 331 388
#     4  12  22  38  52  94 130 166 220 254 316 404
#
# _framework density 19.205893
#
# number of rings (size 3 to 8) (size 9 to 14) (size 15 to 20)
#    0.000    0.889    4.444    3.333    6.222    0.000 
#    0.000    0.000    0.000    1.333    0.000    0.000 
#    0.000    0.000    0.000    0.000    0.000    0.000 
#
# Total GULP energy -100311.991523 kJ/mol
# GULP energy per Si atom -5572.888418 kJ/mol
# Density = 1.916218 g / cm^3
# Si number density = 19.205893 Si / 1000 Ang^3
#
#
#
# Elastic Constant Matrix: (Units=GPa)
#
#
# Indices 1 2 3 4 5 6 
#
# 1 69.8716 63.7547 39.2714 0.0000 0.0000 0.0000
# 2 63.7547 197.1329 89.9060 0.0000 0.0000 0.0000
# 3 39.2714 89.9060 136.8113 0.0000 0.0000 0.0000
# 4 0.0000 0.0000 0.0000 30.6963 0.0000 0.0000
# 5 0.0000 0.0000 0.0000 0.0000 3.9121 0.0000
# 6 0.0000 0.0000 0.0000 0.0000 0.0000 31.6599
#
#
#
# Elastic Compliance Matrix: (Units=1/GPa)
#
#
# Indices 1 2 3 4 5 6 
#
# 1 0.020761 -0.005707 -0.002209 0.000000 0.000000 0.000000
# 2 -0.005707 0.008812 -0.004153 0.000000 0.000000 0.000000
# 3 -0.002209 -0.004153 0.010673 0.000000 0.000000 0.000000
# 4 0.000000 0.000000 0.000000 0.032577 0.000000 0.000000
# 5 0.000000 0.000000 0.000000 0.000000 0.255614 0.000000
# 6 0.000000 0.000000 0.000000 0.000000 0.000000 0.031586
#
#
# Mechanical properties :
#
#
# Convention : Reuss Voigt Hill
#
# Bulk Modulus (GPa) = 62.08077 87.74223 74.91150
# Shear Modulus (GPa) = 12.83599 27.31259 20.07429
#
# Velocity S-wave (km/s) = 2.58802 3.77516 3.23649
# Velocity P-wave (km/s) = 6.42841 8.04902 7.28393
#
# Compressibility (1/GPa) = 0.01610805
#
# Stress axis : x y z
#
# Youngs Moduli (GPa) = 48.16789 113.47702 93.69782
#
# Poissons Ratio (x) = 0.64758 0.20699
# Poissons Ratio (y) = 0.27488 0.38912
# Poissons Ratio (z) = 0.10641 0.47127
#
# Static dielectric constant tensor:
#      x y z
#    x 1.653840 0.000000 0.000000 
#    y 0.000000 1.758160 0.000000 
#    z 0.000000 0.000000 1.803680 
# 
# From -- ./inp_files/6272.got.cif
#   From: 2010.05.17/outbox.cif.g08.bks.cpg/sg24_4_cif.got.tgz:6272.got - 2010.06.04 00:33:39.
