data_PCOD9336593
_publ_section_title
;
Structure prediction by ZEFSAII (Michael W. Deem and Ramdas Pophale) SiO2 
 PCOD9336593
Probable space group: I 21 21 21
;
_chemical_formula_sum "Si O2"
_cell_formula_units_Z 48
_cell_length_a 10.112798
_cell_length_b 11.774460
_cell_length_c 17.854221
_cell_angle_alpha 90.000000
_cell_angle_beta 90.000000
_cell_angle_gamma 90.000000
_cell_volume 2125.950935
_symmetry_space_group_name_H-M "I 21 21 21"
_symmetry_group_IT_number 24
_symmetry_cell_setting 'orthorhombic'
loop_
_space_group_symop_operation_xyz
x,y,z
-x,1/2-y,z
x,-y,1/2-z
1/2-x,y,-z
1/2+x,1/2+y,1/2+z
1/2-x,-y,1/2+z
1/2+x,1/2-y,-z
-x,1/2+y,1/2-z
loop_
_atom_site_type_symbol
_atom_site_label
_atom_site_fract_x
_atom_site_fract_y
_atom_site_fract_z
Si Si1 0.666064 0.255857 0.623966
Si Si2 0.954807 0.457225 0.467063
Si Si3 0.750000 0.916891 0.000000
Si Si4 0.672944 0.171454 0.781029
Si Si5 0.896990 0.418723 0.177104
Si Si6 0.575584 0.369950 0.371893
Si Si7 0.403472 0.500000 0.250000
O O1 0.569104 0.339341 0.578672
O O2 0.743250 0.169419 0.569729
O O3 0.621757 0.184877 0.695517
O O4 0.781125 0.336092 0.657499
O O5 0.110495 0.480257 0.486836
O O6 0.883871 0.540269 0.408881
O O7 0.899615 0.431725 0.549148
O O8 0.676964 0.298631 0.813129
O O9 0.554967 0.104640 0.820211
O O10 0.806807 0.099465 0.780303
O O11 0.871352 0.500000 0.250000
O O12 0.500000 0.250000 0.383297
O O13 0.493150 0.446962 0.315184
#
# Coordination Sequence:
#
# PCOD9336593 Si02
#       7
#     8   8   4   8   8   8   4
#     4  12  22  42  69 103 146 182 245 308 367 432
#     4  12  24  41  70 109 142 186 239 313 373 430
#     4  12  22  34  66 106 146 170 230 310 370 426
#     4  11  24  42  67 107 151 193 246 298 368 459
#     4  11  23  39  69 108 147 193 239 306 373 438
#     4  12  24  45  70 106 142 193 251 311 367 439
#     4  12  26  46  76 106 150 200 250 308 382 444
#
# _framework density 22.578130000000002
#
# number of rings (size 3 to 8) (size 9 to 14) (size 15 to 20)
#    0.000    0.333    7.500    1.500    4.667    1.333 
#    0.000    0.000    3.667    2.000    0.000    0.000 
#    0.000    0.000    0.000    0.000    0.000    0.000 
#
# Total GULP energy -133984.001754 kJ/mol
# GULP energy per Si atom -5582.666740 kJ/mol
# Density = 2.252674 g / cm^3
# Si number density = 22.578130 Si / 1000 Ang^3
#
#
#
# Elastic Constant Matrix: (Units=GPa)
#
#
# Indices 1 2 3 4 5 6 
#
# 1 41.2666 5.2357 8.9555 0.0000 0.0000 0.0000
# 2 5.2357 100.9379 51.3571 0.0000 0.0000 0.0000
# 3 8.9555 51.3571 136.5128 0.0000 0.0000 0.0000
# 4 0.0000 0.0000 0.0000 -7.0062 0.0000 0.0000
# 5 0.0000 0.0000 0.0000 0.0000 35.2470 0.0000
# 6 0.0000 0.0000 0.0000 0.0000 0.0000 40.2340
#
#
#
# Elastic Compliance Matrix: (Units=1/GPa)
#
#
# Indices 1 2 3 4 5 6 
#
# 1 0.024608 -0.000563 -0.001403 0.000000 0.000000 0.000000
# 2 -0.000563 0.012265 -0.004577 0.000000 0.000000 0.000000
# 3 -0.001403 -0.004577 0.009139 0.000000 0.000000 0.000000
# 4 0.000000 0.000000 0.000000 -0.142730 0.000000 0.000000
# 5 0.000000 0.000000 0.000000 0.000000 0.028371 0.000000
# 6 0.000000 0.000000 0.000000 0.000000 0.000000 0.024855
#
#
# Mechanical properties :
#
#
# Convention : Reuss Voigt Hill
#
# Bulk Modulus (GPa) = 30.36975 45.53488 37.95232
# Shear Modulus (GPa) = -257.33641 27.90622 -114.71509
#
# Velocity S-wave (km/s) = -10.68753 3.51947 -7.13571
# Velocity P-wave (km/s) = 11.78209 6.06028 7.14460
#
# Compressibility (1/GPa) = 0.03292750
#
# Stress axis : x y z
#
# Youngs Moduli (GPa) = 40.63644 81.53133 109.41683
#
# Poissons Ratio (x) = 0.04589 0.15347
# Poissons Ratio (y) = 0.02287 0.50084
# Poissons Ratio (z) = 0.05700 0.37320
#
# Static dielectric constant tensor:
#      x y z
#    x 1.955300 0.000000 0.000000 
#    y 0.000000 1.897640 0.000000 
#    z 0.000000 0.000000 1.796860 
# 
# From -- ./inp_files/30237.got.cif
#   From: 2010.05.17/outbox.cif.g08.bks.cpg/sg24_16_cif.got.tgz:30237.got - 2010.06.04 00:33:39.
