data_PCOD9336239
_publ_section_title
;
Structure prediction by ZEFSAII (Michael W. Deem and Ramdas Pophale) SiO2 
 PCOD9336239
Probable space group: I 21 21 21
;
_chemical_formula_sum "Si O2"
_cell_formula_units_Z 36
_cell_length_a 13.603885
_cell_length_b 7.562930
_cell_length_c 13.775728
_cell_angle_alpha 90.000000
_cell_angle_beta 90.000000
_cell_angle_gamma 90.000000
_cell_volume 1417.318943
_symmetry_space_group_name_H-M "I 21 21 21"
_symmetry_group_IT_number 24
_symmetry_cell_setting 'orthorhombic'
loop_
_space_group_symop_operation_xyz
x,y,z
-x,1/2-y,z
x,-y,1/2-z
1/2-x,y,-z
1/2+x,1/2+y,1/2+z
1/2-x,-y,1/2+z
1/2+x,1/2-y,-z
-x,1/2+y,1/2-z
loop_
_atom_site_type_symbol
_atom_site_label
_atom_site_fract_x
_atom_site_fract_y
_atom_site_fract_z
Si Si1 0.638273 0.699147 0.773430
Si Si2 0.000000 0.250000 0.112534
Si Si3 0.006614 0.500000 0.750000
Si Si4 0.750000 0.127101 0.000000
Si Si5 0.441662 0.598726 0.963779
Si Si6 0.842656 0.302894 0.813780
O O1 0.602242 0.500000 0.750000
O O2 0.590603 0.799778 0.682341
O O3 0.597305 0.790224 0.869370
O O4 0.754979 0.688497 0.765579
O O5 0.986774 0.429896 0.053737
O O6 0.920636 0.462418 0.830931
O O7 0.083984 0.345096 0.771543
O O8 0.717705 0.251344 0.089881
O O9 0.843717 0.996607 0.000361
O O10 0.500000 0.750000 0.022136
#
# Coordination Sequence:
#
# PCOD9336239 Si02
#       6
#     8   4   4   4   8   8
#     4  12  21  43  77 112 142 195 262 315 382 479
#     4  12  22  42  78 108 140 184 256 320 378 452
#     4  10  24  48  78 106 152 216 278 302 380 512
#     4  12  28  48  74 114 164 200 254 346 408 452
#     4  12  26  46  72 113 155 195 251 325 398 472
#     4  11  24  47  77 111 151 206 267 324 390 473
#
# _framework density 25.400068000000001
#
# number of rings (size 3 to 8) (size 9 to 14) (size 15 to 20)
#    0.000    0.444    6.667    2.000    0.000    1.778 
#    8.000    4.444    0.000    0.000    0.000    0.000 
#    0.000    0.000    0.000    0.000    0.000    0.000 
#
# Total GULP energy -100223.105873 kJ/mol
# GULP energy per Si atom -5567.950326 kJ/mol
# Density = 2.534226 g / cm^3
# Si number density = 25.400068 Si / 1000 Ang^3
#
#
#
# Elastic Constant Matrix: (Units=GPa)
#
#
# Indices 1 2 3 4 5 6 
#
# 1 169.1953 3.0914 18.3408 0.0000 0.0000 0.0000
# 2 3.0914 92.4177 26.5916 0.0000 0.0000 0.0000
# 3 18.3408 26.5916 54.3304 0.0000 0.0000 0.0000
# 4 0.0000 0.0000 0.0000 -23.5390 0.0000 0.0000
# 5 0.0000 0.0000 0.0000 0.0000 2.7128 0.0000
# 6 0.0000 0.0000 0.0000 0.0000 0.0000 37.1462
#
#
#
# Elastic Compliance Matrix: (Units=1/GPa)
#
#
# Indices 1 2 3 4 5 6 
#
# 1 0.006151 0.000456 -0.002300 0.000000 0.000000 0.000000
# 2 0.000456 0.012628 -0.006335 0.000000 0.000000 0.000000
# 3 -0.002300 -0.006335 0.022283 0.000000 0.000000 0.000000
# 4 0.000000 0.000000 0.000000 -0.042483 0.000000 0.000000
# 5 0.000000 0.000000 0.000000 0.000000 0.368628 0.000000
# 6 0.000000 0.000000 0.000000 0.000000 0.000000 0.026921
#
#
# Mechanical properties :
#
#
# Convention : Reuss Voigt Hill
#
# Bulk Modulus (GPa) = 40.47733 45.77678 43.12706
# Shear Modulus (GPa) = 11.94118 21.12528 16.53323
#
# Velocity S-wave (km/s) = 2.17059 2.88705 2.55407
# Velocity P-wave (km/s) = 4.71725 5.40138 5.07086
#
# Compressibility (1/GPa) = 0.02470518
#
# Stress axis : x y z
#
# Youngs Moduli (GPa) = 162.56761 79.19012 44.87805
#
# Poissons Ratio (x) = -0.03611 0.10321
# Poissons Ratio (y) = -0.07412 0.28428
# Poissons Ratio (z) = 0.37386 0.50163
#
# Static dielectric constant tensor:
#      x y z
#    x 2.029750 0.000000 0.000000 
#    y 0.000000 2.155440 0.000000 
#    z 0.000000 0.000000 2.125010 
# 
# From -- ./inp_files/26278.got.cif
#   From: 2010.05.17/outbox.cif.g08.bks.cpg/sg24_14_cif.got.tgz:26278.got - 2010.06.04 00:33:39.
