data_PCOD9336848
_publ_section_title
;
Structure prediction by ZEFSAII (Michael W. Deem and Ramdas Pophale) SiO2 
 PCOD9336848
Probable space group: I 21 21 21
;
_chemical_formula_sum "Si O2"
_cell_formula_units_Z 60
_cell_length_a 18.988911
_cell_length_b 25.888923
_cell_length_c 5.422514
_cell_angle_alpha 90.000000
_cell_angle_beta 90.000000
_cell_angle_gamma 90.000000
_cell_volume 2665.721193
_symmetry_space_group_name_H-M "I 21 21 21"
_symmetry_group_IT_number 24
_symmetry_cell_setting 'orthorhombic'
loop_
_space_group_symop_operation_xyz
x,y,z
-x,1/2-y,z
x,-y,1/2-z
1/2-x,y,-z
1/2+x,1/2+y,1/2+z
1/2-x,-y,1/2+z
1/2+x,1/2-y,-z
-x,1/2+y,1/2-z
loop_
_atom_site_type_symbol
_atom_site_label
_atom_site_fract_x
_atom_site_fract_y
_atom_site_fract_z
Si Si1 0.750000 0.861607 0.000000
Si Si2 0.832273 0.674346 0.462894
Si Si3 0.035122 0.297597 0.630852
Si Si4 0.067031 0.622892 0.480765
Si Si5 0.358062 0.554590 0.191408
Si Si6 0.653279 0.212595 0.738268
Si Si7 0.994951 0.447665 0.392540
Si Si8 0.091398 0.857575 0.976870
O O1 0.813254 0.900802 0.939615
O O2 0.724121 0.820746 0.795575
O O3 0.750000 0.663676 0.500000
O O4 0.839098 0.734961 0.386241
O O5 0.873542 0.660354 0.716747
O O6 0.858855 0.645204 0.216574
O O7 0.110802 0.281614 0.521903
O O8 0.000000 0.250000 0.776918
O O9 0.970110 0.314737 0.455455
O O10 0.041503 0.351788 0.768218
O O11 0.123475 0.579457 0.545801
O O12 0.101161 0.672362 0.361923
O O13 0.010899 0.594417 0.318331
O O14 0.322213 0.500000 0.250000
O O15 0.431694 0.544352 0.044991
O O16 0.975726 0.500000 0.250000
O O17 0.936897 0.416713 0.548724
#
# Coordination Sequence:
#
# PCOD9336848 Si02
#       8
#     4   8   8   8   8   8   8   8
#     4  12  26  46  60 104 148 210 278 304 376 450
#     4  12  30  49  75 109 155 202 248 297 379 478
#     4  12  23  41  68 109 145 188 249 306 377 443
#     4  12  22  43  65 101 146 191 237 324 374 438
#     4  12  26  43  68  96 146 200 258 322 371 441
#     4  12  27  42  70 101 150 207 254 311 362 451
#     4  12  25  46  76 111 141 185 253 326 398 455
#     4  12  25  49  76 110 148 193 242 315 386 452
#
# _framework density 22.507981000000001
#
# number of rings (size 3 to 8) (size 9 to 14) (size 15 to 20)
#    0.000    0.000    8.000    2.000    3.733    2.133 
#    0.000    0.000    0.000    1.600    0.000    0.000 
#    0.000    0.000    0.000    0.000    0.000    0.000 
#
# Total GULP energy -167419.092571 kJ/mol
# GULP energy per Si atom -5580.636419 kJ/mol
# Density = 2.245675 g / cm^3
# Si number density = 22.507981 Si / 1000 Ang^3
#
#
#
# Elastic Constant Matrix: (Units=GPa)
#
#
# Indices 1 2 3 4 5 6 
#
# 1 90.5312 32.8982 33.4988 0.0000 0.0000 0.0000
# 2 32.8982 125.8795 29.0530 0.0000 0.0000 0.0000
# 3 33.4988 29.0530 91.4701 0.0000 0.0000 0.0000
# 4 0.0000 0.0000 0.0000 34.1673 0.0000 0.0000
# 5 0.0000 0.0000 0.0000 0.0000 18.4192 0.0000
# 6 0.0000 0.0000 0.0000 0.0000 0.0000 26.3937
#
#
#
# Elastic Compliance Matrix: (Units=1/GPa)
#
#
# Indices 1 2 3 4 5 6 
#
# 1 0.013511 -0.002578 -0.004129 0.000000 0.000000 0.000000
# 2 -0.002578 0.009064 -0.001935 0.000000 0.000000 0.000000
# 3 -0.004129 -0.001935 0.013059 0.000000 0.000000 0.000000
# 4 0.000000 0.000000 0.000000 0.029268 0.000000 0.000000
# 5 0.000000 0.000000 0.000000 0.000000 0.054291 0.000000
# 6 0.000000 0.000000 0.000000 0.000000 0.000000 0.037888
#
#
# Mechanical properties :
#
#
# Convention : Reuss Voigt Hill
#
# Bulk Modulus (GPa) = 54.49506 55.42008 54.95757
# Shear Modulus (GPa) = 27.70361 29.95809 28.83085
#
# Velocity S-wave (km/s) = 3.51213 3.65224 3.58287
# Velocity P-wave (km/s) = 6.38050 6.51621 6.44871
#
# Compressibility (1/GPa) = 0.01835029
#
# Stress axis : x y z
#
# Youngs Moduli (GPa) = 74.01595 110.32130 76.57364
#
# Poissons Ratio (x) = 0.28440 0.31618
# Poissons Ratio (y) = 0.19081 0.14817
# Poissons Ratio (z) = 0.30562 0.21347
#
# Static dielectric constant tensor:
#      x y z
#    x 1.965410 0.000000 0.000000 
#    y 0.000000 1.835780 0.000000 
#    z 0.000000 0.000000 3.978860 
# 
# From -- ./inp_files/5013.got.cif
#   From: 2010.05.17/outbox.cif.g08.bks.cpg/sg24_3_cif.got.tgz:5013.got - 2010.06.04 00:33:39.
