data_PCOD9336334
_publ_section_title
;
Structure prediction by ZEFSAII (Michael W. Deem and Ramdas Pophale) SiO2 
 PCOD9336334
Probable space group: I 21 21 21
;
_chemical_formula_sum "Si O2"
_cell_formula_units_Z 44
_cell_length_a 13.051074
_cell_length_b 20.658278
_cell_length_c 7.802827
_cell_angle_alpha 90.000000
_cell_angle_beta 90.000000
_cell_angle_gamma 90.000000
_cell_volume 2103.741371
_symmetry_space_group_name_H-M "I 21 21 21"
_symmetry_group_IT_number 24
_symmetry_cell_setting 'orthorhombic'
loop_
_space_group_symop_operation_xyz
x,y,z
-x,1/2-y,z
x,-y,1/2-z
1/2-x,y,-z
1/2+x,1/2+y,1/2+z
1/2-x,-y,1/2+z
1/2+x,1/2-y,-z
-x,1/2+y,1/2-z
loop_
_atom_site_type_symbol
_atom_site_label
_atom_site_fract_x
_atom_site_fract_y
_atom_site_fract_z
Si Si1 0.449431 0.362500 0.812067
Si Si2 0.360561 0.147100 0.414650
Si Si3 0.500000 0.250000 0.556035
Si Si4 0.999582 0.536335 0.048396
Si Si5 0.153410 0.500000 0.750000
Si Si6 0.128668 0.094756 0.970297
Si Si7 0.750000 0.102077 0.000000
O O1 0.448092 0.304670 0.675619
O O2 0.446632 0.433950 0.719855
O O3 0.557642 0.358415 0.913979
O O4 0.351560 0.360195 0.938155
O O5 0.250000 0.151610 0.500000
O O6 0.416851 0.214869 0.438999
O O7 0.420293 0.094401 0.525072
O O8 0.373556 0.119728 0.223930
O O9 0.082911 0.530940 0.898571
O O10 0.927500 0.473406 0.014235
O O11 0.216553 0.555714 0.656226
O O12 0.250000 0.089448 0.000000
#
# Coordination Sequence:
#
# PCOD9336334 Si02
#       7
#     8   8   4   8   4   8   4
#     4  11  25  46  68 101 139 183 235 288 347 409
#     4  11  23  45  67  99 137 180 229 281 351 408
#     4  10  26  50  64  92 138 184 242 290 336 404
#     4  11  21  41  68 106 140 173 216 286 354 420
#     4  12  22  40  66 104 144 176 224 274 360 426
#     4  12  23  41  72 107 134 175 220 289 354 425
#     4  12  24  42  68 102 140 186 228 282 344 436
#
# _framework density 20.915118
#
# number of rings (size 3 to 8) (size 9 to 14) (size 15 to 20)
#    0.000    0.727    3.636    4.364    0.000    2.182 
#   14.727    0.000    0.000    0.000    0.000    0.000 
#    0.000    0.000    0.000    0.000    0.000    0.000 
#
# Total GULP energy -122681.061005 kJ/mol
# GULP energy per Si atom -5576.411864 kJ/mol
# Density = 2.086751 g / cm^3
# Si number density = 20.915118 Si / 1000 Ang^3
#
#
#
# Elastic Constant Matrix: (Units=GPa)
#
#
# Indices 1 2 3 4 5 6 
#
# 1 136.7361 32.9844 54.1427 0.0001 0.0000 0.0000
# 2 32.9844 81.1331 2.0931 0.0001 0.0000 -0.0001
# 3 54.1427 2.0931 62.4988 0.0006 0.0000 -0.0003
# 4 0.0001 0.0001 0.0006 27.9342 0.0000 -0.0001
# 5 0.0000 0.0000 0.0000 0.0000 35.8088 0.0000
# 6 0.0000 -0.0001 -0.0003 -0.0001 0.0000 34.2810
#
#
#
# Elastic Compliance Matrix: (Units=1/GPa)
#
#
# Indices 1 2 3 4 5 6 
#
# 1 0.012846 -0.004940 -0.010963 0.000000 0.000000 0.000000
# 2 -0.004940 0.014236 0.003802 0.000000 0.000000 0.000000
# 3 -0.010963 0.003802 0.025370 -0.000001 0.000000 0.000000
# 4 0.000000 0.000000 -0.000001 0.035798 0.000000 0.000000
# 5 0.000000 0.000000 0.000000 0.000000 0.027926 0.000000
# 6 0.000000 0.000000 0.000000 0.000000 0.000000 0.029171
#
#
# Mechanical properties :
#
#
# Convention : Reuss Voigt Hill
#
# Bulk Modulus (GPa) = 35.39659 50.97872 43.18765
# Shear Modulus (GPa) = 27.93854 32.34796 30.14325
#
# Velocity S-wave (km/s) = 3.65883 3.93699 3.80046
# Velocity P-wave (km/s) = 5.90001 6.71517 6.32074
#
# Compressibility (1/GPa) = 0.02825131
#
# Stress axis : x y z
#
# Youngs Moduli (GPa) = 77.84599 70.24682 39.41632
#
# Poissons Ratio (x) = 0.34699 0.43212
# Poissons Ratio (y) = 0.38453 -0.14988
# Poissons Ratio (z) = 0.85342 -0.26711
#
# Static dielectric constant tensor:
#      x y z
#    x 1.824200 0.000000 0.000000 
#    y 0.000000 1.829090 0.000000 
#    z 0.000000 0.000000 1.810310 
# 
# From -- ./inp_files/11210.got.cif
#   From: 2010.05.17/outbox.cif.g08.bks.cpg/sg24_6_cif.got.tgz:11210.got - 2010.06.04 00:33:39.
