data_PCOD9336093
_publ_section_title
;
Structure prediction by ZEFSAII (Michael W. Deem and Ramdas Pophale) SiO2 
 PCOD9336093
Probable space group: I 21 21 21
;
_chemical_formula_sum "Si O2"
_cell_formula_units_Z 40
_cell_length_a 17.390474
_cell_length_b 12.328461
_cell_length_c 10.586925
_cell_angle_alpha 90.000000
_cell_angle_beta 90.000000
_cell_angle_gamma 90.000000
_cell_volume 2269.813222
_symmetry_space_group_name_H-M "I 21 21 21"
_symmetry_group_IT_number 24
_symmetry_cell_setting 'orthorhombic'
loop_
_space_group_symop_operation_xyz
x,y,z
-x,1/2-y,z
x,-y,1/2-z
1/2-x,y,-z
1/2+x,1/2+y,1/2+z
1/2-x,-y,1/2+z
1/2+x,1/2-y,-z
-x,1/2+y,1/2-z
loop_
_atom_site_type_symbol
_atom_site_label
_atom_site_fract_x
_atom_site_fract_y
_atom_site_fract_z
Si Si1 0.750000 0.839784 0.150137
Si Si2 0.121915 0.500000 0.750000
Si Si3 0.622314 0.324816 1.000000
Si Si4 0.047712 0.587116 0.500000
Si Si5 0.621915 0.000000 0.750000
Si Si6 0.250000 0.124151 0.206502
O O1 0.677100 0.899399 0.213650
O O2 0.822900 0.899399 0.213650
O O3 0.750000 0.712840 0.182261
O O4 0.750000 0.859779 0.000000
O O5 0.072254 0.526044 0.626973
O O6 0.595666 0.199768 1.000000
O O7 0.542834 0.390167 0.999999
O O8 0.675449 0.351839 0.120019
O O9 0.675449 0.351839 0.879981
O O10 0.072254 0.526043 0.373027
O O11 0.250000 0.000000 0.250000
#
# Coordination Sequence:
#
# PCOD9336093 Si02
#       6
#     8   4   8   8   4   8
#     4  11  22  37  61  97 125 159 201 258 318 363
#     4  11  22  38  66  93 130 154 204 267 314 364
#     4  10  24  42  64  83 125 174 210 238 312 382
#     4  11  22  42  64  95 125 163 205 265 313 370
#     4  11  22  38  66  93 130 154 204 267 314 364
#     4  11  24  42  61  87 124 171 211 247 295 388
#
# _framework density 17.622595
#
# number of rings (size 3 to 8) (size 9 to 14) (size 15 to 20)
#    0.000    1.200    6.000    0.000    5.600    0.000 
#    0.000    0.000    0.000    7.200    0.000    0.000 
#    0.000    0.000    0.000    0.000    0.000    0.000 
#
# Total GULP energy -111689.969865 kJ/mol
# GULP energy per Si atom -5584.498493 kJ/mol
# Density = 1.758248 g / cm^3
# Si number density = 17.622595 Si / 1000 Ang^3
#
#
#
# Elastic Constant Matrix: (Units=GPa)
#
#
# Indices 1 2 3 4 5 6 
#
# 1 127.8825 43.5061 55.7019 0.0000 0.0000 0.0000
# 2 43.5061 99.6086 32.1994 0.0000 0.0000 0.0000
# 3 55.7019 32.1994 132.3574 0.0000 0.0000 0.0000
# 4 0.0000 0.0000 0.0000 33.3349 0.0000 0.0000
# 5 0.0000 0.0000 0.0000 0.0000 1.8235 0.0000
# 6 0.0000 0.0000 0.0000 0.0000 0.0000 7.1837
#
#
#
# Elastic Compliance Matrix: (Units=1/GPa)
#
#
# Indices 1 2 3 4 5 6 
#
# 1 0.010564 -0.003448 -0.003607 0.000000 0.000000 0.000000
# 2 -0.003448 0.012022 -0.001474 0.000000 0.000000 0.000000
# 3 -0.003607 -0.001474 0.009432 0.000000 0.000000 0.000000
# 4 0.000000 0.000000 0.000000 0.029999 0.000000 0.000000
# 5 0.000000 0.000000 0.000000 0.000000 0.548390 0.000000
# 6 0.000000 0.000000 0.000000 0.000000 0.000000 0.139203
#
#
# Mechanical properties :
#
#
# Convention : Reuss Voigt Hill
#
# Bulk Modulus (GPa) = 66.84352 69.18482 68.01417
# Shear Modulus (GPa) = 6.47960 23.69785 15.08872
#
# Velocity S-wave (km/s) = 1.91960 3.67105 2.92929
# Velocity P-wave (km/s) = 6.55180 7.57055 7.07952
#
# Compressibility (1/GPa) = 0.01496031
#
# Stress axis : x y z
#
# Youngs Moduli (GPa) = 94.66347 83.18370 106.02537
#
# Poissons Ratio (x) = 0.28681 0.38242
# Poissons Ratio (y) = 0.32640 0.15623
# Poissons Ratio (z) = 0.34144 0.12257
#
# Static dielectric constant tensor:
#      x y z
#    x 1.569840 0.000000 0.000000 
#    y 0.000000 1.590770 0.000000 
#    z 0.000000 0.000000 1.581040 
# 
# From -- ./inp_files/14016.got.cif
#   From: 2010.05.17/outbox.cif.g08.bks.cpg/sg24_8_cif.got.tgz:14016.got - 2010.06.04 00:33:39.
