data_PCOD9336265
_publ_section_title
;
Structure prediction by ZEFSAII (Michael W. Deem and Ramdas Pophale) SiO2 
 PCOD9336265
Probable space group: I 21 21 21
;
_chemical_formula_sum "Si O2"
_cell_formula_units_Z 32
_cell_length_a 5.030741
_cell_length_b 15.651492
_cell_length_c 17.362500
_cell_angle_alpha 90.000000
_cell_angle_beta 90.000000
_cell_angle_gamma 90.000000
_cell_volume 1367.098986
_symmetry_space_group_name_H-M "I 21 21 21"
_symmetry_group_IT_number 24
_symmetry_cell_setting 'orthorhombic'
loop_
_space_group_symop_operation_xyz
x,y,z
-x,1/2-y,z
x,-y,1/2-z
1/2-x,y,-z
1/2+x,1/2+y,1/2+z
1/2-x,-y,1/2+z
1/2+x,1/2-y,-z
-x,1/2+y,1/2-z
loop_
_atom_site_type_symbol
_atom_site_label
_atom_site_fract_x
_atom_site_fract_y
_atom_site_fract_z
Si Si1 0.366969 0.113166 0.141049
Si Si2 0.216515 0.586630 0.783242
Si Si3 0.500000 0.250000 0.783177
Si Si4 0.016481 0.045566 0.550265
Si Si5 0.500000 0.750000 0.451659
O O1 0.474981 0.085636 0.223025
O O2 0.163769 0.186926 0.161925
O O3 0.591253 0.167488 0.096440
O O4 0.316034 0.034402 0.085836
O O5 0.368384 0.500000 0.750000
O O6 0.351225 0.678980 0.769110
O O7 0.111119 0.582433 0.870384
O O8 0.250000 0.091756 0.500000
O O9 0.750000 0.026915 0.500000
O O10 0.250000 0.780422 0.500000
#
# Coordination Sequence:
#
# PCOD9336265 Si02
#       5
#     8   8   4   8   4
#     4  11  24  42  69 109 149 199 249 307 378 466
#     4  10  25  45  77 109 152 207 259 313 379 466
#     4  12  23  44  82 115 148 194 272 310 375 460
#     4  11  27  48  76 111 155 206 256 319 391 448
#     4  12  23  36  60 101 150 186 224 296 375 446
#
# _framework density 23.407229999999998
#
# number of rings (size 3 to 8) (size 9 to 14) (size 15 to 20)
#    0.000    1.000    2.500    2.250   10.500    1.000 
#    0.000    0.000    5.500    0.000    0.000    0.000 
#    0.000    0.000    0.000    0.000    0.000    0.000 
#
# Total GULP energy -89070.763343 kJ/mol
# GULP energy per Si atom -5566.922709 kJ/mol
# Density = 2.335395 g / cm^3
# Si number density = 23.407230 Si / 1000 Ang^3
#
#
#
# Elastic Constant Matrix: (Units=GPa)
#
#
# Indices 1 2 3 4 5 6 
#
# 1 93.6559 50.1250 48.4638 0.0000 0.0000 0.0000
# 2 50.1250 104.7235 55.1382 0.0000 0.0000 0.0000
# 3 48.4638 55.1382 186.8895 0.0000 0.0000 0.0000
# 4 0.0000 0.0000 0.0000 36.4567 0.0000 0.0000
# 5 0.0000 0.0000 0.0000 0.0000 22.7551 0.0000
# 6 0.0000 0.0000 0.0000 0.0000 0.0000 28.6404
#
#
#
# Elastic Compliance Matrix: (Units=1/GPa)
#
#
# Indices 1 2 3 4 5 6 
#
# 1 0.015020 -0.006083 -0.002100 0.000000 0.000000 0.000000
# 2 -0.006083 0.013769 -0.002485 0.000000 0.000000 0.000000
# 3 -0.002100 -0.002485 0.006628 0.000000 0.000000 0.000000
# 4 0.000000 0.000000 0.000000 0.027430 0.000000 0.000000
# 5 0.000000 0.000000 0.000000 0.000000 0.043946 0.000000
# 6 0.000000 0.000000 0.000000 0.000000 0.000000 0.034916
#
#
# Mechanical properties :
#
#
# Convention : Reuss Voigt Hill
#
# Bulk Modulus (GPa) = 71.01882 76.96923 73.99403
# Shear Modulus (GPa) = 29.80816 33.00658 31.40737
#
# Velocity S-wave (km/s) = 3.57243 3.75921 3.66701
# Velocity P-wave (km/s) = 6.88642 7.19696 7.04340
#
# Compressibility (1/GPa) = 0.01408077
#
# Stress axis : x y z
#
# Youngs Moduli (GPa) = 66.57777 72.62691 150.86516
#
# Poissons Ratio (x) = 0.44182 0.31684
# Poissons Ratio (y) = 0.40502 0.37486
# Poissons Ratio (z) = 0.13982 0.18046
#
# Static dielectric constant tensor:
#      x y z
#    x 2.033030 0.000000 0.000000 
#    y 0.000000 2.001090 0.000000 
#    z 0.000000 0.000000 2.020160 
# 
# From -- ./inp_files/4379.got.cif
#   From: 2010.05.17/outbox.cif.g08.bks.cpg/sg24_3_cif.got.tgz:4379.got - 2010.06.04 00:33:39.
