data_PCOD9336018
_publ_section_title
;
Structure prediction by ZEFSAII (Michael W. Deem and Ramdas Pophale) SiO2 
 PCOD9336018
Probable space group: I 21 21 21
;
_chemical_formula_sum "Si O2"
_cell_formula_units_Z 64
_cell_length_a 15.840615
_cell_length_b 17.766540
_cell_length_c 10.785280
_cell_angle_alpha 90.000000
_cell_angle_beta 90.000000
_cell_angle_gamma 90.000000
_cell_volume 3035.332844
_symmetry_space_group_name_H-M "I 21 21 21"
_symmetry_group_IT_number 24
_symmetry_cell_setting 'orthorhombic'
loop_
_space_group_symop_operation_xyz
x,y,z
-x,1/2-y,z
x,-y,1/2-z
1/2-x,y,-z
1/2+x,1/2+y,1/2+z
1/2-x,-y,1/2+z
1/2+x,1/2-y,-z
-x,1/2+y,1/2-z
loop_
_atom_site_type_symbol
_atom_site_label
_atom_site_fract_x
_atom_site_fract_y
_atom_site_fract_z
Si Si1 0.334474 0.578441 0.802270
Si Si2 0.221621 0.805877 0.260413
Si Si3 0.421494 0.346241 0.491513
Si Si4 0.388813 0.168310 0.518741
Si Si5 0.573347 0.788869 0.661048
Si Si6 0.981690 0.165945 0.898339
Si Si7 0.133941 0.090199 0.753236
Si Si8 0.167539 0.653783 0.750786
O O1 0.363679 0.500000 0.750000
O O2 0.356788 0.597388 0.942984
O O3 0.383688 0.643638 0.731186
O O4 0.236807 0.591157 0.773656
O O5 0.174850 0.837451 0.135725
O O6 0.149238 0.771893 0.350993
O O7 0.282847 0.870389 0.310976
O O8 0.282735 0.733157 0.233886
O O9 0.395350 0.259070 0.507000
O O10 0.515500 0.359986 0.539210
O O11 0.409542 0.356072 0.345883
O O12 0.367412 0.127565 0.386743
O O13 0.500000 0.750000 0.741018
O O14 0.520500 0.822733 0.546231
O O15 0.883015 0.147917 0.875885
O O16 0.000000 0.250000 0.846143
O O17 0.052546 0.114117 0.836135
O O18 0.139099 0.000000 0.750000
#
# Coordination Sequence:
#
# PCOD9336018 Si02
#       8
#     8   8   8   8   8   8   8   8
#     4  11  25  40  60 103 144 169 221 296 352 402
#     4  11  22  40  71 103 133 177 242 299 341 427
#     4  11  20  38  71  99 127 174 233 286 342 420
#     4  11  21  39  72 101 130 174 241 297 344 425
#     4  10  23  45  70  95 133 188 238 273 340 441
#     4  11  22  45  69  95 133 182 233 278 346 432
#     4  12  26  43  66 107 149 182 239 311 370 421
#     4  11  21  40  68  99 126 177 230 281 337 427
#
# _framework density 21.085001999999999
#
# number of rings (size 3 to 8) (size 9 to 14) (size 15 to 20)
#    0.000    1.000    6.250    1.500    0.000    3.500 
#    4.500    7.500    0.000    0.000    0.000    0.000 
#    0.000    0.000    0.000    0.000    0.000    0.000 
#
# Total GULP energy -178313.234058 kJ/mol
# GULP energy per Si atom -5572.288564 kJ/mol
# Density = 2.103701 g / cm^3
# Si number density = 21.085002 Si / 1000 Ang^3
#
#
#
# Elastic Constant Matrix: (Units=GPa)
#
#
# Indices 1 2 3 4 5 6 
#
# 1 128.5680 26.2364 23.5502 0.0000 0.0000 0.0000
# 2 26.2364 95.4901 21.2653 0.0000 0.0000 0.0000
# 3 23.5502 21.2653 53.8367 0.0000 0.0000 0.0000
# 4 0.0000 0.0000 0.0000 19.0404 0.0000 0.0000
# 5 0.0000 0.0000 0.0000 0.0000 25.1663 0.0000
# 6 0.0000 0.0000 0.0000 0.0000 0.0000 17.6373
#
#
#
# Elastic Compliance Matrix: (Units=1/GPa)
#
#
# Indices 1 2 3 4 5 6 
#
# 1 0.008698 -0.001691 -0.003137 0.000000 0.000000 0.000000
# 2 -0.001691 0.011811 -0.003926 0.000000 0.000000 0.000000
# 3 -0.003137 -0.003926 0.021497 0.000000 0.000000 0.000000
# 4 0.000000 0.000000 0.000000 0.052520 0.000000 0.000000
# 5 0.000000 0.000000 0.000000 0.000000 0.039736 0.000000
# 6 0.000000 0.000000 0.000000 0.000000 0.000000 0.056698
#
#
# Mechanical properties :
#
#
# Convention : Reuss Voigt Hill
#
# Bulk Modulus (GPa) = 40.81745 46.66650 43.74197
# Shear Modulus (GPa) = 23.08052 26.15834 24.61943
#
# Velocity S-wave (km/s) = 3.31213 3.52606 3.42076
# Velocity P-wave (km/s) = 5.83331 6.22559 6.03264
#
# Compressibility (1/GPa) = 0.02449933
#
# Stress axis : x y z
#
# Youngs Moduli (GPa) = 114.97349 84.66564 46.51734
#
# Poissons Ratio (x) = 0.14319 0.14591
# Poissons Ratio (y) = 0.19444 0.18261
# Poissons Ratio (z) = 0.36063 0.33236
#
# Static dielectric constant tensor:
#      x y z
#    x 1.802770 0.000000 0.000000 
#    y 0.000000 1.738160 0.000000 
#    z 0.000000 0.000000 1.818940 
# 
# From -- ./inp_files/21070.got.cif
#   From: 2010.05.17/outbox.cif.g08.bks.cpg/sg24_11_cif.got.tgz:21070.got - 2010.06.04 00:33:39.
