data_PCOD9336903
_publ_section_title
;
Structure prediction by ZEFSAII (Michael W. Deem and Ramdas Pophale) SiO2 
 PCOD9336903
Probable space group: I 21 21 21
;
_chemical_formula_sum "Si O2"
_cell_formula_units_Z 32
_cell_length_a 11.735494
_cell_length_b 5.031790
_cell_length_c 21.640281
_cell_angle_alpha 90.000000
_cell_angle_beta 90.000000
_cell_angle_gamma 90.000000
_cell_volume 1277.870308
_symmetry_space_group_name_H-M "I 21 21 21"
_symmetry_group_IT_number 24
_symmetry_cell_setting 'orthorhombic'
loop_
_space_group_symop_operation_xyz
x,y,z
-x,1/2-y,z
x,-y,1/2-z
1/2-x,y,-z
1/2+x,1/2+y,1/2+z
1/2-x,-y,1/2+z
1/2+x,1/2-y,-z
-x,1/2+y,1/2-z
loop_
_atom_site_type_symbol
_atom_site_label
_atom_site_fract_x
_atom_site_fract_y
_atom_site_fract_z
Si Si1 0.939866 0.000000 0.250000
Si Si2 0.146167 0.043965 0.821966
Si Si3 0.783453 0.964021 0.146837
Si Si4 0.124292 0.600438 0.484315
Si Si5 0.000000 0.250000 0.580021
O O1 0.866334 0.890417 0.305213
O O2 0.000000 0.750000 0.221371
O O3 0.249082 0.831537 0.832656
O O4 0.058138 0.955247 0.874040
O O5 0.111464 0.000000 0.750000
O O6 0.176181 0.343885 0.841029
O O7 0.844902 0.972650 0.081388
O O8 0.250000 0.735684 0.500000
O O9 0.000000 0.750000 0.480459
O O10 0.095925 0.380878 0.536263
#
# Coordination Sequence:
#
# PCOD9336903 Si02
#       5
#     4   8   8   8   4
#     4  12  24  42  72 114 154 210 274 334 414 502
#     4  12  26  52  82 118 168 222 290 355 428 508
#     4  12  26  49  80 118 164 222 274 355 429 505
#     4  12  28  52  83 122 172 227 285 351 434 519
#     4  12  30  48  84 120 168 224 288 354 432 518
#
# _framework density 25.041665999999999
#
# number of rings (size 3 to 8) (size 9 to 14) (size 15 to 20)
#    0.000    0.000    5.000    3.750    5.250    3.000 
#    0.000    0.000    0.000    0.000    0.000    0.000 
#    0.000    0.000    0.000    0.000    0.000    0.000 
#
# Total GULP energy -89362.301534 kJ/mol
# GULP energy per Si atom -5585.143846 kJ/mol
# Density = 2.498467 g / cm^3
# Si number density = 25.041666 Si / 1000 Ang^3
#
#
#
# Elastic Constant Matrix: (Units=GPa)
#
#
# Indices 1 2 3 4 5 6 
#
# 1 126.8444 30.3583 39.6956 0.0000 0.0000 0.0000
# 2 30.3583 94.1463 22.2953 0.0000 0.0000 0.0000
# 3 39.6956 22.2953 208.7345 0.0000 0.0000 0.0000
# 4 0.0000 0.0000 0.0000 30.9734 0.0000 0.0000
# 5 0.0000 0.0000 0.0000 0.0000 29.4033 0.0000
# 6 0.0000 0.0000 0.0000 0.0000 0.0000 -1.4174
#
#
#
# Elastic Compliance Matrix: (Units=1/GPa)
#
#
# Indices 1 2 3 4 5 6 
#
# 1 0.008940 -0.002544 -0.001428 0.000000 0.000000 0.000000
# 2 -0.002544 0.011622 -0.000757 0.000000 0.000000 0.000000
# 3 -0.001428 -0.000757 0.005143 0.000000 0.000000 0.000000
# 4 0.000000 0.000000 0.000000 0.032286 0.000000 0.000000
# 5 0.000000 0.000000 0.000000 0.000000 0.034010 0.000000
# 6 0.000000 0.000000 0.000000 0.000000 0.000000 -0.705503
#
#
# Mechanical properties :
#
#
# Convention : Reuss Voigt Hill
#
# Bulk Modulus (GPa) = 61.56038 68.26929 64.91483
# Shear Modulus (GPa) = -8.35243 34.28357 12.96557
#
# Velocity S-wave (km/s) = -1.82829 3.70410 2.27790
# Velocity P-wave (km/s) = 4.49218 6.75391 5.73563
#
# Compressibility (1/GPa) = 0.01624421
#
# Stress axis : x y z
#
# Youngs Moduli (GPa) = 111.86150 86.04657 194.42759
#
# Poissons Ratio (x) = 0.21894 0.27770
# Poissons Ratio (y) = 0.28462 0.14727
# Poissons Ratio (z) = 0.15977 0.06518
#
# Static dielectric constant tensor:
#      x y z
#    x 2.169920 0.000000 0.000000 
#    y 0.000000 15.718250 0.000000 
#    z 0.000000 0.000000 1.921970 
# 
# From -- ./inp_files/17410.got.cif
#   From: 2010.05.17/outbox.cif.g08.bks.cpg/sg24_9_cif.got.tgz:17410.got - 2010.06.04 00:33:39.
