data_PCOD9336415
_publ_section_title
;
Structure prediction by ZEFSAII (Michael W. Deem and Ramdas Pophale) SiO2 
 PCOD9336415
Probable space group: I 21 21 21
;
_chemical_formula_sum "Si O2"
_cell_formula_units_Z 32
_cell_length_a 9.999705
_cell_length_b 13.983784
_cell_length_c 9.492239
_cell_angle_alpha 90.000000
_cell_angle_beta 90.000000
_cell_angle_gamma 90.000000
_cell_volume 1327.335041
_symmetry_space_group_name_H-M "I 21 21 21"
_symmetry_group_IT_number 24
_symmetry_cell_setting 'orthorhombic'
loop_
_space_group_symop_operation_xyz
x,y,z
-x,1/2-y,z
x,-y,1/2-z
1/2-x,y,-z
1/2+x,1/2+y,1/2+z
1/2-x,-y,1/2+z
1/2+x,1/2-y,-z
-x,1/2+y,1/2-z
loop_
_atom_site_type_symbol
_atom_site_label
_atom_site_fract_x
_atom_site_fract_y
_atom_site_fract_z
Si Si1 0.146149 0.203452 0.208260
Si Si2 0.250000 0.645864 0.500000
Si Si3 0.000000 0.750000 0.814657
Si Si4 0.992032 0.062122 0.867002
Si Si5 0.750000 0.728742 0.000000
Si Si6 0.250000 0.045484 0.000000
O O1 0.181668 0.176671 0.367882
O O2 0.170003 0.113083 0.109471
O O3 0.000000 0.250000 0.203327
O O4 0.237142 0.286170 0.136371
O O5 0.384663 0.586027 0.485391
O O6 0.032866 0.839107 0.711193
O O7 0.875700 0.777121 0.918247
O O8 0.918760 0.000000 0.750000
O O9 0.123751 0.003984 0.916097
#
# Coordination Sequence:
#
# PCOD9336415 Si02
#       6
#     8   4   4   8   4   4
#     4  11  20  36  71 103 133 176 228 272 343 409
#     4  11  22  43  66  98 134 182 224 280 338 418
#     4  12  24  42  64 102 138 178 218 284 342 402
#     4  12  26  45  70 101 138 179 232 287 344 413
#     4  12  22  34  68 102 140 170 214 278 344 398
#     4  11  22  43  66  98 134 182 224 280 338 418
#
# _framework density 24.108457999999999
#
# number of rings (size 3 to 8) (size 9 to 14) (size 15 to 20)
#    0.000    0.500    8.750    1.500    0.000    2.000 
#    0.000    1.250    0.000    0.000    0.000    0.000 
#    0.000    0.000    0.000    0.000    0.000    0.000 
#
# Total GULP energy -89305.414127 kJ/mol
# GULP energy per Si atom -5581.588383 kJ/mol
# Density = 2.405359 g / cm^3
# Si number density = 24.108458 Si / 1000 Ang^3
#
#
#
# Elastic Constant Matrix: (Units=GPa)
#
#
# Indices 1 2 3 4 5 6 
#
# 1 151.5047 2.3397 25.7618 0.0000 0.0000 0.0000
# 2 2.3397 35.4411 5.2009 0.0000 0.0000 0.0000
# 3 25.7618 5.2009 133.9123 -0.0001 0.0000 0.0000
# 4 0.0000 0.0000 -0.0001 19.3187 0.0000 0.0000
# 5 0.0000 0.0000 0.0000 0.0000 50.2680 0.0000
# 6 0.0000 0.0000 0.0000 0.0000 0.0000 16.4610
#
#
#
# Elastic Compliance Matrix: (Units=1/GPa)
#
#
# Indices 1 2 3 4 5 6 
#
# 1 0.006826 -0.000259 -0.001303 0.000000 0.000000 0.000000
# 2 -0.000259 0.028387 -0.001053 0.000000 0.000000 0.000000
# 3 -0.001303 -0.001053 0.007759 0.000000 0.000000 0.000000
# 4 0.000000 0.000000 0.000000 0.051763 0.000000 0.000000
# 5 0.000000 0.000000 0.000000 0.000000 0.019893 0.000000
# 6 0.000000 0.000000 0.000000 0.000000 0.000000 0.060750
#
#
# Mechanical properties :
#
#
# Convention : Reuss Voigt Hill
#
# Bulk Modulus (GPa) = 26.49541 43.05141 34.77341
# Shear Modulus (GPa) = 25.88128 36.37994 31.13061
#
# Velocity S-wave (km/s) = 3.28004 3.88881 3.59733
# Velocity P-wave (km/s) = 5.03575 6.16928 5.63111
#
# Compressibility (1/GPa) = 0.03774239
#
# Stress axis : x y z
#
# Youngs Moduli (GPa) = 146.49780 35.22687 128.88022
#
# Poissons Ratio (x) = 0.00914 0.16794
# Poissons Ratio (y) = 0.03800 0.13566
# Poissons Ratio (z) = 0.19090 0.03708
#
# Static dielectric constant tensor:
#      x y z
#    x 1.980950 0.000000 0.000000 
#    y 0.000000 1.892270 0.000000 
#    z 0.000000 0.000000 1.891250 
# 
# From -- ./inp_files/10343.got.cif
#   From: 2010.05.17/outbox.cif.g08.bks.cpg/sg24_6_cif.got.tgz:10343.got - 2010.06.04 00:33:39.
