data_PCOD9336282
_publ_section_title
;
Structure prediction by ZEFSAII (Michael W. Deem and Ramdas Pophale) SiO2 
 PCOD9336282
Probable space group: I 21 21 21
;
_chemical_formula_sum "Si O2"
_cell_formula_units_Z 60
_cell_length_a 8.900823
_cell_length_b 27.085542
_cell_length_c 11.601199
_cell_angle_alpha 90.000000
_cell_angle_beta 90.000000
_cell_angle_gamma 90.000000
_cell_volume 2796.858996
_symmetry_space_group_name_H-M "I 21 21 21"
_symmetry_group_IT_number 24
_symmetry_cell_setting 'orthorhombic'
loop_
_space_group_symop_operation_xyz
x,y,z
-x,1/2-y,z
x,-y,1/2-z
1/2-x,y,-z
1/2+x,1/2+y,1/2+z
1/2-x,-y,1/2+z
1/2+x,1/2-y,-z
-x,1/2+y,1/2-z
loop_
_atom_site_type_symbol
_atom_site_label
_atom_site_fract_x
_atom_site_fract_y
_atom_site_fract_z
Si Si1 0.805045 0.403238 0.750521
Si Si2 0.592803 0.665148 0.437118
Si Si3 0.594133 0.907907 0.559343
Si Si4 0.391115 0.015501 0.073343
Si Si5 0.018918 0.585161 0.940749
Si Si6 0.285406 0.679694 0.128748
Si Si7 0.531396 0.883651 0.797523
Si Si8 0.000000 0.750000 0.717574
O O1 0.915410 0.370965 0.827847
O O2 0.824353 0.455847 0.815086
O O3 0.863670 0.400322 0.620985
O O4 0.638415 0.381663 0.749519
O O5 0.750000 0.656662 0.500000
O O6 0.461335 0.647347 0.522677
O O7 0.591900 0.716945 0.373113
O O8 0.750000 0.918609 0.500000
O O9 0.467269 0.943833 0.509176
O O10 0.612093 0.913110 0.695582
O O11 0.516268 0.972922 0.092306
O O12 0.250000 0.994828 0.000000
O O13 0.136922 0.625410 0.891512
O O14 0.024995 0.590688 0.077938
O O15 0.392063 0.715813 0.202494
O O16 0.125516 0.666620 0.186716
O O17 0.250000 0.699521 0.000000
#
# Coordination Sequence:
#
# PCOD9336282 Si02
#       8
#     8   8   8   8   8   8   8   4
#     4  11  20  43  67  97 138 178 224 280 348 408
#     4  11  23  44  69  98 134 169 224 286 341 420
#     4  11  23  40  68  99 141 186 221 281 352 399
#     4  11  22  41  65 101 139 180 235 282 326 417
#     4  11  24  41  69  96 136 188 230 280 351 406
#     4  10  25  48  67  98 138 180 229 293 354 420
#     4  11  22  42  69  95 139 179 232 286 336 421
#     4  12  24  48  74  98 138 178 232 296 366 422
#
# _framework density 21.452635999999998
#
# number of rings (size 3 to 8) (size 9 to 14) (size 15 to 20)
#    0.000    1.067    4.000    3.200    1.867    3.733 
#    4.800    0.000    0.000    0.000    0.000    0.000 
#    0.000    0.000    0.000    0.000    0.000    0.000 
#
# Total GULP energy -167177.128298 kJ/mol
# GULP energy per Si atom -5572.570943 kJ/mol
# Density = 2.140381 g / cm^3
# Si number density = 21.452636 Si / 1000 Ang^3
#
#
#
# Elastic Constant Matrix: (Units=GPa)
#
#
# Indices 1 2 3 4 5 6 
#
# 1 60.6015 19.3144 48.1623 0.0003 0.0001 0.0004
# 2 19.3144 75.3371 29.9860 0.0002 0.0002 0.0002
# 3 48.1623 29.9860 127.4264 0.0017 0.0014 0.0016
# 4 0.0003 0.0002 0.0017 12.1049 0.0004 0.0003
# 5 0.0001 0.0002 0.0014 0.0004 35.1443 0.0004
# 6 0.0004 0.0002 0.0016 0.0003 0.0004 24.1419
#
#
#
# Elastic Compliance Matrix: (Units=1/GPa)
#
#
# Indices 1 2 3 4 5 6 
#
# 1 0.024117 -0.002819 -0.008452 0.000001 0.000000 0.000000
# 2 -0.002819 0.014975 -0.002458 0.000000 0.000000 0.000000
# 3 -0.008452 -0.002458 0.011621 -0.000001 0.000000 -0.000001
# 4 0.000001 0.000000 -0.000001 0.082611 -0.000001 -0.000001
# 5 0.000000 0.000000 0.000000 -0.000001 0.028454 -0.000001
# 6 0.000000 0.000000 -0.000001 -0.000001 -0.000001 0.041422
#
#
# Mechanical properties :
#
#
# Convention : Reuss Voigt Hill
#
# Bulk Modulus (GPa) = 43.00354 50.92114 46.96234
# Shear Modulus (GPa) = 20.97238 25.33837 23.15538
#
# Velocity S-wave (km/s) = 3.13007 3.44049 3.28894
# Velocity P-wave (km/s) = 5.75782 6.29052 6.03006
#
# Compressibility (1/GPa) = 0.02325390
#
# Stress axis : x y z
#
# Youngs Moduli (GPa) = 41.46517 66.77854 86.05351
#
# Poissons Ratio (x) = 0.18824 0.72731
# Poissons Ratio (y) = 0.11688 0.21156
# Poissons Ratio (z) = 0.35046 0.16417
#
# Static dielectric constant tensor:
#      x y z
#    x 1.784290 0.000000 0.000000 
#    y 0.000000 1.865090 0.000000 
#    z 0.000000 0.000000 1.794770 
# 
# From -- ./inp_files/18824.got.cif
#   From: 2010.05.17/outbox.cif.g08.bks.cpg/sg24_10_cif.got.tgz:18824.got - 2010.06.04 00:33:39.
