data_PCOD9336403
_publ_section_title
;
Structure prediction by ZEFSAII (Michael W. Deem and Ramdas Pophale) SiO2 
 PCOD9336403
Probable space group: I 21 21 21
;
_chemical_formula_sum "Si O2"
_cell_formula_units_Z 64
_cell_length_a 16.868653
_cell_length_b 20.485991
_cell_length_c 9.527962
_cell_angle_alpha 90.000000
_cell_angle_beta 90.000000
_cell_angle_gamma 90.000000
_cell_volume 3292.588057
_symmetry_space_group_name_H-M "I 21 21 21"
_symmetry_group_IT_number 24
_symmetry_cell_setting 'orthorhombic'
loop_
_space_group_symop_operation_xyz
x,y,z
-x,1/2-y,z
x,-y,1/2-z
1/2-x,y,-z
1/2+x,1/2+y,1/2+z
1/2-x,-y,1/2+z
1/2+x,1/2-y,-z
-x,1/2+y,1/2-z
loop_
_atom_site_type_symbol
_atom_site_label
_atom_site_fract_x
_atom_site_fract_y
_atom_site_fract_z
Si Si1 0.448888 0.814735 0.390558
Si Si2 0.459828 0.821849 0.718926
Si Si3 0.815772 0.700638 0.094736
Si Si4 0.342190 0.332161 0.485547
Si Si5 0.104710 0.378594 0.805293
Si Si6 0.598510 0.910611 0.776105
Si Si7 0.838714 0.977399 0.472344
Si Si8 0.207766 0.752597 0.650176
O O1 0.500000 0.750000 0.357445
O O2 0.434338 0.815894 0.557248
O O3 0.512189 0.868575 0.342448
O O4 0.361996 0.805952 0.327525
O O5 0.500000 0.750000 0.748866
O O6 0.389478 0.832640 0.829796
O O7 0.514703 0.886824 0.719084
O O8 0.770602 0.737904 0.224034
O O9 0.750000 0.663751 0.000000
O O10 0.848714 0.754279 0.983271
O O11 0.250000 0.348508 0.500000
O O12 0.381224 0.372939 0.361004
O O13 0.379371 0.349234 0.632404
O O14 0.161426 0.317442 0.853042
O O15 0.131393 0.443679 0.886045
O O16 0.659129 0.921565 0.648408
O O17 0.608026 0.969609 0.888475
O O18 0.750000 0.001752 0.500000
O O19 0.250000 0.760542 0.500000
#
# Coordination Sequence:
#
# PCOD9336403 Si02
#       8
#     8   8   8   8   8   8   8   8
#     4   9  20  33  54  84 115 160 206 251 312 370
#     4  11  20  37  61  84 120 159 206 257 314 382
#     4  11  22  36  55  91 123 159 198 250 329 377
#     4  11  21  35  53  82 118 157 196 245 304 357
#     4  11  21  36  57  82 122 161 208 251 297 371
#     4  11  24  40  57  86 117 160 212 250 308 358
#     4  11  24  39  61  85 118 163 215 251 287 366
#     4  11  20  33  55  82 120 160 205 257 304 373
#
# _framework density 19.437597
#
# number of rings (size 3 to 8) (size 9 to 14) (size 15 to 20)
#    0.000    1.250    6.250    1.500    1.750    2.500 
#    2.250    0.000    0.000    0.000    0.000    4.375 
#    0.000    0.000    0.000    0.000    0.000    0.000 
#
# Total GULP energy -178147.321658 kJ/mol
# GULP energy per Si atom -5567.103802 kJ/mol
# Density = 1.939336 g / cm^3
# Si number density = 19.437597 Si / 1000 Ang^3
#
#
#
# Elastic Constant Matrix: (Units=GPa)
#
#
# Indices 1 2 3 4 5 6 
#
# 1 49.0983 17.3379 26.8713 0.0000 0.0000 0.0000
# 2 17.3379 38.4965 8.0747 0.0000 0.0000 0.0000
# 3 26.8713 8.0747 85.9925 0.0000 0.0000 0.0000
# 4 0.0000 0.0000 0.0000 -8.9615 0.0000 0.0000
# 5 0.0000 0.0000 0.0000 0.0000 34.3159 0.0000
# 6 0.0000 0.0000 0.0000 0.0000 0.0000 17.2558
#
#
#
# Elastic Compliance Matrix: (Units=1/GPa)
#
#
# Indices 1 2 3 4 5 6 
#
# 1 0.028665 -0.011253 -0.007901 0.000000 0.000000 0.000000
# 2 -0.011253 0.030916 0.000613 0.000000 0.000000 0.000000
# 3 -0.007901 0.000613 0.014040 0.000000 0.000000 0.000000
# 4 0.000000 0.000000 0.000000 -0.111588 0.000000 0.000000
# 5 0.000000 0.000000 0.000000 0.000000 0.029141 0.000000
# 6 0.000000 0.000000 0.000000 0.000000 0.000000 0.057951
#
#
# Mechanical properties :
#
#
# Convention : Reuss Voigt Hill
#
# Bulk Modulus (GPa) = 27.36688 30.90610 29.13649
# Shear Modulus (GPa) = 50.82046 16.60896 33.71471
#
# Velocity S-wave (km/s) = 5.11881 2.92631 4.16926
# Velocity P-wave (km/s) = 7.00330 5.22995 6.18056
#
# Compressibility (1/GPa) = 0.03654051
#
# Stress axis : x y z
#
# Youngs Moduli (GPa) = 34.88579 32.34604 71.22415
#
# Poissons Ratio (x) = 0.36398 0.56272
# Poissons Ratio (y) = 0.39256 -0.04369
# Poissons Ratio (z) = 0.27562 -0.01984
#
# Static dielectric constant tensor:
#      x y z
#    x 1.916580 0.000000 0.000000 
#    y 0.000000 1.758460 0.000000 
#    z 0.000000 0.000000 1.696970 
# 
# From -- ./inp_files/14678.got.cif
#   From: 2010.05.17/outbox.cif.g08.bks.cpg/sg24_8_cif.got.tgz:14678.got - 2010.06.04 00:33:39.
