data_PCOD9336600
_publ_section_title
;
Structure prediction by ZEFSAII (Michael W. Deem and Ramdas Pophale) SiO2 
 PCOD9336600
Probable space group: I 21 21 21
;
_chemical_formula_sum "Si O2"
_cell_formula_units_Z 60
_cell_length_a 26.694083
_cell_length_b 9.142797
_cell_length_c 12.580276
_cell_angle_alpha 90.000000
_cell_angle_beta 90.000000
_cell_angle_gamma 90.000000
_cell_volume 3070.324321
_symmetry_space_group_name_H-M "I 21 21 21"
_symmetry_group_IT_number 24
_symmetry_cell_setting 'orthorhombic'
loop_
_space_group_symop_operation_xyz
x,y,z
-x,1/2-y,z
x,-y,1/2-z
1/2-x,y,-z
1/2+x,1/2+y,1/2+z
1/2-x,-y,1/2+z
1/2+x,1/2-y,-z
-x,1/2+y,1/2-z
loop_
_atom_site_type_symbol
_atom_site_label
_atom_site_fract_x
_atom_site_fract_y
_atom_site_fract_z
Si Si1 0.927959 0.000000 0.750000
Si Si2 0.173613 0.119821 0.339095
Si Si3 0.645623 0.233606 0.148997
Si Si4 0.784330 0.253069 0.660805
Si Si5 0.306086 0.519605 0.497483
Si Si6 0.053873 0.688670 0.950867
Si Si7 0.366916 0.049721 0.431853
Si Si8 0.617424 0.902394 0.846146
O O1 0.893654 0.866611 0.710480
O O2 0.953493 0.926328 0.853532
O O3 0.227012 0.201331 0.356364
O O4 0.150942 0.047727 0.445673
O O5 0.133104 0.241993 0.306559
O O6 0.181504 0.000000 0.250000
O O7 0.696869 0.227849 0.219039
O O8 0.658287 0.145914 0.043476
O O9 0.624253 0.392156 0.120046
O O10 0.818406 0.388000 0.626921
O O11 0.801718 0.117352 0.585620
O O12 0.250000 0.576779 0.500000
O O13 0.330622 0.468088 0.606931
O O14 0.089574 0.827789 0.920572
O O15 0.000000 0.750000 0.981983
O O16 0.081650 0.614112 0.051299
O O17 0.598042 0.000000 0.750000
#
# Coordination Sequence:
#
# PCOD9336600 Si02
#       8
#     4   8   8   8   8   8   8   8
#     4  12  22  42  72  98 128 162 212 272 346 420
#     4  11  24  37  58  92 130 175 227 269 313 386
#     4  12  23  36  64  93 131 171 212 262 327 396
#     4  12  20  39  59  89 132 177 209 265 332 388
#     4  12  22  38  61  93 137 173 223 267 316 383
#     4  11  25  48  72 100 130 166 213 283 349 406
#     4  11  23  41  60  88 133 171 208 267 333 386
#     4  11  24  43  69  90 131 182 225 275 327 392
#
# _framework density 19.541909
#
# number of rings (size 3 to 8) (size 9 to 14) (size 15 to 20)
#    0.000    0.533    8.000    1.600    3.733    2.133 
#    0.000    2.667    0.000    0.000    0.000    0.000 
#    0.000    0.000    0.000    0.000    0.000    0.000 
#
# Total GULP energy -167416.090955 kJ/mol
# GULP energy per Si atom -5580.536365 kJ/mol
# Density = 1.949743 g / cm^3
# Si number density = 19.541909 Si / 1000 Ang^3
#
#
#
# Elastic Constant Matrix: (Units=GPa)
#
#
# Indices 1 2 3 4 5 6 
#
# 1 57.5020 2.0818 13.5893 0.0000 0.0000 0.0000
# 2 2.0818 92.7143 43.1747 0.0000 0.0000 0.0000
# 3 13.5893 43.1747 62.1979 0.0000 0.0000 0.0000
# 4 0.0000 0.0000 0.0000 38.9627 0.0000 0.0000
# 5 0.0000 0.0000 0.0000 0.0000 3.0316 0.0000
# 6 0.0000 0.0000 0.0000 0.0000 0.0000 13.3150
#
#
#
# Elastic Compliance Matrix: (Units=1/GPa)
#
#
# Indices 1 2 3 4 5 6 
#
# 1 0.018632 0.002183 -0.005586 0.000000 0.000000 0.000000
# 2 0.002183 0.016193 -0.011718 0.000000 0.000000 0.000000
# 3 -0.005586 -0.011718 0.025432 0.000000 0.000000 0.000000
# 4 0.000000 0.000000 0.000000 0.025666 0.000000 0.000000
# 5 0.000000 0.000000 0.000000 0.000000 0.329864 0.000000
# 6 0.000000 0.000000 0.000000 0.000000 0.000000 0.075103
#
#
# Mechanical properties :
#
#
# Convention : Reuss Voigt Hill
#
# Bulk Modulus (GPa) = 33.31587 36.67842 34.99715
# Shear Modulus (GPa) = 9.41377 21.29975 15.35676
#
# Velocity S-wave (km/s) = 2.19720 3.30502 2.80632
# Velocity P-wave (km/s) = 4.84998 5.77703 5.33369
#
# Compressibility (1/GPa) = 0.03001573
#
# Stress axis : x y z
#
# Youngs Moduli (GPa) = 53.67172 61.75361 39.32065
#
# Poissons Ratio (x) = -0.13480 0.21965
# Poissons Ratio (y) = -0.11716 0.46074
# Poissons Ratio (z) = 0.29981 0.72360
#
# Static dielectric constant tensor:
#      x y z
#    x 1.668200 0.000000 0.000000 
#    y 0.000000 1.736960 0.000000 
#    z 0.000000 0.000000 1.818210 
# 
# From -- ./inp_files/22959.got.cif
#   From: 2010.05.17/outbox.cif.g08.bks.cpg/sg24_12_cif.got.tgz:22959.got - 2010.06.04 00:33:39.
