data_PCOD9336771
_publ_section_title
;
Structure prediction by ZEFSAII (Michael W. Deem and Ramdas Pophale) SiO2 
 PCOD9336771
Probable space group: I 21 21 21
;
_chemical_formula_sum "Si O2"
_cell_formula_units_Z 32
_cell_length_a 5.343805
_cell_length_b 13.112157
_cell_length_c 19.015227
_cell_angle_alpha 90.000000
_cell_angle_beta 90.000000
_cell_angle_gamma 90.000000
_cell_volume 1332.374330
_symmetry_space_group_name_H-M "I 21 21 21"
_symmetry_group_IT_number 24
_symmetry_cell_setting 'orthorhombic'
loop_
_space_group_symop_operation_xyz
x,y,z
-x,1/2-y,z
x,-y,1/2-z
1/2-x,y,-z
1/2+x,1/2+y,1/2+z
1/2-x,-y,1/2+z
1/2+x,1/2-y,-z
-x,1/2+y,1/2-z
loop_
_atom_site_type_symbol
_atom_site_label
_atom_site_fract_x
_atom_site_fract_y
_atom_site_fract_z
Si Si1 0.906105 0.936160 0.861746
Si Si2 0.750000 0.017349 0.000000
Si Si3 0.000000 0.250000 0.121449
Si Si4 0.500000 0.250000 0.452349
Si Si5 0.863761 0.140632 0.791704
Si Si6 0.750000 0.646680 0.500000
O O1 0.060628 0.847599 0.901935
O O2 0.813363 0.887441 0.789113
O O3 0.999388 0.046572 0.832121
O O4 0.717415 0.960924 0.925500
O O5 0.497293 0.080505 0.007969
O O6 0.897061 0.159453 0.168701
O O7 0.214317 0.215129 0.068377
O O8 0.250000 0.264074 0.500000
O O9 0.000000 0.250000 0.793678
#
# Coordination Sequence:
#
# PCOD9336771 Si02
#       6
#     8   4   4   4   8   4
#     4  11  25  50  79 115 163 214 277 335 416 484
#     4  12  25  50  79 118 156 208 273 337 400 488
#     4  12  26  45  79 116 162 216 264 340 414 499
#     4  12  28  53  85 116 160 214 278 338 400 487
#     4  11  25  51  75 116 167 210 271 340 418 491
#     4  12  27  46  81 116 164 206 269 335 410 484
#
# _framework density 24.017275000000001
#
# number of rings (size 3 to 8) (size 9 to 14) (size 15 to 20)
#    0.000    0.500    5.000    2.250    3.500    1.000 
#    9.000    2.500    0.000    0.000    0.000    0.000 
#    0.000    0.000    0.000    0.000    0.000    0.000 
#
# Total GULP energy -89304.690219 kJ/mol
# GULP energy per Si atom -5581.543139 kJ/mol
# Density = 2.396261 g / cm^3
# Si number density = 24.017275 Si / 1000 Ang^3
#
#
#
# Elastic Constant Matrix: (Units=GPa)
#
#
# Indices 1 2 3 4 5 6 
#
# 1 101.2782 41.7721 50.2466 0.0000 0.0000 0.0000
# 2 41.7721 162.2145 86.7939 0.0000 0.0000 0.0000
# 3 50.2466 86.7939 247.4817 0.0000 0.0000 0.0000
# 4 0.0000 0.0000 0.0000 48.8682 0.0000 0.0000
# 5 0.0000 0.0000 0.0000 0.0000 11.3842 0.0000
# 6 0.0000 0.0000 0.0000 0.0000 0.0000 17.0897
#
#
#
# Elastic Compliance Matrix: (Units=1/GPa)
#
#
# Indices 1 2 3 4 5 6 
#
# 1 0.011541 -0.002115 -0.001601 0.000000 0.000000 0.000000
# 2 -0.002115 0.007976 -0.002368 0.000000 0.000000 0.000000
# 3 -0.001601 -0.002368 0.005196 0.000000 0.000000 0.000000
# 4 0.000000 0.000000 0.000000 0.020463 0.000000 0.000000
# 5 0.000000 0.000000 0.000000 0.000000 0.087841 0.000000
# 6 0.000000 0.000000 0.000000 0.000000 0.000000 0.058515
#
#
# Mechanical properties :
#
#
# Convention : Reuss Voigt Hill
#
# Bulk Modulus (GPa) = 79.71581 96.51105 88.11343
# Shear Modulus (GPa) = 24.05207 37.61254 30.83231
#
# Velocity S-wave (km/s) = 3.16800 3.96164 3.58684
# Velocity P-wave (km/s) = 6.82969 7.82288 7.34310
#
# Compressibility (1/GPa) = 0.01254456
#
# Stress axis : x y z
#
# Youngs Moduli (GPa) = 86.65057 125.37140 192.44529
#
# Poissons Ratio (x) = 0.26516 0.30817
# Poissons Ratio (y) = 0.18327 0.45570
# Poissons Ratio (z) = 0.13876 0.29687
#
# Static dielectric constant tensor:
#      x y z
#    x 1.966630 0.000000 0.000000 
#    y 0.000000 2.065150 0.000000 
#    z 0.000000 0.000000 1.897660 
# 
# From -- ./inp_files/28557.got.cif
#   From: 2010.05.17/outbox.cif.g08.bks.cpg/sg24_15_cif.got.tgz:28557.got - 2010.06.04 00:33:39.
