data_PCOD9336677
_publ_section_title
;
Structure prediction by ZEFSAII (Michael W. Deem and Ramdas Pophale) SiO2 
 PCOD9336677
Probable space group: I 21 21 21
;
_chemical_formula_sum "Si O2"
_cell_formula_units_Z 36
_cell_length_a 11.415660
_cell_length_b 4.987640
_cell_length_c 25.110816
_cell_angle_alpha 90.000000
_cell_angle_beta 90.000000
_cell_angle_gamma 90.000000
_cell_volume 1429.739614
_symmetry_space_group_name_H-M "I 21 21 21"
_symmetry_group_IT_number 24
_symmetry_cell_setting 'orthorhombic'
loop_
_space_group_symop_operation_xyz
x,y,z
-x,1/2-y,z
x,-y,1/2-z
1/2-x,y,-z
1/2+x,1/2+y,1/2+z
1/2-x,-y,1/2+z
1/2+x,1/2-y,-z
-x,1/2+y,1/2-z
loop_
_atom_site_type_symbol
_atom_site_label
_atom_site_fract_x
_atom_site_fract_y
_atom_site_fract_z
Si Si1 0.000000 0.250000 0.720058
Si Si2 0.127435 0.386420 0.023867
Si Si3 0.415985 0.500000 0.750000
Si Si4 0.644709 0.554787 0.367383
Si Si5 0.500000 0.750000 0.048632
Si Si6 0.789577 0.062835 0.363108
O O1 0.061531 0.500000 0.750000
O O2 0.909182 0.423670 0.685647
O O3 0.140277 0.455271 0.085941
O O4 0.000000 0.250000 0.017773
O O5 0.250000 0.266608 0.000000
O O6 0.105769 0.647351 0.987551
O O7 0.500000 0.750000 0.741615
O O8 0.344997 0.539453 0.804818
O O9 0.555130 0.475613 0.413421
O O10 0.676522 0.864637 0.363308
O O11 0.759193 0.371184 0.375310
#
# Coordination Sequence:
#
# PCOD9336677 Si02
#       6
#     4   8   4   8   4   8
#     4  11  24  42  74 110 156 208 267 326 400 480
#     4  12  27  48  81 116 159 214 269 333 404 482
#     4  12  28  50  74 110 154 206 268 332 390 476
#     4  11  26  47  73 116 158 201 262 335 403 475
#     4  11  26  46  78 112 164 198 271 332 404 478
#     4  12  27  48  79 111 157 210 263 330 402 480
#
# _framework density 25.179407000000001
#
# number of rings (size 3 to 8) (size 9 to 14) (size 15 to 20)
#    0.000    0.444    2.222    4.667    9.333    2.667 
#    0.000    0.000    0.000    0.000    0.000    0.000 
#    0.000    0.000    0.000    0.000    0.000    0.000 
#
# Total GULP energy -100764.808233 kJ/mol
# GULP energy per Si atom -5598.044902 kJ/mol
# Density = 2.512210 g / cm^3
# Si number density = 25.179407 Si / 1000 Ang^3
#
#
#
# Elastic Constant Matrix: (Units=GPa)
#
#
# Indices 1 2 3 4 5 6 
#
# 1 120.4330 16.9901 52.7495 0.0000 0.0000 0.0000
# 2 16.9901 86.4616 8.8422 0.0000 0.0000 0.0000
# 3 52.7495 8.8422 171.3578 0.0000 0.0000 0.0000
# 4 0.0000 0.0000 0.0000 21.6242 0.0000 0.0000
# 5 0.0000 0.0000 0.0000 0.0000 44.5191 0.0000
# 6 0.0000 0.0000 0.0000 0.0000 0.0000 49.9166
#
#
#
# Elastic Compliance Matrix: (Units=1/GPa)
#
#
# Indices 1 2 3 4 5 6 
#
# 1 0.009820 -0.001629 -0.002939 0.000000 0.000000 0.000000
# 2 -0.001629 0.011897 -0.000112 0.000000 0.000000 0.000000
# 3 -0.002939 -0.000112 0.006746 0.000000 0.000000 0.000000
# 4 0.000000 0.000000 0.000000 0.046245 0.000000 0.000000
# 5 0.000000 0.000000 0.000000 0.000000 0.022462 0.000000
# 6 0.000000 0.000000 0.000000 0.000000 0.000000 0.020033
#
#
# Mechanical properties :
#
#
# Convention : Reuss Voigt Hill
#
# Bulk Modulus (GPa) = 52.34774 59.49067 55.91920
# Shear Modulus (GPa) = 37.61286 43.19003 40.40144
#
# Velocity S-wave (km/s) = 3.86916 4.14610 4.01002
# Velocity P-wave (km/s) = 6.38714 6.82629 6.61036
#
# Compressibility (1/GPa) = 0.01910302
#
# Stress axis : x y z
#
# Youngs Moduli (GPa) = 101.82787 84.05148 148.23023
#
# Poissons Ratio (x) = 0.13694 0.43565
# Poissons Ratio (y) = 0.16590 0.01666
# Poissons Ratio (z) = 0.29927 0.00945
#
# Static dielectric constant tensor:
#      x y z
#    x 2.032800 0.000000 0.000000 
#    y 0.000000 2.018560 0.000000 
#    z 0.000000 0.000000 2.037790 
# 
# From -- ./inp_files/22468.got.cif
#   From: 2010.05.17/outbox.cif.g08.bks.cpg/sg24_12_cif.got.tgz:22468.got - 2010.06.04 00:33:39.
