data_PCOD9336501
_publ_section_title
;
Structure prediction by ZEFSAII (Michael W. Deem and Ramdas Pophale) SiO2 
 PCOD9336501
Probable space group: I 21 21 21
;
_chemical_formula_sum "Si O2"
_cell_formula_units_Z 48
_cell_length_a 10.093527
_cell_length_b 25.398594
_cell_length_c 9.808315
_cell_angle_alpha 90.000000
_cell_angle_beta 90.000000
_cell_angle_gamma 90.000000
_cell_volume 2514.473309
_symmetry_space_group_name_H-M "I 21 21 21"
_symmetry_group_IT_number 24
_symmetry_cell_setting 'orthorhombic'
loop_
_space_group_symop_operation_xyz
x,y,z
-x,1/2-y,z
x,-y,1/2-z
1/2-x,y,-z
1/2+x,1/2+y,1/2+z
1/2-x,-y,1/2+z
1/2+x,1/2-y,-z
-x,1/2+y,1/2-z
loop_
_atom_site_type_symbol
_atom_site_label
_atom_site_fract_x
_atom_site_fract_y
_atom_site_fract_z
Si Si1 0.684874 0.780126 0.871685
Si Si2 0.958194 0.312067 0.941703
Si Si3 0.477462 0.866539 0.938962
Si Si4 0.395269 0.368590 0.283816
Si Si5 0.178813 0.178159 0.212024
Si Si6 0.191048 0.454723 0.353965
O O1 0.553372 0.811426 0.908999
O O2 0.793104 0.824472 0.838334
O O3 0.666515 0.739023 0.754067
O O4 0.750000 0.750142 0.000000
O O5 0.821999 0.322926 0.858879
O O6 0.000000 0.250000 0.935052
O O7 0.061780 0.348216 0.862586
O O8 0.931234 0.330458 0.095460
O O9 0.349532 0.859184 0.842502
O O10 0.571484 0.913942 0.885645
O O11 0.486390 0.871377 0.103324
O O12 0.311750 0.421855 0.286814
O O13 0.150268 0.500000 0.250000
O O14 0.250000 0.473279 0.500000
#
# Coordination Sequence:
#
# PCOD9336501 Si02
#       6
#     8   8   8   8   8   8
#     4   9  17  31  51  73 101 143 185 216 251 305
#     4  11  22  34  47  72 112 150 183 219 261 321
#     4   9  19  33  52  78 105 134 181 224 257 322
#     4   9  19  35  53  75 107 142 181 222 263 319
#     4  11  22  32  48  74 108 148 184 218 265 311
#     4   9  19  37  59  85 107 133 173 227 285 328
#
# _framework density 19.089483999999999
#
# number of rings (size 3 to 8) (size 9 to 14) (size 15 to 20)
#    0.000    2.333    1.667    3.500    2.333    1.333 
#    0.000    0.000    0.000    1.000    0.000    0.000 
#    0.000    0.000    0.000    0.000    0.000    0.000 
#
# Total GULP energy -133730.387142 kJ/mol
# GULP energy per Si atom -5572.099464 kJ/mol
# Density = 1.904604 g / cm^3
# Si number density = 19.089484 Si / 1000 Ang^3
#
#
#
# Elastic Constant Matrix: (Units=GPa)
#
#
# Indices 1 2 3 4 5 6 
#
# 1 35.9035 -7.1692 3.5832 -0.0001 0.0002 0.0000
# 2 -7.1692 48.6803 22.6825 -0.0001 0.0000 0.0000
# 3 3.5832 22.6825 53.6514 -0.0010 -0.0003 0.0000
# 4 -0.0001 -0.0001 -0.0010 24.4552 0.0000 0.0001
# 5 0.0002 0.0000 -0.0003 0.0000 30.3518 -0.0001
# 6 0.0000 0.0000 0.0000 0.0001 -0.0001 11.8809
#
#
#
# Elastic Compliance Matrix: (Units=1/GPa)
#
#
# Indices 1 2 3 4 5 6 
#
# 1 0.029643 0.006585 -0.004764 0.000000 0.000000 0.000000
# 2 0.006585 0.027044 -0.011874 0.000000 0.000000 0.000000
# 3 -0.004764 -0.011874 0.023977 0.000001 0.000000 0.000000
# 4 0.000000 0.000000 0.000001 0.040891 0.000000 0.000000
# 5 0.000000 0.000000 0.000000 0.000000 0.032947 0.000000
# 6 0.000000 0.000000 0.000000 0.000000 0.000000 0.084169
#
#
# Mechanical properties :
#
#
# Convention : Reuss Voigt Hill
#
# Bulk Modulus (GPa) = 16.51258 19.60313 18.05785
# Shear Modulus (GPa) = 17.92359 21.28017 19.60188
#
# Velocity S-wave (km/s) = 3.06751 3.34242 3.20791
# Velocity P-wave (km/s) = 4.60598 5.01867 4.81675
#
# Compressibility (1/GPa) = 0.06055989
#
# Stress axis : x y z
#
# Youngs Moduli (GPa) = 33.73497 36.97611 41.70694
#
# Poissons Ratio (x) = -0.24350 0.19868
# Poissons Ratio (y) = -0.22215 0.49521
# Poissons Ratio (z) = 0.16071 0.43904
#
# Static dielectric constant tensor:
#      x y z
#    x 1.758100 0.000000 0.000000 
#    y 0.000000 1.609200 0.000000 
#    z 0.000000 0.000000 1.723670 
# 
# From -- ./inp_files/11393.got.cif
#   From: 2010.05.17/outbox.cif.g08.bks.cpg/sg24_6_cif.got.tgz:11393.got - 2010.06.04 00:33:39.
