data_PCOD9336383
_publ_section_title
;
Structure prediction by ZEFSAII (Michael W. Deem and Ramdas Pophale) SiO2 
 PCOD9336383
Probable space group: I 21 21 21
;
_chemical_formula_sum "Si O2"
_cell_formula_units_Z 64
_cell_length_a 20.015337
_cell_length_b 9.125707
_cell_length_c 18.911956
_cell_angle_alpha 90.000000
_cell_angle_beta 90.000000
_cell_angle_gamma 90.000000
_cell_volume 3454.346321
_symmetry_space_group_name_H-M "I 21 21 21"
_symmetry_group_IT_number 24
_symmetry_cell_setting 'orthorhombic'
loop_
_space_group_symop_operation_xyz
x,y,z
-x,1/2-y,z
x,-y,1/2-z
1/2-x,y,-z
1/2+x,1/2+y,1/2+z
1/2-x,-y,1/2+z
1/2+x,1/2-y,-z
-x,1/2+y,1/2-z
loop_
_atom_site_type_symbol
_atom_site_label
_atom_site_fract_x
_atom_site_fract_y
_atom_site_fract_z
Si Si1 0.863184 0.521067 0.090905
Si Si2 0.678310 0.362525 0.041422
Si Si3 0.882625 0.879659 0.190125
Si Si4 0.778107 0.446118 0.669551
Si Si5 0.559979 0.356241 0.789782
Si Si6 0.675914 0.018386 0.036221
Si Si7 0.930291 0.822556 0.050394
Si Si8 0.725791 0.103153 0.319609
O O1 0.791805 0.543074 0.127919
O O2 0.901273 0.410493 0.142096
O O3 0.890839 0.682006 0.079053
O O4 0.865795 0.452842 0.013043
O O5 0.679429 0.445262 0.117423
O O6 0.659939 0.191474 0.039730
O O7 0.750000 0.368550 0.000000
O O8 0.893962 0.728798 0.232820
O O9 0.934778 0.906068 0.126099
O O10 0.805776 0.894703 0.165257
O O11 0.890297 0.000000 0.250000
O O12 0.772663 0.500000 0.750000
O O13 0.796120 0.274232 0.679060
O O14 0.500000 0.250000 0.807604
O O15 0.535786 0.500000 0.750000
O O16 0.686904 0.968598 0.116061
O O17 0.750000 0.999289 0.000000
O O18 0.617474 0.921240 0.999317
O O19 0.000000 0.750000 0.024271
O O20 0.716941 0.000000 0.250000
#
# Coordination Sequence:
#
# PCOD9336383 Si02
#       8
#     8   8   8   8   8   8   8   8
#     4  11  22  38  53  78 116 165 207 250 305 369
#     4   9  22  36  58  84 114 160 212 260 318 373
#     4  11  23  36  56  84 123 168 211 254 305 368
#     4  11  19  36  58  84 121 156 198 254 316 378
#     4  12  24  37  52  77 116 164 212 253 291 359
#     4  11  21  40  61  87 123 163 209 269 321 376
#     4  12  25  40  59  87 124 173 219 261 315 383
#     4  11  21  35  61  93 121 158 203 255 321 378
#
# _framework density 18.527384999999999
#
# number of rings (size 3 to 8) (size 9 to 14) (size 15 to 20)
#    0.000    1.000    3.750    3.375    3.500    3.000 
#    0.000    0.000    0.000    0.000    0.000    5.250 
#    0.000    1.000    0.000    0.000    0.000    0.000 
#
# Total GULP energy -178330.020850 kJ/mol
# GULP energy per Si atom -5572.813152 kJ/mol
# Density = 1.848522 g / cm^3
# Si number density = 18.527385 Si / 1000 Ang^3
#
#
#
# Elastic Constant Matrix: (Units=GPa)
#
#
# Indices 1 2 3 4 5 6 
#
# 1 48.4441 27.9556 36.7033 0.0000 0.0000 0.0000
# 2 27.9556 115.1839 60.0579 0.0000 0.0000 0.0000
# 3 36.7033 60.0579 126.8193 0.0000 0.0000 0.0000
# 4 0.0000 0.0000 0.0000 37.4729 0.0000 0.0000
# 5 0.0000 0.0000 0.0000 0.0000 -15.5688 0.0000
# 6 0.0000 0.0000 0.0000 0.0000 0.0000 10.8524
#
#
#
# Elastic Compliance Matrix: (Units=1/GPa)
#
#
# Indices 1 2 3 4 5 6 
#
# 1 0.027373 -0.003337 -0.006342 0.000000 0.000000 0.000000
# 2 -0.003337 0.011935 -0.004686 0.000000 0.000000 0.000000
# 3 -0.006342 -0.004686 0.011940 0.000000 0.000000 0.000000
# 4 0.000000 0.000000 0.000000 0.026686 0.000000 0.000000
# 5 0.000000 0.000000 0.000000 0.000000 -0.064231 0.000000
# 6 0.000000 0.000000 0.000000 0.000000 0.000000 0.092145
#
#
# Mechanical properties :
#
#
# Convention : Reuss Voigt Hill
#
# Bulk Modulus (GPa) = 44.40931 59.98677 52.19804
# Shear Modulus (GPa) = 35.19044 17.60001 26.39522
#
# Velocity S-wave (km/s) = 4.36291 3.08546 3.77856
# Velocity P-wave (km/s) = 7.02862 6.71871 6.87541
#
# Compressibility (1/GPa) = 0.02251780
#
# Stress axis : x y z
#
# Youngs Moduli (GPa) = 36.53268 83.78604 83.75203
#
# Poissons Ratio (x) = 0.27958 0.53114
# Poissons Ratio (y) = 0.12190 0.39250
# Poissons Ratio (z) = 0.23168 0.39266
#
# Static dielectric constant tensor:
#      x y z
#    x 1.690760 0.000000 0.000000 
#    y 0.000000 2.753490 0.000000 
#    z 0.000000 0.000000 1.683680 
# 
# From -- ./inp_files/31416.got.cif
#   From: 2010.05.17/outbox.cif.g08.bks.cpg/sg24_16_cif.got.tgz:31416.got - 2010.06.04 00:33:39.
