data_PCOD9336307
_publ_section_title
;
Structure prediction by ZEFSAII (Michael W. Deem and Ramdas Pophale) SiO2 
 PCOD9336307
Probable space group: I 21 21 21
;
_chemical_formula_sum "Si O2"
_cell_formula_units_Z 32
_cell_length_a 20.002213
_cell_length_b 5.061972
_cell_length_c 13.712941
_cell_angle_alpha 90.000000
_cell_angle_beta 90.000000
_cell_angle_gamma 90.000000
_cell_volume 1388.444082
_symmetry_space_group_name_H-M "I 21 21 21"
_symmetry_group_IT_number 24
_symmetry_cell_setting 'orthorhombic'
loop_
_space_group_symop_operation_xyz
x,y,z
-x,1/2-y,z
x,-y,1/2-z
1/2-x,y,-z
1/2+x,1/2+y,1/2+z
1/2-x,-y,1/2+z
1/2+x,1/2-y,-z
-x,1/2+y,1/2-z
loop_
_atom_site_type_symbol
_atom_site_label
_atom_site_fract_x
_atom_site_fract_y
_atom_site_fract_z
Si Si1 0.107623 0.559595 0.962468
Si Si2 0.822999 0.557181 0.455065
Si Si3 0.238159 0.000000 0.250000
Si Si4 0.460566 0.000000 0.750000
Si Si5 0.336183 0.500000 0.250000
Si Si6 0.000000 0.750000 0.431412
O O1 0.119940 0.523776 0.847575
O O2 0.036062 0.462255 0.000915
O O3 0.158511 0.356776 0.016792
O O4 0.126394 0.854658 0.993381
O O5 0.750000 0.502614 0.500000
O O6 0.810350 0.491448 0.342379
O O7 0.286726 0.749784 0.257043
O O8 0.500000 0.250000 0.704888
O O9 0.443677 0.853769 0.647003
#
# Coordination Sequence:
#
# PCOD9336307 Si02
#       6
#     8   8   4   4   4   4
#     4  12  26  42  73  96 143 178 231 278 346 403
#     4  12  24  44  67 102 130 183 223 283 342 411
#     4  12  24  41  71  98 141 166 239 270 362 402
#     4   8  20  41  69  86 138 161 217 282 322 380
#     4  12  22  44  66 100 133 185 214 300 320 420
#     4  10  26  44  70 102 136 184 224 280 342 414
#
# _framework density 23.047378999999999
#
# number of rings (size 3 to 8) (size 9 to 14) (size 15 to 20)
#    0.750    0.000    5.000    2.250    3.500    3.000 
#    0.000    3.750    0.000    0.000    0.000    0.000 
#    0.000    0.000    0.000    0.000    0.000    0.000 
#
# Total GULP energy -89278.864502 kJ/mol
# GULP energy per Si atom -5579.929031 kJ/mol
# Density = 2.299492 g / cm^3
# Si number density = 23.047379 Si / 1000 Ang^3
#
#
#
# Elastic Constant Matrix: (Units=GPa)
#
#
# Indices 1 2 3 4 5 6 
#
# 1 85.7265 -0.1476 18.5209 0.0000 0.0000 0.0000
# 2 -0.1476 99.1611 -11.0616 0.0000 0.0000 0.0000
# 3 18.5209 -11.0616 180.7635 0.0000 0.0000 0.0000
# 4 0.0000 0.0000 0.0000 31.8288 0.0000 0.0000
# 5 0.0000 0.0000 0.0000 0.0000 29.4100 0.0000
# 6 0.0000 0.0000 0.0000 0.0000 0.0000 38.5757
#
#
#
# Elastic Compliance Matrix: (Units=1/GPa)
#
#
# Indices 1 2 3 4 5 6 
#
# 1 0.011930 -0.000119 -0.001230 0.000000 0.000000 0.000000
# 2 -0.000119 0.010155 0.000634 0.000000 0.000000 0.000000
# 3 -0.001230 0.000634 0.005697 0.000000 0.000000 0.000000
# 4 0.000000 0.000000 0.000000 0.031418 0.000000 0.000000
# 5 0.000000 0.000000 0.000000 0.000000 0.034002 0.000000
# 6 0.000000 0.000000 0.000000 0.000000 0.000000 0.025923
#
#
# Mechanical properties :
#
#
# Convention : Reuss Voigt Hill
#
# Bulk Modulus (GPa) = 37.94842 42.25271 40.10057
# Shear Modulus (GPa) = 38.65769 43.85220 41.25494
#
# Velocity S-wave (km/s) = 4.09995 4.36672 4.23544
# Velocity P-wave (km/s) = 6.23810 6.61794 6.43083
#
# Compressibility (1/GPa) = 0.02635156
#
# Stress axis : x y z
#
# Youngs Moduli (GPa) = 83.81904 98.47257 175.53536
#
# Poissons Ratio (x) = 0.01176 0.21585
# Poissons Ratio (y) = 0.01001 -0.11123
# Poissons Ratio (z) = 0.10307 -0.06240
#
# Static dielectric constant tensor:
#      x y z
#    x 2.042010 0.000000 0.000000 
#    y 0.000000 1.582510 0.000000 
#    z 0.000000 0.000000 1.850360 
# 
# From -- ./inp_files/21938.got.cif
#   From: 2010.05.17/outbox.cif.g08.bks.cpg/sg24_11_cif.got.tgz:21938.got - 2010.06.04 00:33:39.
