data_PCOD9336845
_publ_section_title
;
Structure prediction by ZEFSAII (Michael W. Deem and Ramdas Pophale) SiO2 
 PCOD9336845
Probable space group: I 21 21 21
;
_chemical_formula_sum "Si O2"
_cell_formula_units_Z 36
_cell_length_a 12.094900
_cell_length_b 6.804392
_cell_length_c 20.381401
_cell_angle_alpha 90.000000
_cell_angle_beta 90.000000
_cell_angle_gamma 90.000000
_cell_volume 1677.357524
_symmetry_space_group_name_H-M "I 21 21 21"
_symmetry_group_IT_number 24
_symmetry_cell_setting 'orthorhombic'
loop_
_space_group_symop_operation_xyz
x,y,z
-x,1/2-y,z
x,-y,1/2-z
1/2-x,y,-z
1/2+x,1/2+y,1/2+z
1/2-x,-y,1/2+z
1/2+x,1/2-y,-z
-x,1/2+y,1/2-z
loop_
_atom_site_type_symbol
_atom_site_label
_atom_site_fract_x
_atom_site_fract_y
_atom_site_fract_z
Si Si1 0.210316 0.491773 0.821706
Si Si2 0.402130 0.621954 0.919591
Si Si3 0.851038 0.394547 0.900581
Si Si4 0.000000 0.250000 0.014448
Si Si5 0.500000 0.750000 0.153260
Si Si6 0.250000 0.143062 0.500000
O O1 0.263976 0.500000 0.750000
O O2 0.295992 0.576690 0.874988
O O3 0.175833 0.272715 0.847210
O O4 0.103107 0.634086 0.814304
O O5 0.500000 0.750000 0.888588
O O6 0.461942 0.425141 0.940640
O O7 0.356622 0.722145 0.987089
O O8 0.938124 0.563484 0.880149
O O9 0.751515 0.515093 0.933536
O O10 0.900836 0.290815 0.964417
#
# Coordination Sequence:
#
# PCOD9336845 Si02
#       6
#     8   8   8   4   4   4
#     4  12  29  48  71 105 149 199 248 302 368 449
#     4  12  26  46  70 110 148 194 246 306 375 443
#     4  12  23  43  70 110 141 184 236 304 377 431
#     4  12  22  41  74 106 143 182 238 302 374 446
#     4  12  24  45  74 106 139 186 246 298 372 430
#     4  12  22  44  72 106 148 176 242 316 370 430
#
# _framework density 21.462329
#
# number of rings (size 3 to 8) (size 9 to 14) (size 15 to 20)
#    0.000    0.000    6.667    4.000    3.111    0.000 
#    2.000    0.000    0.000    0.000    0.000    0.000 
#    0.000    0.000    0.000    0.000    0.000    0.000 
#
# Total GULP energy -100418.040392 kJ/mol
# GULP energy per Si atom -5578.780022 kJ/mol
# Density = 2.141348 g / cm^3
# Si number density = 21.462329 Si / 1000 Ang^3
#
#
#
# Elastic Constant Matrix: (Units=GPa)
#
#
# Indices 1 2 3 4 5 6 
#
# 1 74.6306 36.5527 18.6482 0.0000 0.0000 0.0000
# 2 36.5527 145.2595 50.3011 0.0000 0.0000 0.0000
# 3 18.6482 50.3011 90.4312 0.0000 0.0000 0.0000
# 4 0.0000 0.0000 0.0000 -1.6761 0.0000 0.0000
# 5 0.0000 0.0000 0.0000 0.0000 31.7505 0.0000
# 6 0.0000 0.0000 0.0000 0.0000 0.0000 40.5405
#
#
#
# Elastic Compliance Matrix: (Units=1/GPa)
#
#
# Indices 1 2 3 4 5 6 
#
# 1 0.015399 -0.003437 -0.001263 0.000000 0.000000 0.000000
# 2 -0.003437 0.009294 -0.004461 0.000000 0.000000 0.000000
# 3 -0.001263 -0.004461 0.013800 0.000000 0.000000 0.000000
# 4 0.000000 0.000000 0.000000 -0.596634 0.000000 0.000000
# 5 0.000000 0.000000 0.000000 0.000000 0.031496 0.000000
# 6 0.000000 0.000000 0.000000 0.000000 0.000000 0.024667
#
#
# Mechanical properties :
#
#
# Convention : Reuss Voigt Hill
#
# Bulk Modulus (GPa) = 49.58036 57.92504 53.75270
# Shear Modulus (GPa) = -10.48366 27.77761 8.64698
#
# Velocity S-wave (km/s) = -2.21253 3.60147 2.00939
# Velocity P-wave (km/s) = 4.07728 6.65897 5.52115
#
# Compressibility (1/GPa) = 0.02016928
#
# Stress axis : x y z
#
# Youngs Moduli (GPa) = 64.94109 107.59762 72.46427
#
# Poissons Ratio (x) = 0.36985 0.09155
# Poissons Ratio (y) = 0.22323 0.32325
# Poissons Ratio (z) = 0.08205 0.47997
#
# Static dielectric constant tensor:
#      x y z
#    x 1.864790 0.000000 0.000000 
#    y 0.000000 1.856950 0.000000 
#    z 0.000000 0.000000 1.735780 
# 
# From -- ./inp_files/17560.got.cif
#   From: 2010.05.17/outbox.cif.g08.bks.cpg/sg24_9_cif.got.tgz:17560.got - 2010.06.04 00:33:39.
