data_PCOD9336400
_publ_section_title
;
Structure prediction by ZEFSAII (Michael W. Deem and Ramdas Pophale) SiO2 
 PCOD9336400
Probable space group: I 21 21 21
;
_chemical_formula_sum "Si O2"
_cell_formula_units_Z 32
_cell_length_a 5.068862
_cell_length_b 20.567523
_cell_length_c 11.408482
_cell_angle_alpha 90.000000
_cell_angle_beta 90.000000
_cell_angle_gamma 90.000000
_cell_volume 1189.379150
_symmetry_space_group_name_H-M "I 21 21 21"
_symmetry_group_IT_number 24
_symmetry_cell_setting 'orthorhombic'
loop_
_space_group_symop_operation_xyz
x,y,z
-x,1/2-y,z
x,-y,1/2-z
1/2-x,y,-z
1/2+x,1/2+y,1/2+z
1/2-x,-y,1/2+z
1/2+x,1/2-y,-z
-x,1/2+y,1/2-z
loop_
_atom_site_type_symbol
_atom_site_label
_atom_site_fract_x
_atom_site_fract_y
_atom_site_fract_z
Si Si1 0.801067 0.534083 0.640949
Si Si2 0.945971 0.677846 0.151847
Si Si3 0.010672 0.843351 0.426297
Si Si4 0.443161 0.594853 0.145621
O O1 0.647988 0.500000 0.750000
O O2 0.588070 0.579927 0.581242
O O3 0.010275 0.578743 0.714343
O O4 0.961795 0.473138 0.588808
O O5 0.983257 0.680046 0.293295
O O6 0.158955 0.623043 0.117667
O O7 0.000000 0.750000 0.106123
O O8 0.656710 0.651285 0.123639
O O9 0.750000 0.835109 0.500000
O O10 0.250000 0.812684 0.500000
#
# Coordination Sequence:
#
# PCOD9336400 Si02
#       4
#     8   8   8   8
#     4   7  17  35  54  71  97 137 189 230 286 303
#     4  11  20  33  48  72 105 146 184 216 252 316
#     4  11  22  34  49  77 109 142 181 223 271 327
#     4   8  18  31  52  70  91 133 186 228 264 299
#
# _framework density 26.904793999999999
#
# number of rings (size 3 to 8) (size 9 to 14) (size 15 to 20)
#    1.500    1.000    0.000    3.750    0.000   11.000 
#    0.000    0.000    0.000    0.000    0.000    0.000 
#    0.000    6.000    0.000    6.250    0.000    0.750 
#
# Total GULP energy -89464.945785 kJ/mol
# GULP energy per Si atom -5591.559112 kJ/mol
# Density = 2.684356 g / cm^3
# Si number density = 26.904794 Si / 1000 Ang^3
#
#
#
# Elastic Constant Matrix: (Units=GPa)
#
#
# Indices 1 2 3 4 5 6 
#
# 1 133.0324 33.7573 8.6528 0.0000 0.0000 0.0000
# 2 33.7573 198.9561 -10.9560 0.0000 0.0000 0.0000
# 3 8.6528 -10.9560 87.7887 -0.0002 0.0000 0.0000
# 4 0.0000 0.0000 -0.0002 12.6776 0.0000 0.0000
# 5 0.0000 0.0000 0.0000 0.0000 35.0865 0.0000
# 6 0.0000 0.0000 0.0000 0.0000 0.0000 6.9288
#
#
#
# Elastic Compliance Matrix: (Units=1/GPa)
#
#
# Indices 1 2 3 4 5 6 
#
# 1 0.007934 -0.001399 -0.000957 0.000000 0.000000 0.000000
# 2 -0.001399 0.005308 0.000800 0.000000 0.000000 0.000000
# 3 -0.000957 0.000800 0.011585 0.000000 0.000000 0.000000
# 4 0.000000 0.000000 0.000000 0.078880 0.000000 0.000000
# 5 0.000000 0.000000 0.000000 0.000000 0.028501 0.000000
# 6 0.000000 0.000000 0.000000 0.000000 0.000000 0.144325
#
#
# Mechanical properties :
#
#
# Convention : Reuss Voigt Hill
#
# Bulk Modulus (GPa) = 46.04787 53.63171 49.83979
# Shear Modulus (GPa) = 17.42876 36.82678 27.12777
#
# Velocity S-wave (km/s) = 2.54794 3.70372 3.17880
# Velocity P-wave (km/s) = 5.08018 6.18605 5.66019
#
# Compressibility (1/GPa) = 0.02171653
#
# Stress axis : x y z
#
# Youngs Moduli (GPa) = 126.03732 188.40721 86.31744
#
# Poissons Ratio (x) = 0.26356 0.08257
# Poissons Ratio (y) = 0.17631 -0.06908
# Poissons Ratio (z) = 0.12057 -0.15078
#
# Static dielectric constant tensor:
#      x y z
#    x 2.012360 0.000000 0.000000 
#    y 0.000000 2.101000 0.000000 
#    z 0.000000 0.000000 2.725110 
# 
# From -- ./inp_files/28684.got.cif
#   From: 2010.05.17/outbox.cif.g08.bks.cpg/sg24_15_cif.got.tgz:28684.got - 2010.06.04 00:33:39.
