data_PCOD9336294
_publ_section_title
;
Structure prediction by ZEFSAII (Michael W. Deem and Ramdas Pophale) SiO2 
 PCOD9336294
Probable space group: I 21 21 21
;
_chemical_formula_sum "Si O2"
_cell_formula_units_Z 24
_cell_length_a 12.296767
_cell_length_b 5.033320
_cell_length_c 15.329043
_cell_angle_alpha 90.000000
_cell_angle_beta 90.000000
_cell_angle_gamma 90.000000
_cell_volume 948.769093
_symmetry_space_group_name_H-M "I 21 21 21"
_symmetry_group_IT_number 24
_symmetry_cell_setting 'orthorhombic'
loop_
_space_group_symop_operation_xyz
x,y,z
-x,1/2-y,z
x,-y,1/2-z
1/2-x,y,-z
1/2+x,1/2+y,1/2+z
1/2-x,-y,1/2+z
1/2+x,1/2-y,-z
-x,1/2+y,1/2-z
loop_
_atom_site_type_symbol
_atom_site_label
_atom_site_fract_x
_atom_site_fract_y
_atom_site_fract_z
Si Si1 0.000000 0.750000 0.186933
Si Si2 0.104385 0.074532 0.065714
Si Si3 0.000000 0.750000 0.599826
Si Si4 0.285828 0.733263 0.309675
O O1 0.995894 0.500000 0.250000
O O2 0.903273 0.298993 0.382615
O O3 0.210833 0.210074 0.105397
O O4 0.000000 0.250000 0.093814
O O5 0.071367 0.056764 0.964088
O O6 0.904154 0.865305 0.658331
O O7 0.237721 0.500000 0.250000
O O8 0.294207 0.000000 0.250000
#
# Coordination Sequence:
#
# PCOD9336294 Si02
#       4
#     4   8   4   8
#     4  12  23  40  69 108 152 176 230 306 365 414
#     4  10  26  42  76 102 146 181 244 290 366 417
#     4  10  25  54  69 104 152 196 240 294 365 438
#     4  12  28  46  75 108 144 195 243 300 359 432
#
# _framework density 25.295936000000001
#
# number of rings (size 3 to 8) (size 9 to 14) (size 15 to 20)
#    1.000    0.000    1.667    3.000    9.333    2.667 
#    0.000    3.333    0.000    0.000    0.000    0.000 
#    0.000    0.000    0.000    0.000    0.000    0.000 
#
# Total GULP energy -66843.004958 kJ/mol
# GULP energy per Si atom -5570.250413 kJ/mol
# Density = 2.523836 g / cm^3
# Si number density = 25.295936 Si / 1000 Ang^3
#
#
#
# Elastic Constant Matrix: (Units=GPa)
#
#
# Indices 1 2 3 4 5 6 
#
# 1 158.1443 -9.0868 26.5206 0.0000 0.0000 0.0000
# 2 -9.0868 101.3103 25.8316 0.0000 0.0000 0.0000
# 3 26.5206 25.8316 115.9803 0.0000 0.0000 0.0000
# 4 0.0000 0.0000 0.0000 9.0677 0.0000 0.0000
# 5 0.0000 0.0000 0.0000 0.0000 19.4699 0.0000
# 6 0.0000 0.0000 0.0000 0.0000 0.0000 16.1195
#
#
#
# Elastic Compliance Matrix: (Units=1/GPa)
#
#
# Indices 1 2 3 4 5 6 
#
# 1 0.006679 0.001048 -0.001761 0.000000 0.000000 0.000000
# 2 0.001048 0.010629 -0.002607 0.000000 0.000000 0.000000
# 3 -0.001761 -0.002607 0.009605 0.000000 0.000000 0.000000
# 4 0.000000 0.000000 0.000000 0.110282 0.000000 0.000000
# 5 0.000000 0.000000 0.000000 0.000000 0.051361 0.000000
# 6 0.000000 0.000000 0.000000 0.000000 0.000000 0.062037
#
#
# Mechanical properties :
#
#
# Convention : Reuss Voigt Hill
#
# Bulk Modulus (GPa) = 49.32383 51.32952 50.32667
# Shear Modulus (GPa) = 18.94006 31.07605 25.00805
#
# Velocity S-wave (km/s) = 2.73928 3.50880 3.14764
# Velocity P-wave (km/s) = 5.43561 6.06228 5.75748
#
# Compressibility (1/GPa) = 0.02027418
#
# Stress axis : x y z
#
# Youngs Moduli (GPa) = 149.72739 94.07871 104.10812
#
# Poissons Ratio (x) = -0.09859 0.18329
# Poissons Ratio (y) = -0.15691 0.27142
# Poissons Ratio (z) = 0.26361 0.24527
#
# Static dielectric constant tensor:
#      x y z
#    x 2.017390 0.000000 0.000000 
#    y 0.000000 2.175810 0.000000 
#    z 0.000000 0.000000 2.081940 
# 
# From -- ./inp_files/26163.got.cif
#   From: 2010.05.17/outbox.cif.g08.bks.cpg/sg24_14_cif.got.tgz:26163.got - 2010.06.04 00:33:39.
