data_PCOD9336186
_publ_section_title
;
Structure prediction by ZEFSAII (Michael W. Deem and Ramdas Pophale) SiO2 
 PCOD9336186
Probable space group: I 21 21 21
;
_chemical_formula_sum "Si O2"
_cell_formula_units_Z 56
_cell_length_a 20.465221
_cell_length_b 14.994775
_cell_length_c 8.802648
_cell_angle_alpha 90.000000
_cell_angle_beta 90.000000
_cell_angle_gamma 90.000000
_cell_volume 2701.280777
_symmetry_space_group_name_H-M "I 21 21 21"
_symmetry_group_IT_number 24
_symmetry_cell_setting 'orthorhombic'
loop_
_space_group_symop_operation_xyz
x,y,z
-x,1/2-y,z
x,-y,1/2-z
1/2-x,y,-z
1/2+x,1/2+y,1/2+z
1/2-x,-y,1/2+z
1/2+x,1/2-y,-z
-x,1/2+y,1/2-z
loop_
_atom_site_type_symbol
_atom_site_label
_atom_site_fract_x
_atom_site_fract_y
_atom_site_fract_z
Si Si1 0.470786 0.094820 0.674726
Si Si2 0.844028 0.715735 0.161200
Si Si3 0.734269 0.593762 0.325255
Si Si4 0.682830 0.763534 0.399492
Si Si5 0.188164 0.345570 0.584935
Si Si6 0.433488 0.525891 0.072959
Si Si7 0.592029 0.149409 0.876773
O O1 0.410489 0.160331 0.655043
O O2 0.523601 0.142261 0.786829
O O3 0.451096 0.000000 0.750000
O O4 0.505492 0.068663 0.516520
O O5 0.792011 0.650766 0.243252
O O6 0.858430 0.809266 0.250689
O O7 0.821459 0.750472 0.998306
O O8 0.721550 0.500000 0.250000
O O9 0.750000 0.573651 0.500000
O O10 0.675874 0.664310 0.333998
O O11 0.750000 0.764628 0.500000
O O12 0.697665 0.829972 0.262598
O O13 0.616231 0.786646 0.486789
O O14 0.250000 0.388226 0.500000
O O15 0.123671 0.402471 0.570859
O O16 0.445949 0.500000 0.250000
O O17 0.407402 0.445631 0.963736
#
# Coordination Sequence:
#
# PCOD9336186 Si02
#       7
#     8   8   8   8   8   8   8
#     4  10  24  45  70  99 133 177 231 281 338 406
#     4  12  23  44  71  99 132 178 237 277 341 407
#     4  11  24  41  67  95 136 174 221 288 342 404
#     4  11  22  43  65  96 139 175 225 277 339 413
#     4  12  24  41  67 103 139 181 224 278 338 413
#     4  11  24  43  67  97 142 176 222 285 345 396
#     4  11  21  42  68  97 131 177 221 279 329 402
#
# _framework density 20.730906999999998
#
# number of rings (size 3 to 8) (size 9 to 14) (size 15 to 20)
#    0.000    0.857    7.143    0.857    2.000    0.571 
#    2.571    4.286    0.000    0.000    0.000    0.000 
#    0.000    0.000    0.000    0.000    0.000    0.000 
#
# Total GULP energy -156031.104657 kJ/mol
# GULP energy per Si atom -5572.539452 kJ/mol
# Density = 2.068372 g / cm^3
# Si number density = 20.730907 Si / 1000 Ang^3
#
#
#
# Elastic Constant Matrix: (Units=GPa)
#
#
# Indices 1 2 3 4 5 6 
#
# 1 74.5799 42.2983 38.2053 0.0000 0.0000 0.0000
# 2 42.2983 91.7076 36.1072 0.0000 0.0000 0.0000
# 3 38.2053 36.1072 124.6693 0.0000 0.0000 0.0000
# 4 0.0000 0.0000 0.0000 39.9330 0.0000 0.0000
# 5 0.0000 0.0000 0.0000 0.0000 12.9272 0.0000
# 6 0.0000 0.0000 0.0000 0.0000 0.0000 5.4033
#
#
#
# Elastic Compliance Matrix: (Units=1/GPa)
#
#
# Indices 1 2 3 4 5 6 
#
# 1 0.019660 -0.007557 -0.003836 0.000000 0.000000 0.000000
# 2 -0.007557 0.015213 -0.002090 0.000000 0.000000 0.000000
# 3 -0.003836 -0.002090 0.009802 0.000000 0.000000 0.000000
# 4 0.000000 0.000000 0.000000 0.025042 0.000000 0.000000
# 5 0.000000 0.000000 0.000000 0.000000 0.077357 0.000000
# 6 0.000000 0.000000 0.000000 0.000000 0.000000 0.185072
#
#
# Mechanical properties :
#
#
# Convention : Reuss Voigt Hill
#
# Bulk Modulus (GPa) = 56.47203 58.24206 57.35704
# Shear Modulus (GPa) = 13.69810 23.27575 18.48692
#
# Velocity S-wave (km/s) = 2.57331 3.35439 2.98947
# Velocity P-wave (km/s) = 6.01073 6.56947 6.29630
#
# Compressibility (1/GPa) = 0.01770788
#
# Stress axis : x y z
#
# Youngs Moduli (GPa) = 50.86552 65.73432 102.01901
#
# Poissons Ratio (x) = 0.49677 0.39134
# Poissons Ratio (y) = 0.38441 0.21322
# Poissons Ratio (z) = 0.19512 0.13739
#
# Static dielectric constant tensor:
#      x y z
#    x 1.723190 0.000000 0.000000 
#    y 0.000000 1.762200 0.000000 
#    z 0.000000 0.000000 1.836060 
# 
# From -- ./inp_files/15255.got.cif
#   From: 2010.05.17/outbox.cif.g08.bks.cpg/sg24_8_cif.got.tgz:15255.got - 2010.06.04 00:33:39.
