data_PCOD9336685
_publ_section_title
;
Structure prediction by ZEFSAII (Michael W. Deem and Ramdas Pophale) SiO2 
 PCOD9336685
Probable space group: I 21 21 21
;
_chemical_formula_sum "Si O2"
_cell_formula_units_Z 24
_cell_length_a 28.139758
_cell_length_b 7.637300
_cell_length_c 4.964370
_cell_angle_alpha 90.000000
_cell_angle_beta 90.000000
_cell_angle_gamma 90.000000
_cell_volume 1066.901562
_symmetry_space_group_name_H-M "I 21 21 21"
_symmetry_group_IT_number 24
_symmetry_cell_setting 'orthorhombic'
loop_
_space_group_symop_operation_xyz
x,y,z
-x,1/2-y,z
x,-y,1/2-z
1/2-x,y,-z
1/2+x,1/2+y,1/2+z
1/2-x,-y,1/2+z
1/2+x,1/2-y,-z
-x,1/2+y,1/2-z
loop_
_atom_site_type_symbol
_atom_site_label
_atom_site_fract_x
_atom_site_fract_y
_atom_site_fract_z
Si Si1 0.145948 0.300531 0.648167
Si Si2 0.202915 0.191773 0.136739
Si Si3 0.455484 0.626969 0.998665
O O1 0.145996 0.500000 0.750000
O O2 0.180312 0.287710 0.391626
O O3 0.091896 0.262766 0.564237
O O4 0.164754 0.186110 0.896419
O O5 0.215309 0.000000 0.250000
O O6 0.250000 0.270869 0.000000
O O7 0.500000 0.750000 0.939732
O O8 0.444315 0.500000 0.750000
O O9 0.466388 0.500000 0.250000
#
# Coordination Sequence:
#
# PCOD9336685 Si02
#       3
#     8   8   8
#     4  11  24  44  67  95 131 169 213 266 319 379
#     4  12  25  44  66  94 131 170 215 267 319 378
#     4  11  24  44  67  97 132 167 213 265 318 381
#
# _framework density 22.495049000000002
#
# number of rings (size 3 to 8) (size 9 to 14) (size 15 to 20)
#    0.000    0.667    0.000   10.000    0.000    6.667 
#    0.000    3.333    0.000    0.000    0.000    0.000 
#    0.000    0.000    0.000    0.000    0.000    0.000 
#
# Total GULP energy -67210.042438 kJ/mol
# GULP energy per Si atom -5600.836870 kJ/mol
# Density = 2.244385 g / cm^3
# Si number density = 22.495049 Si / 1000 Ang^3
#
#
#
# Elastic Constant Matrix: (Units=GPa)
#
#
# Indices 1 2 3 4 5 6 
#
# 1 139.7097 12.7440 45.2230 0.0001 0.0001 -0.0001
# 2 12.7440 12.6670 6.9849 0.0001 0.0000 -0.0002
# 3 45.2230 6.9849 151.4911 0.0003 0.0001 0.0001
# 4 0.0001 0.0001 0.0003 51.6380 0.0001 -0.0001
# 5 0.0001 0.0000 0.0001 0.0001 33.5168 0.0001
# 6 -0.0001 -0.0002 0.0001 -0.0001 0.0001 14.2791
#
#
#
# Elastic Compliance Matrix: (Units=1/GPa)
#
#
# Indices 1 2 3 4 5 6 
#
# 1 0.008547 -0.007379 -0.002211 0.000000 0.000000 0.000000
# 2 -0.007379 0.087376 -0.001826 0.000000 0.000000 0.000001
# 3 -0.002211 -0.001826 0.007345 0.000000 0.000000 0.000000
# 4 0.000000 0.000000 0.000000 0.019366 0.000000 0.000000
# 5 0.000000 0.000000 0.000000 0.000000 0.029836 0.000000
# 6 0.000000 0.000001 0.000000 0.000000 0.000000 0.070033
#
#
# Mechanical properties :
#
#
# Convention : Reuss Voigt Hill
#
# Bulk Modulus (GPa) = 12.43231 48.19684 30.31457
# Shear Modulus (GPa) = 18.37249 35.81451 27.09350
#
# Velocity S-wave (km/s) = 2.86096 3.99445 3.47424
# Velocity P-wave (km/s) = 4.05612 6.53806 5.44051
#
# Compressibility (1/GPa) = 0.08043559
#
# Stress axis : x y z
#
# Youngs Moduli (GPa) = 117.00676 11.44478 136.14190
#
# Poissons Ratio (x) = 0.08445 0.30102
# Poissons Ratio (y) = 0.86342 0.24858
# Poissons Ratio (z) = 0.25871 0.02090
#
# Static dielectric constant tensor:
#      x y z
#    x 1.825360 0.000000 0.000000 
#    y 0.000000 1.813560 0.000000 
#    z 0.000000 0.000000 1.866360 
# 
# From -- ./inp_files/806.got.cif
#   From: 2010.05.17/outbox.cif.g08.bks.cpg/sg24_1_cif.got.tgz:806.got - 2010.06.04 00:33:39.
