data_PCOD9336968
_publ_section_title
;
Structure prediction by ZEFSAII (Michael W. Deem and Ramdas Pophale) SiO2 
 PCOD9336968
Probable space group: I 21 21 21
;
_chemical_formula_sum "Si O2"
_cell_formula_units_Z 28
_cell_length_a 29.117033
_cell_length_b 7.663090
_cell_length_c 5.018049
_cell_angle_alpha 90.000000
_cell_angle_beta 90.000000
_cell_angle_gamma 90.000000
_cell_volume 1119.659431
_symmetry_space_group_name_H-M "I 21 21 21"
_symmetry_group_IT_number 24
_symmetry_cell_setting 'orthorhombic'
loop_
_space_group_symop_operation_xyz
x,y,z
-x,1/2-y,z
x,-y,1/2-z
1/2-x,y,-z
1/2+x,1/2+y,1/2+z
1/2-x,-y,1/2+z
1/2+x,1/2-y,-z
-x,1/2+y,1/2-z
loop_
_atom_site_type_symbol
_atom_site_label
_atom_site_fract_x
_atom_site_fract_y
_atom_site_fract_z
Si Si1 0.978503 0.500000 0.750000
Si Si2 0.293019 0.809726 0.347270
Si Si3 0.064619 0.336417 0.608810
Si Si4 0.152825 0.701354 0.174898
O O1 0.948723 0.327778 0.794285
O O2 0.016199 0.430032 0.535247
O O3 0.250000 0.722033 0.500000
O O4 0.331117 0.817159 0.577451
O O5 0.277584 0.000000 0.250000
O O6 0.315632 0.728506 0.085545
O O7 0.089783 0.500000 0.750000
O O8 0.099530 0.267090 0.392824
O O9 0.157702 0.500000 0.250000
#
# Coordination Sequence:
#
# PCOD9336968 Si02
#       4
#     4   8   8   8
#     4   8  18  38  76 104 156 210 254 318 386 460
#     4  12  27  52  76 110 153 204 254 317 390 471
#     4   9  18  40  70 110 157 198 259 314 385 452
#     4  12  26  46  80 112 156 198 255 323 384 464
#
# _framework density 25.007605999999999
#
# number of rings (size 3 to 8) (size 9 to 14) (size 15 to 20)
#    0.857    0.571    0.000    6.000    2.000    2.286 
#    5.143    2.857   25.143    0.000    0.000    0.000 
#    0.000    0.000    0.000    0.000    0.000    0.000 
#
# Total GULP energy -78116.754417 kJ/mol
# GULP energy per Si atom -5579.768173 kJ/mol
# Density = 2.495069 g / cm^3
# Si number density = 25.007606 Si / 1000 Ang^3
#
#
#
# Elastic Constant Matrix: (Units=GPa)
#
#
# Indices 1 2 3 4 5 6 
#
# 1 105.9864 32.7700 58.8064 0.0000 -0.0001 0.0003
# 2 32.7700 103.9996 35.1347 0.0001 0.0000 -0.0003
# 3 58.8064 35.1347 146.0457 0.0004 0.0005 0.0020
# 4 0.0000 0.0001 0.0004 38.5237 0.0003 0.0011
# 5 -0.0001 0.0000 0.0005 0.0003 -13.4252 0.0016
# 6 0.0003 -0.0003 0.0020 0.0011 0.0016 -98.8983
#
#
#
# Elastic Compliance Matrix: (Units=1/GPa)
#
#
# Indices 1 2 3 4 5 6 
#
# 1 0.012710 -0.002477 -0.004522 0.000000 0.000000 0.000000
# 2 -0.002477 0.010949 -0.001637 0.000000 0.000000 0.000000
# 3 -0.004522 -0.001637 0.009062 0.000000 0.000000 0.000000
# 4 0.000000 0.000000 0.000000 0.025958 0.000001 0.000000
# 5 0.000000 0.000000 0.000000 0.000001 -0.074487 -0.000001
# 6 0.000000 0.000000 0.000000 0.000000 -0.000001 -0.010111
#
#
# Mechanical properties :
#
#
# Convention : Reuss Voigt Hill
#
# Bulk Modulus (GPa) = 64.72782 67.71711 66.22246
# Shear Modulus (GPa) = -1429.10920 0.52809 -714.29055
#
# Velocity S-wave (km/s) = -23.93137 0.46003 -16.91891
# Velocity P-wave (km/s) = 27.16016 5.23637 18.84483
#
# Compressibility (1/GPa) = 0.01544931
#
# Stress axis : x y z
#
# Youngs Moduli (GPa) = 78.67789 91.33358 110.35548
#
# Poissons Ratio (x) = 0.22626 0.49901
# Poissons Ratio (y) = 0.19491 0.18060
# Poissons Ratio (z) = 0.35577 0.14947
#
# Static dielectric constant tensor:
#      x y z
#    x 2.017280 0.000000 0.000000 
#    y 0.000000 2.114910 -0.000010 
#    z 0.000000 -0.000010 2.508040 
# 
# From -- ./inp_files/6756.got.cif
#   From: 2010.05.17/outbox.cif.g08.bks.cpg/sg24_4_cif.got.tgz:6756.got - 2010.06.04 00:33:39.
