data_PCOD9336281
_publ_section_title
;
Structure prediction by ZEFSAII (Michael W. Deem and Ramdas Pophale) SiO2 
 PCOD9336281
Probable space group: I 21 21 21
;
_chemical_formula_sum "Si O2"
_cell_formula_units_Z 40
_cell_length_a 8.015767
_cell_length_b 23.949407
_cell_length_c 8.701697
_cell_angle_alpha 90.000000
_cell_angle_beta 90.000000
_cell_angle_gamma 90.000000
_cell_volume 1670.489715
_symmetry_space_group_name_H-M "I 21 21 21"
_symmetry_group_IT_number 24
_symmetry_cell_setting 'orthorhombic'
loop_
_space_group_symop_operation_xyz
x,y,z
-x,1/2-y,z
x,-y,1/2-z
1/2-x,y,-z
1/2+x,1/2+y,1/2+z
1/2-x,-y,1/2+z
1/2+x,1/2-y,-z
-x,1/2+y,1/2-z
loop_
_atom_site_type_symbol
_atom_site_label
_atom_site_fract_x
_atom_site_fract_y
_atom_site_fract_z
Si Si1 0.974096 0.034244 0.603136
Si Si2 0.901430 0.140901 0.199759
Si Si3 0.250000 0.363409 0.500000
Si Si4 0.577089 0.304838 0.086030
Si Si5 0.760072 0.614388 0.828777
Si Si6 0.250000 0.448054 0.000000
O O1 0.890977 0.092576 0.555051
O O2 0.159683 0.053507 0.644306
O O3 0.908638 0.000000 0.750000
O O4 0.911437 0.988359 0.482030
O O5 0.819372 0.168645 0.350976
O O6 0.772060 0.094536 0.141281
O O7 0.076499 0.114523 0.256256
O O8 0.952777 0.176356 0.050692
O O9 0.500000 0.250000 0.161425
O O10 0.622788 0.352096 0.209676
O O11 0.750000 0.291677 0.000000
O O12 0.750000 0.640558 0.000000
#
# Coordination Sequence:
#
# PCOD9336281 Si02
#       6
#     8   8   4   8   8   4
#     4  11  22  38  63  99 139 187 241 277 346 416
#     4  11  24  45  70  98 146 187 237 300 359 427
#     4  11  22  40  66 100 136 194 232 296 352 415
#     4  10  25  47  76 105 133 185 239 296 375 443
#     4  11  24  46  69 101 147 182 230 302 361 425
#     4  11  24  40  66 100 140 198 244 278 344 435
#
# _framework density 23.945074000000002
#
# number of rings (size 3 to 8) (size 9 to 14) (size 15 to 20)
#    0.000    1.200    4.000    1.200    1.400    1.600 
#    0.000    4.000    6.600    0.000    0.000    0.000 
#    0.000    0.000    0.000    0.000    0.000    0.000 
#
# Total GULP energy -111528.556923 kJ/mol
# GULP energy per Si atom -5576.427846 kJ/mol
# Density = 2.389057 g / cm^3
# Si number density = 23.945074 Si / 1000 Ang^3
#
#
#
# Elastic Constant Matrix: (Units=GPa)
#
#
# Indices 1 2 3 4 5 6 
#
# 1 86.8200 47.8195 37.4839 -0.0001 -0.0001 0.0000
# 2 47.8195 52.8882 37.7436 0.0001 0.0000 0.0000
# 3 37.4839 37.7436 140.6584 0.0004 0.0003 0.0000
# 4 -0.0001 0.0001 0.0004 1.0740 0.0000 0.0000
# 5 -0.0001 0.0000 0.0003 0.0000 58.8738 0.0000
# 6 0.0000 0.0000 0.0000 0.0000 0.0000 35.0312
#
#
#
# Elastic Compliance Matrix: (Units=1/GPa)
#
#
# Indices 1 2 3 4 5 6 
#
# 1 0.022997 -0.020308 -0.000679 0.000003 0.000000 0.000000
# 2 -0.020308 0.041320 -0.005676 -0.000002 0.000000 0.000000
# 3 -0.000679 -0.005676 0.008813 -0.000003 0.000000 0.000000
# 4 0.000003 -0.000002 -0.000003 0.931092 -0.000001 -0.000001
# 5 0.000000 0.000000 0.000000 -0.000001 0.016985 0.000000
# 6 0.000000 0.000000 0.000000 -0.000001 0.000000 0.028546
#
#
# Mechanical properties :
#
#
# Convention : Reuss Voigt Hill
#
# Bulk Modulus (GPa) = 50.49373 58.49563 54.49468
# Shear Modulus (GPa) = 4.50580 29.48377 16.99478
#
# Velocity S-wave (km/s) = 1.37325 3.51281 2.66699
# Velocity P-wave (km/s) = 4.86287 6.39806 5.68255
#
# Compressibility (1/GPa) = 0.01980444
#
# Stress axis : x y z
#
# Youngs Moduli (GPa) = 43.48418 24.20111 113.46406
#
# Poissons Ratio (x) = 0.49149 0.07704
# Poissons Ratio (y) = 0.88309 0.64400
# Poissons Ratio (z) = 0.02952 0.13736
#
# Static dielectric constant tensor:
#      x y z
#    x 1.997120 0.000000 0.000000 
#    y 0.000000 1.864190 0.000000 
#    z 0.000000 0.000000 2.055610 
# 
# From -- ./inp_files/9316.got.cif
#   From: 2010.05.17/outbox.cif.g08.bks.cpg/sg24_5_cif.got.tgz:9316.got - 2010.06.04 00:33:39.
