data_PCOD9336079
_publ_section_title
;
Structure prediction by ZEFSAII (Michael W. Deem and Ramdas Pophale) SiO2 
 PCOD9336079
Probable space group: I 21 21 21
;
_chemical_formula_sum "Si O2"
_cell_formula_units_Z 24
_cell_length_a 26.463233
_cell_length_b 5.218850
_cell_length_c 7.710159
_cell_angle_alpha 90.000000
_cell_angle_beta 90.000000
_cell_angle_gamma 90.000000
_cell_volume 1064.831891
_symmetry_space_group_name_H-M "I 21 21 21"
_symmetry_group_IT_number 24
_symmetry_cell_setting 'orthorhombic'
loop_
_space_group_symop_operation_xyz
x,y,z
-x,1/2-y,z
x,-y,1/2-z
1/2-x,y,-z
1/2+x,1/2+y,1/2+z
1/2-x,-y,1/2+z
1/2+x,1/2-y,-z
-x,1/2+y,1/2-z
loop_
_atom_site_type_symbol
_atom_site_label
_atom_site_fract_x
_atom_site_fract_y
_atom_site_fract_z
Si Si1 0.202814 0.250947 0.129622
Si Si2 0.536052 0.500000 0.750000
Si Si3 0.000000 0.750000 0.647946
Si Si4 0.899230 0.376586 0.937355
O O1 0.202242 0.500000 0.250000
O O2 0.206240 0.000000 0.250000
O O3 0.250000 0.260094 0.000000
O O4 0.151306 0.232898 0.019742
O O5 0.500000 0.750000 0.729441
O O6 0.572574 0.450461 0.584957
O O7 0.984386 0.500000 0.750000
O O8 0.055023 0.670273 0.575448
O O9 0.886359 0.500000 0.750000
#
# Coordination Sequence:
#
# PCOD9336079 Si02
#       4
#     8   4   4   8
#     4  12  28  51  78 111 150 198 258 318 385 452
#     4  12  28  44  72 112 154 200 250 304 368 454
#     4  10  24  40  66 104 142 190 236 288 364 438
#     4  11  26  46  76 108 151 199 246 313 372 450
#
# _framework density 22.538771000000001
#
# number of rings (size 3 to 8) (size 9 to 14) (size 15 to 20)
#    0.000    0.667    3.333    2.000   11.667    6.667 
#    0.000    0.000    0.000    0.000    0.000    0.000 
#    0.000    0.000    0.000    0.000    0.000    0.000 
#
# Total GULP energy -66877.025236 kJ/mol
# GULP energy per Si atom -5573.085436 kJ/mol
# Density = 2.248747 g / cm^3
# Si number density = 22.538771 Si / 1000 Ang^3
#
#
#
# Elastic Constant Matrix: (Units=GPa)
#
#
# Indices 1 2 3 4 5 6 
#
# 1 255.2542 64.1449 95.9332 0.0000 0.0000 0.0000
# 2 64.1449 137.7868 64.2162 0.0000 0.0000 0.0000
# 3 95.9332 64.2162 179.3494 0.0000 0.0000 0.0000
# 4 0.0000 0.0000 0.0000 19.8552 0.0000 0.0000
# 5 0.0000 0.0000 0.0000 0.0000 76.1526 0.0000
# 6 0.0000 0.0000 0.0000 0.0000 0.0000 22.8071
#
#
#
# Elastic Compliance Matrix: (Units=1/GPa)
#
#
# Indices 1 2 3 4 5 6 
#
# 1 0.005097 -0.001323 -0.002253 0.000000 0.000000 0.000000
# 2 -0.001323 0.009055 -0.002534 0.000000 0.000000 0.000000
# 3 -0.002253 -0.002534 0.007688 0.000000 0.000000 0.000000
# 4 0.000000 0.000000 0.000000 0.050365 0.000000 0.000000
# 5 0.000000 0.000000 0.000000 0.000000 0.013132 0.000000
# 6 0.000000 0.000000 0.000000 0.000000 0.000000 0.043846
#
#
# Mechanical properties :
#
#
# Convention : Reuss Voigt Hill
#
# Bulk Modulus (GPa) = 103.95368 113.44211 108.69790
# Shear Modulus (GPa) = 34.57628 46.96938 40.77283
#
# Velocity S-wave (km/s) = 3.92098 4.56997 4.25786
# Velocity P-wave (km/s) = 8.16830 8.84802 8.51494
#
# Compressibility (1/GPa) = 0.00961967
#
# Stress axis : x y z
#
# Youngs Moduli (GPa) = 196.20605 110.44089 130.07248
#
# Poissons Ratio (x) = 0.14610 0.29299
# Poissons Ratio (y) = 0.25956 0.32966
# Poissons Ratio (z) = 0.44196 0.27990
#
# Static dielectric constant tensor:
#      x y z
#    x 1.799390 0.000000 0.000000 
#    y 0.000000 1.820910 0.000000 
#    z 0.000000 0.000000 3.207650 
# 
# From -- ./inp_files/848.got.cif
#   From: 2010.05.17/outbox.cif.g08.bks.cpg/sg24_1_cif.got.tgz:848.got - 2010.06.04 00:33:39.
