data_PCOD9336278
_publ_section_title
;
Structure prediction by ZEFSAII (Michael W. Deem and Ramdas Pophale) SiO2 
 PCOD9336278
Probable space group: I 21 21 21
;
_chemical_formula_sum "Si O2"
_cell_formula_units_Z 28
_cell_length_a 14.352847
_cell_length_b 16.829598
_cell_length_c 5.062219
_cell_angle_alpha 90.000000
_cell_angle_beta 90.000000
_cell_angle_gamma 90.000000
_cell_volume 1222.792390
_symmetry_space_group_name_H-M "I 21 21 21"
_symmetry_group_IT_number 24
_symmetry_cell_setting 'orthorhombic'
loop_
_space_group_symop_operation_xyz
x,y,z
-x,1/2-y,z
x,-y,1/2-z
1/2-x,y,-z
1/2+x,1/2+y,1/2+z
1/2-x,-y,1/2+z
1/2+x,1/2-y,-z
-x,1/2+y,1/2-z
loop_
_atom_site_type_symbol
_atom_site_label
_atom_site_fract_x
_atom_site_fract_y
_atom_site_fract_z
Si Si1 0.159876 0.137258 0.373230
Si Si2 0.344240 0.408088 0.163651
Si Si3 0.750000 0.787983 0.000000
Si Si4 0.448008 0.910759 0.363182
O O1 0.250000 0.093627 0.500000
O O2 0.201006 0.224536 0.305234
O O3 0.086862 0.141678 0.615337
O O4 0.117502 0.098949 0.115117
O O5 0.342014 0.500000 0.250000
O O6 0.329916 0.346002 0.398165
O O7 0.446096 0.393760 0.046076
O O8 0.250000 0.395439 0.000000
O O9 0.445611 0.000000 0.250000
#
# Coordination Sequence:
#
# PCOD9336278 Si02
#       4
#     8   8   4   8
#     4  10  25  47  70 107 146 188 240 299 375 422
#     4  11  25  45  75 103 147 192 249 309 364 433
#     4  10  26  46  68 104 148 198 234 306 372 436
#     4  11  25  46  76 108 137 193 247 298 364 439
#
# _framework density 22.898409000000001
#
# number of rings (size 3 to 8) (size 9 to 14) (size 15 to 20)
#    0.857    0.571    1.429    1.714    8.000    3.429 
#    0.000    0.000    0.000    0.000    0.000    0.000 
#    0.000    0.000    0.000    0.000    0.000    0.000 
#
# Total GULP energy -78134.605355 kJ/mol
# GULP energy per Si atom -5581.043240 kJ/mol
# Density = 2.284629 g / cm^3
# Si number density = 22.898409 Si / 1000 Ang^3
#
#
#
# Elastic Constant Matrix: (Units=GPa)
#
#
# Indices 1 2 3 4 5 6 
#
# 1 155.8407 51.0443 67.0361 0.0000 0.0000 0.0000
# 2 51.0443 82.9818 30.8825 0.0000 0.0000 0.0000
# 3 67.0361 30.8825 122.6224 0.0000 0.0000 0.0000
# 4 0.0000 0.0000 0.0000 18.3433 0.0000 0.0000
# 5 0.0000 0.0000 0.0000 0.0000 46.6479 0.0000
# 6 0.0000 0.0000 0.0000 0.0000 0.0000 -23.7691
#
#
#
# Elastic Compliance Matrix: (Units=1/GPa)
#
#
# Indices 1 2 3 4 5 6 
#
# 1 0.009645 -0.004381 -0.004170 0.000000 0.000000 0.000000
# 2 -0.004381 0.015287 -0.001455 0.000000 0.000000 0.000000
# 3 -0.004170 -0.001455 0.010801 0.000000 0.000000 0.000000
# 4 0.000000 0.000000 0.000000 0.054516 0.000000 0.000000
# 5 0.000000 0.000000 0.000000 0.000000 0.021437 0.000000
# 6 0.000000 0.000000 0.000000 0.000000 0.000000 -0.042071
#
#
# Mechanical properties :
#
#
# Convention : Reuss Voigt Hill
#
# Bulk Modulus (GPa) = 63.60477 73.26340 68.43408
# Shear Modulus (GPa) = 52.70483 22.40989 37.55736
#
# Velocity S-wave (km/s) = 4.80279 3.13176 4.05430
# Velocity P-wave (km/s) = 7.65460 6.71875 7.20189
#
# Compressibility (1/GPa) = 0.01572209
#
# Stress axis : x y z
#
# Youngs Moduli (GPa) = 103.67534 65.41328 92.58411
#
# Poissons Ratio (x) = 0.28660 0.38604
# Poissons Ratio (y) = 0.45425 0.13470
# Poissons Ratio (z) = 0.43228 0.09517
#
# Static dielectric constant tensor:
#      x y z
#    x 1.874490 0.000000 0.000000 
#    y 0.000000 1.851260 0.000000 
#    z 0.000000 0.000000 2.260520 
# 
# From -- ./inp_files/3013.got.cif
#   From: 2010.05.17/outbox.cif.g08.bks.cpg/sg24_2_cif.got.tgz:3013.got - 2010.06.04 00:33:39.
