data_PCOD9336626
_publ_section_title
;
Structure prediction by ZEFSAII (Michael W. Deem and Ramdas Pophale) SiO2 
 PCOD9336626
Probable space group: I 21 21 21
;
_chemical_formula_sum "Si O2"
_cell_formula_units_Z 32
_cell_length_a 8.853519
_cell_length_b 32.889512
_cell_length_c 5.136092
_cell_angle_alpha 90.000000
_cell_angle_beta 90.000000
_cell_angle_gamma 90.000000
_cell_volume 1495.567943
_symmetry_space_group_name_H-M "I 21 21 21"
_symmetry_group_IT_number 24
_symmetry_cell_setting 'orthorhombic'
loop_
_space_group_symop_operation_xyz
x,y,z
-x,1/2-y,z
x,-y,1/2-z
1/2-x,y,-z
1/2+x,1/2+y,1/2+z
1/2-x,-y,1/2+z
1/2+x,1/2-y,-z
-x,1/2+y,1/2-z
loop_
_atom_site_type_symbol
_atom_site_label
_atom_site_fract_x
_atom_site_fract_y
_atom_site_fract_z
Si Si1 0.422622 0.288240 0.081125
Si Si2 0.923378 0.128429 0.591830
Si Si3 0.147585 0.169553 0.252978
Si Si4 0.141012 0.455931 0.751707
O O1 0.500000 0.250000 0.221682
O O2 0.432670 0.330707 0.236408
O O3 0.250000 0.280926 0.000000
O O4 0.530816 0.295878 0.833946
O O5 0.750000 0.127753 0.500000
O O6 0.952341 0.085718 0.734073
O O7 0.040387 0.133483 0.355967
O O8 0.250000 0.180852 0.500000
O O9 0.250000 0.160578 0.000000
O O10 0.060764 0.500000 0.750000
O O11 0.250000 0.457163 0.500000
O O12 0.250000 0.452764 0.000000
#
# Coordination Sequence:
#
# PCOD9336626 Si02
#       4
#     8   8   8   8
#     4  12  26  46  70 102 134 184 237 293 342 411
#     4  11  23  43  74 101 141 181 233 287 351 409
#     4  12  26  46  68 100 135 182 230 283 345 408
#     4   9  19  35  64 106 143 172 220 288 348 404
#
# _framework density 21.396556
#
# number of rings (size 3 to 8) (size 9 to 14) (size 15 to 20)
#    0.000    1.000    5.000    1.500    3.500    1.000 
#    4.500    0.000    0.000    0.000    6.500    0.000 
#    0.000    0.000    0.000    0.000    0.000    0.000 
#
# Total GULP energy -89337.336910 kJ/mol
# GULP energy per Si atom -5583.583557 kJ/mol
# Density = 2.134786 g / cm^3
# Si number density = 21.396556 Si / 1000 Ang^3
#
#
#
# Elastic Constant Matrix: (Units=GPa)
#
#
# Indices 1 2 3 4 5 6 
#
# 1 143.3328 49.0549 52.1342 -0.0082 0.0380 0.0408
# 2 49.0549 215.9672 44.5870 0.0010 0.0385 0.0345
# 3 52.1342 44.5870 132.0434 0.0659 -0.1135 -0.0196
# 4 -0.0082 0.0010 0.0659 33.4458 0.0594 0.0561
# 5 0.0380 0.0385 -0.1135 0.0594 28.5202 0.0127
# 6 0.0408 0.0345 -0.0196 0.0561 0.0127 19.6356
#
#
#
# Elastic Compliance Matrix: (Units=1/GPa)
#
#
# Indices 1 2 3 4 5 6 
#
# 1 0.008487 -0.001329 -0.002902 0.000008 -0.000021 -0.000018
# 2 -0.001329 0.005185 -0.001226 0.000002 -0.000010 -0.000008
# 3 -0.002902 -0.001226 0.009133 -0.000019 0.000042 0.000017
# 4 0.000008 0.000002 -0.000019 0.029899 -0.000062 -0.000085
# 5 -0.000021 -0.000010 0.000042 -0.000062 0.035063 -0.000022
# 6 -0.000018 -0.000008 0.000017 -0.000085 -0.000022 0.050928
#
#
# Mechanical properties :
#
#
# Convention : Reuss Voigt Hill
#
# Bulk Modulus (GPa) = 84.09581 86.98838 85.54210
# Shear Modulus (GPa) = 32.55738 39.35815 35.95776
#
# Velocity S-wave (km/s) = 3.90502 4.29355 4.10389
# Velocity P-wave (km/s) = 7.72794 8.08226 7.90709
#
# Compressibility (1/GPa) = 0.01189120
#
# Stress axis : x y z
#
# Youngs Moduli (GPa) = 117.82526 192.85306 109.48884
#
# Poissons Ratio (x) = 0.25622 0.31778
# Poissons Ratio (y) = 0.15654 0.13427
# Poissons Ratio (z) = 0.34197 0.23651
#
# Static dielectric constant tensor:
#      x y z
#    x 1.784480 0.000010 0.000010 
#    y 0.000010 1.873840 0.000020 
#    z 0.000010 0.000020 1.848620 
# 
# From -- ./inp_files/1140.got.cif
#   From: 2010.05.17/outbox.cif.g08.bks.cpg/sg24_1_cif.got.tgz:1140.got - 2010.06.04 00:33:39.
