data_PCOD9336745
_publ_section_title
;
Structure prediction by ZEFSAII (Michael W. Deem and Ramdas Pophale) SiO2 
 PCOD9336745
Probable space group: I 21 21 21
;
_chemical_formula_sum "Si O2"
_cell_formula_units_Z 56
_cell_length_a 14.525371
_cell_length_b 13.257306
_cell_length_c 13.083620
_cell_angle_alpha 90.000000
_cell_angle_beta 90.000000
_cell_angle_gamma 90.000000
_cell_volume 2519.477222
_symmetry_space_group_name_H-M "I 21 21 21"
_symmetry_group_IT_number 24
_symmetry_cell_setting 'orthorhombic'
loop_
_space_group_symop_operation_xyz
x,y,z
-x,1/2-y,z
x,-y,1/2-z
1/2-x,y,-z
1/2+x,1/2+y,1/2+z
1/2-x,-y,1/2+z
1/2+x,1/2-y,-z
-x,1/2+y,1/2-z
loop_
_atom_site_type_symbol
_atom_site_label
_atom_site_fract_x
_atom_site_fract_y
_atom_site_fract_z
Si Si1 0.750000 0.638772 0.500000
Si Si2 0.292611 0.765242 0.151987
Si Si3 0.000000 0.750000 0.927983
Si Si4 0.980157 0.923126 0.659867
Si Si5 0.472755 0.451921 0.545895
Si Si6 0.136977 0.222342 0.852241
Si Si7 0.223909 0.461862 0.374711
Si Si8 0.323025 0.964928 0.864867
O O1 0.667110 0.709995 0.468032
O O2 0.772290 0.560009 0.413213
O O3 0.403789 0.777860 0.130872
O O4 0.279917 0.768332 0.274276
O O5 0.261135 0.653282 0.120465
O O6 0.233095 0.860800 0.114475
O O7 0.967658 0.841408 0.997353
O O8 0.919468 0.823395 0.664014
O O9 0.082054 0.879616 0.671966
O O10 0.958962 0.000000 0.750000
O O11 0.967964 0.974414 0.551292
O O12 0.386259 0.468873 0.619171
O O13 0.573878 0.458339 0.592757
O O14 0.247493 0.500000 0.250000
O O15 0.250000 0.499035 0.500000
O O16 0.329414 0.000000 0.750000
#
# Coordination Sequence:
#
# PCOD9336745 Si02
#       8
#     4   8   4   8   8   8   8   8
#     4  12  24  46  72 110 152 194 256 320 398 466
#     4  12  26  46  75 115 154 203 268 332 390 468
#     4  12  24  44  78 114 154 204 262 336 378 466
#     4  11  25  45  72 109 150 200 257 325 388 460
#     4  12  25  47  78 108 157 204 261 317 400 471
#     4  11  25  44  70 107 150 194 258 319 395 462
#     4  12  30  54  79 117 159 213 267 325 398 478
#     4  12  26  47  75 111 154 199 256 322 399 473
#
# _framework density 22.226834
#
# number of rings (size 3 to 8) (size 9 to 14) (size 15 to 20)
#    0.000    0.286    4.286    4.714    5.000    1.143 
#    0.000    0.714    0.000    0.000    0.000    0.000 
#    0.000    0.000    0.000    0.000    0.000    0.000 
#
# Total GULP energy -155950.359381 kJ/mol
# GULP energy per Si atom -5569.655692 kJ/mol
# Density = 2.217624 g / cm^3
# Si number density = 22.226834 Si / 1000 Ang^3
#
#
#
# Elastic Constant Matrix: (Units=GPa)
#
#
# Indices 1 2 3 4 5 6 
#
# 1 124.7520 48.1002 36.0190 0.0000 0.0000 0.0000
# 2 48.1002 73.6036 55.4819 0.0000 0.0000 0.0000
# 3 36.0190 55.4819 120.1605 0.0000 0.0000 0.0000
# 4 0.0000 0.0000 0.0000 -48.9030 0.0000 0.0000
# 5 0.0000 0.0000 0.0000 0.0000 44.1683 0.0000
# 6 0.0000 0.0000 0.0000 0.0000 0.0000 292.8337
#
#
#
# Elastic Compliance Matrix: (Units=1/GPa)
#
#
# Indices 1 2 3 4 5 6 
#
# 1 0.010716 -0.007028 0.000033 0.000000 0.000000 0.000000
# 2 -0.007028 0.025448 -0.009644 0.000000 0.000000 0.000000
# 3 0.000033 -0.009644 0.012765 0.000000 0.000000 0.000000
# 4 0.000000 0.000000 0.000000 -0.020449 0.000000 0.000000
# 5 0.000000 0.000000 0.000000 0.000000 0.022641 0.000000
# 6 0.000000 0.000000 0.000000 0.000000 0.000000 0.003415
#
#
# Mechanical properties :
#
#
# Convention : Reuss Voigt Hill
#
# Bulk Modulus (GPa) = 63.88864 66.41314 65.15089
# Shear Modulus (GPa) = 53.74546 69.54745 61.64645
#
# Velocity S-wave (km/s) = 4.92270 5.59980 5.27213
# Velocity P-wave (km/s) = 7.81773 8.47083 8.15082
#
# Compressibility (1/GPa) = 0.01565223
#
# Stress axis : x y z
#
# Youngs Moduli (GPa) = 93.31770 39.29552 78.33792
#
# Poissons Ratio (x) = 0.27615 -0.00256
# Poissons Ratio (y) = 0.65580 0.75546
# Poissons Ratio (z) = -0.00305 0.37895
#
# Static dielectric constant tensor:
#      x y z
#    x 1.894370 0.000000 0.000000 
#    y 0.000000 1.758010 0.000000 
#    z 0.000000 0.000000 -1.208690 
# 
# From -- ./inp_files/20902.got.cif
#   From: 2010.05.17/outbox.cif.g08.bks.cpg/sg24_11_cif.got.tgz:20902.got - 2010.06.04 00:33:39.
