data_PCOD9336804
_publ_section_title
;
Structure prediction by ZEFSAII (Michael W. Deem and Ramdas Pophale) SiO2 
 PCOD9336804
Probable space group: I 21 21 21
;
_chemical_formula_sum "Si O2"
_cell_formula_units_Z 36
_cell_length_a 15.618599
_cell_length_b 7.417395
_cell_length_c 12.651832
_cell_angle_alpha 90.000000
_cell_angle_beta 90.000000
_cell_angle_gamma 90.000000
_cell_volume 1465.706110
_symmetry_space_group_name_H-M "I 21 21 21"
_symmetry_group_IT_number 24
_symmetry_cell_setting 'orthorhombic'
loop_
_space_group_symop_operation_xyz
x,y,z
-x,1/2-y,z
x,-y,1/2-z
1/2-x,y,-z
1/2+x,1/2+y,1/2+z
1/2-x,-y,1/2+z
1/2+x,1/2-y,-z
-x,1/2+y,1/2-z
loop_
_atom_site_type_symbol
_atom_site_label
_atom_site_fract_x
_atom_site_fract_y
_atom_site_fract_z
Si Si1 0.488497 0.500000 0.250000
Si Si2 0.131086 0.106617 0.913195
Si Si3 0.143198 0.455976 0.594374
Si Si4 0.336074 0.499236 0.634955
Si Si5 0.822818 0.571414 0.363154
O O1 0.551036 0.566134 0.340962
O O2 0.421574 0.380482 0.319050
O O3 0.137406 0.324723 0.907740
O O4 0.222038 0.025804 0.874892
O O5 0.123609 0.025744 0.031700
O O6 0.240014 0.415153 0.632062
O O7 0.124687 0.415190 0.471336
O O8 0.378960 0.500000 0.750000
O O9 0.323427 0.712911 0.625474
O O10 0.853492 0.500000 0.250000
#
# Coordination Sequence:
#
# PCOD9336804 Si02
#       5
#     4   8   8   8   8
#     4  12  18  32  54  78 102 130 192 218 264 316
#     4   9  19  32  51  76 109 142 172 220 275 322
#     4   9  19  32  51  76 109 142 172 220 275 322
#     4   9  17  35  55  76 105 143 183 215 265 326
#     4   9  17  35  55  76 105 143 183 215 265 326
#
# _framework density 24.561540000000001
#
# number of rings (size 3 to 8) (size 9 to 14) (size 15 to 20)
#    0.000    2.667    2.222    3.333    0.000    0.000 
#    0.000   10.000    0.000    0.000    0.000    0.000 
#    0.000    0.000    0.000    0.000    0.000    0.000 
#
# Total GULP energy -100326.459451 kJ/mol
# GULP energy per Si atom -5573.692192 kJ/mol
# Density = 2.450564 g / cm^3
# Si number density = 24.561540 Si / 1000 Ang^3
#
#
#
# Elastic Constant Matrix: (Units=GPa)
#
#
# Indices 1 2 3 4 5 6 
#
# 1 67.7008 8.3392 61.5506 0.0000 0.0000 0.0000
# 2 8.3392 65.4432 3.4343 0.0000 0.0000 0.0000
# 3 61.5506 3.4343 261.1048 0.0000 0.0000 0.0000
# 4 0.0000 0.0000 0.0000 25.5495 0.0000 0.0000
# 5 0.0000 0.0000 0.0000 0.0000 46.3191 0.0000
# 6 0.0000 0.0000 0.0000 0.0000 0.0000 13.2599
#
#
#
# Elastic Compliance Matrix: (Units=1/GPa)
#
#
# Indices 1 2 3 4 5 6 
#
# 1 0.019112 -0.002200 -0.004476 0.000000 0.000000 0.000000
# 2 -0.002200 0.015544 0.000314 0.000000 0.000000 0.000000
# 3 -0.004476 0.000314 0.004881 0.000000 0.000000 0.000000
# 4 0.000000 0.000000 0.000000 0.039140 0.000000 0.000000
# 5 0.000000 0.000000 0.000000 0.000000 0.021589 0.000000
# 6 0.000000 0.000000 0.000000 0.000000 0.000000 0.075415
#
#
# Mechanical properties :
#
#
# Convention : Reuss Voigt Hill
#
# Bulk Modulus (GPa) = 37.29676 60.09966 48.69821
# Shear Modulus (GPa) = 25.33657 38.42070 31.87863
#
# Velocity S-wave (km/s) = 3.21527 3.95937 3.60656
# Velocity P-wave (km/s) = 5.38534 6.73975 6.10025
#
# Compressibility (1/GPa) = 0.02681198
#
# Stress axis : x y z
#
# Youngs Moduli (GPa) = 52.32445 64.33217 204.87873
#
# Poissons Ratio (x) = 0.14156 0.91709
# Poissons Ratio (y) = 0.11514 -0.06438
# Poissons Ratio (z) = 0.23422 -0.02022
#
# Static dielectric constant tensor:
#      x y z
#    x 1.908650 0.000000 0.000000 
#    y 0.000000 2.043260 0.000000 
#    z 0.000000 0.000000 2.082150 
# 
# From -- ./inp_files/19573.got.cif
#   From: 2010.05.17/outbox.cif.g08.bks.cpg/sg24_10_cif.got.tgz:19573.got - 2010.06.04 00:33:39.
