data_PCOD9336309
_publ_section_title
;
Structure prediction by ZEFSAII (Michael W. Deem and Ramdas Pophale) SiO2 
 PCOD9336309
Probable space group: I 21 21 21
;
_chemical_formula_sum "Si O2"
_cell_formula_units_Z 40
_cell_length_a 14.514478
_cell_length_b 8.636550
_cell_length_c 13.807966
_cell_angle_alpha 90.000000
_cell_angle_beta 90.000000
_cell_angle_gamma 90.000000
_cell_volume 1730.897785
_symmetry_space_group_name_H-M "I 21 21 21"
_symmetry_group_IT_number 24
_symmetry_cell_setting 'orthorhombic'
loop_
_space_group_symop_operation_xyz
x,y,z
-x,1/2-y,z
x,-y,1/2-z
1/2-x,y,-z
1/2+x,1/2+y,1/2+z
1/2-x,-y,1/2+z
1/2+x,1/2-y,-z
-x,1/2+y,1/2-z
loop_
_atom_site_type_symbol
_atom_site_label
_atom_site_fract_x
_atom_site_fract_y
_atom_site_fract_z
Si Si1 0.756377 0.834725 0.634909
Si Si2 0.929239 0.631271 0.172938
Si Si3 0.921853 0.638438 0.958409
Si Si4 0.243929 0.309223 0.641379
Si Si5 0.395791 0.797641 0.502074
O O1 0.784307 0.803540 0.745321
O O2 0.675829 0.719905 0.593473
O O3 0.847322 0.821587 0.570515
O O4 0.726037 0.013255 0.624516
O O5 0.917204 0.500000 0.250000
O O6 0.833667 0.704498 0.142172
O O7 0.000000 0.750000 0.219467
O O8 0.966409 0.597844 0.065343
O O9 0.831727 0.739570 0.930740
O O10 0.000000 0.750000 0.912231
O O11 0.893089 0.459445 0.941222
O O12 0.500000 0.750000 0.525491
#
# Coordination Sequence:
#
# PCOD9336309 Si02
#       5
#     8   8   8   8   8
#     4  10  26  44  72 104 137 194 240 300 363 436
#     4  11  27  43  71 106 144 189 238 298 363 437
#     4  11  26  44  72 105 139 192 237 296 368 433
#     4  11  25  46  71 102 147 186 245 298 368 435
#     4  11  25  45  73 102 143 185 243 299 362 437
#
# _framework density 23.109394999999999
#
# number of rings (size 3 to 8) (size 9 to 14) (size 15 to 20)
#    0.000    1.200    0.000    3.000   22.400    2.400 
#    0.000    0.000    0.000    0.000    0.000    0.000 
#    0.000    0.000    0.000    0.000    0.000    0.000 
#
# Total GULP energy -111404.429116 kJ/mol
# GULP energy per Si atom -5570.221456 kJ/mol
# Density = 2.305680 g / cm^3
# Si number density = 23.109395 Si / 1000 Ang^3
#
#
#
# Elastic Constant Matrix: (Units=GPa)
#
#
# Indices 1 2 3 4 5 6 
#
# 1 146.4793 45.8151 24.0098 0.0000 0.0000 0.0000
# 2 45.8151 89.3352 20.6082 0.0000 0.0000 0.0000
# 3 24.0098 20.6082 105.3379 0.0000 0.0000 0.0000
# 4 0.0000 0.0000 0.0000 36.4037 0.0000 0.0000
# 5 0.0000 0.0000 0.0000 0.0000 7.8551 0.0000
# 6 0.0000 0.0000 0.0000 0.0000 0.0000 8.5422
#
#
#
# Elastic Compliance Matrix: (Units=1/GPa)
#
#
# Indices 1 2 3 4 5 6 
#
# 1 0.008252 -0.003977 -0.001103 0.000000 0.000000 0.000000
# 2 -0.003977 0.013640 -0.001762 0.000000 0.000000 0.000000
# 3 -0.001103 -0.001762 0.010089 0.000000 0.000000 0.000000
# 4 0.000000 0.000000 0.000000 0.027470 0.000000 0.000000
# 5 0.000000 0.000000 0.000000 0.000000 0.127306 0.000000
# 6 0.000000 0.000000 0.000000 0.000000 0.000000 0.117066
#
#
# Mechanical properties :
#
#
# Convention : Reuss Voigt Hill
#
# Bulk Modulus (GPa) = 54.65407 58.00207 56.32807
# Shear Modulus (GPa) = 15.45092 27.27482 21.36287
#
# Velocity S-wave (km/s) = 2.58853 3.43920 3.04373
# Velocity P-wave (km/s) = 5.71275 6.39720 6.06464
#
# Compressibility (1/GPa) = 0.01829690
#
# Stress axis : x y z
#
# Youngs Moduli (GPa) = 121.18718 73.31342 99.11493
#
# Poissons Ratio (x) = 0.29160 0.10929
# Poissons Ratio (y) = 0.48202 0.17463
# Poissons Ratio (z) = 0.13363 0.12917
#
# Static dielectric constant tensor:
#      x y z
#    x 1.839110 0.000000 0.000000 
#    y 0.000000 1.889830 0.000000 
#    z 0.000000 0.000000 2.535440 
# 
# From -- ./inp_files/26305.got.cif
#   From: 2010.05.17/outbox.cif.g08.bks.cpg/sg24_14_cif.got.tgz:26305.got - 2010.06.04 00:33:39.
