data_PCOD9336631
_publ_section_title
;
Structure prediction by ZEFSAII (Michael W. Deem and Ramdas Pophale) SiO2 
 PCOD9336631
Probable space group: I 21 21 21
;
_chemical_formula_sum "Si O2"
_cell_formula_units_Z 36
_cell_length_a 12.251364
_cell_length_b 11.020153
_cell_length_c 12.606270
_cell_angle_alpha 90.000000
_cell_angle_beta 90.000000
_cell_angle_gamma 90.000000
_cell_volume 1701.996537
_symmetry_space_group_name_H-M "I 21 21 21"
_symmetry_group_IT_number 24
_symmetry_cell_setting 'orthorhombic'
loop_
_space_group_symop_operation_xyz
x,y,z
-x,1/2-y,z
x,-y,1/2-z
1/2-x,y,-z
1/2+x,1/2+y,1/2+z
1/2-x,-y,1/2+z
1/2+x,1/2-y,-z
-x,1/2+y,1/2-z
loop_
_atom_site_type_symbol
_atom_site_label
_atom_site_fract_x
_atom_site_fract_y
_atom_site_fract_z
Si Si1 0.115524 0.576151 0.856000
Si Si2 0.500000 0.250000 0.498225
Si Si3 0.792035 0.705566 0.151313
Si Si4 0.250000 0.002095 0.000000
Si Si5 0.250000 0.400436 0.000000
Si Si6 0.378322 0.799979 0.617493
O O1 0.091053 0.500000 0.750000
O O2 0.207009 0.682521 0.837248
O O3 0.016480 0.638776 0.917655
O O4 0.165069 0.483651 0.940255
O O5 0.392537 0.241245 0.572478
O O6 0.845004 0.668624 0.262851
O O7 0.734598 0.589540 0.098064
O O8 0.347734 0.091166 0.962783
O O9 0.195518 0.313540 0.085242
O O10 0.500000 0.750000 0.611110
#
# Coordination Sequence:
#
# PCOD9336631 Si02
#       6
#     8   4   8   4   4   8
#     4  12  25  47  72 103 149 190 239 303 369 439
#     4  12  24  44  74 108 136 196 246 294 362 440
#     4  12  23  46  75 103 140 190 245 301 360 425
#     4  11  25  46  66 106 153 175 234 314 358 419
#     4  11  23  44  70 104 145 181 238 316 358 417
#     4  11  26  44  73 106 139 191 248 298 362 427
#
# _framework density 21.151631999999999
#
# number of rings (size 3 to 8) (size 9 to 14) (size 15 to 20)
#    0.000    0.444    7.778    0.667    3.111    0.000 
#   10.000    0.000    0.000    0.000    0.000    0.000 
#    0.000    0.000    0.000    0.000    0.000    0.000 
#
# Total GULP energy -100576.766710 kJ/mol
# GULP energy per Si atom -5587.598151 kJ/mol
# Density = 2.110349 g / cm^3
# Si number density = 21.151632 Si / 1000 Ang^3
#
#
#
# Elastic Constant Matrix: (Units=GPa)
#
#
# Indices 1 2 3 4 5 6 
#
# 1 101.2970 41.6815 45.2977 0.0000 0.0000 0.0000
# 2 41.6815 135.7411 58.1990 0.0000 0.0000 0.0000
# 3 45.2977 58.1990 144.0514 0.0000 0.0000 0.0000
# 4 0.0000 0.0000 0.0000 21.9321 0.0000 0.0000
# 5 0.0000 0.0000 0.0000 0.0000 -77.2080 0.0000
# 6 0.0000 0.0000 0.0000 0.0000 0.0000 19.3225
#
#
#
# Elastic Compliance Matrix: (Units=1/GPa)
#
#
# Indices 1 2 3 4 5 6 
#
# 1 0.012168 -0.002535 -0.002802 0.000000 0.000000 0.000000
# 2 -0.002535 0.009439 -0.003016 0.000000 0.000000 0.000000
# 3 -0.002802 -0.003016 0.009042 0.000000 0.000000 0.000000
# 4 0.000000 0.000000 0.000000 0.045595 0.000000 0.000000
# 5 0.000000 0.000000 0.000000 0.000000 -0.012952 0.000000
# 6 0.000000 0.000000 0.000000 0.000000 0.000000 0.051753
#
#
# Mechanical properties :
#
#
# Convention : Reuss Voigt Hill
#
# Bulk Modulus (GPa) = 71.72712 74.60507 73.16610
# Shear Modulus (GPa) = 36.65726 8.53674 22.59700
#
# Velocity S-wave (km/s) = 4.16753 2.01115 3.27208
# Velocity P-wave (km/s) = 7.55925 6.38288 6.99583
#
# Compressibility (1/GPa) = 0.01394173
#
# Stress axis : x y z
#
# Youngs Moduli (GPa) = 82.18204 105.94829 110.59867
#
# Poissons Ratio (x) = 0.26858 0.30991
# Poissons Ratio (y) = 0.20833 0.33359
# Poissons Ratio (z) = 0.23029 0.31956
#
# Static dielectric constant tensor:
#      x y z
#    x 1.778940 0.000000 0.000000 
#    y 0.000000 1.790740 0.000000 
#    z 0.000000 0.000000 1.770020 
# 
# From -- ./inp_files/19232.got.cif
#   From: 2010.05.17/outbox.cif.g08.bks.cpg/sg24_10_cif.got.tgz:19232.got - 2010.06.04 00:33:39.
