data_PCOD9336994
_publ_section_title
;
Structure prediction by ZEFSAII (Michael W. Deem and Ramdas Pophale) SiO2 
 PCOD9336994
Probable space group: I 21 21 21
;
_chemical_formula_sum "Si O2"
_cell_formula_units_Z 24
_cell_length_a 4.783938
_cell_length_b 21.464505
_cell_length_c 9.375530
_cell_angle_alpha 90.000000
_cell_angle_beta 90.000000
_cell_angle_gamma 90.000000
_cell_volume 962.724996
_symmetry_space_group_name_H-M "I 21 21 21"
_symmetry_group_IT_number 24
_symmetry_cell_setting 'orthorhombic'
loop_
_space_group_symop_operation_xyz
x,y,z
-x,1/2-y,z
x,-y,1/2-z
1/2-x,y,-z
1/2+x,1/2+y,1/2+z
1/2-x,-y,1/2+z
1/2+x,1/2-y,-z
-x,1/2+y,1/2-z
loop_
_atom_site_type_symbol
_atom_site_label
_atom_site_fract_x
_atom_site_fract_y
_atom_site_fract_z
Si Si1 0.325917 0.187054 0.344711
Si Si2 0.161914 0.624625 0.287947
Si Si3 0.750000 0.438331 0.000000
Si Si4 0.892795 0.000000 0.750000
O O1 0.500000 0.250000 0.374194
O O2 0.250000 0.158909 0.500000
O O3 0.526130 0.149923 0.235979
O O4 0.025344 0.180615 0.272708
O O5 0.195387 0.558091 0.207557
O O6 0.992416 0.603145 0.427094
O O7 0.587566 0.478575 0.119199
#
# Coordination Sequence:
#
# PCOD9336994 Si02
#       4
#     8   8   4   4
#     4  12  27  50  82 117 161 217 284 346 410 493
#     4  12  27  48  81 116 165 213 276 338 417 493
#     4  12  28  54  78 126 174 222 278 338 426 526
#     4  12  28  50  84 118 174 216 278 346 420 516
#
# _framework density 24.92924
#
# number of rings (size 3 to 8) (size 9 to 14) (size 15 to 20)
#    0.000    0.000    3.333    6.000    2.333    5.333 
#    0.000    3.333    0.000    0.000    0.000    0.000 
#    0.000    0.000    0.000    0.000    0.000    0.000 
#
# Total GULP energy -66886.335060 kJ/mol
# GULP energy per Si atom -5573.861255 kJ/mol
# Density = 2.487250 g / cm^3
# Si number density = 24.929240 Si / 1000 Ang^3
#
#
#
# Elastic Constant Matrix: (Units=GPa)
#
#
# Indices 1 2 3 4 5 6 
#
# 1 192.1093 47.1429 59.7456 0.0000 0.0000 0.0000
# 2 47.1429 85.7658 37.0527 0.0000 0.0000 0.0000
# 3 59.7456 37.0527 159.7749 0.0000 0.0000 0.0000
# 4 0.0000 0.0000 0.0000 8.9044 0.0000 0.0000
# 5 0.0000 0.0000 0.0000 0.0000 50.1101 0.0000
# 6 0.0000 0.0000 0.0000 0.0000 0.0000 46.9165
#
#
#
# Elastic Compliance Matrix: (Units=1/GPa)
#
#
# Indices 1 2 3 4 5 6 
#
# 1 0.006435 -0.002775 -0.001762 0.000000 0.000000 0.000000
# 2 -0.002775 0.014155 -0.002245 0.000000 0.000000 0.000000
# 3 -0.001762 -0.002245 0.007438 0.000000 0.000000 0.000000
# 4 0.000000 0.000000 0.000000 0.112304 0.000000 0.000000
# 5 0.000000 0.000000 0.000000 0.000000 0.019956 0.000000
# 6 0.000000 0.000000 0.000000 0.000000 0.000000 0.021314
#
#
# Mechanical properties :
#
#
# Convention : Reuss Voigt Hill
#
# Bulk Modulus (GPa) = 69.14383 80.61472 74.87928
# Shear Modulus (GPa) = 25.00138 40.76678 32.88408
#
# Velocity S-wave (km/s) = 3.17029 4.04827 3.63588
# Velocity P-wave (km/s) = 6.41850 7.36607 6.90855
#
# Compressibility (1/GPa) = 0.01446261
#
# Stress axis : x y z
#
# Youngs Moduli (GPa) = 155.41007 70.64616 134.43681
#
# Poissons Ratio (x) = 0.19608 0.23694
# Poissons Ratio (y) = 0.43134 0.30178
# Poissons Ratio (z) = 0.27391 0.15859
#
# Static dielectric constant tensor:
#      x y z
#    x 1.954310 0.000000 0.000000 
#    y 0.000000 2.005550 0.000000 
#    z 0.000000 0.000000 2.028980 
# 
# From -- ./inp_files/8103.got.cif
#   From: 2010.05.17/outbox.cif.g08.bks.cpg/sg24_5_cif.got.tgz:8103.got - 2010.06.04 00:33:39.
