data_PCOD9336993
_publ_section_title
;
Structure prediction by ZEFSAII (Michael W. Deem and Ramdas Pophale) SiO2 
 PCOD9336993
Probable space group: I 21 21 21
;
_chemical_formula_sum "Si O2"
_cell_formula_units_Z 32
_cell_length_a 9.052799
_cell_length_b 30.148253
_cell_length_c 5.132887
_cell_angle_alpha 90.000000
_cell_angle_beta 90.000000
_cell_angle_gamma 90.000000
_cell_volume 1400.898700
_symmetry_space_group_name_H-M "I 21 21 21"
_symmetry_group_IT_number 24
_symmetry_cell_setting 'orthorhombic'
loop_
_space_group_symop_operation_xyz
x,y,z
-x,1/2-y,z
x,-y,1/2-z
1/2-x,y,-z
1/2+x,1/2+y,1/2+z
1/2-x,-y,1/2+z
1/2+x,1/2-y,-z
-x,1/2+y,1/2-z
loop_
_atom_site_type_symbol
_atom_site_label
_atom_site_fract_x
_atom_site_fract_y
_atom_site_fract_z
Si Si1 0.407993 0.794455 0.123596
Si Si2 0.024584 0.000000 0.750000
Si Si3 0.250000 0.070536 0.000000
Si Si4 0.750000 0.959246 0.000000
Si Si5 0.750000 0.897668 0.500000
Si Si6 0.951777 0.351696 0.129199
O O1 0.500000 0.750000 0.159682
O O2 0.394473 0.819929 0.396994
O O3 0.250000 0.782852 0.000000
O O4 0.474258 0.826657 0.901156
O O5 0.905304 0.014556 0.529913
O O6 0.133799 0.039275 0.845942
O O7 0.347492 0.105135 0.830784
O O8 0.748479 0.928648 0.749695
O O9 0.605557 0.868401 0.516219
#
# Coordination Sequence:
#
# PCOD9336993 Si02
#       6
#     8   4   4   4   4   8
#     4  12  27  49  78 111 148 190 245 315 386 470
#     4  12  30  46  80 112 162 210 276 324 390 450
#     4  12  28  48  75 116 149 217 258 327 378 454
#     4  12  27  52  70 114 151 203 256 328 376 450
#     4  12  27  48  79 108 152 202 250 311 392 454
#     4  12  27  50  76 110 153 195 255 309 386 463
#
# _framework density 22.842479999999998
#
# number of rings (size 3 to 8) (size 9 to 14) (size 15 to 20)
#    0.000    0.000    5.000    3.000    7.000    0.000 
#    0.000    0.000    0.000    0.000    0.000    0.000 
#    0.000    0.000    0.000    0.000    0.000    0.000 
#
# Total GULP energy -89573.545390 kJ/mol
# GULP energy per Si atom -5598.346587 kJ/mol
# Density = 2.279049 g / cm^3
# Si number density = 22.842480 Si / 1000 Ang^3
#
#
#
# Elastic Constant Matrix: (Units=GPa)
#
#
# Indices 1 2 3 4 5 6 
#
# 1 177.6186 84.3170 40.2400 -0.1797 0.0162 -0.0867
# 2 84.3170 162.1396 73.9917 -0.1073 0.0340 -0.0637
# 3 40.2400 73.9917 168.4219 -0.2547 0.0942 -0.1050
# 4 -0.1797 -0.1073 -0.2547 31.0764 0.0110 0.0649
# 5 0.0162 0.0340 0.0942 0.0110 34.8097 -0.0851
# 6 -0.0867 -0.0637 -0.1050 0.0649 -0.0851 53.3989
#
#
#
# Elastic Compliance Matrix: (Units=1/GPa)
#
#
# Indices 1 2 3 4 5 6 
#
# 1 0.007477 -0.003843 -0.000098 0.000029 0.000001 0.000007
# 2 -0.003843 0.009690 -0.003339 -0.000016 0.000001 -0.000001
# 3 -0.000098 -0.003339 0.007428 0.000049 -0.000017 0.000010
# 4 0.000029 -0.000016 0.000049 0.032179 -0.000010 -0.000039
# 5 0.000001 0.000001 -0.000017 -0.000010 0.028728 0.000046
# 6 0.000007 -0.000001 0.000010 -0.000039 0.000046 0.018727
#
#
# Mechanical properties :
#
#
# Convention : Reuss Voigt Hill
#
# Bulk Modulus (GPa) = 99.65774 100.58640 100.12207
# Shear Modulus (GPa) = 40.93891 44.49910 42.71900
#
# Velocity S-wave (km/s) = 4.23806 4.41850 4.32922
# Velocity P-wave (km/s) = 8.22625 8.37623 8.30158
#
# Compressibility (1/GPa) = 0.01003434
#
# Stress axis : x y z
#
# Youngs Moduli (GPa) = 133.74788 103.20116 134.63126
#
# Poissons Ratio (x) = 0.39665 0.01317
# Poissons Ratio (y) = 0.51405 0.44949
# Poissons Ratio (z) = 0.01308 0.34456
#
# Static dielectric constant tensor:
#      x y z
#    x 1.848020 -0.000070 -0.000190 
#    y -0.000070 1.879490 -0.000060 
#    z -0.000190 -0.000060 1.805570 
# 
# From -- ./inp_files/1243.got.cif
#   From: 2010.05.17/outbox.cif.g08.bks.cpg/sg24_1_cif.got.tgz:1243.got - 2010.06.04 00:33:39.
