data_PCOD9336587
_publ_section_title
;
Structure prediction by ZEFSAII (Michael W. Deem and Ramdas Pophale) SiO2 
 PCOD9336587
Probable space group: I 21 21 21
;
_chemical_formula_sum "Si O2"
_cell_formula_units_Z 60
_cell_length_a 11.433561
_cell_length_b 28.843457
_cell_length_c 9.148179
_cell_angle_alpha 90.000000
_cell_angle_beta 90.000000
_cell_angle_gamma 90.000000
_cell_volume 3016.917804
_symmetry_space_group_name_H-M "I 21 21 21"
_symmetry_group_IT_number 24
_symmetry_cell_setting 'orthorhombic'
loop_
_space_group_symop_operation_xyz
x,y,z
-x,1/2-y,z
x,-y,1/2-z
1/2-x,y,-z
1/2+x,1/2+y,1/2+z
1/2-x,-y,1/2+z
1/2+x,1/2-y,-z
-x,1/2+y,1/2-z
loop_
_atom_site_type_symbol
_atom_site_label
_atom_site_fract_x
_atom_site_fract_y
_atom_site_fract_z
Si Si1 0.614822 0.807616 0.971216
Si Si2 0.942370 0.132207 0.914679
Si Si3 0.250000 0.301423 0.000000
Si Si4 0.521833 0.639382 0.737546
Si Si5 0.658673 0.550584 0.686007
Si Si6 0.675858 0.268861 0.754452
Si Si7 0.557922 0.705798 0.246757
Si Si8 0.424624 0.046201 0.153211
O O1 0.561160 0.846837 0.868796
O O2 0.622257 0.759952 0.879101
O O3 0.750000 0.818828 0.000000
O O4 0.528830 0.802958 0.109951
O O5 0.049558 0.162364 0.852559
O O6 0.966956 0.082332 0.842663
O O7 0.828182 0.164612 0.897466
O O8 0.952549 0.130107 0.088591
O O9 0.180634 0.266700 0.108517
O O10 0.592011 0.592394 0.763278
O O11 0.605388 0.684215 0.715140
O O12 0.642229 0.500000 0.750000
O O13 0.796147 0.562798 0.705692
O O14 0.609193 0.544174 0.520232
O O15 0.808929 0.282140 0.713264
O O16 0.500000 0.750000 0.325230
O O17 0.448825 0.000000 0.250000
#
# Coordination Sequence:
#
# PCOD9336587 Si02
#       8
#     8   8   4   8   8   8   8   8
#     4  12  25  40  56  84 129 175 211 252 304 365
#     4  11  23  39  60  93 121 162 213 253 309 369
#     4  12  22  38  62  90 124 172 212 258 294 376
#     4  11  24  39  63  92 123 164 210 258 309 375
#     4   9  19  39  64  94 123 154 197 257 321 372
#     4  12  24  38  61  86 128 167 216 256 313 359
#     4  12  23  38  56  84 123 164 208 257 298 359
#     4   9  19  38  64  92 125 153 193 260 320 372
#
# _framework density 19.887848000000002
#
# number of rings (size 3 to 8) (size 9 to 14) (size 15 to 20)
#    0.000    1.067    4.000    2.800    0.000    3.200 
#    0.000    2.667    0.000    3.200    3.467    0.000 
#    0.000    0.000    0.000    0.000    0.000    0.000 
#
# Total GULP energy -167320.354521 kJ/mol
# GULP energy per Si atom -5577.345151 kJ/mol
# Density = 1.984258 g / cm^3
# Si number density = 19.887848 Si / 1000 Ang^3
#
#
#
# Elastic Constant Matrix: (Units=GPa)
#
#
# Indices 1 2 3 4 5 6 
#
# 1 107.0132 54.2492 28.6512 0.0002 -0.0003 0.0000
# 2 54.2492 119.5185 25.2037 0.0003 -0.0006 0.0000
# 3 28.6512 25.2037 50.3037 0.0004 -0.0010 0.0001
# 4 0.0002 0.0003 0.0004 25.0337 -0.0001 0.0001
# 5 -0.0003 -0.0006 -0.0010 -0.0001 15.5580 0.0002
# 6 0.0000 0.0000 0.0001 0.0001 0.0002 25.2312
#
#
#
# Elastic Compliance Matrix: (Units=1/GPa)
#
#
# Indices 1 2 3 4 5 6 
#
# 1 0.013192 -0.004923 -0.005047 0.000000 0.000000 0.000000
# 2 -0.004923 0.011193 -0.002804 0.000000 0.000000 0.000000
# 3 -0.005047 -0.002804 0.024158 0.000000 0.000001 0.000000
# 4 0.000000 0.000000 0.000000 0.039946 0.000000 0.000000
# 5 0.000000 0.000000 0.000001 0.000000 0.064276 -0.000001
# 6 0.000000 0.000000 0.000000 0.000000 -0.000001 0.039633
#
#
# Mechanical properties :
#
#
# Convention : Reuss Voigt Hill
#
# Bulk Modulus (GPa) = 43.48735 54.78261 49.13498
# Shear Modulus (GPa) = 22.16201 24.41334 23.28767
#
# Velocity S-wave (km/s) = 3.34181 3.50744 3.42563
# Velocity P-wave (km/s) = 6.06663 6.63389 6.35659
#
# Compressibility (1/GPa) = 0.02299519
#
# Stress axis : x y z
#
# Youngs Moduli (GPa) = 75.80511 89.34243 41.39333
#
# Poissons Ratio (x) = 0.43987 0.20890
# Poissons Ratio (y) = 0.37322 0.11606
# Poissons Ratio (z) = 0.38257 0.25049
#
# Static dielectric constant tensor:
#      x y z
#    x 1.759200 0.000000 0.000000 
#    y 0.000000 1.708520 0.000000 
#    z 0.000000 0.000000 1.750490 
# 
# From -- ./inp_files/11526.got.cif
#   From: 2010.05.17/outbox.cif.g08.bks.cpg/sg24_6_cif.got.tgz:11526.got - 2010.06.04 00:33:39.
