data_PCOD9336067
_publ_section_title
;
Structure prediction by ZEFSAII (Michael W. Deem and Ramdas Pophale) SiO2 
 PCOD9336067
Probable space group: I 21 21 21
;
_chemical_formula_sum "Si O2"
_cell_formula_units_Z 60
_cell_length_a 11.302674
_cell_length_b 8.802639
_cell_length_c 26.963517
_cell_angle_alpha 90.000000
_cell_angle_beta 90.000000
_cell_angle_gamma 90.000000
_cell_volume 2682.690876
_symmetry_space_group_name_H-M "I 21 21 21"
_symmetry_group_IT_number 24
_symmetry_cell_setting 'orthorhombic'
loop_
_space_group_symop_operation_xyz
x,y,z
-x,1/2-y,z
x,-y,1/2-z
1/2-x,y,-z
1/2+x,1/2+y,1/2+z
1/2-x,-y,1/2+z
1/2+x,1/2-y,-z
-x,1/2+y,1/2-z
loop_
_atom_site_type_symbol
_atom_site_label
_atom_site_fract_x
_atom_site_fract_y
_atom_site_fract_z
Si Si1 0.063770 0.085978 0.600449
Si Si2 0.500000 0.750000 0.907303
Si Si3 0.458188 0.074676 0.796245
Si Si4 0.060737 0.408874 0.982045
Si Si5 0.835101 0.503021 0.402254
Si Si6 0.561139 0.087426 0.302056
Si Si7 0.325980 0.565274 0.839117
Si Si8 0.797598 0.846619 0.426553
O O1 0.000000 0.250000 0.600950
O O2 0.008326 0.012352 0.650857
O O3 0.205364 0.071577 0.602754
O O4 0.026148 0.016667 0.547752
O O5 0.572537 0.608752 0.930419
O O6 0.392477 0.685392 0.873886
O O7 0.500000 0.250000 0.791996
O O8 0.390211 0.042778 0.848053
O O9 0.388522 0.000000 0.750000
O O10 0.575897 0.971875 0.799074
O O11 0.164898 0.378002 0.942698
O O12 0.000000 0.250000 0.991094
O O13 0.125647 0.441840 0.033778
O O14 0.823163 0.667402 0.428297
O O15 0.500000 0.250000 0.294149
O O16 0.697901 0.107068 0.318807
O O17 0.556646 0.000000 0.250000
O O18 0.316059 0.413110 0.872296
#
# Coordination Sequence:
#
# PCOD9336067 Si02
#       8
#     8   4   8   8   8   8   8   8
#     4  11  24  48  73 104 151 186 233 299 371 428
#     4  10  24  38  68 100 136 188 234 294 356 420
#     4  11  25  43  67 103 141 190 244 301 359 426
#     4  11  24  43  74 105 139 181 240 294 351 442
#     4  11  24  45  70 103 141 193 239 296 364 423
#     4  11  25  45  72 103 143 193 243 295 359 436
#     4  11  23  47  71  99 143 187 239 300 364 425
#     4  11  24  44  74 105 136 189 240 291 364 430
#
# _framework density 22.365601999999999
#
# number of rings (size 3 to 8) (size 9 to 14) (size 15 to 20)
#    0.000    1.067    4.000    2.000    7.467    2.133 
#    8.400    0.000    0.000    0.000    0.000    0.000 
#    0.000    0.000    0.000    0.000    0.000    0.000 
#
# Total GULP energy -167443.787596 kJ/mol
# GULP energy per Si atom -5581.459587 kJ/mol
# Density = 2.231470 g / cm^3
# Si number density = 22.365602 Si / 1000 Ang^3
#
#
#
# Elastic Constant Matrix: (Units=GPa)
#
#
# Indices 1 2 3 4 5 6 
#
# 1 163.7200 40.9713 33.2914 0.0000 0.0000 0.0000
# 2 40.9713 83.0729 6.4441 0.0000 0.0000 0.0000
# 3 33.2914 6.4441 83.9463 0.0000 0.0000 0.0000
# 4 0.0000 0.0000 0.0000 -11.0140 0.0000 0.0000
# 5 0.0000 0.0000 0.0000 0.0000 14.5893 0.0000
# 6 0.0000 0.0000 0.0000 0.0000 0.0000 28.6591
#
#
#
# Elastic Compliance Matrix: (Units=1/GPa)
#
#
# Indices 1 2 3 4 5 6 
#
# 1 0.007539 -0.003507 -0.002721 0.000000 0.000000 0.000000
# 2 -0.003507 0.013741 0.000336 0.000000 0.000000 0.000000
# 3 -0.002721 0.000336 0.012965 0.000000 0.000000 0.000000
# 4 0.000000 0.000000 0.000000 -0.090793 0.000000 0.000000
# 5 0.000000 0.000000 0.000000 0.000000 0.068543 0.000000
# 6 0.000000 0.000000 0.000000 0.000000 0.000000 0.034893
#
#
# Mechanical properties :
#
#
# Convention : Reuss Voigt Hill
#
# Bulk Modulus (GPa) = 44.51902 54.68367 49.60134
# Shear Modulus (GPa) = 75.57524 23.11570 49.34547
#
# Velocity S-wave (km/s) = 5.81929 3.21836 4.70223
# Velocity P-wave (km/s) = 8.06849 6.18978 7.19076
#
# Compressibility (1/GPa) = 0.02246231
#
# Stress axis : x y z
#
# Youngs Moduli (GPa) = 132.64613 72.77361 77.12782
#
# Poissons Ratio (x) = 0.25522 0.20983
# Poissons Ratio (y) = 0.46520 -0.02591
# Poissons Ratio (z) = 0.36087 -0.02445
#
# Static dielectric constant tensor:
#      x y z
#    x 1.942690 0.000000 0.000000 
#    y 0.000000 1.876040 0.000000 
#    z 0.000000 0.000000 1.948810 
# 
# From -- ./inp_files/37213.got.cif
#   From: 2010.05.17/outbox.cif.g08.bks.cpg/sg24_19_cif.got.tgz:37213.got - 2010.06.04 00:33:39.
