data_PCOD9336413
_publ_section_title
;
Structure prediction by ZEFSAII (Michael W. Deem and Ramdas Pophale) SiO2 
 PCOD9336413
Probable space group: I 21 21 21
;
_chemical_formula_sum "Si O2"
_cell_formula_units_Z 60
_cell_length_a 19.450561
_cell_length_b 6.488991
_cell_length_c 24.337867
_cell_angle_alpha 90.000000
_cell_angle_beta 90.000000
_cell_angle_gamma 90.000000
_cell_volume 3071.792086
_symmetry_space_group_name_H-M "I 21 21 21"
_symmetry_group_IT_number 24
_symmetry_cell_setting 'orthorhombic'
loop_
_space_group_symop_operation_xyz
x,y,z
-x,1/2-y,z
x,-y,1/2-z
1/2-x,y,-z
1/2+x,1/2+y,1/2+z
1/2-x,-y,1/2+z
1/2+x,1/2-y,-z
-x,1/2+y,1/2-z
loop_
_atom_site_type_symbol
_atom_site_label
_atom_site_fract_x
_atom_site_fract_y
_atom_site_fract_z
Si Si1 0.207221 0.928772 0.694955
Si Si2 0.758564 0.180431 0.373907
Si Si3 0.175478 0.677008 0.590340
Si Si4 0.167228 0.353668 0.203392
Si Si5 0.429940 0.388952 0.997092
Si Si6 0.127256 0.807778 0.040181
Si Si7 0.750000 0.579325 0.500000
Si Si8 0.923113 0.326271 0.109812
O O1 0.169687 0.788887 0.649103
O O2 0.270815 0.797093 0.720275
O O3 0.167677 0.000000 0.750000
O O4 0.236200 0.116743 0.658477
O O5 0.814062 0.217009 0.420688
O O6 0.694548 0.060055 0.399418
O O7 0.794512 0.020854 0.333590
O O8 0.110197 0.679276 0.551049
O O9 0.236913 0.782952 0.554422
O O10 0.133995 0.500000 0.250000
O O11 0.118437 0.215557 0.165177
O O12 0.500000 0.250000 0.997389
O O13 0.419877 0.637433 0.990327
O O14 0.395535 0.314895 0.939993
O O15 0.179017 0.947058 0.002904
O O16 0.082152 0.949169 0.081853
O O17 0.000000 0.250000 0.120559
#
# Coordination Sequence:
#
# PCOD9336413 Si02
#       8
#     8   8   8   8   8   8   4   8
#     4  11  22  38  62  95 126 165 209 263 341 392
#     4  11  20  36  60  89 122 160 200 269 325 379
#     4  11  23  37  59  98 130 157 215 269 327 405
#     4  11  21  38  60  86 127 166 219 266 315 378
#     4  11  25  42  61  87 128 178 214 262 325 395
#     4  12  21  39  64  88 125 168 209 264 330 385
#     4  12  20  36  60  96 126 156 204 268 336 398
#     4  11  24  41  58  88 129 173 223 269 306 377
#
# _framework density 19.532571999999998
#
# number of rings (size 3 to 8) (size 9 to 14) (size 15 to 20)
#    0.000    0.800    6.667    2.400    0.000    2.133 
#    0.000    2.000    0.000    0.000    3.467    0.000 
#    0.000    0.000    0.000    0.000    0.000    0.000 
#
# Total GULP energy -167082.061559 kJ/mol
# GULP energy per Si atom -5569.402052 kJ/mol
# Density = 1.948812 g / cm^3
# Si number density = 19.532572 Si / 1000 Ang^3
#
#
#
# Elastic Constant Matrix: (Units=GPa)
#
#
# Indices 1 2 3 4 5 6 
#
# 1 61.6375 27.2552 28.8063 0.0000 0.0000 0.0000
# 2 27.2552 99.4158 30.6903 0.0000 0.0000 0.0000
# 3 28.8063 30.6903 103.9653 0.0000 0.0000 0.0000
# 4 0.0000 0.0000 0.0000 38.1731 0.0000 0.0000
# 5 0.0000 0.0000 0.0000 0.0000 18.9233 0.0000
# 6 0.0000 0.0000 0.0000 0.0000 0.0000 16.1237
#
#
#
# Elastic Compliance Matrix: (Units=1/GPa)
#
#
# Indices 1 2 3 4 5 6 
#
# 1 0.020095 -0.004170 -0.004337 0.000000 0.000000 0.000000
# 2 -0.004170 0.011933 -0.002367 0.000000 0.000000 0.000000
# 3 -0.004337 -0.002367 0.011519 0.000000 0.000000 0.000000
# 4 0.000000 0.000000 0.000000 0.026196 0.000000 0.000000
# 5 0.000000 0.000000 0.000000 0.000000 0.052845 0.000000
# 6 0.000000 0.000000 0.000000 0.000000 0.000000 0.062020
#
#
# Mechanical properties :
#
#
# Convention : Reuss Voigt Hill
#
# Bulk Modulus (GPa) = 45.87499 48.72469 47.29984
# Shear Modulus (GPa) = 23.40579 26.52848 24.96714
#
# Velocity S-wave (km/s) = 3.46540 3.68933 3.57911
# Velocity P-wave (km/s) = 6.28883 6.56869 6.43028
#
# Compressibility (1/GPa) = 0.02179837
#
# Stress axis : x y z
#
# Youngs Moduli (GPa) = 49.76441 83.80278 86.81355
#
# Poissons Ratio (x) = 0.34948 0.37648
# Poissons Ratio (y) = 0.20753 0.20549
# Poissons Ratio (z) = 0.21581 0.19837
#
# Static dielectric constant tensor:
#      x y z
#    x 1.707170 0.000000 0.000000 
#    y 0.000000 1.858970 0.000000 
#    z 0.000000 0.000000 1.742980 
# 
# From -- ./inp_files/36104.got.cif
#   From: 2010.05.17/outbox.cif.g08.bks.cpg/sg24_19_cif.got.tgz:36104.got - 2010.06.04 00:33:39.
