data_PCOD9336367
_publ_section_title
;
Structure prediction by ZEFSAII (Michael W. Deem and Ramdas Pophale) SiO2 
 PCOD9336367
Probable space group: I 21 21 21
;
_chemical_formula_sum "Si O2"
_cell_formula_units_Z 64
_cell_length_a 25.711301
_cell_length_b 11.292478
_cell_length_c 12.363205
_cell_angle_alpha 90.000000
_cell_angle_beta 90.000000
_cell_angle_gamma 90.000000
_cell_volume 3589.586113
_symmetry_space_group_name_H-M "I 21 21 21"
_symmetry_group_IT_number 24
_symmetry_cell_setting 'orthorhombic'
loop_
_space_group_symop_operation_xyz
x,y,z
-x,1/2-y,z
x,-y,1/2-z
1/2-x,y,-z
1/2+x,1/2+y,1/2+z
1/2-x,-y,1/2+z
1/2+x,1/2-y,-z
-x,1/2+y,1/2-z
loop_
_atom_site_type_symbol
_atom_site_label
_atom_site_fract_x
_atom_site_fract_y
_atom_site_fract_z
Si Si1 0.373859 0.858000 0.412969
Si Si2 0.705237 0.356805 0.261803
Si Si3 0.962669 0.646226 0.990142
Si Si4 0.655584 0.618898 0.010611
Si Si5 0.089860 0.254309 0.126829
Si Si6 0.025963 0.872354 0.735956
Si Si7 0.322161 0.860280 0.771785
Si Si8 0.497616 0.437027 0.864703
O O1 0.333365 0.806436 0.327679
O O2 0.386346 0.769244 0.508981
O O3 0.424587 0.892088 0.341716
O O4 0.351721 0.978373 0.466688
O O5 0.701471 0.500000 0.250000
O O6 0.682843 0.330410 0.381711
O O7 0.764453 0.327904 0.231924
O O8 0.902647 0.660844 0.019752
O O9 0.959904 0.652611 0.860251
O O10 0.000000 0.750000 0.030797
O O11 0.986991 0.526445 0.038781
O O12 0.685440 0.645334 0.901037
O O13 0.133246 0.219706 0.216440
O O14 0.059407 0.378496 0.128498
O O15 0.042901 0.160425 0.136421
O O16 0.000000 0.750000 0.695311
O O17 0.997121 0.000000 0.750000
O O18 0.334305 0.000000 0.750000
O O19 0.501111 0.500000 0.750000
#
# Coordination Sequence:
#
# PCOD9336367 Si02
#       8
#     8   8   8   8   8   8   8   8
#     4  11  19  35  54  79 115 147 188 233 287 342
#     4   9  20  32  52  80 112 148 184 236 290 341
#     4  11  22  35  56  82 114 149 184 233 287 343
#     4  11  18  33  54  77 116 151 188 221 288 345
#     4  11  23  36  58  83 109 158 182 230 284 341
#     4  11  21  34  54  81 114 155 188 232 288 346
#     4  11  20  34  51  81 114 147 188 234 286 341
#     4  11  24  38  54  82 117 148 192 226 282 350
#
# _framework density 17.829353999999999
#
# number of rings (size 3 to 8) (size 9 to 14) (size 15 to 20)
#    0.000    1.250    5.000    1.875    7.000    0.500 
#    0.000    0.000    0.000    0.000    0.000    4.375 
#    0.000    0.000    0.000    0.000    0.000    0.000 
#
# Total GULP energy -178298.484153 kJ/mol
# GULP energy per Si atom -5571.827630 kJ/mol
# Density = 1.778877 g / cm^3
# Si number density = 17.829354 Si / 1000 Ang^3
#
#
#
# Elastic Constant Matrix: (Units=GPa)
#
#
# Indices 1 2 3 4 5 6 
#
# 1 86.4584 21.1178 28.3843 0.0000 0.0000 0.0000
# 2 21.1178 37.1771 1.8472 0.0000 0.0000 0.0000
# 3 28.3843 1.8472 101.8467 0.0000 0.0000 0.0000
# 4 0.0000 0.0000 0.0000 2.7280 0.0000 0.0000
# 5 0.0000 0.0000 0.0000 0.0000 74.8403 0.0000
# 6 0.0000 0.0000 0.0000 0.0000 0.0000 15.3703
#
#
#
# Elastic Compliance Matrix: (Units=1/GPa)
#
#
# Indices 1 2 3 4 5 6 
#
# 1 0.014899 -0.008264 -0.004002 0.000000 0.000000 0.000000
# 2 -0.008264 0.031507 0.001732 0.000000 0.000000 0.000000
# 3 -0.004002 0.001732 0.010903 0.000000 0.000000 0.000000
# 4 0.000000 0.000000 0.000000 0.366563 0.000000 0.000000
# 5 0.000000 0.000000 0.000000 0.000000 0.013362 0.000000
# 6 0.000000 0.000000 0.000000 0.000000 0.000000 0.065061
#
#
# Mechanical properties :
#
#
# Convention : Reuss Voigt Hill
#
# Bulk Modulus (GPa) = 27.59493 36.46454 32.02973
# Shear Modulus (GPa) = 9.33808 30.19660 19.76734
#
# Velocity S-wave (km/s) = 2.29104 4.11986 3.33332
# Velocity P-wave (km/s) = 4.74440 6.56714 5.72873
#
# Compressibility (1/GPa) = 0.03623855
#
# Stress axis : x y z
#
# Youngs Moduli (GPa) = 67.11962 31.73946 91.72032
#
# Poissons Ratio (x) = 0.26230 0.36710
# Poissons Ratio (y) = 0.55469 -0.15884
# Poissons Ratio (z) = 0.26864 -0.05496
#
# Static dielectric constant tensor:
#      x y z
#    x 1.636600 0.000000 0.000000 
#    y 0.000000 1.636790 0.000000 
#    z 0.000000 0.000000 1.639940 
# 
# From -- ./inp_files/20130.got.cif
#   From: 2010.05.17/outbox.cif.g08.bks.cpg/sg24_11_cif.got.tgz:20130.got - 2010.06.04 00:33:39.
