data_PCOD9336571
_publ_section_title
;
Structure prediction by ZEFSAII (Michael W. Deem and Ramdas Pophale) SiO2 
 PCOD9336571
Probable space group: I 21 21 21
;
_chemical_formula_sum "Si O2"
_cell_formula_units_Z 60
_cell_length_a 12.646947
_cell_length_b 8.874079
_cell_length_c 28.334420
_cell_angle_alpha 90.000000
_cell_angle_beta 90.000000
_cell_angle_gamma 90.000000
_cell_volume 3179.972149
_symmetry_space_group_name_H-M "I 21 21 21"
_symmetry_group_IT_number 24
_symmetry_cell_setting 'orthorhombic'
loop_
_space_group_symop_operation_xyz
x,y,z
-x,1/2-y,z
x,-y,1/2-z
1/2-x,y,-z
1/2+x,1/2+y,1/2+z
1/2-x,-y,1/2+z
1/2+x,1/2-y,-z
-x,1/2+y,1/2-z
loop_
_atom_site_type_symbol
_atom_site_label
_atom_site_fract_x
_atom_site_fract_y
_atom_site_fract_z
Si Si1 0.291838 0.851938 0.777687
Si Si2 0.000000 0.750000 0.514237
Si Si3 0.906288 0.128984 0.710076
Si Si4 0.573730 0.869426 0.714338
Si Si5 0.831532 0.533882 0.461511
Si Si6 0.117132 0.819529 0.125025
Si Si7 0.789378 0.166685 0.948073
Si Si8 0.257738 0.480443 0.642421
O O1 0.192572 0.739370 0.779704
O O2 0.374188 0.749451 0.749886
O O3 0.346151 0.901525 0.826915
O O4 0.260440 0.000000 0.750000
O O5 0.069586 0.871705 0.484251
O O6 0.085164 0.667348 0.546710
O O7 0.858291 0.038511 0.665408
O O8 0.000000 0.250000 0.702770
O O9 0.926615 0.000000 0.750000
O O10 0.500000 0.750000 0.685960
O O11 0.530754 0.000000 0.750000
O O12 0.660491 0.947998 0.680544
O O13 0.750000 0.461152 0.500000
O O14 0.870265 0.421347 0.421227
O O15 0.756009 0.665259 0.441432
O O16 0.196961 0.679581 0.126144
O O17 0.000000 0.750000 0.129007
O O18 0.747733 0.075989 0.904503
O O19 0.750000 0.115704 0.000000
#
# Coordination Sequence:
#
# PCOD9336571 Si02
#       8
#     8   4   8   8   8   8   8   8
#     4  11  23  41  62  94 134 168 216 263 314 380
#     4   8  18  44  68  88 120 154 212 258 314 370
#     4  11  22  45  65  92 129 174 220 271 316 371
#     4  12  23  42  65  93 135 174 208 262 321 381
#     4   9  21  42  65  92 123 159 210 261 309 382
#     4  11  25  38  60  94 132 164 206 254 318 380
#     4   9  21  42  68  89 122 161 206 263 312 373
#     4  11  24  43  61  96 133 161 214 265 312 381
#
# _framework density 18.868091
#
# number of rings (size 3 to 8) (size 9 to 14) (size 15 to 20)
#    0.000    1.867    4.000    1.200    7.467    0.533 
#   12.000    0.000    0.000    0.000    0.000    0.000 
#    0.000    0.000    0.000    0.000    0.000    0.000 
#
# Total GULP energy -167048.415961 kJ/mol
# GULP energy per Si atom -5568.280532 kJ/mol
# Density = 1.882515 g / cm^3
# Si number density = 18.868091 Si / 1000 Ang^3
#
#
#
# Elastic Constant Matrix: (Units=GPa)
#
#
# Indices 1 2 3 4 5 6 
#
# 1 81.9100 18.1486 22.6786 0.0000 0.0000 0.0000
# 2 18.1486 72.4257 44.9587 0.0000 0.0000 0.0000
# 3 22.6786 44.9587 100.3988 0.0000 0.0000 0.0000
# 4 0.0000 0.0000 0.0000 -61.3304 0.0000 0.0000
# 5 0.0000 0.0000 0.0000 0.0000 -26.9666 0.0000
# 6 0.0000 0.0000 0.0000 0.0000 0.0000 28.5793
#
#
#
# Elastic Compliance Matrix: (Units=1/GPa)
#
#
# Indices 1 2 3 4 5 6 
#
# 1 0.013234 -0.002023 -0.002083 0.000000 0.000000 0.000000
# 2 -0.002023 0.019432 -0.008245 0.000000 0.000000 0.000000
# 3 -0.002083 -0.008245 0.014123 0.000000 0.000000 0.000000
# 4 0.000000 0.000000 0.000000 -0.016305 0.000000 0.000000
# 5 0.000000 0.000000 0.000000 0.000000 -0.037083 0.000000
# 6 0.000000 0.000000 0.000000 0.000000 0.000000 0.034990
#
#
# Mechanical properties :
#
#
# Convention : Reuss Voigt Hill
#
# Bulk Modulus (GPa) = 45.27647 47.36737 46.32192
# Shear Modulus (GPa) = 82.70575 -0.68031 41.01272
#
# Velocity S-wave (km/s) = 6.62788 -0.60112 4.66731
# Velocity P-wave (km/s) = 9.08956 4.96761 7.32453
#
# Compressibility (1/GPa) = 0.02208653
#
# Stress axis : x y z
#
# Youngs Moduli (GPa) = 75.56551 51.46114 70.80677
#
# Poissons Ratio (x) = 0.10409 0.14752
# Poissons Ratio (y) = 0.15285 0.58379
# Poissons Ratio (z) = 0.15744 0.42429
#
# Static dielectric constant tensor:
#      x y z
#    x 1.766260 0.000000 0.000000 
#    y 0.000000 1.668360 0.000000 
#    z 0.000000 0.000000 1.678270 
# 
# From -- ./inp_files/37218.got.cif
#   From: 2010.05.17/outbox.cif.g08.bks.cpg/sg24_19_cif.got.tgz:37218.got - 2010.06.04 00:33:39.
