data_PCOD9336299
_publ_section_title
;
Structure prediction by ZEFSAII (Michael W. Deem and Ramdas Pophale) SiO2 
 PCOD9336299
Probable space group: I 21 21 21
;
_chemical_formula_sum "Si O2"
_cell_formula_units_Z 60
_cell_length_a 8.228275
_cell_length_b 30.703680
_cell_length_c 11.460581
_cell_angle_alpha 90.000000
_cell_angle_beta 90.000000
_cell_angle_gamma 90.000000
_cell_volume 2895.381959
_symmetry_space_group_name_H-M "I 21 21 21"
_symmetry_group_IT_number 24
_symmetry_cell_setting 'orthorhombic'
loop_
_space_group_symop_operation_xyz
x,y,z
-x,1/2-y,z
x,-y,1/2-z
1/2-x,y,-z
1/2+x,1/2+y,1/2+z
1/2-x,-y,1/2+z
1/2+x,1/2-y,-z
-x,1/2+y,1/2-z
loop_
_atom_site_type_symbol
_atom_site_label
_atom_site_fract_x
_atom_site_fract_y
_atom_site_fract_z
Si Si1 0.119145 0.119349 0.156967
Si Si2 0.082575 0.590203 0.562208
Si Si3 0.074930 0.113797 0.559942
Si Si4 0.725503 0.714933 0.368561
Si Si5 0.000000 0.750000 0.201265
Si Si6 0.055012 0.668603 0.740754
Si Si7 0.398984 0.341469 0.644012
Si Si8 0.877224 0.549417 0.750457
O O1 0.206089 0.165228 0.130796
O O2 0.235948 0.083117 0.212991
O O3 0.978766 0.132962 0.247453
O O4 0.046493 0.100151 0.038657
O O5 0.250000 0.579031 0.500000
O O6 0.097077 0.633887 0.639901
O O7 0.016018 0.554848 0.652686
O O8 0.250000 0.114887 0.500000
O O9 0.056233 0.067636 0.625956
O O10 0.069389 0.148362 0.665238
O O11 0.939566 0.128335 0.466615
O O12 0.750000 0.732050 0.500000
O O13 0.842132 0.742732 0.283835
O O14 0.542435 0.707133 0.322079
O O15 0.984972 0.794450 0.128695
O O16 0.217723 0.671627 0.817744
O O17 0.820057 0.500000 0.750000
#
# Coordination Sequence:
#
# PCOD9336299 Si02
#       8
#     8   8   8   8   4   8   8   8
#     4  11  19  40  69  93 132 176 223 277 339 421
#     4  11  21  39  67 100 130 174 218 280 348 419
#     4  11  21  42  68  91 130 180 225 276 338 417
#     4  11  20  39  64  96 133 177 222 285 356 403
#     4  10  26  40  60  96 138 172 236 290 324 416
#     4  11  22  38  69  95 126 177 232 273 345 425
#     4  11  23  42  64  97 132 184 230 273 351 407
#     4  11  24  42  69 105 133 175 235 284 343 421
#
# _framework density 20.722655
#
# number of rings (size 3 to 8) (size 9 to 14) (size 15 to 20)
#    0.000    1.067    6.667    1.600    0.000    2.667 
#    0.000    7.333    0.000    0.000    0.000    0.000 
#    0.000    0.000    0.000    0.000    0.000    0.000 
#
# Total GULP energy -167487.254663 kJ/mol
# GULP energy per Si atom -5582.908489 kJ/mol
# Density = 2.067549 g / cm^3
# Si number density = 20.722655 Si / 1000 Ang^3
#
#
#
# Elastic Constant Matrix: (Units=GPa)
#
#
# Indices 1 2 3 4 5 6 
#
# 1 98.6521 18.6998 42.8540 -0.0001 0.0001 0.0000
# 2 18.6998 93.5792 32.1106 -0.0001 0.0000 0.0000
# 3 42.8540 32.1106 105.1617 -0.0016 0.0000 0.0006
# 4 -0.0001 -0.0001 -0.0016 11.6592 0.0000 0.0001
# 5 0.0001 0.0000 0.0000 0.0000 42.2025 -0.0001
# 6 0.0000 0.0000 0.0006 0.0001 -0.0001 17.0098
#
#
#
# Elastic Compliance Matrix: (Units=1/GPa)
#
#
# Indices 1 2 3 4 5 6 
#
# 1 0.012374 -0.000829 -0.004789 -0.000001 0.000000 0.000000
# 2 -0.000829 0.011992 -0.003324 0.000000 0.000000 0.000000
# 3 -0.004789 -0.003324 0.012476 0.000002 0.000000 0.000000
# 4 -0.000001 0.000000 0.000002 0.085769 0.000000 -0.000001
# 5 0.000000 0.000000 0.000000 0.000000 0.023695 0.000000
# 6 0.000000 0.000000 0.000000 -0.000001 0.000000 0.058790
#
#
# Mechanical properties :
#
#
# Convention : Reuss Voigt Hill
#
# Bulk Modulus (GPa) = 52.74992 53.85798 53.30395
# Shear Modulus (GPa) = 21.80541 27.75620 24.78081
#
# Velocity S-wave (km/s) = 3.24736 3.66377 3.46183
# Velocity P-wave (km/s) = 6.29054 6.62902 6.46200
#
# Compressibility (1/GPa) = 0.01895738
#
# Stress axis : x y z
#
# Youngs Moduli (GPa) = 80.81258 83.38612 80.15528
#
# Poissons Ratio (x) = 0.06915 0.38389
# Poissons Ratio (y) = 0.06702 0.26643
# Poissons Ratio (z) = 0.38704 0.27716
#
# Static dielectric constant tensor:
#      x y z
#    x 1.798940 0.000000 0.000000 
#    y 0.000000 1.706110 0.000000 
#    z 0.000000 0.000000 1.758680 
# 
# From -- ./inp_files/18887.got.cif
#   From: 2010.05.17/outbox.cif.g08.bks.cpg/sg24_10_cif.got.tgz:18887.got - 2010.06.04 00:33:39.
