data_PCOD9336830
_publ_section_title
;
Structure prediction by ZEFSAII (Michael W. Deem and Ramdas Pophale) SiO2 
 PCOD9336830
Probable space group: I 21 21 21
;
_chemical_formula_sum "Si O2"
_cell_formula_units_Z 28
_cell_length_a 6.625439
_cell_length_b 19.266226
_cell_length_c 8.315505
_cell_angle_alpha 90.000000
_cell_angle_beta 90.000000
_cell_angle_gamma 90.000000
_cell_volume 1061.450972
_symmetry_space_group_name_H-M "I 21 21 21"
_symmetry_group_IT_number 24
_symmetry_cell_setting 'orthorhombic'
loop_
_space_group_symop_operation_xyz
x,y,z
-x,1/2-y,z
x,-y,1/2-z
1/2-x,y,-z
1/2+x,1/2+y,1/2+z
1/2-x,-y,1/2+z
1/2+x,1/2-y,-z
-x,1/2+y,1/2-z
loop_
_atom_site_type_symbol
_atom_site_label
_atom_site_fract_x
_atom_site_fract_y
_atom_site_fract_z
Si Si1 0.500000 0.250000 0.741270
Si Si2 0.904155 0.320483 0.797685
Si Si3 0.750000 0.896949 0.500000
Si Si4 0.048703 0.500000 0.250000
Si Si5 0.978272 0.113790 0.472225
O O1 0.557123 0.185012 0.628087
O O2 0.318679 0.211081 0.836579
O O3 0.911598 0.368071 0.638412
O O4 0.000000 0.250000 0.735955
O O5 0.060282 0.353691 0.926472
O O6 0.672423 0.945238 0.643427
O O7 0.930402 0.449837 0.370677
O O8 0.750000 0.088186 0.500000
#
# Coordination Sequence:
#
# PCOD9336830 Si02
#       5
#     4   8   4   4   8
#     4  12  24  48  86 124 156 224 298 356 432 510
#     4  12  25  49  79 124 164 219 286 366 433 503
#     4  12  24  48  78 124 178 230 290 356 430 510
#     4  12  24  46  78 124 170 238 286 354 412 530
#     4  12  21  46  85 117 167 222 282 350 430 506
#
# _framework density 26.378986000000001
#
# number of rings (size 3 to 8) (size 9 to 14) (size 15 to 20)
#    0.000    0.000    8.571    0.857    0.000    0.000 
#   10.286    7.143    0.000    1.714    0.000    0.000 
#    0.000    0.000    0.000    0.000    0.000    0.000 
#
# Total GULP energy -78199.948308 kJ/mol
# GULP energy per Si atom -5585.710593 kJ/mol
# Density = 2.631895 g / cm^3
# Si number density = 26.378986 Si / 1000 Ang^3
#
#
#
# Elastic Constant Matrix: (Units=GPa)
#
#
# Indices 1 2 3 4 5 6 
#
# 1 186.8166 97.5068 98.9609 0.0000 -0.0001 0.0001
# 2 97.5068 185.1312 97.6282 -0.0003 -0.0001 0.0000
# 3 98.9609 97.6282 182.0864 0.0011 -0.0007 0.0007
# 4 0.0000 -0.0003 0.0011 65.7461 -0.0001 0.0001
# 5 -0.0001 -0.0001 -0.0007 -0.0001 29.1705 0.0001
# 6 0.0001 0.0000 0.0007 0.0001 0.0001 41.6161
#
#
#
# Elastic Compliance Matrix: (Units=1/GPa)
#
#
# Indices 1 2 3 4 5 6 
#
# 1 0.008463 -0.002833 -0.003081 0.000000 0.000000 0.000000
# 2 -0.002833 0.008479 -0.003007 0.000000 0.000000 0.000000
# 3 -0.003081 -0.003007 0.008778 0.000000 0.000000 0.000000
# 4 0.000000 0.000000 0.000000 0.015210 0.000000 0.000000
# 5 0.000000 0.000000 0.000000 0.000000 0.034281 0.000000
# 6 0.000000 0.000000 0.000000 0.000000 0.000000 0.024029
#
#
# Mechanical properties :
#
#
# Convention : Reuss Voigt Hill
#
# Bulk Modulus (GPa) = 126.89985 126.91401 126.90693
# Shear Modulus (GPa) = 41.76807 44.63575 43.20191
#
# Velocity S-wave (km/s) = 3.98349 4.11797 4.05129
# Velocity P-wave (km/s) = 8.32877 8.41585 8.37242
#
# Compressibility (1/GPa) = 0.00788023
#
# Stress axis : x y z
#
# Youngs Moduli (GPa) = 118.15507 117.93608 113.91760
#
# Poissons Ratio (x) = 0.33411 0.35096
# Poissons Ratio (y) = 0.33473 0.34250
# Poissons Ratio (z) = 0.36401 0.35458
#
# Static dielectric constant tensor:
#      x y z
#    x 2.286230 0.000000 0.000000 
#    y 0.000000 1.959330 0.000000 
#    z 0.000000 0.000000 2.157750 
# 
# From -- ./inp_files/10167.got.cif
#   From: 2010.05.17/outbox.cif.g08.bks.cpg/sg24_6_cif.got.tgz:10167.got - 2010.06.04 00:33:39.
