data_PCOD9336345
_publ_section_title
;
Structure prediction by ZEFSAII (Michael W. Deem and Ramdas Pophale) SiO2 
 PCOD9336345
Probable space group: I 21 21 21
;
_chemical_formula_sum "Si O2"
_cell_formula_units_Z 40
_cell_length_a 5.742633
_cell_length_b 24.659586
_cell_length_c 11.958954
_cell_angle_alpha 90.000000
_cell_angle_beta 90.000000
_cell_angle_gamma 90.000000
_cell_volume 1693.518865
_symmetry_space_group_name_H-M "I 21 21 21"
_symmetry_group_IT_number 24
_symmetry_cell_setting 'orthorhombic'
loop_
_space_group_symop_operation_xyz
x,y,z
-x,1/2-y,z
x,-y,1/2-z
1/2-x,y,-z
1/2+x,1/2+y,1/2+z
1/2-x,-y,1/2+z
1/2+x,1/2-y,-z
-x,1/2+y,1/2-z
loop_
_atom_site_type_symbol
_atom_site_label
_atom_site_fract_x
_atom_site_fract_y
_atom_site_fract_z
Si Si1 0.750000 0.346490 0.000000
Si Si2 0.667686 0.826888 0.784718
Si Si3 0.144666 0.500000 0.250000
Si Si4 0.000000 0.250000 0.126735
Si Si5 0.686638 0.411003 0.631446
Si Si6 0.750000 0.220570 0.500000
Si Si7 0.452902 0.586056 0.325368
O O1 0.920813 0.302619 0.059142
O O2 0.620120 0.387090 0.084087
O O3 0.687226 0.771366 0.715236
O O4 0.428626 0.853141 0.832494
O O5 0.814147 0.816833 0.895205
O O6 0.756233 0.870166 0.697560
O O7 0.311830 0.530807 0.338640
O O8 0.989825 0.457737 0.322097
O O9 0.750000 0.413795 0.500000
O O10 0.909469 0.419127 0.709287
O O11 0.500000 0.250000 0.527523
#
# Coordination Sequence:
#
# PCOD9336345 Si02
#       7
#     4   8   4   4   8   4   8
#     4  12  26  46  78 107 159 204 260 318 390 484
#     4  11  25  43  73 109 157 199 267 313 401 479
#     4  10  26  52  74 116 144 198 258 332 416 480
#     4  12  24  46  70 114 152 214 250 316 382 478
#     4  11  24  50  77 110 149 201 259 332 402 482
#     4  12  28  42  74 113 155 210 256 334 396 482
#     4  11  25  50  74 109 151 199 258 329 394 491
#
# _framework density 23.619458999999999
#
# number of rings (size 3 to 8) (size 9 to 14) (size 15 to 20)
#    0.000    0.800    3.000    3.000    7.000    2.400 
#   10.800    0.000    0.000    0.000    0.000    0.000 
#    0.000    0.000    0.000    0.000    0.000    0.000 
#
# Total GULP energy -111532.983534 kJ/mol
# GULP energy per Si atom -5576.649177 kJ/mol
# Density = 2.356570 g / cm^3
# Si number density = 23.619459 Si / 1000 Ang^3
#
#
#
# Elastic Constant Matrix: (Units=GPa)
#
#
# Indices 1 2 3 4 5 6 
#
# 1 77.6353 33.5384 34.5889 -0.0001 0.0000 0.0000
# 2 33.5384 106.6228 33.0316 -0.0002 0.0000 0.0000
# 3 34.5889 33.0316 129.0647 -0.0008 -0.0001 0.0000
# 4 -0.0001 -0.0002 -0.0008 4.1285 -0.0001 0.0000
# 5 0.0000 0.0000 -0.0001 -0.0001 25.1765 0.0000
# 6 0.0000 0.0000 0.0000 0.0000 0.0000 -7.7498
#
#
#
# Elastic Compliance Matrix: (Units=1/GPa)
#
#
# Indices 1 2 3 4 5 6 
#
# 1 0.016088 -0.004046 -0.003276 -0.000001 0.000000 0.000000
# 2 -0.004046 0.011204 -0.001783 0.000000 0.000000 0.000000
# 3 -0.003276 -0.001783 0.009082 0.000002 0.000000 0.000000
# 4 -0.000001 0.000000 0.000002 0.242221 0.000000 -0.000001
# 5 0.000000 0.000000 0.000000 0.000000 0.039720 0.000000
# 6 0.000000 0.000000 0.000000 -0.000001 0.000000 -0.129035
#
#
# Mechanical properties :
#
#
# Convention : Reuss Voigt Hill
#
# Bulk Modulus (GPa) = 55.05262 57.29340 56.17301
# Shear Modulus (GPa) = 23.41434 18.45528 20.93481
#
# Velocity S-wave (km/s) = 3.15193 2.79831 2.98037
# Velocity P-wave (km/s) = 6.05021 5.89494 5.97308
#
# Compressibility (1/GPa) = 0.01816444
#
# Stress axis : x y z
#
# Youngs Moduli (GPa) = 62.15789 89.25515 110.10271
#
# Poissons Ratio (x) = 0.36109 0.36071
# Poissons Ratio (y) = 0.25146 0.19633
# Poissons Ratio (z) = 0.20364 0.15916
#
# Static dielectric constant tensor:
#      x y z
#    x 2.025640 0.000000 0.000000 
#    y 0.000000 1.997230 0.000000 
#    z 0.000000 0.000000 1.863320 
# 
# From -- ./inp_files/2552.got.cif
#   From: 2010.05.17/outbox.cif.g08.bks.cpg/sg24_2_cif.got.tgz:2552.got - 2010.06.04 00:33:39.
