data_PCOD9336295
_publ_section_title
;
Structure prediction by ZEFSAII (Michael W. Deem and Ramdas Pophale) SiO2 
 PCOD9336295
Probable space group: I 21 21 21
;
_chemical_formula_sum "Si O2"
_cell_formula_units_Z 28
_cell_length_a 25.725528
_cell_length_b 9.233732
_cell_length_c 5.223017
_cell_angle_alpha 90.000000
_cell_angle_beta 90.000000
_cell_angle_gamma 90.000000
_cell_volume 1240.689201
_symmetry_space_group_name_H-M "I 21 21 21"
_symmetry_group_IT_number 24
_symmetry_cell_setting 'orthorhombic'
loop_
_space_group_symop_operation_xyz
x,y,z
-x,1/2-y,z
x,-y,1/2-z
1/2-x,y,-z
1/2+x,1/2+y,1/2+z
1/2-x,-y,1/2+z
1/2+x,1/2-y,-z
-x,1/2+y,1/2-z
loop_
_atom_site_type_symbol
_atom_site_label
_atom_site_fract_x
_atom_site_fract_y
_atom_site_fract_z
Si Si1 0.188410 0.404041 0.502089
Si Si2 0.458528 0.345978 0.868343
Si Si3 0.964876 0.500000 0.750000
Si Si4 0.617621 0.355524 0.637928
O O1 0.178296 0.500000 0.250000
O O2 0.250000 0.371425 0.500000
O O3 0.155439 0.257435 0.496589
O O4 0.175615 0.500000 0.750000
O O5 0.500000 0.250000 0.707709
O O6 0.443040 0.500000 0.750000
O O7 0.409602 0.239274 0.865288
O O8 0.505084 0.104641 0.102327
O O9 0.926548 0.418132 0.552873
O O10 0.643589 0.500000 0.750000
#
# Coordination Sequence:
#
# PCOD9336295 Si02
#       4
#     8   8   4   8
#     4  10  25  54  82 110 147 194 256 321 389 462
#     4  12  24  43  62  94 143 195 245 294 355 440
#     4  12  26  42  70  92 156 198 242 304 366 448
#     4  12  27  45  69 111 148 194 255 314 384 452
#
# _framework density 22.568100999999999
#
# number of rings (size 3 to 8) (size 9 to 14) (size 15 to 20)
#    0.000    0.571    5.714    0.857    8.000    2.286 
#    5.143    0.000    0.000    0.000    0.000    0.000 
#    0.000    0.000    0.000    0.000    0.000    0.000 
#
# Total GULP energy -78150.873226 kJ/mol
# GULP energy per Si atom -5582.205230 kJ/mol
# Density = 2.251673 g / cm^3
# Si number density = 22.568101 Si / 1000 Ang^3
#
#
#
# Elastic Constant Matrix: (Units=GPa)
#
#
# Indices 1 2 3 4 5 6 
#
# 1 84.8336 87.7478 43.3455 0.0001 0.0001 -0.0001
# 2 87.7478 236.7871 70.9271 0.0004 0.0009 0.0001
# 3 43.3455 70.9271 122.4898 0.0011 0.0025 0.0002
# 4 0.0001 0.0004 0.0011 36.6218 0.0016 0.0002
# 5 0.0001 0.0009 0.0025 0.0016 -21.4101 0.0002
# 6 -0.0001 0.0001 0.0002 0.0002 0.0002 27.3198
#
#
#
# Elastic Compliance Matrix: (Units=1/GPa)
#
#
# Indices 1 2 3 4 5 6 
#
# 1 0.020226 -0.006474 -0.003408 0.000000 -0.000001 0.000000
# 2 -0.006474 0.007182 -0.001868 0.000000 0.000000 0.000000
# 3 -0.003408 -0.001868 0.010451 0.000000 0.000001 0.000000
# 4 0.000000 0.000000 0.000000 0.027306 0.000002 0.000000
# 5 -0.000001 0.000000 0.000001 0.000002 -0.046707 0.000000
# 6 0.000000 0.000000 0.000000 0.000000 0.000000 0.036603
#
#
# Mechanical properties :
#
#
# Convention : Reuss Voigt Hill
#
# Bulk Modulus (GPa) = 69.64410 94.23905 81.94157
# Shear Modulus (GPa) = 59.98861 24.64563 42.31712
#
# Velocity S-wave (km/s) = 5.16128 3.30821 4.33492
# Velocity P-wave (km/s) = 8.15138 7.51270 7.83855
#
# Compressibility (1/GPa) = 0.01435872
#
# Stress axis : x y z
#
# Youngs Moduli (GPa) = 49.44110 139.23990 95.68016
#
# Poissons Ratio (x) = 0.90149 0.32612
# Poissons Ratio (y) = 0.32010 0.17869
# Poissons Ratio (z) = 0.16852 0.26004
#
# Static dielectric constant tensor:
#      x y z
#    x 1.839150 0.000000 0.000000 
#    y 0.000000 1.996730 0.000000 
#    z 0.000000 0.000000 1.944390 
# 
# From -- ./inp_files/942.got.cif
#   From: 2010.05.17/outbox.cif.g08.bks.cpg/sg24_1_cif.got.tgz:942.got - 2010.06.04 00:33:39.
