data_PCOD9336859
_publ_section_title
;
Structure prediction by ZEFSAII (Michael W. Deem and Ramdas Pophale) SiO2 
 PCOD9336859
Probable space group: I 21 21 21
;
_chemical_formula_sum "Si O2"
_cell_formula_units_Z 36
_cell_length_a 6.877697
_cell_length_b 13.062166
_cell_length_c 19.405578
_cell_angle_alpha 90.000000
_cell_angle_beta 90.000000
_cell_angle_gamma 90.000000
_cell_volume 1743.350941
_symmetry_space_group_name_H-M "I 21 21 21"
_symmetry_group_IT_number 24
_symmetry_cell_setting 'orthorhombic'
loop_
_space_group_symop_operation_xyz
x,y,z
-x,1/2-y,z
x,-y,1/2-z
1/2-x,y,-z
1/2+x,1/2+y,1/2+z
1/2-x,-y,1/2+z
1/2+x,1/2-y,-z
-x,1/2+y,1/2-z
loop_
_atom_site_type_symbol
_atom_site_label
_atom_site_fract_x
_atom_site_fract_y
_atom_site_fract_z
Si Si1 0.427497 0.462736 0.356174
Si Si2 0.583026 0.000000 0.750000
Si Si3 0.500000 0.750000 0.216053
Si Si4 0.426172 0.147002 0.958851
Si Si5 0.255070 0.862406 0.686007
Si Si6 0.750000 0.999212 0.500000
O O1 0.228606 0.481211 0.313635
O O2 0.497451 0.352609 0.328640
O O3 0.585198 0.551816 0.333605
O O4 0.378501 0.453028 0.437845
O O5 0.431818 0.912392 0.727826
O O6 0.324687 0.769252 0.268984
O O7 0.500000 0.250000 0.995585
O O8 0.337907 0.175587 0.885974
O O9 0.250000 0.097632 0.000000
O O10 0.603035 0.070880 0.956833
#
# Coordination Sequence:
#
# PCOD9336859 Si02
#       6
#     8   4   4   8   8   4
#     4  12  26  48  69 104 141 184 236 290 348 420
#     4  12  22  46  70 100 136 184 226 282 364 400
#     4  12  26  46  70 102 144 176 242 292 334 424
#     4  12  26  40  67 105 141 183 229 287 361 421
#     4  12  26  44  68 105 141 175 233 299 347 407
#     4  12  26  46  68 100 148 188 230 282 350 426
#
# _framework density 20.649885999999999
#
# number of rings (size 3 to 8) (size 9 to 14) (size 15 to 20)
#    0.000    0.000   10.000    0.000    7.778    0.000 
#    0.000    4.444    0.000    0.000    0.000    0.000 
#    0.000    0.000    0.000    0.000    0.000    0.000 
#
# Total GULP energy -100410.039105 kJ/mol
# GULP energy per Si atom -5578.335506 kJ/mol
# Density = 2.060289 g / cm^3
# Si number density = 20.649886 Si / 1000 Ang^3
#
#
#
# Elastic Constant Matrix: (Units=GPa)
#
#
# Indices 1 2 3 4 5 6 
#
# 1 100.3684 14.9055 17.5088 0.0000 0.0000 0.0000
# 2 14.9055 47.6245 8.7293 0.0000 0.0000 0.0000
# 3 17.5088 8.7293 116.6492 0.0000 0.0000 0.0000
# 4 0.0000 0.0000 0.0000 19.4225 0.0000 0.0000
# 5 0.0000 0.0000 0.0000 0.0000 33.7254 0.0000
# 6 0.0000 0.0000 0.0000 0.0000 0.0000 30.2069
#
#
#
# Elastic Compliance Matrix: (Units=1/GPa)
#
#
# Indices 1 2 3 4 5 6 
#
# 1 0.010660 -0.003086 -0.001369 0.000000 0.000000 0.000000
# 2 -0.003086 0.022183 -0.001197 0.000000 0.000000 0.000000
# 3 -0.001369 -0.001197 0.008868 0.000000 0.000000 0.000000
# 4 0.000000 0.000000 0.000000 0.051487 0.000000 0.000000
# 5 0.000000 0.000000 0.000000 0.000000 0.029651 0.000000
# 6 0.000000 0.000000 0.000000 0.000000 0.000000 0.033105
#
#
# Mechanical properties :
#
#
# Convention : Reuss Voigt Hill
#
# Bulk Modulus (GPa) = 32.88646 38.54769 35.71707
# Shear Modulus (GPa) = 28.18603 31.57087 29.87845
#
# Velocity S-wave (km/s) = 3.69853 3.91431 3.80795
# Velocity P-wave (km/s) = 5.84800 6.25595 6.05541
#
# Compressibility (1/GPa) = 0.03040766
#
# Stress axis : x y z
#
# Youngs Moduli (GPa) = 93.80542 45.08021 112.76764
#
# Poissons Ratio (x) = 0.13910 0.15440
# Poissons Ratio (y) = 0.28944 0.13497
# Poissons Ratio (z) = 0.12844 0.05396
#
# Static dielectric constant tensor:
#      x y z
#    x 1.811780 0.000000 0.000000 
#    y 0.000000 1.732870 0.000000 
#    z 0.000000 0.000000 1.765290 
# 
# From -- ./inp_files/5415.got.cif
#   From: 2010.05.17/outbox.cif.g08.bks.cpg/sg24_3_cif.got.tgz:5415.got - 2010.06.04 00:33:39.
