data_PCOD9336540
_publ_section_title
;
Structure prediction by ZEFSAII (Michael W. Deem and Ramdas Pophale) SiO2 
 PCOD9336540
Probable space group: I 21 21 21
;
_chemical_formula_sum "Si O2"
_cell_formula_units_Z 64
_cell_length_a 14.549921
_cell_length_b 9.096185
_cell_length_c 22.659958
_cell_angle_alpha 90.000000
_cell_angle_beta 90.000000
_cell_angle_gamma 90.000000
_cell_volume 2999.017641
_symmetry_space_group_name_H-M "I 21 21 21"
_symmetry_group_IT_number 24
_symmetry_cell_setting 'orthorhombic'
loop_
_space_group_symop_operation_xyz
x,y,z
-x,1/2-y,z
x,-y,1/2-z
1/2-x,y,-z
1/2+x,1/2+y,1/2+z
1/2-x,-y,1/2+z
1/2+x,1/2-y,-z
-x,1/2+y,1/2-z
loop_
_atom_site_type_symbol
_atom_site_label
_atom_site_fract_x
_atom_site_fract_y
_atom_site_fract_z
Si Si1 0.515374 0.082585 0.499842
Si Si2 0.586891 0.644666 0.708400
Si Si3 0.047941 0.109663 0.374874
Si Si4 0.266203 0.320781 0.251273
Si Si5 0.328899 0.992710 0.450738
Si Si6 0.198200 0.454858 0.945151
Si Si7 0.111734 0.763568 0.646494
Si Si8 0.242183 0.742505 0.110883
O O1 0.500000 0.250000 0.480020
O O2 0.517959 0.086563 0.570082
O O3 0.426826 0.987694 0.482629
O O4 0.606120 0.020943 0.472094
O O5 0.500000 0.750000 0.715271
O O6 0.590112 0.500000 0.750000
O O7 0.570735 0.447280 0.851204
O O8 0.676738 0.743178 0.721164
O O9 0.146002 0.174138 0.392475
O O10 0.000000 0.250000 0.340640
O O11 0.261514 0.500000 0.250000
O O12 0.351806 0.257779 0.213289
O O13 0.268170 0.274297 0.320144
O O14 0.250000 0.957446 0.500000
O O15 0.345718 0.901325 0.390011
O O16 0.309126 0.156395 0.427463
O O17 0.162800 0.363409 0.890106
O O18 0.260303 0.584771 0.919561
O O19 0.250000 0.378602 0.000000
O O20 0.000000 0.750000 0.643149
#
# Coordination Sequence:
#
# PCOD9336540 Si02
#       8
#     8   8   8   8   8   8   8   8
#     4  11  22  41  69 106 140 185 235 289 364 432
#     4  12  26  45  71 104 143 190 237 295 360 422
#     4  11  24  42  69 108 145 185 244 299 354 445
#     4  12  28  50  74 103 144 195 249 301 361 431
#     4  12  24  44  73 104 145 185 232 301 366 431
#     4  12  24  45  73 103 141 190 234 298 370 432
#     4  12  28  50  71 104 146 185 243 307 362 431
#     4  12  24  46  73 101 143 190 245 296 357 434
#
# _framework density 21.340319999999998
#
# number of rings (size 3 to 8) (size 9 to 14) (size 15 to 20)
#    0.000    0.250    6.250    3.750    1.750    1.000 
#    6.750    0.000    0.000    0.000    0.000    0.000 
#    0.000    0.000    0.000    0.000    0.000    0.000 
#
# Total GULP energy -178500.352502 kJ/mol
# GULP energy per Si atom -5578.136016 kJ/mol
# Density = 2.129175 g / cm^3
# Si number density = 21.340320 Si / 1000 Ang^3
#
#
#
# Elastic Constant Matrix: (Units=GPa)
#
#
# Indices 1 2 3 4 5 6 
#
# 1 98.2397 10.0693 19.6001 0.0000 0.0000 0.0000
# 2 10.0693 82.3453 11.7595 0.0000 0.0000 0.0000
# 3 19.6001 11.7595 93.8891 0.0000 0.0000 0.0000
# 4 0.0000 0.0000 0.0000 24.9558 0.0000 0.0000
# 5 0.0000 0.0000 0.0000 0.0000 7.7232 0.0000
# 6 0.0000 0.0000 0.0000 0.0000 0.0000 49.9077
#
#
#
# Elastic Compliance Matrix: (Units=1/GPa)
#
#
# Indices 1 2 3 4 5 6 
#
# 1 0.010703 -0.001008 -0.002108 0.000000 0.000000 0.000000
# 2 -0.001008 0.012460 -0.001350 0.000000 0.000000 0.000000
# 3 -0.002108 -0.001350 0.011260 0.000000 0.000000 0.000000
# 4 0.000000 0.000000 0.000000 0.040071 0.000000 0.000000
# 5 0.000000 0.000000 0.000000 0.000000 0.129480 0.000000
# 6 0.000000 0.000000 0.000000 0.000000 0.000000 0.020037
#
#
# Mechanical properties :
#
#
# Convention : Reuss Voigt Hill
#
# Bulk Modulus (GPa) = 39.22957 39.70355 39.46656
# Shear Modulus (GPa) = 20.70902 32.05367 26.38135
#
# Velocity S-wave (km/s) = 3.11853 3.87980 3.51981
# Velocity P-wave (km/s) = 5.60265 6.22220 5.92054
#
# Compressibility (1/GPa) = 0.02549097
#
# Stress axis : x y z
#
# Youngs Moduli (GPa) = 93.43108 80.25660 88.80936
#
# Poissons Ratio (x) = 0.08088 0.18722
# Poissons Ratio (y) = 0.09415 0.11991
# Poissons Ratio (z) = 0.19697 0.10837
#
# Static dielectric constant tensor:
#      x y z
#    x 1.802710 0.000000 0.000000 
#    y 0.000000 1.878370 0.000000 
#    z 0.000000 0.000000 1.595880 
# 
# From -- ./inp_files/35870.got.cif
#   From: 2010.05.17/outbox.cif.g08.bks.cpg/sg24_18_cif.got.tgz:35870.got - 2010.06.04 00:33:39.
