data_PCOD9336162
_publ_section_title
;
Structure prediction by ZEFSAII (Michael W. Deem and Ramdas Pophale) SiO2 
 PCOD9336162
Probable space group: I 21 21 21
;
_chemical_formula_sum "Si O2"
_cell_formula_units_Z 40
_cell_length_a 18.897070
_cell_length_b 5.023555
_cell_length_c 18.250595
_cell_angle_alpha 90.000000
_cell_angle_beta 90.000000
_cell_angle_gamma 90.000000
_cell_volume 1732.537570
_symmetry_space_group_name_H-M "I 21 21 21"
_symmetry_group_IT_number 24
_symmetry_cell_setting 'orthorhombic'
loop_
_space_group_symop_operation_xyz
x,y,z
-x,1/2-y,z
x,-y,1/2-z
1/2-x,y,-z
1/2+x,1/2+y,1/2+z
1/2-x,-y,1/2+z
1/2+x,1/2-y,-z
-x,1/2+y,1/2-z
loop_
_atom_site_type_symbol
_atom_site_label
_atom_site_fract_x
_atom_site_fract_y
_atom_site_fract_z
Si Si1 0.000000 0.250000 0.303824
Si Si2 0.562112 0.455065 0.033508
Si Si3 0.320491 0.500000 0.250000
Si Si4 0.874460 0.435823 0.390441
Si Si5 0.750000 0.746860 0.000000
Si Si6 0.715862 0.500000 0.750000
Si Si7 0.870658 0.016656 0.592345
O O1 0.992376 0.500000 0.250000
O O2 0.929058 0.223666 0.353739
O O3 0.500000 0.250000 0.057071
O O4 0.574230 0.765067 0.056493
O O5 0.624473 0.293534 0.072245
O O6 0.571874 0.420081 0.946355
O O7 0.267807 0.749714 0.245950
O O8 0.369598 0.527865 0.179063
O O9 0.810833 0.377163 0.447742
O O10 0.834224 0.548949 0.320235
O O11 0.795673 0.905274 0.941140
#
# Coordination Sequence:
#
# PCOD9336162 Si02
#       7
#     4   8   4   8   4   4   8
#     4  12  30  48  74 110 160 204 246 306 384 468
#     4  11  27  46  73 106 145 191 246 306 375 448
#     4  12  26  46  73 107 146 190 246 316 374 448
#     4  11  27  46  74 110 153 199 251 303 378 452
#     4  10  24  44  70 108 144 192 246 304 360 436
#     4  12  26  44  69 107 152 194 244 302 378 458
#     4  11  25  45  73 104 143 188 246 304 376 440
#
# _framework density 23.087520999999999
#
# number of rings (size 3 to 8) (size 9 to 14) (size 15 to 20)
#    0.000    0.800    3.000    1.800   14.000    0.800 
#    0.000    2.000    0.000    0.000    0.000    0.000 
#    0.000    0.000    0.000    0.000    0.000    0.000 
#
# Total GULP energy -111346.296391 kJ/mol
# GULP energy per Si atom -5567.314820 kJ/mol
# Density = 2.303497 g / cm^3
# Si number density = 23.087521 Si / 1000 Ang^3
#
#
#
# Elastic Constant Matrix: (Units=GPa)
#
#
# Indices 1 2 3 4 5 6 
#
# 1 31.2990 -14.9331 -8.2829 0.0000 0.0000 0.0000
# 2 -14.9331 109.4073 3.1173 0.0000 0.0000 0.0000
# 3 -8.2829 3.1173 155.1525 0.0000 0.0000 0.0000
# 4 0.0000 0.0000 0.0000 14.5812 0.0000 0.0000
# 5 0.0000 0.0000 0.0000 0.0000 26.2334 0.0000
# 6 0.0000 0.0000 0.0000 0.0000 0.0000 15.8561
#
#
#
# Elastic Compliance Matrix: (Units=1/GPa)
#
#
# Indices 1 2 3 4 5 6 
#
# 1 0.034647 0.004679 0.001756 0.000000 0.000000 0.000000
# 2 0.004679 0.009777 0.000053 0.000000 0.000000 0.000000
# 3 0.001756 0.000053 0.006538 0.000000 0.000000 0.000000
# 4 0.000000 0.000000 0.000000 0.068582 0.000000 0.000000
# 5 0.000000 0.000000 0.000000 0.000000 0.038119 0.000000
# 6 0.000000 0.000000 0.000000 0.000000 0.000000 0.063067
#
#
# Mechanical properties :
#
#
# Convention : Reuss Voigt Hill
#
# Bulk Modulus (GPa) = 15.64015 28.40682 22.02348
# Shear Modulus (GPa) = 21.82766 32.39797 27.11282
#
# Velocity S-wave (km/s) = 3.07812 3.75009 3.43060
# Velocity P-wave (km/s) = 4.40705 5.57508 5.02512
#
# Compressibility (1/GPa) = 0.06393802
#
# Stress axis : x y z
#
# Youngs Moduli (GPa) = 28.86258 102.27806 152.95372
#
# Poissons Ratio (x) = -0.47855 -0.26853
# Poissons Ratio (y) = -0.13505 -0.00816
# Poissons Ratio (z) = -0.05067 -0.00546
#
# Static dielectric constant tensor:
#      x y z
#    x 2.011920 0.000000 0.000000 
#    y 0.000000 1.833410 0.000000 
#    z 0.000000 0.000000 1.924080 
# 
# From -- ./inp_files/28657.got.cif
#   From: 2010.05.17/outbox.cif.g08.bks.cpg/sg24_15_cif.got.tgz:28657.got - 2010.06.04 00:33:39.
