data_PCOD9336063
_publ_section_title
;
Structure prediction by ZEFSAII (Michael W. Deem and Ramdas Pophale) SiO2 
 PCOD9336063
Probable space group: I 21 21 21
;
_chemical_formula_sum "Si O2"
_cell_formula_units_Z 32
_cell_length_a 18.858548
_cell_length_b 16.507706
_cell_length_c 5.221691
_cell_angle_alpha 90.000000
_cell_angle_beta 90.000000
_cell_angle_gamma 90.000000
_cell_volume 1625.571758
_symmetry_space_group_name_H-M "I 21 21 21"
_symmetry_group_IT_number 24
_symmetry_cell_setting 'orthorhombic'
loop_
_space_group_symop_operation_xyz
x,y,z
-x,1/2-y,z
x,-y,1/2-z
1/2-x,y,-z
1/2+x,1/2+y,1/2+z
1/2-x,-y,1/2+z
1/2+x,1/2-y,-z
-x,1/2+y,1/2-z
loop_
_atom_site_type_symbol
_atom_site_label
_atom_site_fract_x
_atom_site_fract_y
_atom_site_fract_z
Si Si1 0.788826 0.264432 0.245343
Si Si2 0.947566 0.677308 0.339725
Si Si3 0.987876 0.414985 0.650848
Si Si4 0.629065 0.000000 0.250000
Si Si5 0.250000 0.397012 0.000000
O O1 0.750000 0.292126 0.500000
O O2 0.869638 0.288566 0.212600
O O3 0.775130 0.167361 0.215989
O O4 0.750000 0.301237 0.000000
O O5 0.965097 0.648516 0.629099
O O6 0.000000 0.750000 0.276325
O O7 0.963032 0.608246 0.130617
O O8 0.956890 0.500000 0.750000
O O9 0.073024 0.433076 0.644518
O O10 0.682932 0.952713 0.434598
#
# Coordination Sequence:
#
# PCOD9336063 Si02
#       5
#     8   8   8   4   4
#     4  10  24  41  63  98 133 167 229 272 344 392
#     4  12  23  41  72  94 135 180 232 283 328 400
#     4  10  25  42  65  98 136 170 231 270 341 399
#     4  10  24  40  64  98 142 176 214 264 354 428
#     4  10  24  38  64  96 142 172 212 266 352 422
#
# _framework density 19.685382000000001
#
# number of rings (size 3 to 8) (size 9 to 14) (size 15 to 20)
#    1.500    0.000    0.000    4.500    5.250    2.000 
#    0.000    0.000    0.000   15.000    0.000    0.000 
#    0.000    0.000    0.000    0.000    0.000    0.000 
#
# Total GULP energy -89139.263476 kJ/mol
# GULP energy per Si atom -5571.203967 kJ/mol
# Density = 1.964058 g / cm^3
# Si number density = 19.685382 Si / 1000 Ang^3
#
#
#
# Elastic Constant Matrix: (Units=GPa)
#
#
# Indices 1 2 3 4 5 6 
#
# 1 184.7655 23.9430 44.5322 0.0000 0.0000 0.0000
# 2 23.9430 42.7737 5.4246 0.0000 0.0000 0.0000
# 3 44.5322 5.4246 85.8979 0.0000 0.0000 0.0000
# 4 0.0000 0.0000 0.0000 92.9956 0.0000 0.0000
# 5 0.0000 0.0000 0.0000 0.0000 82.8691 0.0000
# 6 0.0000 0.0000 0.0000 0.0000 0.0000 46.7843
#
#
#
# Elastic Compliance Matrix: (Units=1/GPa)
#
#
# Indices 1 2 3 4 5 6 
#
# 1 0.006616 -0.003295 -0.003222 0.000000 0.000000 0.000000
# 2 -0.003295 0.025208 0.000116 0.000000 0.000000 0.000000
# 3 -0.003222 0.000116 0.013305 0.000000 0.000000 0.000000
# 4 0.000000 0.000000 0.000000 0.010753 0.000000 0.000000
# 5 0.000000 0.000000 0.000000 0.000000 0.012067 0.000000
# 6 0.000000 0.000000 0.000000 0.000000 0.000000 0.021375
#
#
# Mechanical properties :
#
#
# Convention : Reuss Voigt Hill
#
# Bulk Modulus (GPa) = 30.93281 51.24851 41.09066
# Shear Modulus (GPa) = 44.28685 60.49894 52.39290
#
# Velocity S-wave (km/s) = 4.74828 5.54974 5.16458
# Velocity P-wave (km/s) = 6.76825 8.19491 7.51551
#
# Compressibility (1/GPa) = 0.03232813
#
# Stress axis : x y z
#
# Youngs Moduli (GPa) = 151.15551 39.66947 75.16178
#
# Poissons Ratio (x) = 0.13070 0.24215
# Poissons Ratio (y) = 0.49800 -0.00873
# Poissons Ratio (z) = 0.48698 -0.00461
#
# Static dielectric constant tensor:
#      x y z
#    x 1.542420 0.000000 0.000000 
#    y 0.000000 1.710690 0.000000 
#    z 0.000000 0.000000 1.718040 
# 
# From -- ./inp_files/3138.got.cif
#   From: 2010.05.17/outbox.cif.g08.bks.cpg/sg24_2_cif.got.tgz:3138.got - 2010.06.04 00:33:39.
