data_PCOD9336418
_publ_section_title
;
Structure prediction by ZEFSAII (Michael W. Deem and Ramdas Pophale) SiO2 
 PCOD9336418
Probable space group: I 21 21 21
;
_chemical_formula_sum "Si O2"
_cell_formula_units_Z 36
_cell_length_a 17.603352
_cell_length_b 15.088262
_cell_length_c 7.492334
_cell_angle_alpha 90.000000
_cell_angle_beta 90.000000
_cell_angle_gamma 90.000000
_cell_volume 1989.993783
_symmetry_space_group_name_H-M "I 21 21 21"
_symmetry_group_IT_number 24
_symmetry_cell_setting 'orthorhombic'
loop_
_space_group_symop_operation_xyz
x,y,z
-x,1/2-y,z
x,-y,1/2-z
1/2-x,y,-z
1/2+x,1/2+y,1/2+z
1/2-x,-y,1/2+z
1/2+x,1/2-y,-z
-x,1/2+y,1/2-z
loop_
_atom_site_type_symbol
_atom_site_label
_atom_site_fract_x
_atom_site_fract_y
_atom_site_fract_z
Si Si1 0.940511 0.668835 0.757844
Si Si2 0.839525 0.765010 0.479655
Si Si3 0.072999 0.556832 0.595392
Si Si4 0.071752 0.182705 0.332866
Si Si5 0.001051 0.500000 0.250000
O O1 0.874725 0.695195 0.621043
O O2 0.000000 0.750000 0.760571
O O3 0.993869 0.591069 0.683169
O O4 0.911420 0.661011 0.960361
O O5 0.750000 0.772703 0.500000
O O6 0.880202 0.858459 0.526339
O O7 0.864168 0.730478 0.284310
O O8 0.112969 0.500000 0.750000
O O9 0.052344 0.496956 0.426353
O O10 0.047260 0.089918 0.243893
O O11 0.000000 0.250000 0.325782
#
# Coordination Sequence:
#
# PCOD9336418 Si02
#       5
#     8   8   8   8   4
#     4   9  19  35  61  84 109 154 210 251 289 343
#     4  11  23  40  58  86 133 168 191 242 315 385
#     4  11  21  38  62  94 119 153 212 260 303 352
#     4  11  20  37  63  92 113 157 216 261 298 349
#     4  12  20  34  68  92 114 150 212 272 296 340
#
# _framework density 18.090509999999998
#
# number of rings (size 3 to 8) (size 9 to 14) (size 15 to 20)
#    0.000    1.333    6.667    0.667    0.000    0.889 
#    2.000    0.000    7.333    0.000    0.000    0.000 
#    0.000    0.000    0.000    0.000    0.000    0.000 
#
# Total GULP energy -100402.386873 kJ/mol
# GULP energy per Si atom -5577.910382 kJ/mol
# Density = 1.804934 g / cm^3
# Si number density = 18.090510 Si / 1000 Ang^3
#
#
#
# Elastic Constant Matrix: (Units=GPa)
#
#
# Indices 1 2 3 4 5 6 
#
# 1 91.7532 21.7404 40.4265 0.0000 0.0000 0.0000
# 2 21.7404 78.8034 11.8313 0.0000 0.0000 0.0000
# 3 40.4265 11.8313 130.8313 0.0000 0.0000 0.0000
# 4 0.0000 0.0000 0.0000 31.8642 0.0000 0.0000
# 5 0.0000 0.0000 0.0000 0.0000 7.3157 0.0000
# 6 0.0000 0.0000 0.0000 0.0000 0.0000 7.3701
#
#
#
# Elastic Compliance Matrix: (Units=1/GPa)
#
#
# Indices 1 2 3 4 5 6 
#
# 1 0.013324 -0.003100 -0.003837 0.000000 0.000000 0.000000
# 2 -0.003100 0.013586 -0.000271 0.000000 0.000000 0.000000
# 3 -0.003837 -0.000271 0.008853 0.000000 0.000000 0.000000
# 4 0.000000 0.000000 0.000000 0.031383 0.000000 0.000000
# 5 0.000000 0.000000 0.000000 0.000000 0.136693 0.000000
# 6 0.000000 0.000000 0.000000 0.000000 0.000000 0.135682
#
#
# Mechanical properties :
#
#
# Convention : Reuss Voigt Hill
#
# Bulk Modulus (GPa) = 46.84188 49.93159 48.38673
# Shear Modulus (GPa) = 13.84842 24.46932 19.15887
#
# Velocity S-wave (km/s) = 2.76978 3.68177 3.25785
# Velocity P-wave (km/s) = 6.01483 6.76275 6.39973
#
# Compressibility (1/GPa) = 0.02134842
#
# Stress axis : x y z
#
# Youngs Moduli (GPa) = 75.05425 73.60730 112.95046
#
# Poissons Ratio (x) = 0.22816 0.43335
# Poissons Ratio (y) = 0.23265 0.03058
# Poissons Ratio (z) = 0.28796 0.01993
#
# Static dielectric constant tensor:
#      x y z
#    x 1.570590 0.000000 0.000000 
#    y 0.000000 1.655670 0.000000 
#    z 0.000000 0.000000 1.671510 
# 
# From -- ./inp_files/12190.got.cif
#   From: 2010.05.17/outbox.cif.g08.bks.cpg/sg24_7_cif.got.tgz:12190.got - 2010.06.04 00:33:39.
