data_PCOD9336430
_publ_section_title
;
Structure prediction by ZEFSAII (Michael W. Deem and Ramdas Pophale) SiO2 
 PCOD9336430
Probable space group: I 21 21 21
;
_chemical_formula_sum "Si O2"
_cell_formula_units_Z 60
_cell_length_a 26.773399
_cell_length_b 12.107403
_cell_length_c 7.610978
_cell_angle_alpha 90.000000
_cell_angle_beta 90.000000
_cell_angle_gamma 90.000000
_cell_volume 2467.146707
_symmetry_space_group_name_H-M "I 21 21 21"
_symmetry_group_IT_number 24
_symmetry_cell_setting 'orthorhombic'
loop_
_space_group_symop_operation_xyz
x,y,z
-x,1/2-y,z
x,-y,1/2-z
1/2-x,y,-z
1/2+x,1/2+y,1/2+z
1/2-x,-y,1/2+z
1/2+x,1/2-y,-z
-x,1/2+y,1/2-z
loop_
_atom_site_type_symbol
_atom_site_label
_atom_site_fract_x
_atom_site_fract_y
_atom_site_fract_z
Si Si1 0.876330 0.835737 0.682940
Si Si2 0.452356 0.674235 0.875447
Si Si3 0.419313 0.096401 0.106713
Si Si4 0.532298 0.075365 0.007504
Si Si5 0.209512 0.304309 0.094004
Si Si6 0.213580 0.362716 0.648528
Si Si7 0.155989 0.210479 0.434981
Si Si8 0.123763 0.000000 0.250000
O O1 0.892247 0.705850 0.680667
O O2 0.926905 0.895359 0.648868
O O3 0.837086 0.840316 0.521705
O O4 0.843631 0.898019 0.833018
O O5 0.500000 0.750000 0.919763
O O6 0.462389 0.553086 0.955961
O O7 0.454222 0.648652 0.665685
O O8 0.400515 0.735185 0.934025
O O9 0.408923 0.000000 0.250000
O O10 0.478800 0.105803 0.086390
O O11 0.404798 0.070548 0.901537
O O12 0.254053 0.379529 0.176860
O O13 0.183955 0.264370 0.270498
O O14 0.250000 0.221806 0.000000
O O15 0.250000 0.402799 0.500000
O O16 0.194756 0.237682 0.594465
O O17 0.151690 0.084704 0.377275
#
# Coordination Sequence:
#
# PCOD9336430 Si02
#       8
#     8   8   8   8   8   8   8   4
#     4  11  20  41  68  93 133 182 226 286 343 408
#     4  11  22  39  66 102 140 183 221 277 346 423
#     4  12  25  40  63  98 139 182 229 280 343 416
#     4  11  23  39  66 101 137 179 233 274 341 420
#     4   9  18  37  64  88 123 173 220 279 346 391
#     4   9  21  38  67  95 130 179 225 285 353 401
#     4  11  20  39  64  93 131 173 224 276 339 410
#     4  12  22  40  66  94 138 186 228 274 350 416
#
# _framework density 24.319592
#
# number of rings (size 3 to 8) (size 9 to 14) (size 15 to 20)
#    0.000    1.333    2.667    4.400    0.000    1.067 
#    0.000    3.333    7.333   12.000    0.000    0.000 
#    0.000    0.000    0.000    0.000    0.000    0.000 
#
# Total GULP energy -167030.511538 kJ/mol
# GULP energy per Si atom -5567.683718 kJ/mol
# Density = 2.426424 g / cm^3
# Si number density = 24.319592 Si / 1000 Ang^3
#
#
#
# Elastic Constant Matrix: (Units=GPa)
#
#
# Indices 1 2 3 4 5 6 
#
# 1 133.0215 56.2292 47.3322 0.0000 0.0000 0.0000
# 2 56.2292 121.4130 29.5741 0.0000 0.0000 0.0000
# 3 47.3322 29.5741 93.8772 0.0000 0.0000 0.0000
# 4 0.0000 0.0000 0.0000 32.6155 0.0000 0.0000
# 5 0.0000 0.0000 0.0000 0.0000 48.6196 0.0000
# 6 0.0000 0.0000 0.0000 0.0000 0.0000 92.7211
#
#
#
# Elastic Compliance Matrix: (Units=1/GPa)
#
#
# Indices 1 2 3 4 5 6 
#
# 1 0.010647 -0.003924 -0.004132 0.000000 0.000000 0.000000
# 2 -0.003924 0.010367 -0.001287 0.000000 0.000000 0.000000
# 3 -0.004132 -0.001287 0.013141 0.000000 0.000000 0.000000
# 4 0.000000 0.000000 0.000000 0.030660 0.000000 0.000000
# 5 0.000000 0.000000 0.000000 0.000000 0.020568 0.000000
# 6 0.000000 0.000000 0.000000 0.000000 0.000000 0.010785
#
#
# Mechanical properties :
#
#
# Convention : Reuss Voigt Hill
#
# Bulk Modulus (GPa) = 64.64905 68.28700 66.46802
# Shear Modulus (GPa) = 41.66293 49.13632 45.39962
#
# Velocity S-wave (km/s) = 4.14350 4.49981 4.32533
# Velocity P-wave (km/s) = 7.03792 7.42547 7.23429
#
# Compressibility (1/GPa) = 0.01546813
#
# Stress axis : x y z
#
# Youngs Moduli (GPa) = 93.92721 96.45651 76.09806
#
# Poissons Ratio (x) = 0.37852 0.31441
# Poissons Ratio (y) = 0.36860 0.09797
# Poissons Ratio (z) = 0.38807 0.12418
#
# Static dielectric constant tensor:
#      x y z
#    x 1.929370 0.000000 0.000000 
#    y 0.000000 2.053150 0.000000 
#    z 0.000000 0.000000 2.262900 
# 
# From -- ./inp_files/16445.got.cif
#   From: 2010.05.17/outbox.cif.g08.bks.cpg/sg24_9_cif.got.tgz:16445.got - 2010.06.04 00:33:39.
