data_PCOD9336110
_publ_section_title
;
Structure prediction by ZEFSAII (Michael W. Deem and Ramdas Pophale) SiO2 
 PCOD9336110
Probable space group: I 21 21 21
;
_chemical_formula_sum "Si O2"
_cell_formula_units_Z 32
_cell_length_a 29.285105
_cell_length_b 5.055690
_cell_length_c 9.239717
_cell_angle_alpha 90.000000
_cell_angle_beta 90.000000
_cell_angle_gamma 90.000000
_cell_volume 1367.999352
_symmetry_space_group_name_H-M "I 21 21 21"
_symmetry_group_IT_number 24
_symmetry_cell_setting 'orthorhombic'
loop_
_space_group_symop_operation_xyz
x,y,z
-x,1/2-y,z
x,-y,1/2-z
1/2-x,y,-z
1/2+x,1/2+y,1/2+z
1/2-x,-y,1/2+z
1/2+x,1/2-y,-z
-x,1/2+y,1/2-z
loop_
_atom_site_type_symbol
_atom_site_label
_atom_site_fract_x
_atom_site_fract_y
_atom_site_fract_z
Si Si1 0.000000 0.250000 0.857525
Si Si2 0.803789 0.538232 0.517242
Si Si3 0.139780 0.000000 0.250000
Si Si4 0.143299 0.426572 0.596244
Si Si5 0.429510 0.407871 0.897400
O O1 0.995139 0.500000 0.750000
O O2 0.958851 0.215953 0.973542
O O3 0.750000 0.559550 0.500000
O O4 0.824841 0.408237 0.371875
O O5 0.826562 0.823024 0.544252
O O6 0.822905 0.317059 0.625628
O O7 0.106865 0.791810 0.327165
O O8 0.121333 0.500000 0.750000
O O9 0.101975 0.379219 0.482900
O O10 0.455456 0.500000 0.750000
#
# Coordination Sequence:
#
# PCOD9336110 Si02
#       5
#     4   8   4   8   8
#     4  12  32  50  80 118 154 192 246 308 378 460
#     4  11  24  42  65  99 141 185 248 300 355 426
#     4  10  24  42  72 104 142 200 240 304 362 436
#     4  11  24  43  68  99 137 191 233 298 373 428
#     4  11  25  48  76 107 150 191 251 299 377 443
#
# _framework density 23.391825999999998
#
# number of rings (size 3 to 8) (size 9 to 14) (size 15 to 20)
#    0.000    1.000    2.500    2.250    8.750    4.000 
#    0.000    0.000    0.000    0.000    0.000    0.000 
#    0.000    0.000    0.000    0.000    0.000    0.000 
#
# Total GULP energy -89249.762279 kJ/mol
# GULP energy per Si atom -5578.110142 kJ/mol
# Density = 2.333859 g / cm^3
# Si number density = 23.391826 Si / 1000 Ang^3
#
#
#
# Elastic Constant Matrix: (Units=GPa)
#
#
# Indices 1 2 3 4 5 6 
#
# 1 90.5789 22.1996 67.0848 0.0000 0.0000 0.0000
# 2 22.1996 110.9965 38.7205 0.0000 0.0000 0.0000
# 3 67.0848 38.7205 184.8014 0.0000 0.0000 0.0000
# 4 0.0000 0.0000 0.0000 36.5995 0.0000 0.0000
# 5 0.0000 0.0000 0.0000 0.0000 24.9903 0.0000
# 6 0.0000 0.0000 0.0000 0.0000 0.0000 24.6704
#
#
#
# Elastic Compliance Matrix: (Units=1/GPa)
#
#
# Indices 1 2 3 4 5 6 
#
# 1 0.015248 -0.001207 -0.005282 0.000000 0.000000 0.000000
# 2 -0.001207 0.009815 -0.001618 0.000000 0.000000 0.000000
# 3 -0.005282 -0.001618 0.007668 0.000000 0.000000 0.000000
# 4 0.000000 0.000000 0.000000 0.027323 0.000000 0.000000
# 5 0.000000 0.000000 0.000000 0.000000 0.040016 0.000000
# 6 0.000000 0.000000 0.000000 0.000000 0.000000 0.040534
#
#
# Mechanical properties :
#
#
# Convention : Reuss Voigt Hill
#
# Bulk Modulus (GPa) = 60.54791 71.37627 65.96209
# Shear Modulus (GPa) = 30.80249 34.47684 32.63966
#
# Velocity S-wave (km/s) = 3.63272 3.84328 3.73948
# Velocity P-wave (km/s) = 6.59818 7.09042 6.84872
#
# Compressibility (1/GPa) = 0.01651585
#
# Stress axis : x y z
#
# Youngs Moduli (GPa) = 65.58184 101.88215 130.41462
#
# Poissons Ratio (x) = 0.12297 0.68889
# Poissons Ratio (y) = 0.07915 0.21106
# Poissons Ratio (z) = 0.34643 0.16489
#
# Static dielectric constant tensor:
#      x y z
#    x 1.864850 0.000000 0.000000 
#    y 0.000000 2.004910 0.000000 
#    z 0.000000 0.000000 2.156090 
# 
# From -- ./inp_files/1334.got.cif
#   From: 2010.05.17/outbox.cif.g08.bks.cpg/sg24_1_cif.got.tgz:1334.got - 2010.06.04 00:33:39.
