data_PCOD9336402
_publ_section_title
;
Structure prediction by ZEFSAII (Michael W. Deem and Ramdas Pophale) SiO2 
 PCOD9336402
Probable space group: I 21 21 21
;
_chemical_formula_sum "Si O2"
_cell_formula_units_Z 36
_cell_length_a 16.539052
_cell_length_b 4.981788
_cell_length_c 22.983471
_cell_angle_alpha 90.000000
_cell_angle_beta 90.000000
_cell_angle_gamma 90.000000
_cell_volume 1893.701277
_symmetry_space_group_name_H-M "I 21 21 21"
_symmetry_group_IT_number 24
_symmetry_cell_setting 'orthorhombic'
loop_
_space_group_symop_operation_xyz
x,y,z
-x,1/2-y,z
x,-y,1/2-z
1/2-x,y,-z
1/2+x,1/2+y,1/2+z
1/2-x,-y,1/2+z
1/2+x,1/2-y,-z
-x,1/2+y,1/2-z
loop_
_atom_site_type_symbol
_atom_site_label
_atom_site_fract_x
_atom_site_fract_y
_atom_site_fract_z
Si Si1 0.910451 0.731599 0.945341
Si Si2 0.151419 0.434034 0.129544
Si Si3 0.577005 0.581504 0.921408
Si Si4 0.939213 0.000000 0.250000
Si Si5 0.300745 0.753889 0.439019
O O1 0.848233 0.518538 0.919563
O O2 0.000000 0.750000 0.918382
O O3 0.865604 0.016402 0.949833
O O4 0.924492 0.606232 0.009601
O O5 0.148249 0.730991 0.102343
O O6 0.118869 0.449967 0.194888
O O7 0.238817 0.326530 0.111732
O O8 0.090863 0.221048 0.098122
O O9 0.500000 0.750000 0.898537
O O10 0.000000 0.250000 0.258610
O O11 0.250000 0.792466 0.500000
#
# Coordination Sequence:
#
# PCOD9336402 Si02
#       5
#     8   8   8   4   8
#     4  11  22  36  55  84 121 154 190 236 299 368
#     4  12  23  36  58  79 114 158 200 245 286 328
#     4  11  20  33  53  81 113 155 194 232 286 347
#     4  12  26  44  58  84 122 164 210 240 278 344
#     4  12  21  37  56  87 117 154 199 245 297 353
#
# _framework density 19.010390999999998
#
# number of rings (size 3 to 8) (size 9 to 14) (size 15 to 20)
#    0.000    0.444    4.444    6.667    0.000    3.556 
#    0.000    0.000    0.000    0.000    0.000    3.111 
#    0.000    0.000    0.000    0.000    0.000    0.000 
#
# Total GULP energy -100530.697448 kJ/mol
# GULP energy per Si atom -5585.038747 kJ/mol
# Density = 1.896712 g / cm^3
# Si number density = 19.010391 Si / 1000 Ang^3
#
#
#
# Elastic Constant Matrix: (Units=GPa)
#
#
# Indices 1 2 3 4 5 6 
#
# 1 123.5156 25.4349 17.8470 0.0000 0.0000 0.0000
# 2 25.4349 95.9186 -1.6971 0.0000 0.0000 0.0000
# 3 17.8470 -1.6971 66.0416 0.0000 0.0000 0.0000
# 4 0.0000 0.0000 0.0000 -3.7112 0.0000 0.0000
# 5 0.0000 0.0000 0.0000 0.0000 2.8244 0.0000
# 6 0.0000 0.0000 0.0000 0.0000 0.0000 36.5042
#
#
#
# Elastic Compliance Matrix: (Units=1/GPa)
#
#
# Indices 1 2 3 4 5 6 
#
# 1 0.008953 -0.002418 -0.002481 0.000000 0.000000 0.000000
# 2 -0.002418 0.011083 0.000938 0.000000 0.000000 0.000000
# 3 -0.002481 0.000938 0.015837 0.000000 0.000000 0.000000
# 4 0.000000 0.000000 0.000000 -0.269452 0.000000 0.000000
# 5 0.000000 0.000000 0.000000 0.000000 0.354058 0.000000
# 6 0.000000 0.000000 0.000000 0.000000 0.000000 0.027394
#
#
# Mechanical properties :
#
#
# Convention : Reuss Voigt Hill
#
# Bulk Modulus (GPa) = 35.77784 40.96060 38.36922
# Shear Modulus (GPa) = 30.28248 23.38287 26.83268
#
# Velocity S-wave (km/s) = 3.99550 3.51095 3.76103
# Velocity P-wave (km/s) = 6.33612 6.16676 6.25201
#
# Compressibility (1/GPa) = 0.02795026
#
# Stress axis : x y z
#
# Youngs Moduli (GPa) = 111.69944 90.22610 63.14457
#
# Poissons Ratio (x) = 0.21816 0.15669
# Poissons Ratio (y) = 0.27008 -0.05924
# Poissons Ratio (z) = 0.27718 -0.08465
#
# Static dielectric constant tensor:
#      x y z
#    x 1.776220 0.000000 0.000000 
#    y 0.000000 1.682910 0.000000 
#    z 0.000000 0.000000 1.639840 
# 
# From -- ./inp_files/3458.got.cif
#   From: 2010.05.17/outbox.cif.g08.bks.cpg/sg24_2_cif.got.tgz:3458.got - 2010.06.04 00:33:39.
