data_PCOD9336992
_publ_section_title
;
Structure prediction by ZEFSAII (Michael W. Deem and Ramdas Pophale) SiO2 
 PCOD9336992
Probable space group: I 21 21 21
;
_chemical_formula_sum "Si O2"
_cell_formula_units_Z 16
_cell_length_a 8.404692
_cell_length_b 4.817843
_cell_length_c 14.965447
_cell_angle_alpha 90.000000
_cell_angle_beta 90.000000
_cell_angle_gamma 90.000000
_cell_volume 605.988161
_symmetry_space_group_name_H-M "I 21 21 21"
_symmetry_group_IT_number 24
_symmetry_cell_setting 'orthorhombic'
loop_
_space_group_symop_operation_xyz
x,y,z
-x,1/2-y,z
x,-y,1/2-z
1/2-x,y,-z
1/2+x,1/2+y,1/2+z
1/2-x,-y,1/2+z
1/2+x,1/2-y,-z
-x,1/2+y,1/2-z
loop_
_atom_site_type_symbol
_atom_site_label
_atom_site_fract_x
_atom_site_fract_y
_atom_site_fract_z
Si Si1 0.813569 0.335458 0.401043
Si Si2 0.000000 0.250000 0.181690
Si Si3 0.610050 0.000000 0.250000
O O1 0.750000 0.307586 0.500000
O O2 0.000000 0.250000 0.407128
O O3 0.844957 0.657433 0.373021
O O4 0.706011 0.174828 0.327665
O O5 0.021510 0.500000 0.250000
O O6 0.500000 0.750000 0.289577
#
# Coordination Sequence:
#
# PCOD9336992 Si02
#       3
#     8   4   4
#     4  12  29  58  91 135 181 238 302 378 449 542
#     4  12  26  54  88 124 176 242 296 362 456 516
#     4  12  32  60  92 136 178 238 306 376 460 534
#
# _framework density 26.403158000000001
#
# number of rings (size 3 to 8) (size 9 to 14) (size 15 to 20)
#    0.000    0.000    2.500    4.500   10.500    2.000 
#    9.000    0.000    0.000    0.000    0.000    0.000 
#    0.000    0.000    0.000    0.000    0.000    0.000 
#
# Total GULP energy -44638.181615 kJ/mol
# GULP energy per Si atom -5579.772702 kJ/mol
# Density = 2.634306 g / cm^3
# Si number density = 26.403158 Si / 1000 Ang^3
#
#
#
# Elastic Constant Matrix: (Units=GPa)
#
#
# Indices 1 2 3 4 5 6 
#
# 1 185.6763 77.9793 117.4770 0.0000 0.0000 0.0000
# 2 77.9793 196.9418 64.2711 0.0000 0.0000 0.0000
# 3 117.4770 64.2711 254.9758 0.0000 0.0000 0.0000
# 4 0.0000 0.0000 0.0000 26.8247 0.0000 0.0000
# 5 0.0000 0.0000 0.0000 0.0000 57.6345 0.0000
# 6 0.0000 0.0000 0.0000 0.0000 0.0000 81.8658
#
#
#
# Elastic Compliance Matrix: (Units=1/GPa)
#
#
# Indices 1 2 3 4 5 6 
#
# 1 0.008431 -0.002256 -0.003316 0.000000 0.000000 0.000000
# 2 -0.002256 0.006137 -0.000507 0.000000 0.000000 0.000000
# 3 -0.003316 -0.000507 0.005578 0.000000 0.000000 0.000000
# 4 0.000000 0.000000 0.000000 0.037279 0.000000 0.000000
# 5 0.000000 0.000000 0.000000 0.000000 0.017351 0.000000
# 6 0.000000 0.000000 0.000000 0.000000 0.000000 0.012215
#
#
# Mechanical properties :
#
#
# Convention : Reuss Voigt Hill
#
# Bulk Modulus (GPa) = 125.21041 128.56095 126.88568
# Shear Modulus (GPa) = 49.11055 58.45612 53.78333
#
# Velocity S-wave (km/s) = 4.31748 4.71040 4.51821
# Velocity P-wave (km/s) = 8.50762 8.85331 8.68219
#
# Compressibility (1/GPa) = 0.00798656
#
# Stress axis : x y z
#
# Youngs Moduli (GPa) = 118.60697 162.95798 179.29015
#
# Poissons Ratio (x) = 0.36767 0.59450
# Poissons Ratio (y) = 0.26760 0.09095
# Poissons Ratio (z) = 0.39328 0.08267
#
# Static dielectric constant tensor:
#      x y z
#    x 2.393850 0.000000 0.000000 
#    y 0.000000 3.012400 0.000000 
#    z 0.000000 0.000000 2.044700 
# 
# From -- ./inp_files/520.got.cif
#   From: 2010.05.17/outbox.cif.g08.bks.cpg/sg24_1_cif.got.tgz:520.got - 2010.06.04 00:33:39.
