data_PCOD9336459
_publ_section_title
;
Structure prediction by ZEFSAII (Michael W. Deem and Ramdas Pophale) SiO2 
 PCOD9336459
Probable space group: I 21 21 21
;
_chemical_formula_sum "Si O2"
_cell_formula_units_Z 56
_cell_length_a 14.589471
_cell_length_b 14.796776
_cell_length_c 11.978439
_cell_angle_alpha 90.000000
_cell_angle_beta 90.000000
_cell_angle_gamma 90.000000
_cell_volume 2585.871085
_symmetry_space_group_name_H-M "I 21 21 21"
_symmetry_group_IT_number 24
_symmetry_cell_setting 'orthorhombic'
loop_
_space_group_symop_operation_xyz
x,y,z
-x,1/2-y,z
x,-y,1/2-z
1/2-x,y,-z
1/2+x,1/2+y,1/2+z
1/2-x,-y,1/2+z
1/2+x,1/2-y,-z
-x,1/2+y,1/2-z
loop_
_atom_site_type_symbol
_atom_site_label
_atom_site_fract_x
_atom_site_fract_y
_atom_site_fract_z
Si Si1 0.093179 0.420416 0.977520
Si Si2 0.292009 0.291772 0.169448
Si Si3 0.917998 0.822159 0.291987
Si Si4 0.451385 0.611990 0.956761
Si Si5 0.095962 0.110418 0.848957
Si Si6 0.674548 0.775739 0.083789
Si Si7 0.877449 0.582884 0.902849
O O1 0.175700 0.369273 0.915390
O O2 0.000456 0.392467 0.912142
O O3 0.076837 0.389134 0.103980
O O4 0.101969 0.527885 0.986897
O O5 0.183261 0.279232 0.188958
O O6 0.344610 0.200299 0.133452
O O7 0.326230 0.315835 0.293474
O O8 0.929292 0.872118 0.172906
O O9 0.000000 0.750000 0.298134
O O10 0.418068 0.700423 0.021475
O O11 0.556105 0.591318 0.990814
O O12 0.073490 0.101256 0.716917
O O13 0.151694 0.021082 0.889084
O O14 0.690142 0.667884 0.095460
O O15 0.750000 0.813088 0.000000
#
# Coordination Sequence:
#
# PCOD9336459 Si02
#       7
#     8   8   8   8   8   8   8
#     4  11  24  42  64  96 130 173 227 273 336 394
#     4  11  23  41  67  95 130 171 224 278 331 396
#     4  12  25  43  64  91 135 182 222 268 331 414
#     4  11  23  41  63  93 132 175 213 274 337 408
#     4   9  19  40  68  98 123 164 220 286 334 387
#     4  11  21  37  60  96 128 168 217 274 334 394
#     4   9  19  37  67  94 127 159 213 277 340 392
#
# _framework density 21.656146
#
# number of rings (size 3 to 8) (size 9 to 14) (size 15 to 20)
#    0.000    1.429    1.429    4.286    0.000    5.143 
#    2.571    4.286    6.286    0.000    0.000    0.000 
#    0.000    0.000    0.000    0.000    0.000    0.000 
#
# Total GULP energy -156211.119869 kJ/mol
# GULP energy per Si atom -5578.968567 kJ/mol
# Density = 2.160686 g / cm^3
# Si number density = 21.656146 Si / 1000 Ang^3
#
#
#
# Elastic Constant Matrix: (Units=GPa)
#
#
# Indices 1 2 3 4 5 6 
#
# 1 85.5677 31.1040 28.6854 0.0000 0.0000 0.0000
# 2 31.1040 89.0667 21.4386 0.0000 0.0000 0.0000
# 3 28.6854 21.4386 94.1158 0.0000 0.0000 0.0000
# 4 0.0000 0.0000 0.0000 2.6451 0.0000 0.0000
# 5 0.0000 0.0000 0.0000 0.0000 20.3470 0.0000
# 6 0.0000 0.0000 0.0000 0.0000 0.0000 4.9032
#
#
#
# Elastic Compliance Matrix: (Units=1/GPa)
#
#
# Indices 1 2 3 4 5 6 
#
# 1 0.014357 -0.004190 -0.003421 0.000000 0.000000 0.000000
# 2 -0.004190 0.013102 -0.001707 0.000000 0.000000 0.000000
# 3 -0.003421 -0.001707 0.012057 0.000000 0.000000 0.000000
# 4 0.000000 0.000000 0.000000 0.378059 0.000000 0.000000
# 5 0.000000 0.000000 0.000000 0.000000 0.049147 0.000000
# 6 0.000000 0.000000 0.000000 0.000000 0.000000 0.203949
#
#
# Mechanical properties :
#
#
# Convention : Reuss Voigt Hill
#
# Bulk Modulus (GPa) = 47.89770 47.91181 47.90476
# Shear Modulus (GPa) = 7.18115 18.08053 12.63084
#
# Velocity S-wave (km/s) = 1.82296 2.89258 2.41767
# Velocity P-wave (km/s) = 5.15716 5.77304 5.47377
#
# Compressibility (1/GPa) = 0.02087783
#
# Stress axis : x y z
#
# Youngs Moduli (GPa) = 69.65376 76.32541 82.94006
#
# Poissons Ratio (x) = 0.31982 0.28376
# Poissons Ratio (y) = 0.29186 0.14161
# Poissons Ratio (z) = 0.23831 0.13031
#
# Static dielectric constant tensor:
#      x y z
#    x 1.865320 0.000000 0.000000 
#    y 0.000000 1.848700 0.000000 
#    z 0.000000 0.000000 1.775780 
# 
# From -- ./inp_files/20874.got.cif
#   From: 2010.05.17/outbox.cif.g08.bks.cpg/sg24_11_cif.got.tgz:20874.got - 2010.06.04 00:33:39.
