data_PCOD9336437
_publ_section_title
;
Structure prediction by ZEFSAII (Michael W. Deem and Ramdas Pophale) SiO2 
 PCOD9336437
Probable space group: I 21 21 21
;
_chemical_formula_sum "Si O2"
_cell_formula_units_Z 48
_cell_length_a 15.371526
_cell_length_b 13.624591
_cell_length_c 9.172428
_cell_angle_alpha 90.000000
_cell_angle_beta 90.000000
_cell_angle_gamma 90.000000
_cell_volume 1920.988519
_symmetry_space_group_name_H-M "I 21 21 21"
_symmetry_group_IT_number 24
_symmetry_cell_setting 'orthorhombic'
loop_
_space_group_symop_operation_xyz
x,y,z
-x,1/2-y,z
x,-y,1/2-z
1/2-x,y,-z
1/2+x,1/2+y,1/2+z
1/2-x,-y,1/2+z
1/2+x,1/2-y,-z
-x,1/2+y,1/2-z
loop_
_atom_site_type_symbol
_atom_site_label
_atom_site_fract_x
_atom_site_fract_y
_atom_site_fract_z
Si Si1 0.624913 0.258484 0.818885
Si Si2 0.356026 0.832905 0.992361
Si Si3 0.250000 0.551404 0.000000
Si Si4 0.590156 0.916872 0.488169
Si Si5 0.646902 0.438156 0.020395
Si Si6 0.961914 0.500000 0.750000
Si Si7 0.317477 0.298349 0.260859
O O1 0.606609 0.282547 0.651110
O O2 0.730993 0.246111 0.814915
O O3 0.577592 0.161504 0.879975
O O4 0.608637 0.354470 0.917643
O O5 0.376315 0.767287 0.131963
O O6 0.376685 0.948162 0.986667
O O7 0.250000 0.828596 0.000000
O O8 0.331458 0.484852 0.958835
O O9 0.278708 0.617590 0.134727
O O10 0.526152 0.987160 0.391091
O O11 0.624567 0.843950 0.363663
O O12 0.610820 0.423751 0.183928
O O13 0.750000 0.434516 0.000000
#
# Coordination Sequence:
#
# PCOD9336437 Si02
#       7
#     8   8   4   8   8   4   8
#     4  11  22  42  75 114 144 200 266 315 386 483
#     4   9  21  39  73 109 145 189 260 316 381 460
#     4  12  20  40  76 108 160 198 246 308 390 488
#     4  12  25  42  74 113 153 199 258 318 384 473
#     4  11  26  46  77 103 147 204 259 329 393 474
#     4  12  30  48  72 116 152 202 268 336 404 450
#     4  11  20  40  74 117 146 201 254 303 386 473
#
# _framework density 24.987134999999999
#
# number of rings (size 3 to 8) (size 9 to 14) (size 15 to 20)
#    0.000    1.000    5.833    1.500    9.333    0.667 
#    0.000    0.000   22.000    0.000    0.000    0.000 
#    0.000    0.000    0.000    0.000    0.000    0.000 
#
# Total GULP energy -133879.359962 kJ/mol
# GULP energy per Si atom -5578.306665 kJ/mol
# Density = 2.493026 g / cm^3
# Si number density = 24.987135 Si / 1000 Ang^3
#
#
#
# Elastic Constant Matrix: (Units=GPa)
#
#
# Indices 1 2 3 4 5 6 
#
# 1 113.0801 40.3477 40.4106 0.0000 0.0000 0.0000
# 2 40.3477 145.6989 87.6207 0.0000 0.0000 0.0000
# 3 40.4106 87.6207 150.0707 0.0000 0.0000 0.0000
# 4 0.0000 0.0000 0.0000 57.6355 0.0000 0.0000
# 5 0.0000 0.0000 0.0000 0.0000 31.3642 0.0000
# 6 0.0000 0.0000 0.0000 0.0000 0.0000 -19.5778
#
#
#
# Elastic Compliance Matrix: (Units=1/GPa)
#
#
# Indices 1 2 3 4 5 6 
#
# 1 0.010078 -0.001786 -0.001671 0.000000 0.000000 0.000000
# 2 -0.001786 0.010894 -0.005880 0.000000 0.000000 0.000000
# 3 -0.001671 -0.005880 0.010546 0.000000 0.000000 0.000000
# 4 0.000000 0.000000 0.000000 0.017350 0.000000 0.000000
# 5 0.000000 0.000000 0.000000 0.000000 0.031883 0.000000
# 6 0.000000 0.000000 0.000000 0.000000 0.000000 -0.051078
#
#
# Mechanical properties :
#
#
# Convention : Reuss Voigt Hill
#
# Bulk Modulus (GPa) = 77.85153 82.84530 80.34842
# Shear Modulus (GPa) = 95.00600 29.91578 62.46089
#
# Velocity S-wave (km/s) = 6.17288 3.46388 5.00515
# Velocity P-wave (km/s) = 9.05706 7.01606 8.10109
#
# Compressibility (1/GPa) = 0.01284496
#
# Stress axis : x y z
#
# Youngs Moduli (GPa) = 99.22962 91.79410 94.81901
#
# Poissons Ratio (x) = 0.16393 0.15844
# Poissons Ratio (y) = 0.17721 0.55751
# Poissons Ratio (z) = 0.16581 0.53972
#
# Static dielectric constant tensor:
#      x y z
#    x 2.024410 0.000000 0.000000 
#    y 0.000000 2.023090 0.000000 
#    z 0.000000 0.000000 2.045950 
# 
# From -- ./inp_files/14215.got.cif
#   From: 2010.05.17/outbox.cif.g08.bks.cpg/sg24_8_cif.got.tgz:14215.got - 2010.06.04 00:33:39.
