data_PCOD9336800
_publ_section_title
;
Structure prediction by ZEFSAII (Michael W. Deem and Ramdas Pophale) SiO2 
 PCOD9336800
Probable space group: I 21 21 21
;
_chemical_formula_sum "Si O2"
_cell_formula_units_Z 20
_cell_length_a 23.737456
_cell_length_b 5.133210
_cell_length_c 7.164991
_cell_angle_alpha 90.000000
_cell_angle_beta 90.000000
_cell_angle_gamma 90.000000
_cell_volume 873.049471
_symmetry_space_group_name_H-M "I 21 21 21"
_symmetry_group_IT_number 24
_symmetry_cell_setting 'orthorhombic'
loop_
_space_group_symop_operation_xyz
x,y,z
-x,1/2-y,z
x,-y,1/2-z
1/2-x,y,-z
1/2+x,1/2+y,1/2+z
1/2-x,-y,1/2+z
1/2+x,1/2-y,-z
-x,1/2+y,1/2-z
loop_
_atom_site_type_symbol
_atom_site_label
_atom_site_fract_x
_atom_site_fract_y
_atom_site_fract_z
Si Si1 0.804290 0.000000 0.250000
Si Si2 0.131585 0.128443 0.454600
Si Si3 0.275849 0.000000 0.250000
Si Si4 0.037103 0.000000 0.750000
O O1 0.846874 0.923700 0.082604
O O2 0.762765 0.755168 0.260080
O O3 0.076696 0.092797 0.579354
O O4 0.124777 0.000000 0.250000
O O5 0.182729 0.008112 0.573565
O O6 0.000000 0.250000 0.805094
#
# Coordination Sequence:
#
# PCOD9336800 Si02
#       4
#     4   8   4   4
#     4  12  26  43  74 114 158 199 238 288 360 458
#     4  11  28  46  76 112 149 196 254 298 365 455
#     4  11  28  44  68 114 166 202 230 289 368 446
#     4  11  30  55  78 102 144 193 256 333 382 412
#
# _framework density 22.908207999999998
#
# number of rings (size 3 to 8) (size 9 to 14) (size 15 to 20)
#    0.000    0.800    2.000    1.200   16.800    4.800 
#    0.000    0.000    0.000    0.000    0.000    0.000 
#    0.000    0.000    0.000    0.000    0.000    0.000 
#
# Total GULP energy -55956.303338 kJ/mol
# GULP energy per Si atom -5595.630334 kJ/mol
# Density = 2.285607 g / cm^3
# Si number density = 22.908208 Si / 1000 Ang^3
#
#
#
# Elastic Constant Matrix: (Units=GPa)
#
#
# Indices 1 2 3 4 5 6 
#
# 1 164.8440 85.1492 70.7203 0.0000 0.0000 0.0000
# 2 85.1492 174.2017 45.9071 0.0000 0.0000 0.0000
# 3 70.7203 45.9071 164.5428 0.0000 0.0000 0.0000
# 4 0.0000 0.0000 0.0000 31.6845 0.0000 0.0000
# 5 0.0000 0.0000 0.0000 0.0000 12.6288 0.0000
# 6 0.0000 0.0000 0.0000 0.0000 0.0000 39.6608
#
#
#
# Elastic Compliance Matrix: (Units=1/GPa)
#
#
# Indices 1 2 3 4 5 6 
#
# 1 0.009265 -0.003755 -0.002934 0.000000 0.000000 0.000000
# 2 -0.003755 0.007718 -0.000539 0.000000 0.000000 0.000000
# 3 -0.002934 -0.000539 0.007489 0.000000 0.000000 0.000000
# 4 0.000000 0.000000 0.000000 0.031561 0.000000 0.000000
# 5 0.000000 0.000000 0.000000 0.000000 0.079184 0.000000
# 6 0.000000 0.000000 0.000000 0.000000 0.000000 0.025214
#
#
# Mechanical properties :
#
#
# Convention : Reuss Voigt Hill
#
# Bulk Modulus (GPa) = 99.85800 100.79353 100.32577
# Shear Modulus (GPa) = 28.05400 36.91563 32.48481
#
# Velocity S-wave (km/s) = 3.50326 4.01865 3.76978
# Velocity P-wave (km/s) = 7.74912 8.10106 7.92704
#
# Compressibility (1/GPa) = 0.01001422
#
# Stress axis : x y z
#
# Youngs Moduli (GPa) = 107.93220 129.56327 133.52763
#
# Poissons Ratio (x) = 0.48657 0.39182
# Poissons Ratio (y) = 0.40533 0.07201
# Poissons Ratio (z) = 0.31671 0.06987
#
# Static dielectric constant tensor:
#      x y z
#    x 1.836200 0.000000 0.000000 
#    y 0.000000 1.892550 0.000000 
#    z 0.000000 0.000000 1.954200 
# 
# From -- ./inp_files/15527.got.cif
#   From: 2010.05.17/outbox.cif.g08.bks.cpg/sg24_8_cif.got.tgz:15527.got - 2010.06.04 00:33:39.
