data_PCOD9336200
_publ_section_title
;
Structure prediction by ZEFSAII (Michael W. Deem and Ramdas Pophale) SiO2 
 PCOD9336200
Probable space group: I 21 21 21
;
_chemical_formula_sum "Si O2"
_cell_formula_units_Z 56
_cell_length_a 6.288059
_cell_length_b 13.588002
_cell_length_c 28.044247
_cell_angle_alpha 90.000000
_cell_angle_beta 90.000000
_cell_angle_gamma 90.000000
_cell_volume 2396.160991
_symmetry_space_group_name_H-M "I 21 21 21"
_symmetry_group_IT_number 24
_symmetry_cell_setting 'orthorhombic'
loop_
_space_group_symop_operation_xyz
x,y,z
-x,1/2-y,z
x,-y,1/2-z
1/2-x,y,-z
1/2+x,1/2+y,1/2+z
1/2-x,-y,1/2+z
1/2+x,1/2-y,-z
-x,1/2+y,1/2-z
loop_
_atom_site_type_symbol
_atom_site_label
_atom_site_fract_x
_atom_site_fract_y
_atom_site_fract_z
Si Si1 0.274874 0.210051 0.401177
Si Si2 0.750000 0.774809 0.000000
Si Si3 0.009563 0.634937 0.373740
Si Si4 0.341203 0.000000 0.250000
Si Si5 0.371769 0.002576 0.084732
Si Si6 0.862174 0.840121 0.547792
Si Si7 0.678901 0.000720 0.173928
Si Si8 0.467563 0.852122 0.803804
O O1 0.500000 0.250000 0.382020
O O2 0.212247 0.291831 0.441060
O O3 0.137446 0.175554 0.355326
O O4 0.290205 0.104956 0.429571
O O5 0.500000 0.750000 0.008434
O O6 0.171378 0.632013 0.417987
O O7 0.129001 0.576845 0.332409
O O8 0.000000 0.750000 0.362074
O O9 0.803413 0.573875 0.390694
O O10 0.503317 0.960320 0.289745
O O11 0.193429 0.921275 0.224185
O O12 0.483856 0.065851 0.043139
O O13 0.551680 0.984888 0.124886
O O14 0.750000 0.805561 0.500000
O O15 0.000000 0.750000 0.567942
O O16 0.804089 0.903177 0.189282
O O17 0.500000 0.750000 0.777240
#
# Coordination Sequence:
#
# PCOD9336200 Si02
#       8
#     8   4   8   4   8   8   8   8
#     4  11  23  47  78 107 152 200 252 318 387 468
#     4  10  24  46  70 114 154 196 258 320 382 464
#     4  11  22  43  69  97 142 193 243 299 376 441
#     4  12  26  50  72 108 148 180 246 318 366 460
#     4  11  23  44  68 103 141 191 246 306 376 456
#     4  11  24  39  65 100 142 193 254 310 360 434
#     4  11  24  46  73 102 143 185 240 307 371 450
#     4  12  26  48  81 108 147 201 250 308 388 468
#
# _framework density 23.370716999999999
#
# number of rings (size 3 to 8) (size 9 to 14) (size 15 to 20)
#    0.000    0.857    4.286    2.143    0.000    2.286 
#    5.143   10.714    0.000    0.000    0.000    0.000 
#    0.000    0.000    0.000    0.000    0.000    0.000 
#
# Total GULP energy -156017.414897 kJ/mol
# GULP energy per Si atom -5572.050532 kJ/mol
# Density = 2.331752 g / cm^3
# Si number density = 23.370717 Si / 1000 Ang^3
#
#
#
# Elastic Constant Matrix: (Units=GPa)
#
#
# Indices 1 2 3 4 5 6 
#
# 1 144.2061 44.1794 22.6735 0.0000 0.0000 0.0000
# 2 44.1794 123.2474 1.7477 0.0000 0.0000 0.0000
# 3 22.6735 1.7477 72.9839 0.0000 0.0000 0.0000
# 4 0.0000 0.0000 0.0000 9.0176 0.0000 0.0000
# 5 0.0000 0.0000 0.0000 0.0000 46.1847 0.0000
# 6 0.0000 0.0000 0.0000 0.0000 0.0000 33.0681
#
#
#
# Elastic Compliance Matrix: (Units=1/GPa)
#
#
# Indices 1 2 3 4 5 6 
#
# 1 0.008216 -0.002910 -0.002483 0.000000 0.000000 0.000000
# 2 -0.002910 0.009147 0.000685 0.000000 0.000000 0.000000
# 3 -0.002483 0.000685 0.014457 0.000000 0.000000 0.000000
# 4 0.000000 0.000000 0.000000 0.110894 0.000000 0.000000
# 5 0.000000 0.000000 0.000000 0.000000 0.021652 0.000000
# 6 0.000000 0.000000 0.000000 0.000000 0.000000 0.030241
#
#
# Mechanical properties :
#
#
# Convention : Reuss Voigt Hill
#
# Bulk Modulus (GPa) = 44.63416 53.07097 48.85257
# Shear Modulus (GPa) = 23.64170 35.77652 29.70911
#
# Velocity S-wave (km/s) = 3.18401 3.91682 3.56927
# Velocity P-wave (km/s) = 5.71463 6.57366 6.15914
#
# Compressibility (1/GPa) = 0.02240436
#
# Stress axis : x y z
#
# Youngs Moduli (GPa) = 121.70726 109.32321 69.17263
#
# Poissons Ratio (x) = 0.31814 0.17175
# Poissons Ratio (y) = 0.35418 -0.04738
# Poissons Ratio (z) = 0.30218 -0.07489
#
# Static dielectric constant tensor:
#      x y z
#    x 1.939480 0.000000 0.000000 
#    y 0.000000 1.936960 0.000000 
#    z 0.000000 0.000000 1.935290 
# 
# From -- ./inp_files/37952.got.cif
#   From: 2010.05.17/outbox.cif.g08.bks.cpg/sg24_19_cif.got.tgz:37952.got - 2010.06.04 00:33:39.
