data_PCOD9336742
_publ_section_title
;
Structure prediction by ZEFSAII (Michael W. Deem and Ramdas Pophale) SiO2 
 PCOD9336742
Probable space group: I 21 21 21
;
_chemical_formula_sum "Si O2"
_cell_formula_units_Z 40
_cell_length_a 8.878223
_cell_length_b 10.395354
_cell_length_c 18.650103
_cell_angle_alpha 90.000000
_cell_angle_beta 90.000000
_cell_angle_gamma 90.000000
_cell_volume 1721.260360
_symmetry_space_group_name_H-M "I 21 21 21"
_symmetry_group_IT_number 24
_symmetry_cell_setting 'orthorhombic'
loop_
_space_group_symop_operation_xyz
x,y,z
-x,1/2-y,z
x,-y,1/2-z
1/2-x,y,-z
1/2+x,1/2+y,1/2+z
1/2-x,-y,1/2+z
1/2+x,1/2-y,-z
-x,1/2+y,1/2-z
loop_
_atom_site_type_symbol
_atom_site_label
_atom_site_fract_x
_atom_site_fract_y
_atom_site_fract_z
Si Si1 0.582783 0.609322 0.687796
Si Si2 0.110637 0.369206 0.944821
Si Si3 0.679550 0.766699 0.076210
Si Si4 0.213793 0.505192 0.335199
Si Si5 0.693386 0.478160 0.077174
O O1 0.500000 0.750000 0.706585
O O2 0.607021 0.500000 0.750000
O O3 0.453783 0.541713 0.639773
O O4 0.733690 0.608936 0.639558
O O5 0.184081 0.381680 0.866603
O O6 0.000000 0.250000 0.958367
O O7 0.985511 0.480031 0.936756
O O8 0.250000 0.380262 0.000000
O O9 0.500000 0.750000 0.074159
O O10 0.733828 0.869929 0.133721
O O11 0.742743 0.624042 0.092145
O O12 0.750000 0.806188 0.000000
O O13 0.216704 0.500000 0.250000
O O14 0.750000 0.433265 0.000000
#
# Coordination Sequence:
#
# PCOD9336742 Si02
#       5
#     8   8   8   8   8
#     4  11  27  49  77 115 158 212 262 323 398 473
#     4  12  25  45  73 105 147 201 258 325 385 464
#     4  11  25  45  75 113 146 200 260 327 392 465
#     4  11  26  45  72 104 156 199 250 324 391 460
#     4  11  25  43  75 111 148 199 259 322 392 466
#
# _framework density 23.238783999999999
#
# number of rings (size 3 to 8) (size 9 to 14) (size 15 to 20)
#    0.000    0.800    2.000    3.600   11.200    3.200 
#    0.000    1.000    0.000    0.000    0.000    0.000 
#    0.000    0.000    0.000    0.000    0.000    0.000 
#
# Total GULP energy -111469.622147 kJ/mol
# GULP energy per Si atom -5573.481107 kJ/mol
# Density = 2.318589 g / cm^3
# Si number density = 23.238784 Si / 1000 Ang^3
#
#
#
# Elastic Constant Matrix: (Units=GPa)
#
#
# Indices 1 2 3 4 5 6 
#
# 1 132.3629 33.1310 46.3890 0.0000 0.0000 0.0000
# 2 33.1310 179.2437 59.1917 0.0000 0.0000 0.0000
# 3 46.3890 59.1917 101.7787 0.0000 0.0000 0.0000
# 4 0.0000 0.0000 0.0000 20.5851 0.0000 0.0000
# 5 0.0000 0.0000 0.0000 0.0000 45.9859 0.0000
# 6 0.0000 0.0000 0.0000 0.0000 0.0000 35.1556
#
#
#
# Elastic Compliance Matrix: (Units=1/GPa)
#
#
# Indices 1 2 3 4 5 6 
#
# 1 0.009012 -0.000383 -0.003885 0.000000 0.000000 0.000000
# 2 -0.000383 0.006921 -0.003851 0.000000 0.000000 0.000000
# 3 -0.003885 -0.003851 0.013835 0.000000 0.000000 0.000000
# 4 0.000000 0.000000 0.000000 0.048579 0.000000 0.000000
# 5 0.000000 0.000000 0.000000 0.000000 0.021746 0.000000
# 6 0.000000 0.000000 0.000000 0.000000 0.000000 0.028445
#
#
# Mechanical properties :
#
#
# Convention : Reuss Voigt Hill
#
# Bulk Modulus (GPa) = 73.89946 76.75652 75.32799
# Shear Modulus (GPa) = 33.49256 38.65688 36.07472
#
# Velocity S-wave (km/s) = 3.80048 4.08298 3.94426
# Velocity P-wave (km/s) = 7.15033 7.43834 7.29576
#
# Compressibility (1/GPa) = 0.01353190
#
# Stress axis : x y z
#
# Youngs Moduli (GPa) = 110.95816 144.47911 72.27793
#
# Poissons Ratio (x) = 0.05532 0.28080
# Poissons Ratio (y) = 0.04248 0.27833
# Poissons Ratio (z) = 0.43108 0.55636
#
# Static dielectric constant tensor:
#      x y z
#    x 2.022570 0.000000 0.000000 
#    y 0.000000 2.017130 0.000000 
#    z 0.000000 0.000000 1.857710 
# 
# From -- ./inp_files/29263.got.cif
#   From: 2010.05.17/outbox.cif.g08.bks.cpg/sg24_15_cif.got.tgz:29263.got - 2010.06.04 00:33:39.
