data_PCOD9336835
_publ_section_title
;
Structure prediction by ZEFSAII (Michael W. Deem and Ramdas Pophale) SiO2 
 PCOD9336835
Probable space group: I 21 21 21
;
_chemical_formula_sum "Si O2"
_cell_formula_units_Z 40
_cell_length_a 11.303326
_cell_length_b 8.238001
_cell_length_c 21.216410
_cell_angle_alpha 90.000000
_cell_angle_beta 90.000000
_cell_angle_gamma 90.000000
_cell_volume 1975.604438
_symmetry_space_group_name_H-M "I 21 21 21"
_symmetry_group_IT_number 24
_symmetry_cell_setting 'orthorhombic'
loop_
_space_group_symop_operation_xyz
x,y,z
-x,1/2-y,z
x,-y,1/2-z
1/2-x,y,-z
1/2+x,1/2+y,1/2+z
1/2-x,-y,1/2+z
1/2+x,1/2-y,-z
-x,1/2+y,1/2-z
loop_
_atom_site_type_symbol
_atom_site_label
_atom_site_fract_x
_atom_site_fract_y
_atom_site_fract_z
Si Si1 0.000000 0.750000 0.797675
Si Si2 0.750000 0.700426 0.000000
Si Si3 0.681600 0.000000 0.250000
Si Si4 0.500000 0.250000 0.918632
Si Si5 0.249500 0.681686 0.371717
Si Si6 0.868982 0.514725 0.890689
Si Si7 0.597014 0.993981 0.477846
O O1 0.909011 0.854620 0.759189
O O2 0.910621 0.639927 0.838327
O O3 0.770362 0.588270 0.938632
O O4 0.858871 0.828169 0.998642
O O5 0.748511 0.947819 0.314299
O O6 0.619284 0.259961 0.878455
O O7 0.539408 0.104125 0.964646
O O8 0.298699 0.593202 0.435959
O O9 0.332288 0.839667 0.364781
O O10 0.988578 0.499584 0.930259
#
# Coordination Sequence:
#
# PCOD9336835 Si02
#       7
#     4   4   4   4   8   8   8
#     4  12  24  41  68  98 125 174 230 294 350 390
#     4  12  22  36  62 106 154 174 210 280 362 442
#     4  12  26  46  68  96 138 182 238 298 340 426
#     4  12  24  41  72 100 137 188 226 288 364 422
#     4  12  25  44  68 100 138 188 237 282 361 423
#     4  12  23  40  65 106 137 175 225 281 359 426
#     4  12  22  41  68 102 145 178 221 292 356 428
#
# _framework density 20.246967999999999
#
# number of rings (size 3 to 8) (size 9 to 14) (size 15 to 20)
#    0.000    0.000    8.000    2.400    0.000    0.000 
#    0.000    2.000    0.000    0.000    0.000    0.000 
#    0.000    0.000    0.000    0.000    0.000    0.000 
#
# Total GULP energy -111559.815687 kJ/mol
# GULP energy per Si atom -5577.990784 kJ/mol
# Density = 2.020088 g / cm^3
# Si number density = 20.246968 Si / 1000 Ang^3
#
#
#
# Elastic Constant Matrix: (Units=GPa)
#
#
# Indices 1 2 3 4 5 6 
#
# 1 117.7278 17.3509 28.7309 0.0000 0.0000 0.0000
# 2 17.3509 77.4133 25.8217 0.0000 0.0000 0.0000
# 3 28.7309 25.8217 73.3939 0.0000 0.0000 0.0000
# 4 0.0000 0.0000 0.0000 46.0303 0.0000 0.0000
# 5 0.0000 0.0000 0.0000 0.0000 70.7813 0.0000
# 6 0.0000 0.0000 0.0000 0.0000 0.0000 39.5817
#
#
#
# Elastic Compliance Matrix: (Units=1/GPa)
#
#
# Indices 1 2 3 4 5 6 
#
# 1 0.009460 -0.001003 -0.003350 0.000000 0.000000 0.000000
# 2 -0.001003 0.014741 -0.004794 0.000000 0.000000 0.000000
# 3 -0.003350 -0.004794 0.016623 0.000000 0.000000 0.000000
# 4 0.000000 0.000000 0.000000 0.021725 0.000000 0.000000
# 5 0.000000 0.000000 0.000000 0.000000 0.014128 0.000000
# 6 0.000000 0.000000 0.000000 0.000000 0.000000 0.025264
#
#
# Mechanical properties :
#
#
# Convention : Reuss Voigt Hill
#
# Bulk Modulus (GPa) = 44.38422 45.81577 45.10000
# Shear Modulus (GPa) = 39.14044 44.38744 41.76394
#
# Velocity S-wave (km/s) = 4.40153 4.68728 4.54665
# Velocity P-wave (km/s) = 6.91378 7.20914 7.06300
#
# Compressibility (1/GPa) = 0.02253053
#
# Stress axis : x y z
#
# Youngs Moduli (GPa) = 105.71302 67.83600 60.15681
#
# Poissons Ratio (x) = 0.06802 0.20154
# Poissons Ratio (y) = 0.10600 0.28838
# Poissons Ratio (z) = 0.35417 0.32520
#
# Static dielectric constant tensor:
#      x y z
#    x 1.723640 0.000000 0.000000 
#    y 0.000000 1.556130 0.000000 
#    z 0.000000 0.000000 1.712800 
# 
# From -- ./inp_files/13885.got.cif
#   From: 2010.05.17/outbox.cif.g08.bks.cpg/sg24_7_cif.got.tgz:13885.got - 2010.06.04 00:33:39.
