data_PCOD9336255
_publ_section_title
;
Structure prediction by ZEFSAII (Michael W. Deem and Ramdas Pophale) SiO2 
 PCOD9336255
Probable space group: I 21 21 21
;
_chemical_formula_sum "Si O2"
_cell_formula_units_Z 60
_cell_length_a 26.016077
_cell_length_b 6.056504
_cell_length_c 18.755310
_cell_angle_alpha 90.000000
_cell_angle_beta 90.000000
_cell_angle_gamma 90.000000
_cell_volume 2955.208073
_symmetry_space_group_name_H-M "I 21 21 21"
_symmetry_group_IT_number 24
_symmetry_cell_setting 'orthorhombic'
loop_
_space_group_symop_operation_xyz
x,y,z
-x,1/2-y,z
x,-y,1/2-z
1/2-x,y,-z
1/2+x,1/2+y,1/2+z
1/2-x,-y,1/2+z
1/2+x,1/2-y,-z
-x,1/2+y,1/2-z
loop_
_atom_site_type_symbol
_atom_site_label
_atom_site_fract_x
_atom_site_fract_y
_atom_site_fract_z
Si Si1 0.376070 0.838469 0.065125
Si Si2 0.056621 0.788583 0.359053
Si Si3 0.133522 0.000000 0.250000
Si Si4 0.973260 0.500078 0.997377
Si Si5 0.132128 0.503329 0.439556
Si Si6 0.696777 0.285585 0.042955
Si Si7 0.205638 0.659166 0.181319
Si Si8 0.681361 0.935640 0.168485
O O1 0.367320 0.684547 0.133346
O O2 0.427307 0.982948 0.060358
O O3 0.323409 0.974778 0.061918
O O4 0.377926 0.692714 0.993864
O O5 0.048884 0.967972 0.422173
O O6 0.081319 0.575952 0.397806
O O7 0.000000 0.750000 0.328808
O O8 0.096614 0.853274 0.298637
O O9 0.171077 0.131161 0.301867
O O10 0.000000 0.250000 0.987068
O O11 0.000000 0.750000 0.993204
O O12 0.153080 0.698191 0.489062
O O13 0.178176 0.451782 0.385667
O O14 0.695764 0.135370 0.114023
O O15 0.750000 0.279663 0.000000
O O16 0.202100 0.500000 0.250000
O O17 0.265574 0.704071 0.170249
O O18 0.671227 0.000000 0.250000
#
# Coordination Sequence:
#
# PCOD9336255 Si02
#       8
#     8   8   4   8   8   8   8   8
#     4  11  24  39  71 100 132 173 228 295 350 429
#     4  11  24  42  64  94 135 184 245 299 347 412
#     4  12  26  38  62  92 128 196 246 286 338 414
#     4  11  24  44  72 107 140 180 235 306 370 423
#     4  11  22  42  60  91 134 176 233 293 357 398
#     4  11  23  39  67 100 130 173 231 287 341 425
#     4  11  23  40  60  86 136 187 228 287 341 418
#     4  10  25  43  64  98 140 181 217 276 359 435
#
# _framework density 20.303139999999999
#
# number of rings (size 3 to 8) (size 9 to 14) (size 15 to 20)
#    0.000    1.067    4.000    2.400    3.733    4.267 
#    0.000    0.000    0.000    0.000    3.467    0.000 
#    0.000    0.000    0.000    0.000    0.000    0.000 
#
# Total GULP energy -167325.353658 kJ/mol
# GULP energy per Si atom -5577.511789 kJ/mol
# Density = 2.025693 g / cm^3
# Si number density = 20.303140 Si / 1000 Ang^3
#
#
#
# Elastic Constant Matrix: (Units=GPa)
#
#
# Indices 1 2 3 4 5 6 
#
# 1 72.8510 29.2574 32.0168 0.0000 0.0000 0.0000
# 2 29.2574 71.6438 32.2222 0.0000 0.0000 0.0000
# 3 32.0168 32.2222 108.0166 0.0000 0.0000 0.0000
# 4 0.0000 0.0000 0.0000 5.3978 0.0000 0.0000
# 5 0.0000 0.0000 0.0000 0.0000 43.2101 0.0000
# 6 0.0000 0.0000 0.0000 0.0000 0.0000 -2.1471
#
#
#
# Elastic Compliance Matrix: (Units=1/GPa)
#
#
# Indices 1 2 3 4 5 6 
#
# 1 0.017513 -0.005564 -0.003531 0.000000 0.000000 0.000000
# 2 -0.005564 0.017888 -0.003687 0.000000 0.000000 0.000000
# 3 -0.003531 -0.003687 0.011404 0.000000 0.000000 0.000000
# 4 0.000000 0.000000 0.000000 0.185260 0.000000 0.000000
# 5 0.000000 0.000000 0.000000 0.000000 0.023143 0.000000
# 6 0.000000 0.000000 0.000000 0.000000 0.000000 -0.465738
#
#
# Mechanical properties :
#
#
# Convention : Reuss Voigt Hill
#
# Bulk Modulus (GPa) = 47.07736 48.83380 47.95558
# Shear Modulus (GPa) = -28.10791 19.89316 -4.10738
#
# Velocity S-wave (km/s) = -3.72481 3.13358 -1.42387
# Velocity P-wave (km/s) = 2.17685 6.09894 4.57907
#
# Compressibility (1/GPa) = 0.02124163
#
# Stress axis : x y z
#
# Youngs Moduli (GPa) = 57.10051 55.90260 87.68521
#
# Poissons Ratio (x) = 0.31102 0.30964
# Poissons Ratio (y) = 0.31768 0.32331
# Poissons Ratio (z) = 0.20164 0.20612
#
# Static dielectric constant tensor:
#      x y z
#    x 1.751210 0.000000 0.000000 
#    y 0.000000 1.757460 0.000000 
#    z 0.000000 0.000000 1.869050 
# 
# From -- ./inp_files/31680.got.cif
#   From: 2010.05.17/outbox.cif.g08.bks.cpg/sg24_16_cif.got.tgz:31680.got - 2010.06.04 00:33:39.
