data_PCOD9336941
_publ_section_title
;
Structure prediction by ZEFSAII (Michael W. Deem and Ramdas Pophale) SiO2 
 PCOD9336941
Probable space group: I 21 21 21
;
_chemical_formula_sum "Si O2"
_cell_formula_units_Z 20
_cell_length_a 12.169761
_cell_length_b 4.813707
_cell_length_c 14.521866
_cell_angle_alpha 90.000000
_cell_angle_beta 90.000000
_cell_angle_gamma 90.000000
_cell_volume 850.715071
_symmetry_space_group_name_H-M "I 21 21 21"
_symmetry_group_IT_number 24
_symmetry_cell_setting 'orthorhombic'
loop_
_space_group_symop_operation_xyz
x,y,z
-x,1/2-y,z
x,-y,1/2-z
1/2-x,y,-z
1/2+x,1/2+y,1/2+z
1/2-x,-y,1/2+z
1/2+x,1/2-y,-z
-x,1/2+y,1/2-z
loop_
_atom_site_type_symbol
_atom_site_label
_atom_site_fract_x
_atom_site_fract_y
_atom_site_fract_z
Si Si1 0.125493 0.318044 0.842833
Si Si2 0.251867 0.210845 0.602467
Si Si3 0.079557 0.500000 0.250000
O O1 0.131979 0.500000 0.750000
O O2 0.199136 0.045571 0.842552
O O3 0.347599 0.642710 0.833557
O O4 0.168289 0.536401 0.915881
O O5 0.250000 0.083358 0.500000
O O6 0.000000 0.750000 0.641747
O O7 0.000000 0.250000 0.215312
#
# Coordination Sequence:
#
# PCOD9336941 Si02
#       3
#     8   8   4
#     4  12  25  45  78 111 144 197 252 317 397 453
#     4  12  27  48  76 113 158 202 263 323 383 473
#     4  12  28  50  78 110 156 218 264 314 396 472
#
# _framework density 23.509630999999999
#
# number of rings (size 3 to 8) (size 9 to 14) (size 15 to 20)
#    0.000    0.000    2.000    8.400    0.000    4.800 
#    0.000    0.000    0.000    0.000    0.000    0.000 
#    0.000    0.000    0.000    0.000    0.000    0.000 
#
# Total GULP energy -55702.806980 kJ/mol
# GULP energy per Si atom -5570.280698 kJ/mol
# Density = 2.345612 g / cm^3
# Si number density = 23.509631 Si / 1000 Ang^3
#
#
#
# Elastic Constant Matrix: (Units=GPa)
#
#
# Indices 1 2 3 4 5 6 
#
# 1 75.7931 19.4268 -2.9835 0.0000 0.0000 0.0000
# 2 19.4268 140.4965 -27.2683 0.0000 0.0000 0.0000
# 3 -2.9835 -27.2683 74.3417 0.0000 0.0000 0.0000
# 4 0.0000 0.0000 0.0000 46.1502 0.0000 0.0000
# 5 0.0000 0.0000 0.0000 0.0000 11.4402 0.0000
# 6 0.0000 0.0000 0.0000 0.0000 0.0000 104.8648
#
#
#
# Elastic Compliance Matrix: (Units=1/GPa)
#
#
# Indices 1 2 3 4 5 6 
#
# 1 0.013680 -0.001922 -0.000156 0.000000 0.000000 0.000000
# 2 -0.001922 0.007933 0.002833 0.000000 0.000000 0.000000
# 3 -0.000156 0.002833 0.014484 0.000000 0.000000 0.000000
# 4 0.000000 0.000000 0.000000 0.021668 0.000000 0.000000
# 5 0.000000 0.000000 0.000000 0.000000 0.087411 0.000000
# 6 0.000000 0.000000 0.000000 0.000000 0.000000 0.009536
#
#
# Mechanical properties :
#
#
# Convention : Reuss Voigt Hill
#
# Bulk Modulus (GPa) = 26.59042 29.88678 28.23860
# Shear Modulus (GPa) = 30.16785 52.58811 41.37798
#
# Velocity S-wave (km/s) = 3.58608 4.73469 4.19984
# Velocity P-wave (km/s) = 5.33682 6.52916 5.96287
#
# Compressibility (1/GPa) = 0.03760753
#
# Stress axis : x y z
#
# Youngs Moduli (GPa) = 73.09793 126.05333 69.04079
#
# Poissons Ratio (x) = 0.24226 0.01076
# Poissons Ratio (y) = 0.14048 -0.19557
# Poissons Ratio (z) = 0.01140 -0.35708
#
# Static dielectric constant tensor:
#      x y z
#    x 1.961040 0.000000 0.000000 
#    y 0.000000 1.855770 0.000000 
#    z 0.000000 0.000000 2.160620 
# 
# From -- ./inp_files/29041.got.cif
#   From: 2010.05.17/outbox.cif.g08.bks.cpg/sg24_15_cif.got.tgz:29041.got - 2010.06.04 00:33:39.
