data_PCOD9336996
_publ_section_title
;
Structure prediction by ZEFSAII (Michael W. Deem and Ramdas Pophale) SiO2 
 PCOD9336996
Probable space group: I 21 21 21
;
_chemical_formula_sum "Si O2"
_cell_formula_units_Z 28
_cell_length_a 28.178804
_cell_length_b 5.063615
_cell_length_c 8.100359
_cell_angle_alpha 90.000000
_cell_angle_beta 90.000000
_cell_angle_gamma 90.000000
_cell_volume 1155.812803
_symmetry_space_group_name_H-M "I 21 21 21"
_symmetry_group_IT_number 24
_symmetry_cell_setting 'orthorhombic'
loop_
_space_group_symop_operation_xyz
x,y,z
-x,1/2-y,z
x,-y,1/2-z
1/2-x,y,-z
1/2+x,1/2+y,1/2+z
1/2-x,-y,1/2+z
1/2+x,1/2-y,-z
-x,1/2+y,1/2-z
loop_
_atom_site_type_symbol
_atom_site_label
_atom_site_fract_x
_atom_site_fract_y
_atom_site_fract_z
Si Si1 0.250000 0.316025 0.000000
Si Si2 0.685765 0.500000 0.750000
Si Si3 0.175406 0.500000 0.750000
Si Si4 0.121995 0.500000 0.250000
Si Si5 0.606496 0.500000 0.250000
Si Si6 0.052862 0.150976 0.072203
O O1 0.280746 0.126618 0.885412
O O2 0.211962 0.489239 0.902208
O O3 0.652967 0.747039 0.802163
O O4 0.141616 0.751505 0.747612
O O5 0.088236 0.395419 0.105213
O O6 0.574150 0.500295 0.414833
O O7 0.000000 0.250000 0.037965
O O8 0.051779 0.000000 0.250000
#
# Coordination Sequence:
#
# PCOD9336996 Si02
#       6
#     4   4   4   4   4   8
#     4  12  30  52  80 116 168 210 280 338 412 496
#     4  12  29  49  80 116 160 216 266 343 409 486
#     4  12  31  55  82 122 164 220 280 341 423 492
#     4  12  27  49  82 116 156 216 274 333 411 492
#     4  12  33  53  84 128 170 216 282 351 419 500
#     4  12  29  53  87 123 169 220 280 344 426 504
#
# _framework density 24.225373000000001
#
# number of rings (size 3 to 8) (size 9 to 14) (size 15 to 20)
#    0.000    0.000    2.857    3.429    8.000   14.857 
#    0.000    0.000    0.000    0.000    0.000    0.000 
#    0.000    0.000    0.000    0.000    0.000    0.000 
#
# Total GULP energy -78571.358580 kJ/mol
# GULP energy per Si atom -5612.239899 kJ/mol
# Density = 2.417024 g / cm^3
# Si number density = 24.225373 Si / 1000 Ang^3
#
#
#
# Elastic Constant Matrix: (Units=GPa)
#
#
# Indices 1 2 3 4 5 6 
#
# 1 204.1623 70.2491 86.0682 0.0000 0.0000 0.0000
# 2 70.2491 135.1144 37.0870 0.0000 0.0000 0.0000
# 3 86.0682 37.0870 151.7128 0.0000 0.0000 0.0000
# 4 0.0000 0.0000 0.0000 44.8783 0.0000 0.0000
# 5 0.0000 0.0000 0.0000 0.0000 526.7061 0.0000
# 6 0.0000 0.0000 0.0000 0.0000 0.0000 28.6284
#
#
#
# Elastic Compliance Matrix: (Units=1/GPa)
#
#
# Indices 1 2 3 4 5 6 
#
# 1 0.007346 -0.002868 -0.003467 0.000000 0.000000 0.000000
# 2 -0.002868 0.009053 -0.000586 0.000000 0.000000 0.000000
# 3 -0.003467 -0.000586 0.008701 0.000000 0.000000 0.000000
# 4 0.000000 0.000000 0.000000 0.022282 0.000000 0.000000
# 5 0.000000 0.000000 0.000000 0.000000 0.001899 0.000000
# 6 0.000000 0.000000 0.000000 0.000000 0.000000 0.034930
#
#
# Mechanical properties :
#
#
# Convention : Reuss Voigt Hill
#
# Bulk Modulus (GPa) = 88.81351 97.53312 93.17331
# Shear Modulus (GPa) = 49.11284 139.88157 94.49720
#
# Velocity S-wave (km/s) = 4.50747 7.60704 6.25238
# Velocity P-wave (km/s) = 7.98941 10.83994 9.52195
#
# Compressibility (1/GPa) = 0.01125955
#
# Stress axis : x y z
#
# Youngs Moduli (GPa) = 136.12368 110.45909 114.92593
#
# Poissons Ratio (x) = 0.31679 0.39839
# Poissons Ratio (y) = 0.39040 0.06735
# Poissons Ratio (z) = 0.47187 0.06473
#
# Static dielectric constant tensor:
#      x y z
#    x 1.882550 0.000000 0.000000 
#    y 0.000000 1.693250 0.000000 
#    z 0.000000 0.000000 1.993150 
# 
# From -- ./inp_files/8157.got.cif
#   From: 2010.05.17/outbox.cif.g08.bks.cpg/sg24_5_cif.got.tgz:8157.got - 2010.06.04 00:33:39.
