data_PCOD9336338
_publ_section_title
;
Structure prediction by ZEFSAII (Michael W. Deem and Ramdas Pophale) SiO2 
 PCOD9336338
Probable space group: I 21 21 21
;
_chemical_formula_sum "Si O2"
_cell_formula_units_Z 24
_cell_length_a 9.697944
_cell_length_b 5.072223
_cell_length_c 21.113499
_cell_angle_alpha 90.000000
_cell_angle_beta 90.000000
_cell_angle_gamma 90.000000
_cell_volume 1038.575858
_symmetry_space_group_name_H-M "I 21 21 21"
_symmetry_group_IT_number 24
_symmetry_cell_setting 'orthorhombic'
loop_
_space_group_symop_operation_xyz
x,y,z
-x,1/2-y,z
x,-y,1/2-z
1/2-x,y,-z
1/2+x,1/2+y,1/2+z
1/2-x,-y,1/2+z
1/2+x,1/2-y,-z
-x,1/2+y,1/2-z
loop_
_atom_site_type_symbol
_atom_site_label
_atom_site_fract_x
_atom_site_fract_y
_atom_site_fract_z
Si Si1 0.338438 0.180837 0.618411
Si Si2 0.599305 0.500000 0.750000
Si Si3 0.089227 0.515294 0.593380
Si Si4 0.250000 0.178556 0.000000
O O1 0.500000 0.250000 0.613204
O O2 0.237076 0.432195 0.621175
O O3 0.318281 0.034222 0.685167
O O4 0.294175 0.004897 0.558499
O O5 0.500000 0.750000 0.742819
O O6 0.130556 0.629882 0.524828
O O7 0.000000 0.250000 0.590006
O O8 0.000000 0.750000 0.624442
#
# Coordination Sequence:
#
# PCOD9336338 Si02
#       4
#     8   4   8   4
#     4  11  28  48  82 115 154 207 262 325 384 461
#     4  10  26  50  78 114 152 198 268 326 380 452
#     4  12  28  46  70 113 159 196 252 323 393 457
#     4  12  28  44  80 110 158 204 260 316 390 458
#
# _framework density 23.108566
#
# number of rings (size 3 to 8) (size 9 to 14) (size 15 to 20)
#    0.000    0.667    3.333    1.000   18.667    0.000 
#    0.000    0.000    7.333    0.000    0.000    0.000 
#    0.000    0.000    0.000    0.000    0.000    0.000 
#
# Total GULP energy -67149.405950 kJ/mol
# GULP energy per Si atom -5595.783829 kJ/mol
# Density = 2.305597 g / cm^3
# Si number density = 23.108566 Si / 1000 Ang^3
#
#
#
# Elastic Constant Matrix: (Units=GPa)
#
#
# Indices 1 2 3 4 5 6 
#
# 1 164.0836 77.4984 35.4144 0.0000 0.0000 0.0000
# 2 77.4984 177.2182 54.9329 0.0000 0.0000 0.0000
# 3 35.4144 54.9329 169.1783 0.0000 0.0000 0.0000
# 4 0.0000 0.0000 0.0000 27.9415 0.0000 0.0000
# 5 0.0000 0.0000 0.0000 0.0000 29.7062 0.0000
# 6 0.0000 0.0000 0.0000 0.0000 0.0000 26.8617
#
#
#
# Elastic Compliance Matrix: (Units=1/GPa)
#
#
# Indices 1 2 3 4 5 6 
#
# 1 0.007732 -0.003202 -0.000579 0.000000 0.000000 0.000000
# 2 -0.003202 0.007600 -0.001798 0.000000 0.000000 0.000000
# 3 -0.000579 -0.001798 0.006616 0.000000 0.000000 0.000000
# 4 0.000000 0.000000 0.000000 0.035789 0.000000 0.000000
# 5 0.000000 0.000000 0.000000 0.000000 0.033663 0.000000
# 6 0.000000 0.000000 0.000000 0.000000 0.000000 0.037228
#
#
# Mechanical properties :
#
#
# Convention : Reuss Voigt Hill
#
# Bulk Modulus (GPa) = 92.66765 94.01906 93.34335
# Shear Modulus (GPa) = 34.87230 39.74418 37.30824
#
# Velocity S-wave (km/s) = 3.88888 4.15165 4.02241
# Velocity P-wave (km/s) = 7.76869 7.98472 7.87745
#
# Compressibility (1/GPa) = 0.01079125
#
# Stress axis : x y z
#
# Youngs Moduli (GPa) = 129.34021 131.57832 151.15371
#
# Poissons Ratio (x) = 0.42126 0.08750
# Poissons Ratio (y) = 0.41410 0.27171
# Poissons Ratio (z) = 0.07487 0.23652
#
# Static dielectric constant tensor:
#      x y z
#    x 1.928490 0.000000 0.000000 
#    y 0.000000 1.918240 0.000000 
#    z 0.000000 0.000000 1.862590 
# 
# From -- ./inp_files/34914.got.cif
#   From: 2010.05.17/outbox.cif.g08.bks.cpg/sg24_18_cif.got.tgz:34914.got - 2010.06.04 00:33:39.
