data_PCOD9336854
_publ_section_title
;
Structure prediction by ZEFSAII (Michael W. Deem and Ramdas Pophale) SiO2 
 PCOD9336854
Probable space group: I 21 21 21
;
_chemical_formula_sum "Si O2"
_cell_formula_units_Z 40
_cell_length_a 8.275054
_cell_length_b 26.053548
_cell_length_c 8.643137
_cell_angle_alpha 90.000000
_cell_angle_beta 90.000000
_cell_angle_gamma 90.000000
_cell_volume 1863.412943
_symmetry_space_group_name_H-M "I 21 21 21"
_symmetry_group_IT_number 24
_symmetry_cell_setting 'orthorhombic'
loop_
_space_group_symop_operation_xyz
x,y,z
-x,1/2-y,z
x,-y,1/2-z
1/2-x,y,-z
1/2+x,1/2+y,1/2+z
1/2-x,-y,1/2+z
1/2+x,1/2-y,-z
-x,1/2+y,1/2-z
loop_
_atom_site_type_symbol
_atom_site_label
_atom_site_fract_x
_atom_site_fract_y
_atom_site_fract_z
Si Si1 0.087081 0.365693 0.097344
Si Si2 0.408401 0.696812 0.912356
Si Si3 0.365921 0.868483 0.134832
Si Si4 0.123857 0.208977 0.879707
Si Si5 0.806684 0.553564 0.328954
O O1 0.125814 0.332209 0.250602
O O2 0.966367 0.410498 0.157455
O O3 0.250000 0.379936 0.000000
O O4 0.979003 0.331615 0.979979
O O5 0.500000 0.750000 0.880056
O O6 0.250000 0.714157 0.000000
O O7 0.488893 0.657079 0.037529
O O8 0.297042 0.822125 0.240452
O O9 0.346443 0.916776 0.249084
O O10 0.250000 0.885228 0.000000
O O11 0.000000 0.250000 0.815900
O O12 0.250000 0.232713 0.000000
O O13 0.844899 0.500000 0.250000
O O14 0.750000 0.542450 0.500000
#
# Coordination Sequence:
#
# PCOD9336854 Si02
#       5
#     8   8   8   8   8
#     4  12  25  47  71 103 152 190 241 309 370 452
#     4  12  27  43  70 109 155 205 251 303 369 444
#     4  12  22  44  71 105 147 184 245 309 360 435
#     4  12  23  41  66 103 144 200 244 292 359 439
#     4  12  26  50  82 110 138 190 253 318 378 443
#
# _framework density 21.465987999999999
#
# number of rings (size 3 to 8) (size 9 to 14) (size 15 to 20)
#    0.000    0.000    6.000    4.200    0.000    4.800 
#    0.000    4.000    0.000    0.000    0.000    0.000 
#    0.000    0.000    0.000    0.000    0.000    0.000 
#
# Total GULP energy -111671.435595 kJ/mol
# GULP energy per Si atom -5583.571780 kJ/mol
# Density = 2.141713 g / cm^3
# Si number density = 21.465988 Si / 1000 Ang^3
#
#
#
# Elastic Constant Matrix: (Units=GPa)
#
#
# Indices 1 2 3 4 5 6 
#
# 1 47.8369 24.7528 21.2837 -0.0016 0.0009 0.0010
# 2 24.7528 124.6824 50.0761 -0.0008 0.0005 0.0007
# 3 21.2837 50.0761 145.2067 -0.0081 0.0049 0.0013
# 4 -0.0016 -0.0008 -0.0081 17.5613 0.0015 0.0036
# 5 0.0009 0.0005 0.0049 0.0015 22.8616 -0.0016
# 6 0.0010 0.0007 0.0013 0.0036 -0.0016 30.6027
#
#
#
# Elastic Compliance Matrix: (Units=1/GPa)
#
#
# Indices 1 2 3 4 5 6 
#
# 1 0.023870 -0.003870 -0.002164 0.000001 0.000000 -0.000001
# 2 -0.003870 0.009937 -0.002860 -0.000001 0.000001 0.000000
# 3 -0.002164 -0.002860 0.008190 0.000003 -0.000002 0.000000
# 4 0.000001 -0.000001 0.000003 0.056943 -0.000004 -0.000007
# 5 0.000000 0.000001 -0.000002 -0.000004 0.043741 0.000002
# 6 -0.000001 0.000000 0.000000 -0.000007 0.000002 0.032677
#
#
# Mechanical properties :
#
#
# Convention : Reuss Voigt Hill
#
# Bulk Modulus (GPa) = 41.30553 56.66123 48.98338
# Shear Modulus (GPa) = 24.84897 28.97934 26.91416
#
# Velocity S-wave (km/s) = 3.40604 3.67824 3.54475
# Velocity P-wave (km/s) = 5.89510 6.67026 6.29462
#
# Compressibility (1/GPa) = 0.02420983
#
# Stress axis : x y z
#
# Youngs Moduli (GPa) = 41.89443 100.63252 122.09752
#
# Poissons Ratio (x) = 0.38940 0.26425
# Poissons Ratio (y) = 0.16211 0.34917
# Poissons Ratio (z) = 0.09067 0.28778
#
# Static dielectric constant tensor:
#      x y z
#    x 1.899690 0.000000 0.000060 
#    y 0.000000 1.758280 0.000000 
#    z 0.000060 0.000000 1.433230 
# 
# From -- ./inp_files/9247.got.cif
#   From: 2010.05.17/outbox.cif.g08.bks.cpg/sg24_5_cif.got.tgz:9247.got - 2010.06.04 00:33:39.
