data_PCOD9336417
_publ_section_title
;
Structure prediction by ZEFSAII (Michael W. Deem and Ramdas Pophale) SiO2 
 PCOD9336417
Probable space group: I 21 21 21
;
_chemical_formula_sum "Si O2"
_cell_formula_units_Z 60
_cell_length_a 20.571521
_cell_length_b 22.943688
_cell_length_c 6.499435
_cell_angle_alpha 90.000000
_cell_angle_beta 90.000000
_cell_angle_gamma 90.000000
_cell_volume 3067.645964
_symmetry_space_group_name_H-M "I 21 21 21"
_symmetry_group_IT_number 24
_symmetry_cell_setting 'orthorhombic'
loop_
_space_group_symop_operation_xyz
x,y,z
-x,1/2-y,z
x,-y,1/2-z
1/2-x,y,-z
1/2+x,1/2+y,1/2+z
1/2-x,-y,1/2+z
1/2+x,1/2-y,-z
-x,1/2+y,1/2-z
loop_
_atom_site_type_symbol
_atom_site_label
_atom_site_fract_x
_atom_site_fract_y
_atom_site_fract_z
Si Si1 0.006874 0.625159 0.529035
Si Si2 0.088092 0.855106 0.200873
Si Si3 0.184512 0.768112 0.359813
Si Si4 0.086932 0.558862 0.196477
Si Si5 0.533793 0.553875 0.097362
Si Si6 0.177627 0.339755 0.473092
Si Si7 0.596626 0.218052 0.193415
Si Si8 0.500000 0.250000 0.547066
O O1 0.056483 0.586866 0.399370
O O2 0.042079 0.686210 0.559683
O O3 0.937673 0.620987 0.417878
O O4 0.997629 0.601514 0.754918
O O5 0.156774 0.822326 0.225161
O O6 0.085024 0.908458 0.038437
O O7 0.028838 0.807754 0.157750
O O8 0.250000 0.773266 0.500000
O O9 0.182301 0.712697 0.200301
O O10 0.129750 0.761374 0.535720
O O11 0.124961 0.500000 0.250000
O O12 0.128777 0.609946 0.096713
O O13 0.025498 0.539051 0.056210
O O14 0.552575 0.500000 0.250000
O O15 0.250000 0.362753 0.500000
O O16 0.153701 0.319001 0.698980
O O17 0.560062 0.238358 0.396742
#
# Coordination Sequence:
#
# PCOD9336417 Si02
#       8
#     8   8   8   8   8   8   8   4
#     4  11  20  37  60  89 126 157 203 264 330 387
#     4  11  24  36  58  97 130 162 216 261 329 406
#     4  12  25  41  60  85 131 180 221 261 323 400
#     4  11  22  38  61  89 124 167 224 271 318 387
#     4  11  22  39  63  92 129 169 203 264 343 396
#     4  12  24  41  58  85 124 179 230 268 310 381
#     4  12  21  36  61  85 123 173 207 266 328 381
#     4  12  20  36  58  94 132 154 202 272 326 386
#
# _framework density 19.558972000000001
#
# number of rings (size 3 to 8) (size 9 to 14) (size 15 to 20)
#    0.000    0.533    8.000    2.400    0.000    0.000 
#    0.000    2.667    0.000    0.000    0.000    0.000 
#    4.000    1.067    0.000    0.000    0.000    0.000 
#
# Total GULP energy -167079.141140 kJ/mol
# GULP energy per Si atom -5569.304705 kJ/mol
# Density = 1.951445 g / cm^3
# Si number density = 19.558972 Si / 1000 Ang^3
#
#
#
# Elastic Constant Matrix: (Units=GPa)
#
#
# Indices 1 2 3 4 5 6 
#
# 1 40.1798 39.1727 20.7919 0.0000 0.0000 0.0000
# 2 39.1727 83.6332 24.2544 0.0000 0.0000 0.0000
# 3 20.7919 24.2544 79.7378 0.0000 0.0000 0.0000
# 4 0.0000 0.0000 0.0000 31.2625 0.0000 0.0000
# 5 0.0000 0.0000 0.0000 0.0000 24.1742 0.0000
# 6 0.0000 0.0000 0.0000 0.0000 0.0000 12.7541
#
#
#
# Elastic Compliance Matrix: (Units=1/GPa)
#
#
# Indices 1 2 3 4 5 6 
#
# 1 0.048524 -0.020903 -0.006295 0.000000 0.000000 0.000000
# 2 -0.020903 0.022118 -0.001277 0.000000 0.000000 0.000000
# 3 -0.006295 -0.001277 0.014571 0.000000 0.000000 0.000000
# 4 0.000000 0.000000 0.000000 0.031987 0.000000 0.000000
# 5 0.000000 0.000000 0.000000 0.000000 0.041366 0.000000
# 6 0.000000 0.000000 0.000000 0.000000 0.000000 0.078406
#
#
# Mechanical properties :
#
#
# Convention : Reuss Voigt Hill
#
# Bulk Modulus (GPa) = 35.38100 41.33210 38.35655
# Shear Modulus (GPa) = 16.48296 21.59359 19.03828
#
# Velocity S-wave (km/s) = 2.90613 3.32629 3.12329
# Velocity P-wave (km/s) = 5.42121 5.99418 5.71488
#
# Compressibility (1/GPa) = 0.02826376
#
# Stress axis : x y z
#
# Youngs Moduli (GPa) = 20.60829 45.21225 68.62936
#
# Poissons Ratio (x) = 0.94505 0.43201
# Poissons Ratio (y) = 0.43077 0.08766
# Poissons Ratio (z) = 0.12972 0.05775
#
# Static dielectric constant tensor:
#      x y z
#    x 1.805610 0.000000 0.000000 
#    y 0.000000 1.783900 0.000000 
#    z 0.000000 0.000000 1.697950 
# 
# From -- ./inp_files/5843.got.cif
#   From: 2010.05.17/outbox.cif.g08.bks.cpg/sg24_3_cif.got.tgz:5843.got - 2010.06.04 00:33:39.
