data_PCOD9336795
_publ_section_title
;
Structure prediction by ZEFSAII (Michael W. Deem and Ramdas Pophale) SiO2 
 PCOD9336795
Probable space group: I 21 21 21
;
_chemical_formula_sum "Si O2"
_cell_formula_units_Z 32
_cell_length_a 8.367822
_cell_length_b 13.158389
_cell_length_c 10.596209
_cell_angle_alpha 90.000000
_cell_angle_beta 90.000000
_cell_angle_gamma 90.000000
_cell_volume 1166.717388
_symmetry_space_group_name_H-M "I 21 21 21"
_symmetry_group_IT_number 24
_symmetry_cell_setting 'orthorhombic'
loop_
_space_group_symop_operation_xyz
x,y,z
-x,1/2-y,z
x,-y,1/2-z
1/2-x,y,-z
1/2+x,1/2+y,1/2+z
1/2-x,-y,1/2+z
1/2+x,1/2-y,-z
-x,1/2+y,1/2-z
loop_
_atom_site_type_symbol
_atom_site_label
_atom_site_fract_x
_atom_site_fract_y
_atom_site_fract_z
Si Si1 0.582006 0.166819 0.543531
Si Si2 0.002530 0.960781 0.384068
Si Si3 0.742000 0.293370 0.770319
Si Si4 0.573719 0.900204 0.334708
O O1 0.500000 0.250000 0.452223
O O2 0.750000 0.117616 0.500000
O O3 0.652582 0.246351 0.647912
O O4 0.458863 0.075671 0.567819
O O5 0.122818 0.872025 0.339972
O O6 0.940463 0.920705 0.517092
O O7 0.926877 0.000000 0.250000
O O8 0.789682 0.185039 0.829606
O O9 0.907693 0.355520 0.778978
O O10 0.601269 0.000000 0.250000
#
# Coordination Sequence:
#
# PCOD9336795 Si02
#       4
#     8   8   8   8
#     4  12  29  50  87 125 171 221 282 351 435 516
#     4  12  27  51  81 123 167 221 279 349 423 504
#     4  11  27  52  82 120 170 220 287 347 431 500
#     4  11  27  51  88 122 167 223 290 354 417 509
#
# _framework density 27.427378999999998
#
# number of rings (size 3 to 8) (size 9 to 14) (size 15 to 20)
#    0.000    0.500    2.500    3.000    7.000    9.000 
#    0.000    2.500    0.000    0.000    0.000    0.000 
#    0.000    0.000    0.000    0.000    0.000    0.000 
#
# Total GULP energy -89083.920459 kJ/mol
# GULP energy per Si atom -5567.745029 kJ/mol
# Density = 2.736495 g / cm^3
# Si number density = 27.427379 Si / 1000 Ang^3
#
#
#
# Elastic Constant Matrix: (Units=GPa)
#
#
# Indices 1 2 3 4 5 6 
#
# 1 125.6405 83.5786 80.4987 0.0000 0.0000 0.0000
# 2 83.5786 269.2936 97.2176 0.0001 0.0000 0.0000
# 3 80.4987 97.2176 172.7358 0.0001 0.0000 0.0000
# 4 0.0000 0.0001 0.0001 54.7007 0.0000 0.0000
# 5 0.0000 0.0000 0.0000 0.0000 15.0071 0.0000
# 6 0.0000 0.0000 0.0000 0.0000 0.0000 35.1223
#
#
#
# Elastic Compliance Matrix: (Units=1/GPa)
#
#
# Indices 1 2 3 4 5 6 
#
# 1 0.012300 -0.002194 -0.004497 0.000000 0.000000 0.000000
# 2 -0.002194 0.005052 -0.001821 0.000000 0.000000 0.000000
# 3 -0.004497 -0.001821 0.008910 0.000000 0.000000 0.000000
# 4 0.000000 0.000000 0.000000 0.018281 0.000000 0.000000
# 5 0.000000 0.000000 0.000000 0.000000 0.066635 0.000000
# 6 0.000000 0.000000 0.000000 0.000000 0.000000 0.028472
#
#
# Mechanical properties :
#
#
# Convention : Reuss Voigt Hill
#
# Bulk Modulus (GPa) = 108.25364 121.13997 114.69680
# Shear Modulus (GPa) = 31.29833 41.39103 36.34468
#
# Velocity S-wave (km/s) = 3.38173 3.88895 3.64417
# Velocity P-wave (km/s) = 7.40291 8.02674 7.72113
#
# Compressibility (1/GPa) = 0.00923756
#
# Stress axis : x y z
#
# Youngs Moduli (GPa) = 81.29980 197.95663 112.23624
#
# Poissons Ratio (x) = 0.43430 0.50477
# Poissons Ratio (y) = 0.17836 0.20435
# Poissons Ratio (z) = 0.36564 0.36042
#
# Static dielectric constant tensor:
#      x y z
#    x 2.496530 0.000000 0.000000 
#    y 0.000000 2.150960 0.000000 
#    z 0.000000 0.000000 2.524420 
# 
# From -- ./inp_files/18059.got.cif
#   From: 2010.05.17/outbox.cif.g08.bks.cpg/sg24_10_cif.got.tgz:18059.got - 2010.06.04 00:33:39.
