data_PCOD9336529
_publ_section_title
;
Structure prediction by ZEFSAII (Michael W. Deem and Ramdas Pophale) SiO2 
 PCOD9336529
Probable space group: I 21 21 21
;
_chemical_formula_sum "Si O2"
_cell_formula_units_Z 40
_cell_length_a 14.433987
_cell_length_b 11.862164
_cell_length_c 10.044113
_cell_angle_alpha 90.000000
_cell_angle_beta 90.000000
_cell_angle_gamma 90.000000
_cell_volume 1719.736163
_symmetry_space_group_name_H-M "I 21 21 21"
_symmetry_group_IT_number 24
_symmetry_cell_setting 'orthorhombic'
loop_
_space_group_symop_operation_xyz
x,y,z
-x,1/2-y,z
x,-y,1/2-z
1/2-x,y,-z
1/2+x,1/2+y,1/2+z
1/2-x,-y,1/2+z
1/2+x,1/2-y,-z
-x,1/2+y,1/2-z
loop_
_atom_site_type_symbol
_atom_site_label
_atom_site_fract_x
_atom_site_fract_y
_atom_site_fract_z
Si Si1 0.408793 0.180098 0.723431
Si Si2 0.411568 0.815522 0.463573
Si Si3 0.720954 0.000000 0.250000
Si Si4 0.289206 0.726591 0.146498
Si Si5 0.250000 0.636973 0.500000
Si Si6 0.357505 0.053384 0.464420
O O1 0.500000 0.250000 0.684588
O O2 0.423474 0.155527 0.878863
O O3 0.306834 0.239225 0.720389
O O4 0.400984 0.087809 0.606968
O O5 0.500000 0.750000 0.412292
O O6 0.330153 0.723495 0.456461
O O7 0.395103 0.938510 0.403755
O O8 0.668072 0.109796 0.303761
O O9 0.774945 0.053813 0.123493
O O10 0.250000 0.703230 0.000000
O O11 0.354187 0.835156 0.127985
O O12 0.250000 0.029130 0.500000
#
# Coordination Sequence:
#
# PCOD9336529 Si02
#       6
#     8   8   4   8   4   8
#     4   9  18  33  58  99 133 166 219 290 353 391
#     4  11  22  40  64  98 131 176 233 285 350 407
#     4  12  22  42  66  96 132 176 232 274 356 406
#     4   9  19  36  61  92 129 178 216 274 344 408
#     4  12  26  42  70  94 138 178 220 292 338 424
#     4   9  19  37  61  92 136 173 222 275 347 418
#
# _framework density 23.25938
#
# number of rings (size 3 to 8) (size 9 to 14) (size 15 to 20)
#    0.000    2.400    4.000    0.600    0.000    1.600 
#    0.000    1.000    4.400    0.000    0.000    0.000 
#    0.000    0.000    0.000    0.000    0.000    0.000 
#
# Total GULP energy -111456.329411 kJ/mol
# GULP energy per Si atom -5572.816471 kJ/mol
# Density = 2.320644 g / cm^3
# Si number density = 23.259380 Si / 1000 Ang^3
#
#
#
# Elastic Constant Matrix: (Units=GPa)
#
#
# Indices 1 2 3 4 5 6 
#
# 1 68.0579 52.1551 -5.2336 0.0000 0.0000 0.0000
# 2 52.1551 244.4239 52.0812 0.0000 0.0000 0.0000
# 3 -5.2336 52.0812 76.1851 0.0000 0.0000 0.0000
# 4 0.0000 0.0000 0.0000 38.1108 0.0000 0.0000
# 5 0.0000 0.0000 0.0000 0.0000 19.6760 0.0000
# 6 0.0000 0.0000 0.0000 0.0000 0.0000 11.5483
#
#
#
# Elastic Compliance Matrix: (Units=1/GPa)
#
#
# Indices 1 2 3 4 5 6 
#
# 1 0.018931 -0.005053 0.004754 0.000000 0.000000 0.000000
# 2 -0.005053 0.006137 -0.004543 0.000000 0.000000 0.000000
# 3 0.004754 -0.004543 0.016558 0.000000 0.000000 0.000000
# 4 0.000000 0.000000 0.000000 0.026239 0.000000 0.000000
# 5 0.000000 0.000000 0.000000 0.000000 0.050823 0.000000
# 6 0.000000 0.000000 0.000000 0.000000 0.000000 0.086593
#
#
# Mechanical properties :
#
#
# Convention : Reuss Voigt Hill
#
# Bulk Modulus (GPa) = 31.30409 65.18581 48.24495
# Shear Modulus (GPa) = 22.16199 33.17796 27.66997
#
# Velocity S-wave (km/s) = 3.09013 3.78091 3.45284
# Velocity P-wave (km/s) = 5.12052 6.86636 6.05667
#
# Compressibility (1/GPa) = 0.03194471
#
# Stress axis : x y z
#
# Youngs Moduli (GPa) = 52.82365 162.93834 60.39405
#
# Poissons Ratio (x) = 0.82325 -0.28714
# Poissons Ratio (y) = 0.26689 0.27435
# Poissons Ratio (z) = -0.25115 0.74017
#
# Static dielectric constant tensor:
#      x y z
#    x 1.855330 0.000000 0.000000 
#    y 0.000000 1.911070 0.000000 
#    z 0.000000 0.000000 1.982150 
# 
# From -- ./inp_files/20531.got.cif
#   From: 2010.05.17/outbox.cif.g08.bks.cpg/sg24_11_cif.got.tgz:20531.got - 2010.06.04 00:33:39.
