data_PCOD9336852
_publ_section_title
;
Structure prediction by ZEFSAII (Michael W. Deem and Ramdas Pophale) SiO2 
 PCOD9336852
Probable space group: I 21 21 21
;
_chemical_formula_sum "Si O2"
_cell_formula_units_Z 48
_cell_length_a 14.732654
_cell_length_b 7.714402
_cell_length_c 18.907077
_cell_angle_alpha 90.000000
_cell_angle_beta 90.000000
_cell_angle_gamma 90.000000
_cell_volume 2148.857659
_symmetry_space_group_name_H-M "I 21 21 21"
_symmetry_group_IT_number 24
_symmetry_cell_setting 'orthorhombic'
loop_
_space_group_symop_operation_xyz
x,y,z
-x,1/2-y,z
x,-y,1/2-z
1/2-x,y,-z
1/2+x,1/2+y,1/2+z
1/2-x,-y,1/2+z
1/2+x,1/2-y,-z
-x,1/2+y,1/2-z
loop_
_atom_site_type_symbol
_atom_site_label
_atom_site_fract_x
_atom_site_fract_y
_atom_site_fract_z
Si Si1 0.168936 0.983559 0.089177
Si Si2 0.250000 0.549969 0.000000
Si Si3 0.355420 0.623939 0.628837
Si Si4 0.902055 0.682786 0.956765
Si Si5 0.659883 0.633920 0.185252
Si Si6 0.780010 0.000000 0.750000
Si Si7 0.468001 0.077193 0.683871
O O1 0.136975 0.171538 0.115033
O O2 0.256483 0.929256 0.134296
O O3 0.094546 0.854918 0.121584
O O4 0.148242 0.961937 0.006104
O O5 0.308486 0.446684 0.942657
O O6 0.174066 0.666101 0.960652
O O7 0.284405 0.582102 0.690389
O O8 0.449599 0.534517 0.652345
O O9 0.916448 0.625542 0.875625
O O10 0.000000 0.750000 0.982533
O O11 0.650152 0.500000 0.250000
O O12 0.670245 0.830767 0.215538
O O13 0.500000 0.250000 0.721233
O O14 0.412871 0.000000 0.750000
#
# Coordination Sequence:
#
# PCOD9336852 Si02
#       7
#     8   4   8   8   8   4   8
#     4  12  24  43  71 105 139 192 241 298 367 442
#     4  12  24  44  72 102 138 192 238 294 368 430
#     4  12  25  39  68 105 144 189 240 295 362 442
#     4  12  26  49  74 104 146 191 247 310 375 440
#     4  12  25  46  75 106 141 196 246 304 365 445
#     4  12  22  44  68 104 144 188 250 300 366 430
#     4  12  24  39  62 101 146 181 227 290 360 436
#
# _framework density 22.337448999999999
#
# number of rings (size 3 to 8) (size 9 to 14) (size 15 to 20)
#    0.000    0.000    5.833    5.500    2.333    0.000 
#    1.500    0.000    0.000    0.000    0.000    0.000 
#    0.000    0.000    0.000    0.000    0.000    0.000 
#
# Total GULP energy -133736.363215 kJ/mol
# GULP energy per Si atom -5572.348467 kJ/mol
# Density = 2.228661 g / cm^3
# Si number density = 22.337449 Si / 1000 Ang^3
#
#
#
# Elastic Constant Matrix: (Units=GPa)
#
#
# Indices 1 2 3 4 5 6 
#
# 1 61.1687 9.2378 12.5665 0.0000 0.0000 0.0000
# 2 9.2378 83.4733 33.6053 0.0000 0.0000 0.0000
# 3 12.5665 33.6053 169.6817 0.0000 0.0000 0.0000
# 4 0.0000 0.0000 0.0000 44.7262 0.0000 0.0000
# 5 0.0000 0.0000 0.0000 0.0000 28.2969 0.0000
# 6 0.0000 0.0000 0.0000 0.0000 0.0000 23.8293
#
#
#
# Elastic Compliance Matrix: (Units=1/GPa)
#
#
# Indices 1 2 3 4 5 6 
#
# 1 0.016766 -0.001473 -0.000950 0.000000 0.000000 0.000000
# 2 -0.001473 0.013147 -0.002495 0.000000 0.000000 0.000000
# 3 -0.000950 -0.002495 0.006458 0.000000 0.000000 0.000000
# 4 0.000000 0.000000 0.000000 0.022358 0.000000 0.000000
# 5 0.000000 0.000000 0.000000 0.000000 0.035340 0.000000
# 6 0.000000 0.000000 0.000000 0.000000 0.000000 0.041965
#
#
# Mechanical properties :
#
#
# Convention : Reuss Voigt Hill
#
# Bulk Modulus (GPa) = 37.68523 47.23809 42.46166
# Shear Modulus (GPa) = 32.31762 36.63142 34.47452
#
# Velocity S-wave (km/s) = 3.80780 4.05397 3.93281
# Velocity P-wave (km/s) = 6.01996 6.56554 6.29866
#
# Compressibility (1/GPa) = 0.02653559
#
# Stress axis : x y z
#
# Youngs Moduli (GPa) = 59.64505 76.06165 154.85118
#
# Poissons Ratio (x) = 0.11204 0.14710
# Poissons Ratio (y) = 0.08786 0.38631
# Poissons Ratio (z) = 0.05666 0.18975
#
# Static dielectric constant tensor:
#      x y z
#    x 1.813160 0.000000 0.000000 
#    y 0.000000 1.975580 0.000000 
#    z 0.000000 0.000000 1.944840 
# 
# From -- ./inp_files/30743.got.cif
#   From: 2010.05.17/outbox.cif.g08.bks.cpg/sg24_16_cif.got.tgz:30743.got - 2010.06.04 00:33:39.
