data_PCOD9336906
_publ_section_title
;
Structure prediction by ZEFSAII (Michael W. Deem and Ramdas Pophale) SiO2 
 PCOD9336906
Probable space group: I 21 21 21
;
_chemical_formula_sum "Si O2"
_cell_formula_units_Z 32
_cell_length_a 18.340370
_cell_length_b 4.991916
_cell_length_c 15.947598
_cell_angle_alpha 90.000000
_cell_angle_beta 90.000000
_cell_angle_gamma 90.000000
_cell_volume 1460.059792
_symmetry_space_group_name_H-M "I 21 21 21"
_symmetry_group_IT_number 24
_symmetry_cell_setting 'orthorhombic'
loop_
_space_group_symop_operation_xyz
x,y,z
-x,1/2-y,z
x,-y,1/2-z
1/2-x,y,-z
1/2+x,1/2+y,1/2+z
1/2-x,-y,1/2+z
1/2+x,1/2-y,-z
-x,1/2+y,1/2-z
loop_
_atom_site_type_symbol
_atom_site_label
_atom_site_fract_x
_atom_site_fract_y
_atom_site_fract_z
Si Si1 0.270326 0.958477 0.902816
Si Si2 0.000000 0.750000 0.936503
Si Si3 0.000000 0.750000 0.447118
Si Si4 0.140170 0.460499 0.151144
Si Si5 0.127166 0.755425 0.807418
O O1 0.333179 0.737267 0.889788
O O2 0.200331 0.857464 0.851831
O O3 0.298242 0.238643 0.866522
O O4 0.250000 0.986537 0.000000
O O5 0.932022 0.819683 0.877269
O O6 0.978876 0.498088 0.993675
O O7 0.066810 0.648419 0.391020
O O8 0.130568 0.500000 0.250000
O O9 0.142289 0.500000 0.750000
O O10 0.098422 0.000000 0.750000
#
# Coordination Sequence:
#
# PCOD9336906 Si02
#       5
#     8   4   4   8   8
#     4  12  25  44  70 101 135 175 221 274 332 395
#     4  12  26  46  68 100 136 176 224 272 330 398
#     4  12  26  46  70  98 134 178 222 276 332 392
#     4  12  26  45  69 100 134 175 224 275 331 394
#     4  12  24  43  69 100 136 177 220 273 331 394
#
# _framework density 21.916910000000001
#
# number of rings (size 3 to 8) (size 9 to 14) (size 15 to 20)
#    0.000    0.000    0.000   12.000    0.000    3.000 
#    0.000    0.000    0.000    0.000    0.000    0.000 
#    0.000    0.000    0.000    0.000    0.000    0.000 
#
# Total GULP energy -89782.518966 kJ/mol
# GULP energy per Si atom -5611.407435 kJ/mol
# Density = 2.186703 g / cm^3
# Si number density = 21.916910 Si / 1000 Ang^3
#
#
#
# Elastic Constant Matrix: (Units=GPa)
#
#
# Indices 1 2 3 4 5 6 
#
# 1 50.7100 -19.6796 47.1211 0.0000 0.0000 0.0000
# 2 -19.6796 100.9491 49.3162 0.0000 0.0000 0.0000
# 3 47.1211 49.3162 174.7135 0.0000 0.0000 0.0000
# 4 0.0000 0.0000 0.0000 40.0549 0.0000 0.0000
# 5 0.0000 0.0000 0.0000 0.0000 16.7824 0.0000
# 6 0.0000 0.0000 0.0000 0.0000 0.0000 35.9266
#
#
#
# Elastic Compliance Matrix: (Units=1/GPa)
#
#
# Indices 1 2 3 4 5 6 
#
# 1 0.039211 0.014859 -0.014770 0.000000 0.000000 0.000000
# 2 0.014859 0.017122 -0.008841 0.000000 0.000000 0.000000
# 3 -0.014770 -0.008841 0.012203 0.000000 0.000000 0.000000
# 4 0.000000 0.000000 0.000000 0.024966 0.000000 0.000000
# 5 0.000000 0.000000 0.000000 0.000000 0.059586 0.000000
# 6 0.000000 0.000000 0.000000 0.000000 0.000000 0.027835
#
#
# Mechanical properties :
#
#
# Convention : Reuss Voigt Hill
#
# Bulk Modulus (GPa) = 19.59499 53.32089 36.45794
# Shear Modulus (GPa) = 23.20887 35.19377 29.20132
#
# Velocity S-wave (km/s) = 3.25768 4.01157 3.65412
# Velocity P-wave (km/s) = 4.80728 6.77040 5.87147
#
# Compressibility (1/GPa) = 0.05103345
#
# Stress axis : x y z
#
# Youngs Moduli (GPa) = 25.50298 58.40577 81.95005
#
# Poissons Ratio (x) = -0.86788 1.21038
# Poissons Ratio (y) = -0.37896 0.72448
# Poissons Ratio (z) = 0.37667 0.51634
#
# Static dielectric constant tensor:
#      x y z
#    x 1.797590 0.000000 0.000000 
#    y 0.000000 1.783750 0.000000 
#    z 0.000000 0.000000 1.754060 
# 
# From -- ./inp_files/27314.got.cif
#   From: 2010.05.17/outbox.cif.g08.bks.cpg/sg24_14_cif.got.tgz:27314.got - 2010.06.04 00:33:39.
