data_PCOD9336945
_publ_section_title
;
Structure prediction by ZEFSAII (Michael W. Deem and Ramdas Pophale) SiO2 
 PCOD9336945
Probable space group: I 21 21 21
;
_chemical_formula_sum "Si O2"
_cell_formula_units_Z 28
_cell_length_a 31.468934
_cell_length_b 4.862687
_cell_length_c 7.792861
_cell_angle_alpha 90.000000
_cell_angle_beta 90.000000
_cell_angle_gamma 90.000000
_cell_volume 1192.491460
_symmetry_space_group_name_H-M "I 21 21 21"
_symmetry_group_IT_number 24
_symmetry_cell_setting 'orthorhombic'
loop_
_space_group_symop_operation_xyz
x,y,z
-x,1/2-y,z
x,-y,1/2-z
1/2-x,y,-z
1/2+x,1/2+y,1/2+z
1/2-x,-y,1/2+z
1/2+x,1/2-y,-z
-x,1/2+y,1/2-z
loop_
_atom_site_type_symbol
_atom_site_label
_atom_site_fract_x
_atom_site_fract_y
_atom_site_fract_z
Si Si1 0.214546 0.500000 0.750000
Si Si2 0.847450 0.627279 0.973253
Si Si3 0.092571 0.597983 0.552029
Si Si4 0.028761 0.500000 0.250000
Si Si5 0.277079 0.000000 0.750000
O O1 0.180529 0.700415 0.839331
O O2 0.248464 0.738013 0.700855
O O3 0.878065 0.630126 0.566527
O O4 0.879395 0.860140 0.037691
O O5 0.809826 0.541859 0.097212
O O6 0.082154 0.500000 0.750000
O O7 0.054692 0.621846 0.414424
O O8 0.000000 0.250000 0.316719
#
# Coordination Sequence:
#
# PCOD9336945 Si02
#       5
#     4   8   8   4   4
#     4  12  26  45  66 108 148 202 272 336 380 431
#     4  12  25  47  71 108 148 204 265 312 379 458
#     4  12  26  48  79 111 151 201 250 308 380 466
#     4  12  28  52  82 120 156 186 240 310 388 478
#     4  12  26  45  70 100 156 208 262 338 392 423
#
# _framework density 23.480253000000001
#
# number of rings (size 3 to 8) (size 9 to 14) (size 15 to 20)
#    0.000    0.000    1.429    8.571    0.000    3.429 
#    0.000    0.000    0.000    0.000    0.000    0.000 
#    0.000    0.000    0.000    0.000    0.000    0.000 
#
# Total GULP energy -78045.522711 kJ/mol
# GULP energy per Si atom -5574.680194 kJ/mol
# Density = 2.342681 g / cm^3
# Si number density = 23.480253 Si / 1000 Ang^3
#
#
#
# Elastic Constant Matrix: (Units=GPa)
#
#
# Indices 1 2 3 4 5 6 
#
# 1 117.6125 59.3341 77.5844 0.0000 0.0000 0.0000
# 2 59.3341 191.3027 71.3805 0.0000 0.0000 0.0000
# 3 77.5844 71.3805 129.9250 0.0000 0.0000 0.0000
# 4 0.0000 0.0000 0.0000 26.7442 0.0000 0.0000
# 5 0.0000 0.0000 0.0000 0.0000 21.8898 0.0000
# 6 0.0000 0.0000 0.0000 0.0000 0.0000 62.1359
#
#
#
# Elastic Compliance Matrix: (Units=1/GPa)
#
#
# Indices 1 2 3 4 5 6 
#
# 1 0.014399 -0.001582 -0.007729 0.000000 0.000000 0.000000
# 2 -0.001582 0.006749 -0.002763 0.000000 0.000000 0.000000
# 3 -0.007729 -0.002763 0.013830 0.000000 0.000000 0.000000
# 4 0.000000 0.000000 0.000000 0.037391 0.000000 0.000000
# 5 0.000000 0.000000 0.000000 0.000000 0.045683 0.000000
# 6 0.000000 0.000000 0.000000 0.000000 0.000000 0.016094
#
#
# Mechanical properties :
#
#
# Convention : Reuss Voigt Hill
#
# Bulk Modulus (GPa) = 92.33945 95.04868 93.69407
# Shear Modulus (GPa) = 30.88205 37.52340 34.20272
#
# Velocity S-wave (km/s) = 3.63055 4.00194 3.82076
# Velocity P-wave (km/s) = 7.54893 7.86906 7.71066
#
# Compressibility (1/GPa) = 0.01082961
#
# Stress axis : x y z
#
# Youngs Moduli (GPa) = 69.44729 148.16960 72.30428
#
# Poissons Ratio (x) = 0.23441 0.55887
# Poissons Ratio (y) = 0.10987 0.19979
# Poissons Ratio (z) = 0.53679 0.40942
#
# Static dielectric constant tensor:
#      x y z
#    x 1.898620 0.000000 0.000000 
#    y 0.000000 1.848420 0.000000 
#    z 0.000000 0.000000 2.009430 
# 
# From -- ./inp_files/16193.got.cif
#   From: 2010.05.17/outbox.cif.g08.bks.cpg/sg24_9_cif.got.tgz:16193.got - 2010.06.04 00:33:39.
