data_PCOD9336489
_publ_section_title
;
Structure prediction by ZEFSAII (Michael W. Deem and Ramdas Pophale) SiO2 
 PCOD9336489
Probable space group: I 21 21 21
;
_chemical_formula_sum "Si O2"
_cell_formula_units_Z 40
_cell_length_a 19.132029
_cell_length_b 11.724169
_cell_length_c 7.930749
_cell_angle_alpha 90.000000
_cell_angle_beta 90.000000
_cell_angle_gamma 90.000000
_cell_volume 1778.923637
_symmetry_space_group_name_H-M "I 21 21 21"
_symmetry_group_IT_number 24
_symmetry_cell_setting 'orthorhombic'
loop_
_space_group_symop_operation_xyz
x,y,z
-x,1/2-y,z
x,-y,1/2-z
1/2-x,y,-z
1/2+x,1/2+y,1/2+z
1/2-x,-y,1/2+z
1/2+x,1/2-y,-z
-x,1/2+y,1/2-z
loop_
_atom_site_type_symbol
_atom_site_label
_atom_site_fract_x
_atom_site_fract_y
_atom_site_fract_z
Si Si1 0.673466 0.844356 0.929960
Si Si2 0.569099 0.671471 0.097464
Si Si3 0.176047 0.756114 0.438100
Si Si4 0.442445 0.914821 0.481944
Si Si5 0.404051 0.443439 0.066165
O O1 0.682086 0.808226 0.737989
O O2 0.750000 0.869388 0.000000
O O3 0.634660 0.743863 0.033183
O O4 0.625992 0.955509 0.953902
O O5 0.500000 0.750000 0.077089
O O6 0.572599 0.630917 0.291811
O O7 0.563692 0.550942 0.002357
O O8 0.250000 0.804258 0.500000
O O9 0.115841 0.849630 0.413985
O O10 0.150588 0.659604 0.570929
O O11 0.524458 0.891840 0.507904
O O12 0.418178 0.500000 0.250000
#
# Coordination Sequence:
#
# PCOD9336489 Si02
#       5
#     8   8   8   8   8
#     4  12  26  45  70 101 142 186 234 294 351 410
#     4  11  21  43  71 104 136 184 231 278 347 420
#     4  12  27  45  67 104 145 184 236 287 351 417
#     4  11  23  42  73 102 140 183 228 285 346 419
#     4  12  22  45  73 104 138 184 235 287 353 414
#
# _framework density 22.485506999999998
#
# number of rings (size 3 to 8) (size 9 to 14) (size 15 to 20)
#    0.000    0.400    4.000    6.600    0.000    3.200 
#    3.600    0.000    0.000    0.000    0.000    0.000 
#    0.000    0.000    0.000    0.000    0.000    0.000 
#
# Total GULP energy -111983.250804 kJ/mol
# GULP energy per Si atom -5599.162540 kJ/mol
# Density = 2.243433 g / cm^3
# Si number density = 22.485507 Si / 1000 Ang^3
#
#
#
# Elastic Constant Matrix: (Units=GPa)
#
#
# Indices 1 2 3 4 5 6 
#
# 1 139.9467 35.5746 40.6258 0.0000 0.0000 0.0000
# 2 35.5746 110.7796 24.8298 0.0000 0.0000 0.0000
# 3 40.6258 24.8298 57.9072 0.0000 0.0000 0.0000
# 4 0.0000 0.0000 0.0000 21.2389 0.0000 0.0000
# 5 0.0000 0.0000 0.0000 0.0000 30.8795 0.0000
# 6 0.0000 0.0000 0.0000 0.0000 0.0000 29.2211
#
#
#
# Elastic Compliance Matrix: (Units=1/GPa)
#
#
# Indices 1 2 3 4 5 6 
#
# 1 0.009246 -0.001676 -0.005768 0.000000 0.000000 0.000000
# 2 -0.001676 0.010291 -0.003236 0.000000 0.000000 0.000000
# 3 -0.005768 -0.003236 0.022703 0.000000 0.000000 0.000000
# 4 0.000000 0.000000 0.000000 0.047083 0.000000 0.000000
# 5 0.000000 0.000000 0.000000 0.000000 0.032384 0.000000
# 6 0.000000 0.000000 0.000000 0.000000 0.000000 0.034222
#
#
# Mechanical properties :
#
#
# Convention : Reuss Voigt Hill
#
# Bulk Modulus (GPa) = 47.89585 56.74378 52.31981
# Shear Modulus (GPa) = 27.13698 30.10811 28.62254
#
# Velocity S-wave (km/s) = 3.47777 3.66321 3.57169
# Velocity P-wave (km/s) = 6.12156 6.57135 6.35044
#
# Compressibility (1/GPa) = 0.02087864
#
# Stress axis : x y z
#
# Youngs Moduli (GPa) = 108.15339 97.17543 44.04638
#
# Poissons Ratio (x) = 0.16290 0.25406
# Poissons Ratio (y) = 0.18131 0.14255
# Poissons Ratio (z) = 0.62383 0.31450
#
# Static dielectric constant tensor:
#      x y z
#    x 1.822880 0.000000 0.000000 
#    y 0.000000 1.819780 0.000000 
#    z 0.000000 0.000000 1.864180 
# 
# From -- ./inp_files/10719.got.cif
#   From: 2010.05.17/outbox.cif.g08.bks.cpg/sg24_6_cif.got.tgz:10719.got - 2010.06.04 00:33:39.
