data_PCOD9336333
_publ_section_title
;
Structure prediction by ZEFSAII (Michael W. Deem and Ramdas Pophale) SiO2 
 PCOD9336333
Probable space group: I 21 21 21
;
_chemical_formula_sum "Si O2"
_cell_formula_units_Z 24
_cell_length_a 9.264731
_cell_length_b 15.011524
_cell_length_c 6.285375
_cell_angle_alpha 90.000000
_cell_angle_beta 90.000000
_cell_angle_gamma 90.000000
_cell_volume 874.155698
_symmetry_space_group_name_H-M "I 21 21 21"
_symmetry_group_IT_number 24
_symmetry_cell_setting 'orthorhombic'
loop_
_space_group_symop_operation_xyz
x,y,z
-x,1/2-y,z
x,-y,1/2-z
1/2-x,y,-z
1/2+x,1/2+y,1/2+z
1/2-x,-y,1/2+z
1/2+x,1/2-y,-z
-x,1/2+y,1/2-z
loop_
_atom_site_type_symbol
_atom_site_label
_atom_site_fract_x
_atom_site_fract_y
_atom_site_fract_z
Si Si1 0.137791 0.000000 0.250000
Si Si2 0.163260 0.174205 0.712180
Si Si3 0.000000 0.750000 0.407259
Si Si4 0.584190 0.104694 0.550898
O O1 0.240381 0.914468 0.252005
O O2 0.018813 0.982510 0.067791
O O3 0.250000 0.213550 0.500000
O O4 0.375661 0.219875 0.066729
O O5 0.001518 0.154089 0.632895
O O6 0.056249 0.668551 0.257212
O O7 0.750000 0.085496 0.500000
#
# Coordination Sequence:
#
# PCOD9336333 Si02
#       4
#     4   8   4   8
#     4  10  26  54  86 114 170 228 282 352 438 498
#     4  10  26  49  85 126 170 223 290 349 424 537
#     4  12  28  50  90 128 176 228 278 356 462 470
#     4  11  28  49  80 126 174 218 292 364 415 529
#
# _framework density 27.455062999999999
#
# number of rings (size 3 to 8) (size 9 to 14) (size 15 to 20)
#    0.000    1.333    0.000    1.000   14.000   22.667 
#    0.000    0.000    0.000    0.000    0.000    0.000 
#    0.000    0.000    0.000    0.000    0.000    0.000 
#
# Total GULP energy -67006.405844 kJ/mol
# GULP energy per Si atom -5583.867154 kJ/mol
# Density = 2.739257 g / cm^3
# Si number density = 27.455063 Si / 1000 Ang^3
#
#
#
# Elastic Constant Matrix: (Units=GPa)
#
#
# Indices 1 2 3 4 5 6 
#
# 1 322.2729 59.1097 104.6315 0.0002 -0.0002 0.0000
# 2 59.1097 107.7084 59.6082 0.0008 -0.0003 0.0000
# 3 104.6315 59.6082 151.6632 0.0054 -0.0015 -0.0005
# 4 0.0002 0.0008 0.0054 31.8116 -0.0007 -0.0001
# 5 -0.0002 -0.0003 -0.0015 -0.0007 58.4797 0.0001
# 6 0.0000 0.0000 -0.0005 -0.0001 0.0001 35.8234
#
#
#
# Elastic Compliance Matrix: (Units=1/GPa)
#
#
# Indices 1 2 3 4 5 6 
#
# 1 0.004061 -0.000867 -0.002461 0.000000 0.000000 0.000000
# 2 -0.000867 0.012050 -0.004138 0.000000 0.000000 0.000000
# 3 -0.002461 -0.004138 0.009918 -0.000002 0.000000 0.000000
# 4 0.000000 0.000000 -0.000002 0.031435 0.000000 0.000000
# 5 0.000000 0.000000 0.000000 0.000000 0.017100 0.000000
# 6 0.000000 0.000000 0.000000 0.000000 0.000000 0.027915
#
#
# Mechanical properties :
#
#
# Convention : Reuss Voigt Hill
#
# Bulk Modulus (GPa) = 90.11258 114.26037 102.18647
# Shear Modulus (GPa) = 41.28508 49.10928 45.19718
#
# Velocity S-wave (km/s) = 3.88201 4.23391 4.06177
# Velocity P-wave (km/s) = 7.27918 8.09993 7.70050
#
# Compressibility (1/GPa) = 0.01109723
#
# Stress axis : x y z
#
# Youngs Moduli (GPa) = 246.24977 82.98708 100.82892
#
# Poissons Ratio (x) = 0.07192 0.24814
# Poissons Ratio (y) = 0.21341 0.41724
# Poissons Ratio (z) = 0.60602 0.34341
#
# Static dielectric constant tensor:
#      x y z
#    x 2.086010 0.000000 0.000000 
#    y 0.000000 2.426750 0.000000 
#    z 0.000000 0.000000 2.281210 
# 
# From -- ./inp_files/8612.got.cif
#   From: 2010.05.17/outbox.cif.g08.bks.cpg/sg24_5_cif.got.tgz:8612.got - 2010.06.04 00:33:39.
