data_PCOD9336193
_publ_section_title
;
Structure prediction by ZEFSAII (Michael W. Deem and Ramdas Pophale) SiO2 
 PCOD9336193
Probable space group: I 21 21 21
;
_chemical_formula_sum "Si O2"
_cell_formula_units_Z 56
_cell_length_a 21.459967
_cell_length_b 14.520735
_cell_length_c 8.347441
_cell_angle_alpha 90.000000
_cell_angle_beta 90.000000
_cell_angle_gamma 90.000000
_cell_volume 2601.183603
_symmetry_space_group_name_H-M "I 21 21 21"
_symmetry_group_IT_number 24
_symmetry_cell_setting 'orthorhombic'
loop_
_space_group_symop_operation_xyz
x,y,z
-x,1/2-y,z
x,-y,1/2-z
1/2-x,y,-z
1/2+x,1/2+y,1/2+z
1/2-x,-y,1/2+z
1/2+x,1/2-y,-z
-x,1/2+y,1/2-z
loop_
_atom_site_type_symbol
_atom_site_label
_atom_site_fract_x
_atom_site_fract_y
_atom_site_fract_z
Si Si1 0.707175 0.757096 0.732175
Si Si2 0.156539 0.241198 0.880461
Si Si3 0.911277 0.546409 0.579400
Si Si4 0.929849 0.210612 0.618458
Si Si5 0.502148 0.647693 0.628169
Si Si6 0.614898 0.370434 0.614651
Si Si7 0.116140 0.597236 0.165016
O O1 0.678756 0.773119 0.554861
O O2 0.780811 0.747546 0.724687
O O3 0.676483 0.663310 0.796413
O O4 0.678350 0.841027 0.832536
O O5 0.130134 0.137939 0.902889
O O6 0.103224 0.297969 0.789684
O O7 0.918772 0.500000 0.750000
O O8 0.977537 0.576266 0.505878
O O9 0.882809 0.471501 0.458576
O O10 0.897030 0.295962 0.525019
O O11 0.916559 0.120556 0.507589
O O12 0.000000 0.250000 0.631171
O O13 0.500000 0.750000 0.560835
O O14 0.556879 0.639507 0.762283
O O15 0.437492 0.633734 0.715836
O O16 0.130581 0.500000 0.250000
#
# Coordination Sequence:
#
# PCOD9336193 Si02
#       7
#     8   8   8   8   8   8   8
#     4  10  24  46  65  92 135 190 227 269 351 420
#     4  11  24  45  64  93 140 178 225 282 341 410
#     4  12  25  41  61 106 138 170 230 293 339 410
#     4  11  22  41  68 100 137 172 220 287 354 405
#     4  12  21  41  68  95 134 187 220 276 356 419
#     4  11  20  42  65  93 130 175 220 281 335 412
#     4  11  22  41  71 102 128 180 235 279 336 424
#
# _framework density 21.528661
#
# number of rings (size 3 to 8) (size 9 to 14) (size 15 to 20)
#    0.000    0.857    7.143    1.286    0.000    4.000 
#    5.143    3.571    0.000    0.000    0.000    0.000 
#    0.000    0.000    0.000    0.000    0.000    0.000 
#
# Total GULP energy -156406.542633 kJ/mol
# GULP energy per Si atom -5585.947951 kJ/mol
# Density = 2.147966 g / cm^3
# Si number density = 21.528661 Si / 1000 Ang^3
#
#
#
# Elastic Constant Matrix: (Units=GPa)
#
#
# Indices 1 2 3 4 5 6 
#
# 1 88.0471 8.3754 34.1393 0.0000 0.0000 0.0000
# 2 8.3754 90.2093 19.6296 0.0000 0.0000 0.0000
# 3 34.1393 19.6296 71.8327 0.0000 0.0000 0.0000
# 4 0.0000 0.0000 0.0000 -28.9061 0.0000 0.0000
# 5 0.0000 0.0000 0.0000 0.0000 24.7589 0.0000
# 6 0.0000 0.0000 0.0000 0.0000 0.0000 11.7721
#
#
#
# Elastic Compliance Matrix: (Units=1/GPa)
#
#
# Indices 1 2 3 4 5 6 
#
# 1 0.013925 0.000157 -0.006661 0.000000 0.000000 0.000000
# 2 0.000157 0.011788 -0.003296 0.000000 0.000000 0.000000
# 3 -0.006661 -0.003296 0.017988 0.000000 0.000000 0.000000
# 4 0.000000 0.000000 0.000000 -0.034595 0.000000 0.000000
# 5 0.000000 0.000000 0.000000 0.000000 0.040389 0.000000
# 6 0.000000 0.000000 0.000000 0.000000 0.000000 0.084947
#
#
# Mechanical properties :
#
#
# Convention : Reuss Voigt Hill
#
# Bulk Modulus (GPa) = 41.49262 41.59751 41.54507
# Shear Modulus (GPa) = 30.84969 14.05463 22.45216
#
# Velocity S-wave (km/s) = 3.78955 2.55783 3.23289
# Velocity P-wave (km/s) = 6.20183 5.29974 5.76844
#
# Compressibility (1/GPa) = 0.02410067
#
# Stress axis : x y z
#
# Youngs Moduli (GPa) = 71.81135 84.83252 55.59408
#
# Poissons Ratio (x) = -0.01328 0.37031
# Poissons Ratio (y) = -0.01124 0.18322
# Poissons Ratio (z) = 0.47833 0.27958
#
# Static dielectric constant tensor:
#      x y z
#    x 1.789930 0.000000 0.000000 
#    y 0.000000 1.802160 0.000000 
#    z 0.000000 0.000000 1.853420 
# 
# From -- ./inp_files/15272.got.cif
#   From: 2010.05.17/outbox.cif.g08.bks.cpg/sg24_8_cif.got.tgz:15272.got - 2010.06.04 00:33:39.
