data_PCOD9336189
_publ_section_title
;
Structure prediction by ZEFSAII (Michael W. Deem and Ramdas Pophale) SiO2 
 PCOD9336189
Probable space group: I 21 21 21
;
_chemical_formula_sum "Si O2"
_cell_formula_units_Z 60
_cell_length_a 13.086021
_cell_length_b 22.891557
_cell_length_c 9.029666
_cell_angle_alpha 90.000000
_cell_angle_beta 90.000000
_cell_angle_gamma 90.000000
_cell_volume 2704.921290
_symmetry_space_group_name_H-M "I 21 21 21"
_symmetry_group_IT_number 24
_symmetry_cell_setting 'orthorhombic'
loop_
_space_group_symop_operation_xyz
x,y,z
-x,1/2-y,z
x,-y,1/2-z
1/2-x,y,-z
1/2+x,1/2+y,1/2+z
1/2-x,-y,1/2+z
1/2+x,1/2-y,-z
-x,1/2+y,1/2-z
loop_
_atom_site_type_symbol
_atom_site_label
_atom_site_fract_x
_atom_site_fract_y
_atom_site_fract_z
Si Si1 0.680999 0.095986 0.752629
Si Si2 0.963625 0.024275 0.020777
Si Si3 0.569581 0.632789 0.489336
Si Si4 0.881763 0.161815 0.794690
Si Si5 0.028767 0.385059 0.487997
Si Si6 0.825958 0.000000 0.750000
Si Si7 0.414642 0.801097 0.802239
Si Si8 0.708223 0.278396 0.163320
O O1 0.767053 0.137488 0.822346
O O2 0.615900 0.130023 0.632653
O O3 0.751937 0.046968 0.675999
O O4 0.605235 0.058082 0.856599
O O5 0.065231 0.062980 0.003282
O O6 0.896272 0.028188 0.872727
O O7 0.985175 0.955061 0.035252
O O8 0.458830 0.650032 0.427173
O O9 0.576072 0.661809 0.649865
O O10 0.653045 0.660530 0.378925
O O11 0.930326 0.131856 0.649106
O O12 0.872168 0.231211 0.780310
O O13 0.934497 0.344988 0.438282
O O14 0.500000 0.750000 0.805002
O O15 0.299178 0.779289 0.781714
O O16 0.750000 0.259056 0.000000
#
# Coordination Sequence:
#
# PCOD9336189 Si02
#       8
#     8   8   8   8   8   4   8   8
#     4  12  23  35  61  96 140 182 213 268 342 419
#     4  12  23  39  64 102 142 181 223 277 346 418
#     4  11  23  42  70  95 131 177 228 283 341 408
#     4  12  25  40  66  98 140 174 223 279 349 402
#     4  12  25  41  63 101 141 176 223 279 346 424
#     4  12  22  36  58  96 144 178 214 268 332 410
#     4  11  24  45  68  98 129 176 234 284 343 410
#     4  10  24  45  71  99 131 179 244 291 335 418
#
# _framework density 22.181792000000002
#
# number of rings (size 3 to 8) (size 9 to 14) (size 15 to 20)
#    0.000    0.533    5.333    3.600    1.867    1.067 
#    0.000    2.000    0.000   14.400    0.000    0.000 
#    0.000    0.000    0.000    0.000    0.000    0.000 
#
# Total GULP energy -167612.575073 kJ/mol
# GULP energy per Si atom -5587.085836 kJ/mol
# Density = 2.213130 g / cm^3
# Si number density = 22.181792 Si / 1000 Ang^3
#
#
#
# Elastic Constant Matrix: (Units=GPa)
#
#
# Indices 1 2 3 4 5 6 
#
# 1 51.5928 41.6136 -1.9786 0.0002 0.0002 0.0000
# 2 41.6136 115.0651 24.8751 0.0004 0.0001 0.0000
# 3 -1.9786 24.8751 62.8443 -0.0006 -0.0003 0.0001
# 4 0.0002 0.0004 -0.0006 22.4203 0.0001 0.0000
# 5 0.0002 0.0001 -0.0003 0.0001 17.8365 -0.0001
# 6 0.0000 0.0000 0.0001 0.0000 -0.0001 39.4672
#
#
#
# Elastic Compliance Matrix: (Units=1/GPa)
#
#
# Indices 1 2 3 4 5 6 
#
# 1 0.029030 -0.011697 0.005544 0.000000 0.000000 0.000000
# 2 -0.011697 0.014217 -0.005996 0.000000 0.000000 0.000000
# 3 0.005544 -0.005996 0.018460 0.000001 0.000000 0.000000
# 4 0.000000 0.000000 0.000001 0.044602 0.000000 0.000000
# 5 0.000000 0.000000 0.000000 0.000000 0.056065 0.000000
# 6 0.000000 0.000000 0.000000 0.000000 0.000000 0.025337
#
#
# Mechanical properties :
#
#
# Convention : Reuss Voigt Hill
#
# Bulk Modulus (GPa) = 26.73133 39.83581 33.28357
# Shear Modulus (GPa) = 22.27373 26.94429 24.60901
#
# Velocity S-wave (km/s) = 3.17226 3.48904 3.33442
# Velocity P-wave (km/s) = 5.04924 5.85055 5.46461
#
# Compressibility (1/GPa) = 0.03740928
#
# Stress axis : x y z
#
# Youngs Moduli (GPa) = 34.44724 70.33711 54.17077
#
# Poissons Ratio (x) = 0.82275 -0.30032
# Poissons Ratio (y) = 0.40294 0.32480
# Poissons Ratio (z) = -0.19098 0.42172
#
# Static dielectric constant tensor:
#      x y z
#    x 1.837250 0.000000 0.000000 
#    y 0.000000 1.928440 0.000000 
#    z 0.000000 0.000000 1.818320 
# 
# From -- ./inp_files/13317.got.cif
#   From: 2010.05.17/outbox.cif.g08.bks.cpg/sg24_7_cif.got.tgz:13317.got - 2010.06.04 00:33:39.
