data_PCOD9336487
_publ_section_title
;
Structure prediction by ZEFSAII (Michael W. Deem and Ramdas Pophale) SiO2 
 PCOD9336487
Probable space group: I 21 21 21
;
_chemical_formula_sum "Si O2"
_cell_formula_units_Z 60
_cell_length_a 13.604308
_cell_length_b 15.536904
_cell_length_c 12.628968
_cell_angle_alpha 90.000000
_cell_angle_beta 90.000000
_cell_angle_gamma 90.000000
_cell_volume 2669.370157
_symmetry_space_group_name_H-M "I 21 21 21"
_symmetry_group_IT_number 24
_symmetry_cell_setting 'orthorhombic'
loop_
_space_group_symop_operation_xyz
x,y,z
-x,1/2-y,z
x,-y,1/2-z
1/2-x,y,-z
1/2+x,1/2+y,1/2+z
1/2-x,-y,1/2+z
1/2+x,1/2-y,-z
-x,1/2+y,1/2-z
loop_
_atom_site_type_symbol
_atom_site_label
_atom_site_fract_x
_atom_site_fract_y
_atom_site_fract_z
Si Si1 0.492998 0.923578 0.946901
Si Si2 0.000000 0.250000 0.580145
Si Si3 0.218837 0.042785 0.378363
Si Si4 0.708456 0.640981 0.382933
Si Si5 0.717254 0.927992 0.384199
Si Si6 0.793624 0.271015 0.680566
Si Si7 0.497204 0.944370 0.357639
Si Si8 0.302399 0.397906 0.661835
O O1 0.487676 0.832548 0.005988
O O2 0.494521 0.993897 0.040119
O O3 0.396680 0.938166 0.876202
O O4 0.592043 0.925683 0.879274
O O5 0.096657 0.256833 0.652014
O O6 0.250000 0.026104 0.500000
O O7 0.276744 0.131302 0.356829
O O8 0.242450 0.946987 0.334659
O O9 0.750000 0.656323 0.500000
O O10 0.727437 0.720157 0.305324
O O11 0.592450 0.620856 0.374733
O O12 0.750000 0.898730 0.500000
O O13 0.789336 0.903357 0.288513
O O14 0.605813 0.904141 0.355422
O O15 0.723397 0.033233 0.382327
O O16 0.722760 0.199651 0.630340
O O17 0.481916 0.000000 0.250000
#
# Coordination Sequence:
#
# PCOD9336487 Si02
#       8
#     8   4   8   8   8   8   8   8
#     4  12  23  41  70 103 141 181 230 291 358 433
#     4  12  24  36  68 108 142 182 222 290 370 416
#     4  11  21  43  67 104 139 184 230 288 358 425
#     4  11  24  45  68 101 136 190 241 293 345 424
#     4  11  24  46  69  99 138 184 237 299 351 428
#     4  12  26  42  68 101 148 178 236 296 362 434
#     4  12  21  38  72 101 132 176 238 288 347 418
#     4  11  26  43  68 107 138 183 236 292 366 422
#
# _framework density 22.477212000000002
#
# number of rings (size 3 to 8) (size 9 to 14) (size 15 to 20)
#    0.000    0.533    6.667    3.600    1.867    0.533 
#    7.200    0.000    0.000    0.000    0.000    0.000 
#    0.000    0.000    0.000    0.000    0.000    0.000 
#
# Total GULP energy -167826.890591 kJ/mol
# GULP energy per Si atom -5594.229686 kJ/mol
# Density = 2.242605 g / cm^3
# Si number density = 22.477212 Si / 1000 Ang^3
#
#
#
# Elastic Constant Matrix: (Units=GPa)
#
#
# Indices 1 2 3 4 5 6 
#
# 1 146.6692 15.4967 24.3732 0.0000 0.0000 0.0000
# 2 15.4967 84.0192 0.1960 0.0000 0.0000 0.0000
# 3 24.3732 0.1960 76.6455 0.0000 0.0000 0.0000
# 4 0.0000 0.0000 0.0000 19.9746 0.0000 0.0000
# 5 0.0000 0.0000 0.0000 0.0000 33.0683 0.0000
# 6 0.0000 0.0000 0.0000 0.0000 0.0000 -96.0424
#
#
#
# Elastic Compliance Matrix: (Units=1/GPa)
#
#
# Indices 1 2 3 4 5 6 
#
# 1 0.007348 -0.001350 -0.002333 0.000000 0.000000 0.000000
# 2 -0.001350 0.012150 0.000398 0.000000 0.000000 0.000000
# 3 -0.002333 0.000398 0.013788 0.000000 0.000000 0.000000
# 4 0.000000 0.000000 0.000000 0.050064 0.000000 0.000000
# 5 0.000000 0.000000 0.000000 0.000000 0.030240 0.000000
# 6 0.000000 0.000000 0.000000 0.000000 0.000000 -0.010412
#
#
# Mechanical properties :
#
#
# Convention : Reuss Voigt Hill
#
# Bulk Modulus (GPa) = 37.43008 43.05174 40.24091
# Shear Modulus (GPa) = 42.13926 9.21797 25.67861
#
# Velocity S-wave (km/s) = 4.33454 2.02730 3.38365
# Velocity P-wave (km/s) = 6.46062 4.96739 5.76258
#
# Compressibility (1/GPa) = 0.02671648
#
# Stress axis : x y z
#
# Youngs Moduli (GPa) = 136.08320 82.30390 72.52651
#
# Poissons Ratio (x) = 0.11110 0.16923
# Poissons Ratio (y) = 0.18370 -0.02888
# Poissons Ratio (z) = 0.31753 -0.03277
#
# Static dielectric constant tensor:
#      x y z
#    x 1.816050 0.000000 0.000000 
#    y 0.000000 1.842950 0.000000 
#    z 0.000000 0.000000 3.894340 
# 
# From -- ./inp_files/25979.got.cif
#   From: 2010.05.17/outbox.cif.g08.bks.cpg/sg24_13_cif.got.tgz:25979.got - 2010.06.04 00:33:39.
