data_PCOD9336913
_publ_section_title
;
Structure prediction by ZEFSAII (Michael W. Deem and Ramdas Pophale) SiO2 
 PCOD9336913
Probable space group: I 21 21 21
;
_chemical_formula_sum "Si O2"
_cell_formula_units_Z 24
_cell_length_a 5.151123
_cell_length_b 8.932620
_cell_length_c 20.948963
_cell_angle_alpha 90.000000
_cell_angle_beta 90.000000
_cell_angle_gamma 90.000000
_cell_volume 963.925144
_symmetry_space_group_name_H-M "I 21 21 21"
_symmetry_group_IT_number 24
_symmetry_cell_setting 'orthorhombic'
loop_
_space_group_symop_operation_xyz
x,y,z
-x,1/2-y,z
x,-y,1/2-z
1/2-x,y,-z
1/2+x,1/2+y,1/2+z
1/2-x,-y,1/2+z
1/2+x,1/2-y,-z
-x,1/2+y,1/2-z
loop_
_atom_site_type_symbol
_atom_site_label
_atom_site_fract_x
_atom_site_fract_y
_atom_site_fract_z
Si Si1 0.379703 0.405904 0.199286
Si Si2 0.604706 0.599428 0.102193
Si Si3 0.250000 0.857230 0.500000
Si Si4 0.000000 0.250000 0.297817
O O1 0.500000 0.250000 0.176620
O O2 0.553027 0.500000 0.250000
O O3 0.368089 0.513788 0.138620
O O4 0.156145 0.352915 0.247540
O O5 0.500000 0.750000 0.068181
O O6 0.730787 0.472202 0.059146
O O7 0.803639 0.662999 0.155096
O O8 0.500000 0.750000 0.503625
#
# Coordination Sequence:
#
# PCOD9336913 Si02
#       4
#     8   8   4   4
#     4  12  24  45  69 121 168 208 268 338 431 511
#     4  12  29  51  84 124 167 223 295 357 435 521
#     4  12  34  64  86 124 170 238 302 364 432 520
#     4  12  26  44  84 120 170 218 268 360 440 516
#
# _framework density 24.898197
#
# number of rings (size 3 to 8) (size 9 to 14) (size 15 to 20)
#    0.000    0.000    6.667    1.000   11.667    2.667 
#    3.000    0.000    0.000    0.000    0.000    0.000 
#    0.000    0.000    0.000    0.000    0.000    0.000 
#
# Total GULP energy -66987.675783 kJ/mol
# GULP energy per Si atom -5582.306315 kJ/mol
# Density = 2.484153 g / cm^3
# Si number density = 24.898197 Si / 1000 Ang^3
#
#
#
# Elastic Constant Matrix: (Units=GPa)
#
#
# Indices 1 2 3 4 5 6 
#
# 1 125.7150 77.3984 47.6280 0.0000 0.0000 0.0000
# 2 77.3984 256.2267 84.6959 0.0000 0.0000 0.0000
# 3 47.6280 84.6959 83.4823 0.0000 0.0000 0.0000
# 4 0.0000 0.0000 0.0000 57.8927 0.0000 0.0000
# 5 0.0000 0.0000 0.0000 0.0000 14.5740 0.0000
# 6 0.0000 0.0000 0.0000 0.0000 0.0000 40.8726
#
#
#
# Elastic Compliance Matrix: (Units=1/GPa)
#
#
# Indices 1 2 3 4 5 6 
#
# 1 0.010686 -0.001825 -0.004246 0.000000 0.000000 0.000000
# 2 -0.001825 0.006184 -0.005232 0.000000 0.000000 0.000000
# 3 -0.004246 -0.005232 0.019709 0.000000 0.000000 0.000000
# 4 0.000000 0.000000 0.000000 0.017273 0.000000 0.000000
# 5 0.000000 0.000000 0.000000 0.000000 0.068615 0.000000
# 6 0.000000 0.000000 0.000000 0.000000 0.000000 0.024466
#
#
# Mechanical properties :
#
#
# Convention : Reuss Voigt Hill
#
# Bulk Modulus (GPa) = 71.56228 98.31873 84.94050
# Shear Modulus (GPa) = 28.70310 39.71463 34.20887
#
# Velocity S-wave (km/s) = 3.39900 3.99818 3.71070
# Velocity P-wave (km/s) = 6.64896 7.80307 7.24902
#
# Compressibility (1/GPa) = 0.01397384
#
# Stress axis : x y z
#
# Youngs Moduli (GPa) = 93.57746 161.71908 50.73756
#
# Poissons Ratio (x) = 0.29508 0.21541
# Poissons Ratio (y) = 0.17075 0.26548
# Poissons Ratio (z) = 0.39729 0.84619
#
# Static dielectric constant tensor:
#      x y z
#    x 2.103620 0.000000 0.000000 
#    y 0.000000 2.275760 0.000000 
#    z 0.000000 0.000000 1.979070 
# 
# From -- ./inp_files/34447.got.cif
#   From: 2010.05.17/outbox.cif.g08.bks.cpg/sg24_18_cif.got.tgz:34447.got - 2010.06.04 00:33:39.
