data_PCOD9336760
_publ_section_title
;
Structure prediction by ZEFSAII (Michael W. Deem and Ramdas Pophale) SiO2 
 PCOD9336760
Probable space group: I 21 21 21
;
_chemical_formula_sum "Si O2"
_cell_formula_units_Z 32
_cell_length_a 12.069063
_cell_length_b 14.223716
_cell_length_c 7.637626
_cell_angle_alpha 90.000000
_cell_angle_beta 90.000000
_cell_angle_gamma 90.000000
_cell_volume 1311.127766
_symmetry_space_group_name_H-M "I 21 21 21"
_symmetry_group_IT_number 24
_symmetry_cell_setting 'orthorhombic'
loop_
_space_group_symop_operation_xyz
x,y,z
-x,1/2-y,z
x,-y,1/2-z
1/2-x,y,-z
1/2+x,1/2+y,1/2+z
1/2-x,-y,1/2+z
1/2+x,1/2-y,-z
-x,1/2+y,1/2-z
loop_
_atom_site_type_symbol
_atom_site_label
_atom_site_fract_x
_atom_site_fract_y
_atom_site_fract_z
Si Si1 0.754639 0.728167 0.710152
Si Si2 0.750000 0.569660 0.000000
Si Si3 0.524769 0.458221 0.059984
Si Si4 0.500000 0.750000 0.321606
Si Si5 0.174769 0.415602 0.161727
O O1 0.750000 0.705211 0.500000
O O2 0.669060 0.813943 0.753801
O O3 0.879239 0.763519 0.764931
O O4 0.736968 0.636701 0.829717
O O5 0.640502 0.506457 0.014159
O O6 0.496290 0.500000 0.250000
O O7 0.523318 0.345377 0.074273
O O8 0.430565 0.470365 0.916234
O O9 0.240471 0.500000 0.250000
O O10 0.250000 0.385906 0.000000
#
# Coordination Sequence:
#
# PCOD9336760 Si02
#       5
#     8   4   8   4   8
#     4  11  26  52  80 113 160 212 266 329 400 472
#     4  12  30  50  86 120 154 210 278 330 392 478
#     4  12  27  50  79 112 159 207 259 329 401 474
#     4  12  24  48  78 106 162 212 246 332 404 456
#     4  11  25  46  76 113 159 210 266 328 399 476
#
# _framework density 24.406469000000001
#
# number of rings (size 3 to 8) (size 9 to 14) (size 15 to 20)
#    0.000    0.500    7.500    0.750    3.500    3.000 
#    0.000    0.000    0.000    0.000    0.000    0.000 
#    0.000    0.000    0.000    0.000    0.000    0.000 
#
# Total GULP energy -89247.832620 kJ/mol
# GULP energy per Si atom -5577.989539 kJ/mol
# Density = 2.435092 g / cm^3
# Si number density = 24.406469 Si / 1000 Ang^3
#
#
#
# Elastic Constant Matrix: (Units=GPa)
#
#
# Indices 1 2 3 4 5 6 
#
# 1 160.3898 41.9410 44.2648 0.0000 0.0000 0.0000
# 2 41.9410 156.8450 69.6656 0.0000 0.0000 0.0000
# 3 44.2648 69.6656 104.6284 0.0000 0.0000 0.0000
# 4 0.0000 0.0000 0.0000 23.0618 0.0000 0.0000
# 5 0.0000 0.0000 0.0000 0.0000 7.6530 0.0000
# 6 0.0000 0.0000 0.0000 0.0000 0.0000 33.7639
#
#
#
# Elastic Compliance Matrix: (Units=1/GPa)
#
#
# Indices 1 2 3 4 5 6 
#
# 1 0.007130 -0.000805 -0.002481 0.000000 0.000000 0.000000
# 2 -0.000805 0.009144 -0.005748 0.000000 0.000000 0.000000
# 3 -0.002481 -0.005748 0.014434 0.000000 0.000000 0.000000
# 4 0.000000 0.000000 0.000000 0.043362 0.000000 0.000000
# 5 0.000000 0.000000 0.000000 0.000000 0.130668 0.000000
# 6 0.000000 0.000000 0.000000 0.000000 0.000000 0.029617
#
#
# Mechanical properties :
#
#
# Convention : Reuss Voigt Hill
#
# Bulk Modulus (GPa) = 79.10412 81.51179 80.30796
# Shear Modulus (GPa) = 19.48291 30.62853 25.05572
#
# Velocity S-wave (km/s) = 2.82843 3.54635 3.20754
# Velocity P-wave (km/s) = 6.56873 7.08794 6.83327
#
# Compressibility (1/GPa) = 0.01264157
#
# Stress axis : x y z
#
# Youngs Moduli (GPa) = 140.25554 109.36171 69.27956
#
# Poissons Ratio (x) = 0.08801 0.17185
# Poissons Ratio (y) = 0.11287 0.39821
# Poissons Ratio (z) = 0.34791 0.62860
#
# Static dielectric constant tensor:
#      x y z
#    x 2.175750 0.000000 0.000000 
#    y 0.000000 2.254490 0.000000 
#    z 0.000000 0.000000 1.988170 
# 
# From -- ./inp_files/10436.got.cif
#   From: 2010.05.17/outbox.cif.g08.bks.cpg/sg24_6_cif.got.tgz:10436.got - 2010.06.04 00:33:39.
