data_PCOD9336538
_publ_section_title
;
Structure prediction by ZEFSAII (Michael W. Deem and Ramdas Pophale) SiO2 
 PCOD9336538
Probable space group: I 21 21 21
;
_chemical_formula_sum "Si O2"
_cell_formula_units_Z 40
_cell_length_a 11.984415
_cell_length_b 17.097639
_cell_length_c 7.501386
_cell_angle_alpha 90.000000
_cell_angle_beta 90.000000
_cell_angle_gamma 90.000000
_cell_volume 1537.073008
_symmetry_space_group_name_H-M "I 21 21 21"
_symmetry_group_IT_number 24
_symmetry_cell_setting 'orthorhombic'
loop_
_space_group_symop_operation_xyz
x,y,z
-x,1/2-y,z
x,-y,1/2-z
1/2-x,y,-z
1/2+x,1/2+y,1/2+z
1/2-x,-y,1/2+z
1/2+x,1/2-y,-z
-x,1/2+y,1/2-z
loop_
_atom_site_type_symbol
_atom_site_label
_atom_site_fract_x
_atom_site_fract_y
_atom_site_fract_z
Si Si1 0.274636 0.347904 0.714853
Si Si2 0.855985 0.433526 0.018073
Si Si3 0.530747 0.158384 0.220063
Si Si4 0.522410 0.072837 0.592985
Si Si5 0.679010 0.323952 0.682822
O O1 0.250000 0.341922 0.500000
O O2 0.161519 0.349756 0.831019
O O3 0.325411 0.263324 0.754705
O O4 0.134790 0.416608 0.291420
O O5 0.782898 0.383439 0.163724
O O6 0.750000 0.494347 0.000000
O O7 0.954151 0.492653 0.080306
O O8 0.934619 0.373981 0.907421
O O9 0.500000 0.250000 0.262209
O O10 0.534942 0.099525 0.387755
O O11 0.443276 0.142910 0.656403
O O12 0.750000 0.326271 0.500000
#
# Coordination Sequence:
#
# PCOD9336538 Si02
#       5
#     8   8   8   8   8
#     4   9  20  41  71  99 133 188 247 295 355 445
#     4  12  26  42  67 106 145 183 239 313 375 431
#     4  11  23  44  73 103 140 191 243 304 372 434
#     4  11  22  41  67 101 141 191 243 292 366 448
#     4  11  22  42  71 101 138 185 246 306 367 446
#
# _framework density 26.023485999999998
#
# number of rings (size 3 to 8) (size 9 to 14) (size 15 to 20)
#    0.000    1.200    0.000    8.400    0.000    3.200 
#    0.000   15.000    0.000    0.000    0.000    0.000 
#    0.000    0.000    0.000    0.000    0.000    0.000 
#
# Total GULP energy -111369.143882 kJ/mol
# GULP energy per Si atom -5568.457194 kJ/mol
# Density = 2.596426 g / cm^3
# Si number density = 26.023486 Si / 1000 Ang^3
#
#
#
# Elastic Constant Matrix: (Units=GPa)
#
#
# Indices 1 2 3 4 5 6 
#
# 1 174.2979 71.9058 10.3028 0.0000 0.0000 0.0000
# 2 71.9058 153.7376 16.9041 0.0000 0.0000 0.0000
# 3 10.3028 16.9041 44.9573 0.0000 0.0000 0.0000
# 4 0.0000 0.0000 0.0000 18.2353 0.0000 0.0000
# 5 0.0000 0.0000 0.0000 0.0000 30.3261 0.0000
# 6 0.0000 0.0000 0.0000 0.0000 0.0000 57.3029
#
#
#
# Elastic Compliance Matrix: (Units=1/GPa)
#
#
# Indices 1 2 3 4 5 6 
#
# 1 0.007116 -0.003285 -0.000396 0.000000 0.000000 0.000000
# 2 -0.003285 0.008301 -0.002369 0.000000 0.000000 0.000000
# 3 -0.000396 -0.002369 0.023225 0.000000 0.000000 0.000000
# 4 0.000000 0.000000 0.000000 0.054839 0.000000 0.000000
# 5 0.000000 0.000000 0.000000 0.000000 0.032975 0.000000
# 6 0.000000 0.000000 0.000000 0.000000 0.000000 0.017451
#
#
# Mechanical properties :
#
#
# Convention : Reuss Voigt Hill
#
# Bulk Modulus (GPa) = 37.67351 63.46869 50.57110
# Shear Modulus (GPa) = 30.33019 39.43154 34.88086
#
# Velocity S-wave (km/s) = 3.41764 3.89682 3.66507
# Velocity P-wave (km/s) = 5.48469 6.68497 6.11435
#
# Compressibility (1/GPa) = 0.02654385
#
# Stress axis : x y z
#
# Youngs Moduli (GPa) = 140.53305 120.46276 43.05782
#
# Poissons Ratio (x) = 0.39568 0.01704
# Poissons Ratio (y) = 0.46160 0.10199
# Poissons Ratio (z) = 0.05560 0.28533
#
# Static dielectric constant tensor:
#      x y z
#    x 1.382180 0.000000 0.000000 
#    y 0.000000 2.312610 0.000000 
#    z 0.000000 0.000000 2.126110 
# 
# From -- ./inp_files/10690.got.cif
#   From: 2010.05.17/outbox.cif.g08.bks.cpg/sg24_6_cif.got.tgz:10690.got - 2010.06.04 00:33:39.
