data_PCOD9336847
_publ_section_title
;
Structure prediction by ZEFSAII (Michael W. Deem and Ramdas Pophale) SiO2 
 PCOD9336847
Probable space group: I 21 21 21
;
_chemical_formula_sum "Si O2"
_cell_formula_units_Z 32
_cell_length_a 15.366149
_cell_length_b 15.787685
_cell_length_c 5.015776
_cell_angle_alpha 90.000000
_cell_angle_beta 90.000000
_cell_angle_gamma 90.000000
_cell_volume 1216.806794
_symmetry_space_group_name_H-M "I 21 21 21"
_symmetry_group_IT_number 24
_symmetry_cell_setting 'orthorhombic'
loop_
_space_group_symop_operation_xyz
x,y,z
-x,1/2-y,z
x,-y,1/2-z
1/2-x,y,-z
1/2+x,1/2+y,1/2+z
1/2-x,-y,1/2+z
1/2+x,1/2-y,-z
-x,1/2+y,1/2-z
loop_
_atom_site_type_symbol
_atom_site_label
_atom_site_fract_x
_atom_site_fract_y
_atom_site_fract_z
Si Si1 0.750000 0.285587 0.500000
Si Si2 0.797265 0.000000 0.250000
Si Si3 0.831690 0.423458 0.113199
Si Si4 0.096197 0.342943 0.346222
Si Si5 0.000830 0.898250 0.689017
O O1 0.781168 0.350768 0.270663
O O2 0.834064 0.223776 0.462667
O O3 0.750000 0.955956 0.500000
O O4 0.853168 0.069764 0.395632
O O5 0.885393 0.500000 0.250000
O O6 0.750000 0.474877 0.000000
O O7 0.900814 0.386016 0.909556
O O8 0.013440 0.348234 0.537431
O O9 0.061307 0.355756 0.041090
O O10 0.988878 0.000000 0.750000
#
# Coordination Sequence:
#
# PCOD9336847 Si02
#       5
#     4   4   8   8   8
#     4  12  32  52  80 128 176 228 288 362 436 534
#     4  12  22  42  80 118 170 224 266 328 434 546
#     4  12  28  55  85 113 160 227 297 357 428 513
#     4  12  27  48  79 125 170 214 276 353 434 522
#     4  12  26  51  84 123 161 222 284 351 429 520
#
# _framework density 26.298338999999999
#
# number of rings (size 3 to 8) (size 9 to 14) (size 15 to 20)
#    0.000    0.000    5.000    3.750    7.000    1.000 
#    0.000    0.000    0.000    0.000    0.000    0.000 
#    0.000    0.000    0.000    0.000    0.000    0.000 
#
# Total GULP energy -89197.647165 kJ/mol
# GULP energy per Si atom -5574.852948 kJ/mol
# Density = 2.623848 g / cm^3
# Si number density = 26.298339 Si / 1000 Ang^3
#
#
#
# Elastic Constant Matrix: (Units=GPa)
#
#
# Indices 1 2 3 4 5 6 
#
# 1 133.3454 50.8575 44.5075 0.0000 0.0000 0.0000
# 2 50.8575 136.3562 43.6558 0.0000 0.0000 0.0000
# 3 44.5075 43.6558 148.5042 0.0000 0.0000 0.0000
# 4 0.0000 0.0000 0.0000 36.8266 0.0000 0.0000
# 5 0.0000 0.0000 0.0000 0.0000 64.0096 0.0000
# 6 0.0000 0.0000 0.0000 0.0000 0.0000 17.8757
#
#
#
# Elastic Compliance Matrix: (Units=1/GPa)
#
#
# Indices 1 2 3 4 5 6 
#
# 1 0.009220 -0.002820 -0.001935 0.000000 0.000000 0.000000
# 2 -0.002820 0.008958 -0.001788 0.000000 0.000000 0.000000
# 3 -0.001935 -0.001788 0.007839 0.000000 0.000000 0.000000
# 4 0.000000 0.000000 0.000000 0.027154 0.000000 0.000000
# 5 0.000000 0.000000 0.000000 0.000000 0.015623 0.000000
# 6 0.000000 0.000000 0.000000 0.000000 0.000000 0.055942
#
#
# Mechanical properties :
#
#
# Convention : Reuss Voigt Hill
#
# Bulk Modulus (GPa) = 77.32313 77.36083 77.34198
# Shear Modulus (GPa) = 35.17848 42.35470 38.76659
#
# Velocity S-wave (km/s) = 3.66138 4.01752 3.84358
# Velocity P-wave (km/s) = 6.88044 7.14150 7.01219
#
# Compressibility (1/GPa) = 0.01293274
#
# Stress axis : x y z
#
# Youngs Moduli (GPa) = 108.45491 111.63289 127.56218
#
# Poissons Ratio (x) = 0.31476 0.24677
# Poissons Ratio (y) = 0.30580 0.22812
# Poissons Ratio (z) = 0.20981 0.19963
#
# Static dielectric constant tensor:
#      x y z
#    x 2.098240 0.000000 0.000000 
#    y 0.000000 2.031110 0.000000 
#    z 0.000000 0.000000 2.516670 
# 
# From -- ./inp_files/3203.got.cif
#   From: 2010.05.17/outbox.cif.g08.bks.cpg/sg24_2_cif.got.tgz:3203.got - 2010.06.04 00:33:39.
