data_PCOD9336918
_publ_section_title
;
Structure prediction by ZEFSAII (Michael W. Deem and Ramdas Pophale) SiO2 
 PCOD9336918
Probable space group: I 21 21 21
;
_chemical_formula_sum "Si O2"
_cell_formula_units_Z 32
_cell_length_a 18.425509
_cell_length_b 4.837469
_cell_length_c 13.852081
_cell_angle_alpha 90.000000
_cell_angle_beta 90.000000
_cell_angle_gamma 90.000000
_cell_volume 1234.675161
_symmetry_space_group_name_H-M "I 21 21 21"
_symmetry_group_IT_number 24
_symmetry_cell_setting 'orthorhombic'
loop_
_space_group_symop_operation_xyz
x,y,z
-x,1/2-y,z
x,-y,1/2-z
1/2-x,y,-z
1/2+x,1/2+y,1/2+z
1/2-x,-y,1/2+z
1/2+x,1/2-y,-z
-x,1/2+y,1/2-z
loop_
_atom_site_type_symbol
_atom_site_label
_atom_site_fract_x
_atom_site_fract_y
_atom_site_fract_z
Si Si1 0.381965 0.000000 0.250000
Si Si2 0.548681 0.500000 0.750000
Si Si3 0.686808 0.938801 0.937132
Si Si4 0.095012 0.033984 0.045032
Si Si5 0.500000 0.250000 0.397920
Si Si6 0.278336 0.500000 0.250000
O O1 0.435109 0.827652 0.177739
O O2 0.328979 0.754008 0.286797
O O3 0.500000 0.250000 0.785111
O O4 0.588101 0.409368 0.653401
O O5 0.621502 0.156892 0.940380
O O6 0.725090 0.897322 0.834435
O O7 0.659552 0.664496 0.991805
O O8 0.750000 0.071618 0.000000
O O9 0.025896 0.977756 0.978097
#
# Coordination Sequence:
#
# PCOD9336918 Si02
#       6
#     4   4   8   8   4   4
#     4  12  27  47  76 106 152 208 258 326 378 470
#     4  12  24  46  68 108 142 190 240 302 392 458
#     4  12  25  45  72 107 143 197 252 314 385 453
#     4  12  26  45  75 107 152 193 250 322 385 475
#     4  12  28  50  74 114 156 206 264 318 404 474
#     4  12  25  49  74 106 150 196 264 322 384 462
#
# _framework density 25.917749000000001
#
# number of rings (size 3 to 8) (size 9 to 14) (size 15 to 20)
#    0.000    0.000    1.250    9.000    0.000    4.000 
#    0.000    0.000    0.000    0.000    0.000    0.000 
#    0.000    0.000    0.000    0.000    0.000    0.000 
#
# Total GULP energy -89231.287898 kJ/mol
# GULP energy per Si atom -5576.955494 kJ/mol
# Density = 2.585876 g / cm^3
# Si number density = 25.917749 Si / 1000 Ang^3
#
#
#
# Elastic Constant Matrix: (Units=GPa)
#
#
# Indices 1 2 3 4 5 6 
#
# 1 138.8181 65.4632 44.5184 0.0000 0.0000 0.0000
# 2 65.4632 146.0792 -2.2808 0.0000 0.0000 0.0000
# 3 44.5184 -2.2808 104.2437 0.0000 0.0000 0.0000
# 4 0.0000 0.0000 0.0000 17.3366 0.0000 0.0000
# 5 0.0000 0.0000 0.0000 0.0000 5.4826 0.0000
# 6 0.0000 0.0000 0.0000 0.0000 0.0000 53.6899
#
#
#
# Elastic Compliance Matrix: (Units=1/GPa)
#
#
# Indices 1 2 3 4 5 6 
#
# 1 0.011163 -0.005079 -0.004879 0.000000 0.000000 0.000000
# 2 -0.005079 0.009159 0.002369 0.000000 0.000000 0.000000
# 3 -0.004879 0.002369 0.011728 0.000000 0.000000 0.000000
# 4 0.000000 0.000000 0.000000 0.057681 0.000000 0.000000
# 5 0.000000 0.000000 0.000000 0.000000 0.182395 0.000000
# 6 0.000000 0.000000 0.000000 0.000000 0.000000 0.018625
#
#
# Mechanical properties :
#
#
# Convention : Reuss Voigt Hill
#
# Bulk Modulus (GPa) = 59.26257 67.17141 63.21699
# Shear Modulus (GPa) = 16.04865 34.06451 25.05658
#
# Velocity S-wave (km/s) = 2.49110 3.62930 3.11267
# Velocity P-wave (km/s) = 5.58475 6.59817 6.11250
#
# Compressibility (1/GPa) = 0.01687406
#
# Stress axis : x y z
#
# Youngs Moduli (GPa) = 89.57977 109.18718 85.26477
#
# Poissons Ratio (x) = 0.55454 0.41596
# Poissons Ratio (y) = 0.45496 -0.20202
# Poissons Ratio (z) = 0.43702 -0.25870
#
# Static dielectric constant tensor:
#      x y z
#    x 2.005390 0.000000 0.000000 
#    y 0.000000 1.915120 0.000000 
#    z 0.000000 0.000000 4.080730 
# 
# From -- ./inp_files/26843.got.cif
#   From: 2010.05.17/outbox.cif.g08.bks.cpg/sg24_14_cif.got.tgz:26843.got - 2010.06.04 00:33:39.
