data_PCOD9336077
_publ_section_title
;
Structure prediction by ZEFSAII (Michael W. Deem and Ramdas Pophale) SiO2 
 PCOD9336077
Probable space group: I 21 21 21
;
_chemical_formula_sum "Si O2"
_cell_formula_units_Z 52
_cell_length_a 27.606691
_cell_length_b 5.346219
_cell_length_c 15.943166
_cell_angle_alpha 90.000000
_cell_angle_beta 90.000000
_cell_angle_gamma 90.000000
_cell_volume 2353.074445
_symmetry_space_group_name_H-M "I 21 21 21"
_symmetry_group_IT_number 24
_symmetry_cell_setting 'orthorhombic'
loop_
_space_group_symop_operation_xyz
x,y,z
-x,1/2-y,z
x,-y,1/2-z
1/2-x,y,-z
1/2+x,1/2+y,1/2+z
1/2-x,-y,1/2+z
1/2+x,1/2-y,-z
-x,1/2+y,1/2-z
loop_
_atom_site_type_symbol
_atom_site_label
_atom_site_fract_x
_atom_site_fract_y
_atom_site_fract_z
Si Si1 0.248733 0.180461 0.175476
Si Si2 0.848627 0.122766 0.837327
Si Si3 0.378282 0.814140 0.497550
Si Si4 0.410254 0.000000 0.250000
Si Si5 0.029334 0.987358 0.906091
Si Si6 0.149958 0.555911 0.336908
Si Si7 0.205841 0.824766 0.042731
O O1 0.291016 0.380243 0.162866
O O2 0.196452 0.288730 0.195570
O O3 0.265045 0.000000 0.250000
O O4 0.238966 0.022572 0.092888
O O5 0.867134 0.084604 0.931755
O O6 0.872481 0.389035 0.817434
O O7 0.866291 0.000000 0.750000
O O8 0.377860 0.712776 0.592288
O O9 0.428336 0.936525 0.470223
O O10 0.333723 0.012012 0.492112
O O11 0.447474 0.112986 0.318271
O O12 0.000000 0.750000 0.939635
O O13 0.000000 0.250000 0.890310
O O14 0.122581 0.500000 0.250000
O O15 0.174678 0.332384 0.390228
O O16 0.250000 0.668364 0.000000
#
# Coordination Sequence:
#
# PCOD9336077 Si02
#       7
#     8   8   8   4   8   8   8
#     4  11  21  37  52  90 132 186 234 268 336 405
#     4  11  23  36  60  93 147 185 236 281 334 415
#     4  10  26  42  65 102 134 181 240 288 363 425
#     4  10  24  40  64 100 140 192 228 288 344 430
#     4  11  26  47  74 103 141 184 239 299 365 431
#     4  11  24  39  64  95 131 185 234 287 354 410
#     4  11  23  39  63  90 141 179 232 286 345 421
#
# _framework density 22.098749000000002
#
# number of rings (size 3 to 8) (size 9 to 14) (size 15 to 20)
#    0.000    1.231    3.846    0.923    8.615    1.231 
#    0.000    0.000    0.000    0.000    4.000    0.000 
#    0.000    0.000    0.000    0.000    0.000    0.000 
#
# Total GULP energy -144801.573659 kJ/mol
# GULP energy per Si atom -5569.291295 kJ/mol
# Density = 2.204845 g / cm^3
# Si number density = 22.098749 Si / 1000 Ang^3
#
#
#
# Elastic Constant Matrix: (Units=GPa)
#
#
# Indices 1 2 3 4 5 6 
#
# 1 92.3282 20.8700 57.1021 0.0000 0.0000 0.0000
# 2 20.8700 47.6436 34.3774 0.0000 0.0000 0.0000
# 3 57.1021 34.3774 152.2682 0.0000 0.0000 0.0000
# 4 0.0000 0.0000 0.0000 35.0233 0.0000 0.0000
# 5 0.0000 0.0000 0.0000 0.0000 28.7189 0.0000
# 6 0.0000 0.0000 0.0000 0.0000 0.0000 1.3257
#
#
#
# Elastic Compliance Matrix: (Units=1/GPa)
#
#
# Indices 1 2 3 4 5 6 
#
# 1 0.014426 -0.002886 -0.004758 0.000000 0.000000 0.000000
# 2 -0.002886 0.025651 -0.004709 0.000000 0.000000 0.000000
# 3 -0.004758 -0.004709 0.009415 0.000000 0.000000 0.000000
# 4 0.000000 0.000000 0.000000 0.028552 0.000000 0.000000
# 5 0.000000 0.000000 0.000000 0.000000 0.034820 0.000000
# 6 0.000000 0.000000 0.000000 0.000000 0.000000 0.754293
#
#
# Mechanical properties :
#
#
# Convention : Reuss Voigt Hill
#
# Bulk Modulus (GPa) = 40.34586 57.43767 48.89176
# Shear Modulus (GPa) = 5.55477 25.00628 15.28053
#
# Velocity S-wave (km/s) = 1.58716 3.36753 2.63243
# Velocity P-wave (km/s) = 4.65354 6.41624 5.60462
#
# Compressibility (1/GPa) = 0.02478569
#
# Stress axis : x y z
#
# Youngs Moduli (GPa) = 69.31842 38.98471 106.21394
#
# Poissons Ratio (x) = 0.11250 0.50541
# Poissons Ratio (y) = 0.20004 0.50016
# Poissons Ratio (z) = 0.32985 0.18358
#
# Static dielectric constant tensor:
#      x y z
#    x 1.825290 0.000000 0.000000 
#    y 0.000000 1.772160 0.000000 
#    z 0.000000 0.000000 1.984840 
# 
# From -- ./inp_files/31645.got.cif
#   From: 2010.05.17/outbox.cif.g08.bks.cpg/sg24_16_cif.got.tgz:31645.got - 2010.06.04 00:33:39.
