data_PCOD9336668
_publ_section_title
;
Structure prediction by ZEFSAII (Michael W. Deem and Ramdas Pophale) SiO2 
 PCOD9336668
Probable space group: I 21 21 21
;
_chemical_formula_sum "Si O2"
_cell_formula_units_Z 40
_cell_length_a 10.178232
_cell_length_b 16.223933
_cell_length_c 10.413249
_cell_angle_alpha 90.000000
_cell_angle_beta 90.000000
_cell_angle_gamma 90.000000
_cell_volume 1719.549742
_symmetry_space_group_name_H-M "I 21 21 21"
_symmetry_group_IT_number 24
_symmetry_cell_setting 'orthorhombic'
loop_
_space_group_symop_operation_xyz
x,y,z
-x,1/2-y,z
x,-y,1/2-z
1/2-x,y,-z
1/2+x,1/2+y,1/2+z
1/2-x,-y,1/2+z
1/2+x,1/2-y,-z
-x,1/2+y,1/2-z
loop_
_atom_site_type_symbol
_atom_site_label
_atom_site_fract_x
_atom_site_fract_y
_atom_site_fract_z
Si Si1 0.385283 0.026664 0.946704
Si Si2 0.750000 0.275982 0.500000
Si Si3 0.000000 0.250000 0.129465
Si Si4 0.250000 0.315367 0.000000
Si Si5 0.556894 0.089731 0.177399
Si Si6 0.500000 0.250000 0.342232
Si Si7 0.913979 0.380479 0.301033
O O1 0.344433 0.078834 0.822209
O O2 0.470317 0.951711 0.890731
O O3 0.250000 0.991572 0.000000
O O4 0.463716 0.073966 0.054417
O O5 0.626663 0.233644 0.431769
O O6 0.816660 0.327635 0.385814
O O7 0.017233 0.325083 0.228009
O O8 0.869578 0.243019 0.045332
O O9 0.190166 0.372726 0.886296
O O10 0.493757 0.164994 0.260224
O O11 0.568704 0.000000 0.250000
#
# Coordination Sequence:
#
# PCOD9336668 Si02
#       7
#     8   4   4   4   8   4   8
#     4  11  24  43  72 115 155 205 265 328 399 477
#     4  12  24  47  73 114 154 200 268 323 406 473
#     4  12  26  50  78 112 156 216 270 332 402 488
#     4  12  28  51  75 116 158 214 272 333 412 485
#     4  12  28  49  79 116 167 209 276 337 413 482
#     4  12  28  50  80 118 156 216 266 342 408 492
#     4  11  24  41  74 109 153 200 262 326 395 471
#
# _framework density 23.261904999999999
#
# number of rings (size 3 to 8) (size 9 to 14) (size 15 to 20)
#    0.000    0.400    3.000    4.800    4.200    2.400 
#    0.000    0.000    0.000    0.000    0.000    0.000 
#    0.000    0.000    0.000    0.000    0.000    0.000 
#
# Total GULP energy -111637.392789 kJ/mol
# GULP energy per Si atom -5581.869639 kJ/mol
# Density = 2.320896 g / cm^3
# Si number density = 23.261905 Si / 1000 Ang^3
#
#
#
# Elastic Constant Matrix: (Units=GPa)
#
#
# Indices 1 2 3 4 5 6 
#
# 1 110.5105 35.6317 57.0669 0.0000 0.0000 0.0000
# 2 35.6317 123.1431 67.8788 0.0001 0.0000 0.0000
# 3 57.0669 67.8788 143.6076 0.0001 0.0000 0.0000
# 4 0.0000 0.0001 0.0001 21.2371 0.0000 0.0000
# 5 0.0000 0.0000 0.0000 0.0000 2.7730 0.0000
# 6 0.0000 0.0000 0.0000 0.0000 0.0000 32.2039
#
#
#
# Elastic Compliance Matrix: (Units=1/GPa)
#
#
# Indices 1 2 3 4 5 6 
#
# 1 0.011493 -0.001093 -0.004051 0.000000 0.000000 0.000000
# 2 -0.001093 0.011086 -0.004806 0.000000 0.000000 0.000000
# 3 -0.004051 -0.004806 0.010845 0.000000 0.000000 0.000000
# 4 0.000000 0.000000 0.000000 0.047087 0.000000 0.000000
# 5 0.000000 0.000000 0.000000 0.000000 0.360626 0.000000
# 6 0.000000 0.000000 0.000000 0.000000 0.000000 0.031052
#
#
# Mechanical properties :
#
#
# Convention : Reuss Voigt Hill
#
# Bulk Modulus (GPa) = 73.93563 77.60181 75.76872
# Shear Modulus (GPa) = 10.06855 25.68838 17.87847
#
# Velocity S-wave (km/s) = 2.08272 3.32672 2.77532
# Velocity P-wave (km/s) = 6.13487 6.94180 6.55077
#
# Compressibility (1/GPa) = 0.01352528
#
# Stress axis : x y z
#
# Youngs Moduli (GPa) = 87.01004 90.20553 92.21251
#
# Poissons Ratio (x) = 0.09857 0.37351
# Poissons Ratio (y) = 0.09508 0.44314
# Poissons Ratio (z) = 0.35244 0.43350
#
# Static dielectric constant tensor:
#      x y z
#    x 1.935750 0.000000 0.000000 
#    y 0.000000 2.045770 0.000000 
#    z 0.000000 0.000000 1.862740 
# 
# From -- ./inp_files/10811.got.cif
#   From: 2010.05.17/outbox.cif.g08.bks.cpg/sg24_6_cif.got.tgz:10811.got - 2010.06.04 00:33:39.
