data_PCOD9336138
_publ_section_title
;
Structure prediction by ZEFSAII (Michael W. Deem and Ramdas Pophale) SiO2 
 PCOD9336138
Probable space group: I 21 21 21
;
_chemical_formula_sum "Si O2"
_cell_formula_units_Z 32
_cell_length_a 30.948616
_cell_length_b 9.609343
_cell_length_c 5.073058
_cell_angle_alpha 90.000000
_cell_angle_beta 90.000000
_cell_angle_gamma 90.000000
_cell_volume 1508.706480
_symmetry_space_group_name_H-M "I 21 21 21"
_symmetry_group_IT_number 24
_symmetry_cell_setting 'orthorhombic'
loop_
_space_group_symop_operation_xyz
x,y,z
-x,1/2-y,z
x,-y,1/2-z
1/2-x,y,-z
1/2+x,1/2+y,1/2+z
1/2-x,-y,1/2+z
1/2+x,1/2-y,-z
-x,1/2+y,1/2-z
loop_
_atom_site_type_symbol
_atom_site_label
_atom_site_fract_x
_atom_site_fract_y
_atom_site_fract_z
Si Si1 0.394239 0.000000 0.750000
Si Si2 0.592468 0.849371 0.148399
Si Si3 0.219864 0.500000 0.250000
Si Si4 0.855655 0.786109 0.337601
Si Si5 0.468067 0.863472 0.379340
O O1 0.361308 0.129863 0.724588
O O2 0.428786 0.931195 0.546029
O O3 0.629027 0.799389 0.359449
O O4 0.554973 0.735221 0.164080
O O5 0.579819 0.000000 0.250000
O O6 0.610429 0.860349 0.856899
O O7 0.250000 0.475270 0.500000
O O8 0.189008 0.633029 0.301459
O O9 0.500000 0.750000 0.515693
O O10 0.489030 0.000000 0.250000
#
# Coordination Sequence:
#
# PCOD9336138 Si02
#       5
#     4   8   4   8   8
#     4  10  24  44  63  92 130 190 222 258 329 392
#     4  11  20  39  63  94 123 179 220 259 322 383
#     4  12  24  42  67 106 130 158 208 278 339 386
#     4  11  22  41  68  91 134 168 217 257 318 416
#     4  11  23  40  60  92 133 172 226 288 320 363
#
# _framework density 21.210222000000002
#
# number of rings (size 3 to 8) (size 9 to 14) (size 15 to 20)
#    0.000    1.000    5.000    2.250    0.000    1.000 
#    9.000    1.250    0.000    0.000    0.000    0.000 
#    0.000    0.000    0.000    0.000    0.000    0.000 
#
# Total GULP energy -89140.093694 kJ/mol
# GULP energy per Si atom -5571.255856 kJ/mol
# Density = 2.116195 g / cm^3
# Si number density = 21.210222 Si / 1000 Ang^3
#
#
#
# Elastic Constant Matrix: (Units=GPa)
#
#
# Indices 1 2 3 4 5 6 
#
# 1 88.4712 52.4688 -0.4716 -0.0004 0.0004 0.0001
# 2 52.4688 210.0540 11.4544 0.0008 -0.0010 0.0000
# 3 -0.4716 11.4544 45.0757 0.0032 0.0021 -0.0005
# 4 -0.0004 0.0008 0.0032 28.5467 0.0009 -0.0006
# 5 0.0004 -0.0010 0.0021 0.0009 -69.0015 0.0008
# 6 0.0001 0.0000 -0.0005 -0.0006 0.0008 25.4592
#
#
#
# Elastic Compliance Matrix: (Units=1/GPa)
#
#
# Indices 1 2 3 4 5 6 
#
# 1 0.013313 -0.003380 0.000998 0.000000 0.000000 0.000000
# 2 -0.003380 0.005686 -0.001480 0.000000 0.000000 0.000000
# 3 0.000998 -0.001480 0.022571 -0.000002 0.000001 0.000000
# 4 0.000000 0.000000 -0.000002 0.035030 0.000000 0.000001
# 5 0.000000 0.000000 0.000001 0.000000 -0.014492 0.000000
# 6 0.000000 0.000000 0.000000 0.000001 0.000000 0.039279
#
#
# Mechanical properties :
#
#
# Convention : Reuss Voigt Hill
#
# Bulk Modulus (GPa) = 29.54534 52.27826 40.91180
# Shear Modulus (GPa) = 41.53096 15.67751 28.60423
#
# Velocity S-wave (km/s) = 4.42980 2.72168 3.67632
# Velocity P-wave (km/s) = 6.33437 5.88030 6.11155
#
# Compressibility (1/GPa) = 0.03384629
#
# Stress axis : x y z
#
# Youngs Moduli (GPa) = 75.11531 175.88198 44.30374
#
# Poissons Ratio (x) = 0.59445 -0.04422
# Poissons Ratio (y) = 0.25388 0.06558
# Poissons Ratio (z) = -0.07498 0.26033
#
# Static dielectric constant tensor:
#      x y z
#    x 1.788880 0.000000 0.000000 
#    y 0.000000 1.987340 0.000000 
#    z 0.000000 0.000000 1.795520 
# 
# From -- ./inp_files/1161.got.cif
#   From: 2010.05.17/outbox.cif.g08.bks.cpg/sg24_1_cif.got.tgz:1161.got - 2010.06.04 00:33:39.
