data_PCOD9336082
_publ_section_title
;
Structure prediction by ZEFSAII (Michael W. Deem and Ramdas Pophale) SiO2 
 PCOD9336082
Probable space group: I 21 21 21
;
_chemical_formula_sum "Si O2"
_cell_formula_units_Z 40
_cell_length_a 14.519008
_cell_length_b 10.036098
_cell_length_c 9.939020
_cell_angle_alpha 90.000000
_cell_angle_beta 90.000000
_cell_angle_gamma 90.000000
_cell_volume 1448.256220
_symmetry_space_group_name_H-M "I 21 21 21"
_symmetry_group_IT_number 24
_symmetry_cell_setting 'orthorhombic'
loop_
_space_group_symop_operation_xyz
x,y,z
-x,1/2-y,z
x,-y,1/2-z
1/2-x,y,-z
1/2+x,1/2+y,1/2+z
1/2-x,-y,1/2+z
1/2+x,1/2-y,-z
-x,1/2+y,1/2-z
loop_
_atom_site_type_symbol
_atom_site_label
_atom_site_fract_x
_atom_site_fract_y
_atom_site_fract_z
Si Si1 0.008647 0.500000 0.750000
Si Si2 0.769477 0.000000 0.250000
Si Si3 0.925152 0.020090 0.032771
Si Si4 0.419046 0.854896 0.864663
Si Si5 0.500000 0.250000 0.103865
Si Si6 0.264775 0.778187 0.653296
Si Si7 0.750000 0.534464 0.000000
O O1 0.065651 0.457947 0.616410
O O2 0.959627 0.367360 0.804112
O O3 0.661719 0.014345 0.621827
O O4 0.724992 0.146800 0.230737
O O5 0.000000 0.750000 0.110463
O O6 0.018933 0.987700 0.113510
O O7 0.930753 0.174908 0.993391
O O8 0.338824 0.876169 0.973932
O O9 0.360008 0.807308 0.735697
O O10 0.250000 0.731023 0.500000
O O11 0.235129 0.932187 0.623848
#
# Coordination Sequence:
#
# PCOD9336082 Si02
#       7
#     4   4   8   8   4   8   4
#     4   8  20  42  63 115 188 236 286 424 488 548
#     4  12  24  46  83 131 168 262 342 404 496 634
#     4  10  24  40  82 129 175 240 343 401 474 610
#     4  12  25  52  91 135 180 271 341 396 514 632
#     4   8  20  38  68 112 184 224 300 416 476 564
#     4  10  27  50  83 128 194 246 321 423 508 574
#     4  10  28  50  82 134 204 238 322 452 488 592
#
# _framework density 27.619423999999999
#
# number of rings (size 3 to 8) (size 9 to 14) (size 15 to 20)
#    1.800    0.000    2.000    0.600    7.000    0.000 
#    5.400    3.000    0.000    1.200    0.000    0.000 
#    0.000    0.000    0.000    0.000    0.000    0.000 
#
# Total GULP energy -111342.245464 kJ/mol
# GULP energy per Si atom -5567.112273 kJ/mol
# Density = 2.755656 g / cm^3
# Si number density = 27.619424 Si / 1000 Ang^3
#
#
#
# Elastic Constant Matrix: (Units=GPa)
#
#
# Indices 1 2 3 4 5 6 
#
# 1 163.0921 67.3413 65.4224 0.0000 0.0000 0.0000
# 2 67.3413 163.7323 91.8134 0.0000 0.0000 0.0000
# 3 65.4224 91.8134 193.6177 0.0000 0.0000 0.0000
# 4 0.0000 0.0000 0.0000 60.1063 0.0000 0.0000
# 5 0.0000 0.0000 0.0000 0.0000 31.6294 0.0000
# 6 0.0000 0.0000 0.0000 0.0000 0.0000 30.6401
#
#
#
# Elastic Compliance Matrix: (Units=1/GPa)
#
#
# Indices 1 2 3 4 5 6 
#
# 1 0.007692 -0.002324 -0.001497 0.000000 0.000000 0.000000
# 2 -0.002324 0.009022 -0.003493 0.000000 0.000000 0.000000
# 3 -0.001497 -0.003493 0.007327 0.000000 0.000000 0.000000
# 4 0.000000 0.000000 0.000000 0.016637 0.000000 0.000000
# 5 0.000000 0.000000 0.000000 0.000000 0.031616 0.000000
# 6 0.000000 0.000000 0.000000 0.000000 0.000000 0.032637
#
#
# Mechanical properties :
#
#
# Convention : Reuss Voigt Hill
#
# Bulk Modulus (GPa) = 106.23847 107.73291 106.98569
# Shear Modulus (GPa) = 40.75100 44.19950 42.47525
#
# Velocity S-wave (km/s) = 3.84532 4.00472 3.92583
# Velocity P-wave (km/s) = 7.63308 7.77654 7.70515
#
# Compressibility (1/GPa) = 0.00941279
#
# Stress axis : x y z
#
# Youngs Moduli (GPa) = 130.01238 110.83886 136.48211
#
# Poissons Ratio (x) = 0.25760 0.20429
# Poissons Ratio (y) = 0.30216 0.47673
# Poissons Ratio (z) = 0.19461 0.38716
#
# Static dielectric constant tensor:
#      x y z
#    x 2.601220 0.000000 0.000000 
#    y 0.000000 2.360530 0.000000 
#    z 0.000000 0.000000 2.147980 
# 
# From -- ./inp_files/16296.got.cif
#   From: 2010.05.17/outbox.cif.g08.bks.cpg/sg24_9_cif.got.tgz:16296.got - 2010.06.04 00:33:39.
