data_PCOD9336734
_publ_section_title
;
Structure prediction by ZEFSAII (Michael W. Deem and Ramdas Pophale) SiO2 
 PCOD9336734
Probable space group: I 21 21 21
;
_chemical_formula_sum "Si O2"
_cell_formula_units_Z 48
_cell_length_a 11.032532
_cell_length_b 10.945876
_cell_length_c 20.654774
_cell_angle_alpha 90.000000
_cell_angle_beta 90.000000
_cell_angle_gamma 90.000000
_cell_volume 2494.285529
_symmetry_space_group_name_H-M "I 21 21 21"
_symmetry_group_IT_number 24
_symmetry_cell_setting 'orthorhombic'
loop_
_space_group_symop_operation_xyz
x,y,z
-x,1/2-y,z
x,-y,1/2-z
1/2-x,y,-z
1/2+x,1/2+y,1/2+z
1/2-x,-y,1/2+z
1/2+x,1/2-y,-z
-x,1/2+y,1/2-z
loop_
_atom_site_type_symbol
_atom_site_label
_atom_site_fract_x
_atom_site_fract_y
_atom_site_fract_z
Si Si1 0.500000 0.750000 0.080675
Si Si2 0.270845 0.279278 0.614203
Si Si3 0.682371 0.497070 0.570448
Si Si4 0.603392 0.856166 0.754504
Si Si5 0.750000 0.121224 0.000000
Si Si6 0.853122 0.744677 0.375853
Si Si7 0.439219 0.436739 0.517246
O O1 0.624975 0.787025 0.113827
O O2 0.522343 0.639122 0.031486
O O3 0.294184 0.135986 0.600569
O O4 0.320762 0.333337 0.680694
O O5 0.346966 0.351275 0.558150
O O6 0.750000 0.512971 0.500000
O O7 0.702476 0.608205 0.620352
O O8 0.536809 0.502118 0.561500
O O9 0.500000 0.750000 0.758443
O O10 0.675134 0.820024 0.689133
O O11 0.564642 0.000000 0.750000
O O12 0.701462 0.195054 0.939756
O O13 0.640582 0.033493 0.020771
O O14 0.000000 0.750000 0.379905
#
# Coordination Sequence:
#
# PCOD9336734 Si02
#       7
#     4   8   8   8   4   8   8
#     4  12  22  38  64 102 124 176 214 282 336 402
#     4  12  24  40  70  95 137 172 227 281 336 400
#     4  12  22  39  64 104 134 170 222 281 337 404
#     4  11  27  46  69  99 134 182 231 280 336 408
#     4  12  22  38  64  92 130 176 210 280 348 398
#     4  11  25  40  65  94 134 175 225 275 339 402
#     4  12  21  36  64 101 131 166 218 276 341 392
#
# _framework density 19.243988999999999
#
# number of rings (size 3 to 8) (size 9 to 14) (size 15 to 20)
#    0.000    0.333    7.500    2.000    7.000    0.000 
#    0.000    0.000    9.167    0.000    0.000    0.000 
#    0.000    0.000    0.000    0.000    0.000    0.000 
#
# Total GULP energy -133749.344640 kJ/mol
# GULP energy per Si atom -5572.889360 kJ/mol
# Density = 1.920019 g / cm^3
# Si number density = 19.243989 Si / 1000 Ang^3
#
#
#
# Elastic Constant Matrix: (Units=GPa)
#
#
# Indices 1 2 3 4 5 6 
#
# 1 93.0280 19.5164 33.5349 0.0000 0.0000 0.0000
# 2 19.5164 109.8645 37.8188 0.0000 0.0000 0.0000
# 3 33.5349 37.8188 102.7267 0.0000 0.0000 0.0000
# 4 0.0000 0.0000 0.0000-1223.9951 0.0000 0.0000
# 5 0.0000 0.0000 0.0000 0.0000 23.3129 0.0000
# 6 0.0000 0.0000 0.0000 0.0000 0.0000 20.9163
#
#
#
# Elastic Compliance Matrix: (Units=1/GPa)
#
#
# Indices 1 2 3 4 5 6 
#
# 1 0.012263 -0.000917 -0.003666 0.000000 0.000000 0.000000
# 2 -0.000917 0.010492 -0.003563 0.000000 0.000000 0.000000
# 3 -0.003666 -0.003563 0.012243 0.000000 0.000000 0.000000
# 4 0.000000 0.000000 0.000000 -0.000817 0.000000 0.000000
# 5 0.000000 0.000000 0.000000 0.000000 0.042895 0.000000
# 6 0.000000 0.000000 0.000000 0.000000 0.000000 0.047809
#
#
# Mechanical properties :
#
#
# Convention : Reuss Voigt Hill
#
# Bulk Modulus (GPa) = 53.45735 54.15105 53.80420
# Shear Modulus (GPa) = 33.91858 -221.63656 -93.85899
#
# Velocity S-wave (km/s) = 4.20283 -10.74346 -6.99135
# Velocity P-wave (km/s) = 7.16874 11.21140 6.09528
#
# Compressibility (1/GPa) = 0.01870650
#
# Stress axis : x y z
#
# Youngs Moduli (GPa) = 81.54470 95.31509 81.67874
#
# Poissons Ratio (x) = 0.08736 0.29942
# Poissons Ratio (y) = 0.07474 0.29104
# Poissons Ratio (z) = 0.29893 0.33963
#
# Static dielectric constant tensor:
#      x y z
#    x 1.795390 0.000000 0.000000 
#    y 0.000000 1.755260 0.000000 
#    z 0.000000 0.000000 1.676750 
# 
# From -- ./inp_files/30214.got.cif
#   From: 2010.05.17/outbox.cif.g08.bks.cpg/sg24_16_cif.got.tgz:30214.got - 2010.06.04 00:33:39.
