data_PCOD9336247
_publ_section_title
;
Structure prediction by ZEFSAII (Michael W. Deem and Ramdas Pophale) SiO2 
 PCOD9336247
Probable space group: I 21 21 21
;
_chemical_formula_sum "Si O2"
_cell_formula_units_Z 56
_cell_length_a 22.429197
_cell_length_b 7.925323
_cell_length_c 15.300054
_cell_angle_alpha 90.000000
_cell_angle_beta 90.000000
_cell_angle_gamma 90.000000
_cell_volume 2719.716651
_symmetry_space_group_name_H-M "I 21 21 21"
_symmetry_group_IT_number 24
_symmetry_cell_setting 'orthorhombic'
loop_
_space_group_symop_operation_xyz
x,y,z
-x,1/2-y,z
x,-y,1/2-z
1/2-x,y,-z
1/2+x,1/2+y,1/2+z
1/2-x,-y,1/2+z
1/2+x,1/2-y,-z
-x,1/2+y,1/2-z
loop_
_atom_site_type_symbol
_atom_site_label
_atom_site_fract_x
_atom_site_fract_y
_atom_site_fract_z
Si Si1 0.265279 0.312460 0.296114
Si Si2 0.558239 0.678876 0.377749
Si Si3 0.352002 0.000000 0.250000
Si Si4 0.498040 0.565964 0.985495
Si Si5 0.534955 0.590626 0.675766
Si Si6 0.125711 0.408469 0.016536
Si Si7 0.140140 0.310113 0.211827
Si Si8 0.250000 0.402052 0.500000
O O1 0.279649 0.500000 0.250000
O O2 0.203998 0.259042 0.248895
O O3 0.252058 0.321281 0.401257
O O4 0.313153 0.164518 0.277931
O O5 0.500000 0.750000 0.324918
O O6 0.603762 0.565527 0.324720
O O7 0.522893 0.567690 0.447555
O O8 0.599851 0.806691 0.433672
O O9 0.500000 0.750000 0.024033
O O10 0.540328 0.541529 0.901612
O O11 0.429560 0.530826 0.960531
O O12 0.500000 0.250000 0.864335
O O13 0.496640 0.500000 0.750000
O O14 0.588884 0.325992 0.770849
O O15 0.138200 0.309098 0.106086
O O16 0.188131 0.495724 0.996981
O O17 0.131917 0.500000 0.250000
#
# Coordination Sequence:
#
# PCOD9336247 Si02
#       8
#     8   8   4   8   8   8   8   4
#     4  11  26  50  72 110 150 191 252 298 364 438
#     4  10  24  50  73 103 138 182 242 306 370 433
#     4  12  28  52  76 108 144 190 252 310 364 444
#     4  11  24  41  67 104 140 180 239 297 355 443
#     4  12  23  36  58  94 137 183 229 283 355 422
#     4  11  22  45  74  99 141 191 233 288 371 421
#     4  11  22  43  66  95 147 184 232 291 345 433
#     4  12  24  44  78 108 144 200 234 304 366 432
#
# _framework density 20.590382000000002
#
# number of rings (size 3 to 8) (size 9 to 14) (size 15 to 20)
#    0.000    0.857    5.714    2.143    5.000    0.571 
#    6.429    0.000    0.000    0.000    0.000    0.000 
#    0.000    0.000    0.000    0.000    0.000    0.000 
#
# Total GULP energy -155884.711171 kJ/mol
# GULP energy per Si atom -5567.311113 kJ/mol
# Density = 2.054352 g / cm^3
# Si number density = 20.590382 Si / 1000 Ang^3
#
#
#
# Elastic Constant Matrix: (Units=GPa)
#
#
# Indices 1 2 3 4 5 6 
#
# 1 172.6606 52.2349 46.7951 0.0000 0.0000 0.0000
# 2 52.2349 70.3736 14.3521 0.0000 0.0000 0.0000
# 3 46.7951 14.3521 81.1235 0.0000 0.0000 0.0000
# 4 0.0000 0.0000 0.0000 22.0429 0.0000 0.0000
# 5 0.0000 0.0000 0.0000 0.0000 30.0315 0.0000
# 6 0.0000 0.0000 0.0000 0.0000 0.0000 23.1478
#
#
#
# Elastic Compliance Matrix: (Units=1/GPa)
#
#
# Indices 1 2 3 4 5 6 
#
# 1 0.008534 -0.005530 -0.003944 0.000000 0.000000 0.000000
# 2 -0.005530 0.018325 -0.000052 0.000000 0.000000 0.000000
# 3 -0.003944 -0.000052 0.014611 0.000000 0.000000 0.000000
# 4 0.000000 0.000000 0.000000 0.045366 0.000000 0.000000
# 5 0.000000 0.000000 0.000000 0.000000 0.033298 0.000000
# 6 0.000000 0.000000 0.000000 0.000000 0.000000 0.043201
#
#
# Mechanical properties :
#
#
# Convention : Reuss Voigt Hill
#
# Bulk Modulus (GPa) = 44.60792 61.21356 52.91074
# Shear Modulus (GPa) = 26.33523 29.09613 27.71568
#
# Velocity S-wave (km/s) = 3.58020 3.76319 3.67284
# Velocity P-wave (km/s) = 6.22912 6.97681 6.61354
#
# Compressibility (1/GPa) = 0.02241754
#
# Stress axis : x y z
#
# Youngs Moduli (GPa) = 117.18427 54.57046 68.44016
#
# Poissons Ratio (x) = 0.30176 0.26994
# Poissons Ratio (y) = 0.64799 0.00358
# Poissons Ratio (z) = 0.46220 0.00285
#
# Static dielectric constant tensor:
#      x y z
#    x 1.777550 0.000000 0.000000 
#    y 0.000000 1.806680 0.000000 
#    z 0.000000 0.000000 1.784120 
# 
# From -- ./inp_files/27585.got.cif
#   From: 2010.05.17/outbox.cif.g08.bks.cpg/sg24_14_cif.got.tgz:27585.got - 2010.06.04 00:33:39.
