data_PCOD9336387
_publ_section_title
;
Structure prediction by ZEFSAII (Michael W. Deem and Ramdas Pophale) SiO2 
 PCOD9336387
Probable space group: I 21 21 21
;
_chemical_formula_sum "Si O2"
_cell_formula_units_Z 48
_cell_length_a 8.325571
_cell_length_b 11.739853
_cell_length_c 25.412474
_cell_angle_alpha 90.000000
_cell_angle_beta 90.000000
_cell_angle_gamma 90.000000
_cell_volume 2483.840105
_symmetry_space_group_name_H-M "I 21 21 21"
_symmetry_group_IT_number 24
_symmetry_cell_setting 'orthorhombic'
loop_
_space_group_symop_operation_xyz
x,y,z
-x,1/2-y,z
x,-y,1/2-z
1/2-x,y,-z
1/2+x,1/2+y,1/2+z
1/2-x,-y,1/2+z
1/2+x,1/2-y,-z
-x,1/2+y,1/2-z
loop_
_atom_site_type_symbol
_atom_site_label
_atom_site_fract_x
_atom_site_fract_y
_atom_site_fract_z
Si Si1 0.322320 0.716600 0.169559
Si Si2 0.820540 0.201359 0.056712
Si Si3 0.848944 0.329775 0.857787
Si Si4 0.133487 0.492532 0.143235
Si Si5 0.786612 0.529958 0.186444
Si Si6 0.669187 0.196019 0.773108
O O1 0.500000 0.750000 0.151058
O O2 0.227250 0.613088 0.141550
O O3 0.236050 0.837855 0.174889
O O4 0.310147 0.683183 0.231002
O O5 0.712025 0.299454 0.084228
O O6 0.000000 0.250000 0.053059
O O7 0.821087 0.091894 0.095533
O O8 0.750000 0.172883 0.000000
O O9 0.861667 0.459394 0.839300
O O10 0.711678 0.285705 0.818360
O O11 0.000000 0.250000 0.847870
O O12 0.165705 0.423384 0.197034
O O13 0.942575 0.504171 0.150746
O O14 0.800138 0.500000 0.250000
O O15 0.500000 0.250000 0.751785
#
# Coordination Sequence:
#
# PCOD9336387 Si02
#       6
#     8   8   8   8   8   8
#     4  12  26  35  54  90 132 178 221 264 327 396
#     4  11  23  45  73  98 126 160 220 288 355 401
#     4  11  22  37  62  97 131 166 219 282 330 389
#     4  11  22  41  62  89 127 173 223 273 333 415
#     4  12  22  38  63  90 138 185 224 263 329 422
#     4  11  19  38  59  85 126 175 222 265 323 398
#
# _framework density 19.324915000000001
#
# number of rings (size 3 to 8) (size 9 to 14) (size 15 to 20)
#    0.000    0.667    5.000    5.000    4.667    0.000 
#    0.000    0.000    0.000    3.000    0.000    0.000 
#    0.000    0.000    0.000    0.000    0.000    0.000 
#
# Total GULP energy -133689.308082 kJ/mol
# GULP energy per Si atom -5570.387837 kJ/mol
# Density = 1.928093 g / cm^3
# Si number density = 19.324915 Si / 1000 Ang^3
#
#
#
# Elastic Constant Matrix: (Units=GPa)
#
#
# Indices 1 2 3 4 5 6 
#
# 1 70.7259 35.8697 21.4913 0.0000 0.0000 0.0000
# 2 35.8697 133.9580 40.5499 0.0000 0.0000 0.0000
# 3 21.4913 40.5499 96.3582 0.0000 0.0000 0.0000
# 4 0.0000 0.0000 0.0000 15.4597 0.0000 0.0000
# 5 0.0000 0.0000 0.0000 0.0000 21.7642 0.0000
# 6 0.0000 0.0000 0.0000 0.0000 0.0000 27.8113
#
#
#
# Elastic Compliance Matrix: (Units=1/GPa)
#
#
# Indices 1 2 3 4 5 6 
#
# 1 0.016729 -0.003839 -0.002116 0.000000 0.000000 0.000000
# 2 -0.003839 0.009436 -0.003115 0.000000 0.000000 0.000000
# 3 -0.002116 -0.003115 0.012160 0.000000 0.000000 0.000000
# 4 0.000000 0.000000 0.000000 0.064684 0.000000 0.000000
# 5 0.000000 0.000000 0.000000 0.000000 0.045947 0.000000
# 6 0.000000 0.000000 0.000000 0.000000 0.000000 0.035957
#
#
# Mechanical properties :
#
#
# Convention : Reuss Voigt Hill
#
# Bulk Modulus (GPa) = 49.53729 55.20710 52.37219
# Shear Modulus (GPa) = 23.83445 26.54914 25.19179
#
# Velocity S-wave (km/s) = 3.51572 3.71054 3.61445
# Velocity P-wave (km/s) = 6.49384 6.85473 6.67672
#
# Compressibility (1/GPa) = 0.02018681
#
# Stress axis : x y z
#
# Youngs Moduli (GPa) = 59.77650 105.97925 82.23363
#
# Poissons Ratio (x) = 0.40686 0.17397
# Poissons Ratio (y) = 0.22949 0.25612
# Poissons Ratio (z) = 0.12646 0.33008
#
# Static dielectric constant tensor:
#      x y z
#    x 1.742760 0.000000 0.000000 
#    y 0.000000 1.862880 0.000000 
#    z 0.000000 0.000000 1.663250 
# 
# From -- ./inp_files/35136.got.cif
#   From: 2010.05.17/outbox.cif.g08.bks.cpg/sg24_18_cif.got.tgz:35136.got - 2010.06.04 00:33:39.
