data_PCOD9336887
_publ_section_title
;
Structure prediction by ZEFSAII (Michael W. Deem and Ramdas Pophale) SiO2 
 PCOD9336887
Probable space group: I 21 21 21
;
_chemical_formula_sum "Si O2"
_cell_formula_units_Z 40
_cell_length_a 12.069120
_cell_length_b 5.106504
_cell_length_c 27.735371
_cell_angle_alpha 90.000000
_cell_angle_beta 90.000000
_cell_angle_gamma 90.000000
_cell_volume 1709.358915
_symmetry_space_group_name_H-M "I 21 21 21"
_symmetry_group_IT_number 24
_symmetry_cell_setting 'orthorhombic'
loop_
_space_group_symop_operation_xyz
x,y,z
-x,1/2-y,z
x,-y,1/2-z
1/2-x,y,-z
1/2+x,1/2+y,1/2+z
1/2-x,-y,1/2+z
1/2+x,1/2-y,-z
-x,1/2+y,1/2-z
loop_
_atom_site_type_symbol
_atom_site_label
_atom_site_fract_x
_atom_site_fract_y
_atom_site_fract_z
Si Si1 0.000000 0.250000 0.480863
Si Si2 0.295267 0.999199 0.393887
Si Si3 0.193271 0.492394 0.144239
Si Si4 0.000000 0.750000 0.417527
Si Si5 0.749118 0.000000 0.250000
Si Si6 0.250000 0.151286 0.500000
Si Si7 0.500000 0.250000 0.340374
Si Si8 0.910414 0.500000 0.750000
O O1 0.972562 0.508757 0.451457
O O2 0.870950 0.194873 0.500030
O O3 0.207020 0.208375 0.372384
O O4 0.270793 0.987706 0.450790
O O5 0.405247 0.153646 0.377192
O O6 0.292452 0.709434 0.370691
O O7 0.182246 0.489191 0.201213
O O8 0.095184 0.357017 0.116352
O O9 0.672027 0.254938 0.251852
O O10 0.516765 0.474840 0.298680
#
# Coordination Sequence:
#
# PCOD9336887 Si02
#       8
#     4   8   8   4   4   4   4   4
#     4  12  27  46  85 108 162 202 271 327 408 466
#     4  12  27  43  77 104 161 196 265 317 390 474
#     4  12  24  48  72 107 143 204 252 322 391 472
#     4  12  24  50  77 105 149 210 247 334 400 460
#     4  12  23  46  71 106 146 200 253 324 389 484
#     4  12  26  54  74 128 148 224 266 344 396 486
#     4  12  25  46  68 123 147 216 250 325 400 498
#     4  12  25  40  75 102 162 200 247 316 415 476
#
# _framework density 23.400586000000001
#
# number of rings (size 3 to 8) (size 9 to 14) (size 15 to 20)
#    0.000    0.000    8.000    1.200    0.000    5.600 
#    0.000    4.000    0.000    0.000    0.000    0.000 
#    0.000    0.000    0.000    0.000    0.000    0.000 
#
# Total GULP energy -111357.943407 kJ/mol
# GULP energy per Si atom -5567.897170 kJ/mol
# Density = 2.334733 g / cm^3
# Si number density = 23.400586 Si / 1000 Ang^3
#
#
#
# Elastic Constant Matrix: (Units=GPa)
#
#
# Indices 1 2 3 4 5 6 
#
# 1 82.3020 -21.7827 -7.6212 0.0000 0.0000 0.0000
# 2 -21.7827 107.3594 -1.3101 0.0000 0.0000 0.0000
# 3 -7.6212 -1.3101 145.4099 0.0000 0.0000 0.0000
# 4 0.0000 0.0000 0.0000 164.6163 0.0000 0.0000
# 5 0.0000 0.0000 0.0000 0.0000 60.9712 0.0000
# 6 0.0000 0.0000 0.0000 0.0000 0.0000 15.4135
#
#
#
# Elastic Compliance Matrix: (Units=1/GPa)
#
#
# Indices 1 2 3 4 5 6 
#
# 1 0.012911 0.002628 0.000700 0.000000 0.000000 0.000000
# 2 0.002628 0.009851 0.000226 0.000000 0.000000 0.000000
# 3 0.000700 0.000226 0.006916 0.000000 0.000000 0.000000
# 4 0.000000 0.000000 0.000000 0.006075 0.000000 0.000000
# 5 0.000000 0.000000 0.000000 0.000000 0.016401 0.000000
# 6 0.000000 0.000000 0.000000 0.000000 0.000000 0.064878
#
#
# Mechanical properties :
#
#
# Convention : Reuss Voigt Hill
#
# Bulk Modulus (GPa) = 27.18350 30.40481 28.79415
# Shear Modulus (GPa) = 40.92200 72.58590 56.75395
#
# Velocity S-wave (km/s) = 4.18635 5.57550 4.93010
# Velocity P-wave (km/s) = 5.91686 7.38035 6.68875
#
# Compressibility (1/GPa) = 0.03678703
#
# Stress axis : x y z
#
# Youngs Moduli (GPa) = 77.45455 101.51768 144.59525
#
# Poissons Ratio (x) = -0.26680 -0.10127
# Poissons Ratio (y) = -0.20356 -0.03275
# Poissons Ratio (z) = -0.05425 -0.02299
#
# Static dielectric constant tensor:
#      x y z
#    x 1.981570 0.000000 0.000000 
#    y 0.000000 1.850590 0.000000 
#    z 0.000000 0.000000 1.886700 
# 
# From -- ./inp_files/2583.got.cif
#   From: 2010.05.17/outbox.cif.g08.bks.cpg/sg24_2_cif.got.tgz:2583.got - 2010.06.04 00:33:39.
