data_PCOD9336153
_publ_section_title
;
Structure prediction by ZEFSAII (Michael W. Deem and Ramdas Pophale) SiO2 
 PCOD9336153
Probable space group: I 21 21 21
;
_chemical_formula_sum "Si O2"
_cell_formula_units_Z 48
_cell_length_a 7.629263
_cell_length_b 14.706257
_cell_length_c 18.290385
_cell_angle_alpha 90.000000
_cell_angle_beta 90.000000
_cell_angle_gamma 90.000000
_cell_volume 2052.142831
_symmetry_space_group_name_H-M "I 21 21 21"
_symmetry_group_IT_number 24
_symmetry_cell_setting 'orthorhombic'
loop_
_space_group_symop_operation_xyz
x,y,z
-x,1/2-y,z
x,-y,1/2-z
1/2-x,y,-z
1/2+x,1/2+y,1/2+z
1/2-x,-y,1/2+z
1/2+x,1/2-y,-z
-x,1/2+y,1/2-z
loop_
_atom_site_type_symbol
_atom_site_label
_atom_site_fract_x
_atom_site_fract_y
_atom_site_fract_z
Si Si1 0.123174 0.663881 0.567809
Si Si2 0.169716 0.086368 0.292204
Si Si3 0.766017 0.072337 0.310345
Si Si4 0.789481 0.760765 0.716106
Si Si5 0.570257 0.966614 0.044125
Si Si6 0.865104 0.673020 0.060843
O O1 0.250000 0.664468 0.500000
O O2 0.235972 0.683159 0.641001
O O3 0.013919 0.569725 0.565242
O O4 0.000000 0.750000 0.562146
O O5 0.189710 0.166924 0.232313
O O6 0.234421 0.128463 0.369745
O O7 0.974589 0.054250 0.318523
O O8 0.250702 0.000000 0.250000
O O9 0.765163 0.172411 0.279249
O O10 0.640847 0.072801 0.379735
O O11 0.701859 0.000000 0.250000
O O12 0.000000 0.750000 0.720623
O O13 0.450373 0.906025 0.990780
O O14 0.750000 0.978094 0.000000
O O15 0.000000 0.750000 0.088027
O O16 0.750000 0.724663 0.000000
#
# Coordination Sequence:
#
# PCOD9336153 Si02
#       6
#     8   8   8   8   8   8
#     4  10  24  44  68 102 139 188 237 292 354 421
#     4  11  27  46  70 102 139 185 244 290 353 430
#     4  11  22  43  70  97 133 183 233 292 352 420
#     4  11  25  42  67 102 141 180 229 292 356 423
#     4  11  23  44  69  98 139 178 240 289 351 426
#     4  12  28  45  71 107 147 191 235 295 362 430
#
# _framework density 23.390184999999999
#
# number of rings (size 3 to 8) (size 9 to 14) (size 15 to 20)
#    0.000    1.000    3.333    2.000    4.667    6.667 
#    0.000    0.000    0.000    0.000    0.000    0.000 
#    0.000    0.000    0.000    0.000    0.000    0.000 
#
# Total GULP energy -133910.447320 kJ/mol
# GULP energy per Si atom -5579.601972 kJ/mol
# Density = 2.333695 g / cm^3
# Si number density = 23.390185 Si / 1000 Ang^3
#
#
#
# Elastic Constant Matrix: (Units=GPa)
#
#
# Indices 1 2 3 4 5 6 
#
# 1 48.3016 -5.8422 12.8681 0.0000 0.0000 0.0000
# 2 -5.8422 154.4005 44.2753 0.0000 0.0000 0.0000
# 3 12.8681 44.2753 142.6258 0.0000 0.0000 0.0000
# 4 0.0000 0.0000 0.0000 23.8477 0.0000 0.0000
# 5 0.0000 0.0000 0.0000 0.0000 26.8959 0.0000
# 6 0.0000 0.0000 0.0000 0.0000 0.0000 17.1997
#
#
#
# Elastic Compliance Matrix: (Units=1/GPa)
#
#
# Indices 1 2 3 4 5 6 
#
# 1 0.021527 0.001506 -0.002410 0.000000 0.000000 0.000000
# 2 0.001506 0.007215 -0.002376 0.000000 0.000000 0.000000
# 3 -0.002410 -0.002376 0.007966 0.000000 0.000000 0.000000
# 4 0.000000 0.000000 0.000000 0.041933 0.000000 0.000000
# 5 0.000000 0.000000 0.000000 0.000000 0.037180 0.000000
# 6 0.000000 0.000000 0.000000 0.000000 0.000000 0.058141
#
#
# Mechanical properties :
#
#
# Convention : Reuss Voigt Hill
#
# Bulk Modulus (GPa) = 33.16852 49.77002 41.46927
# Shear Modulus (GPa) = 26.23696 33.19044 29.71370
#
# Velocity S-wave (km/s) = 3.35282 3.77104 3.56806
# Velocity P-wave (km/s) = 5.40369 6.34707 5.89428
#
# Compressibility (1/GPa) = 0.03014907
#
# Stress axis : x y z
#
# Youngs Moduli (GPa) = 46.45268 138.60346 125.53048
#
# Poissons Ratio (x) = -0.20867 0.30248
# Poissons Ratio (y) = -0.06994 0.29820
# Poissons Ratio (z) = 0.11193 0.32926
#
# Static dielectric constant tensor:
#      x y z
#    x 2.069850 0.000000 0.000000 
#    y 0.000000 1.916850 0.000000 
#    z 0.000000 0.000000 2.140190 
# 
# From -- ./inp_files/29466.got.cif
#   From: 2010.05.17/outbox.cif.g08.bks.cpg/sg24_15_cif.got.tgz:29466.got - 2010.06.04 00:33:39.
