data_PCOD9336203
_publ_section_title
;
Structure prediction by ZEFSAII (Michael W. Deem and Ramdas Pophale) SiO2 
 PCOD9336203
Probable space group: I 21 21 21
;
_chemical_formula_sum "Si O2"
_cell_formula_units_Z 60
_cell_length_a 10.768207
_cell_length_b 19.779464
_cell_length_c 12.491587
_cell_angle_alpha 90.000000
_cell_angle_beta 90.000000
_cell_angle_gamma 90.000000
_cell_volume 2660.575154
_symmetry_space_group_name_H-M "I 21 21 21"
_symmetry_group_IT_number 24
_symmetry_cell_setting 'orthorhombic'
loop_
_space_group_symop_operation_xyz
x,y,z
-x,1/2-y,z
x,-y,1/2-z
1/2-x,y,-z
1/2+x,1/2+y,1/2+z
1/2-x,-y,1/2+z
1/2+x,1/2-y,-z
-x,1/2+y,1/2-z
loop_
_atom_site_type_symbol
_atom_site_label
_atom_site_fract_x
_atom_site_fract_y
_atom_site_fract_z
Si Si1 0.133179 0.389360 0.787416
Si Si2 0.750000 0.641012 0.000000
Si Si3 0.532079 0.959785 0.496407
Si Si4 0.100908 0.941958 0.833425
Si Si5 0.467548 0.826613 0.860750
Si Si6 0.322544 0.435400 0.610953
Si Si7 0.799837 0.786634 0.383736
Si Si8 0.073227 0.852692 0.364545
O O1 0.228745 0.428801 0.710041
O O2 0.197311 0.316196 0.802792
O O3 0.998592 0.395499 0.730948
O O4 0.114374 0.421322 0.906197
O O5 0.796408 0.597684 0.899054
O O6 0.630835 0.680358 0.955968
O O7 0.428335 0.911058 0.547720
O O8 0.473239 0.019591 0.427426
O O9 0.603401 0.994044 0.596325
O O10 0.143473 0.000000 0.750000
O O11 0.500000 0.750000 0.826275
O O12 0.585833 0.871305 0.889776
O O13 0.412464 0.868198 0.760016
O O14 0.250000 0.431951 0.500000
O O15 0.750000 0.802424 0.500000
O O16 0.830372 0.707572 0.382249
O O17 0.931082 0.824678 0.370803
#
# Coordination Sequence:
#
# PCOD9336203 Si02
#       8
#     8   4   8   8   8   8   8   8
#     4  11  22  41  72 107 148 186 240 314 374 441
#     4  12  26  52  70 100 142 194 242 302 366 450
#     4  11  24  41  69 109 147 185 237 308 376 436
#     4  10  24  46  72 107 146 185 241 303 372 455
#     4  12  26  48  70  98 141 192 247 302 359 453
#     4  12  24  40  71 108 142 187 245 302 383 439
#     4  11  22  44  70  98 144 186 241 300 363 440
#     4  11  24  44  66 103 142 189 235 303 370 443
#
# _framework density 22.551514999999998
#
# number of rings (size 3 to 8) (size 9 to 14) (size 15 to 20)
#    0.000    0.800    6.667    0.000    2.800    2.667 
#    8.400    0.000    0.000    0.000    0.000    0.000 
#    0.000    0.000    0.000    0.000    0.000    0.000 
#
# Total GULP energy -167565.819078 kJ/mol
# GULP energy per Si atom -5585.527303 kJ/mol
# Density = 2.250019 g / cm^3
# Si number density = 22.551515 Si / 1000 Ang^3
#
#
#
# Elastic Constant Matrix: (Units=GPa)
#
#
# Indices 1 2 3 4 5 6 
#
# 1 65.7084 40.3837 27.7942 0.0001 0.0000 0.0000
# 2 40.3837 80.4336 33.3582 0.0003 0.0000 0.0000
# 3 27.7942 33.3582 94.2138 0.0005 0.0001 0.0000
# 4 0.0001 0.0003 0.0005 21.0997 0.0000 0.0000
# 5 0.0000 0.0000 0.0001 0.0000 39.4060 0.0000
# 6 0.0000 0.0000 0.0000 0.0000 0.0000 30.1238
#
#
#
# Elastic Compliance Matrix: (Units=1/GPa)
#
#
# Indices 1 2 3 4 5 6 
#
# 1 0.022771 -0.010135 -0.003129 0.000000 0.000000 0.000000
# 2 -0.010135 0.019083 -0.003767 0.000000 0.000000 0.000000
# 3 -0.003129 -0.003767 0.012871 0.000000 0.000000 0.000000
# 4 0.000000 0.000000 0.000000 0.047394 0.000000 0.000000
# 5 0.000000 0.000000 0.000000 0.000000 0.025377 0.000000
# 6 0.000000 0.000000 0.000000 0.000000 0.000000 0.033196
#
#
# Mechanical properties :
#
#
# Convention : Reuss Voigt Hill
#
# Bulk Modulus (GPa) = 48.39500 49.26978 48.83239
# Shear Modulus (GPa) = 24.79627 27.38055 26.08841
#
# Velocity S-wave (km/s) = 3.31953 3.48822 3.40492
# Velocity P-wave (km/s) = 6.01653 6.17403 6.09579
#
# Compressibility (1/GPa) = 0.02066329
#
# Stress axis : x y z
#
# Youngs Moduli (GPa) = 43.91487 52.40156 77.69362
#
# Poissons Ratio (x) = 0.53109 0.24313
# Poissons Ratio (y) = 0.44508 0.29266
# Poissons Ratio (z) = 0.13742 0.19739
#
# Static dielectric constant tensor:
#      x y z
#    x 2.111670 0.000000 0.000000 
#    y 0.000000 1.892420 0.000000 
#    z 0.000000 0.000000 1.844840 
# 
# From -- ./inp_files/19990.got.cif
#   From: 2010.05.17/outbox.cif.g08.bks.cpg/sg24_10_cif.got.tgz:19990.got - 2010.06.04 00:33:39.
