data_PCOD9336321
_publ_section_title
;
Structure prediction by ZEFSAII (Michael W. Deem and Ramdas Pophale) SiO2 
 PCOD9336321
Probable space group: I 21 21 21
;
_chemical_formula_sum "Si O2"
_cell_formula_units_Z 32
_cell_length_a 14.248561
_cell_length_b 5.719022
_cell_length_c 16.324936
_cell_angle_alpha 90.000000
_cell_angle_beta 90.000000
_cell_angle_gamma 90.000000
_cell_volume 1330.283672
_symmetry_space_group_name_H-M "I 21 21 21"
_symmetry_group_IT_number 24
_symmetry_cell_setting 'orthorhombic'
loop_
_space_group_symop_operation_xyz
x,y,z
-x,1/2-y,z
x,-y,1/2-z
1/2-x,y,-z
1/2+x,1/2+y,1/2+z
1/2-x,-y,1/2+z
1/2+x,1/2-y,-z
-x,1/2+y,1/2-z
loop_
_atom_site_type_symbol
_atom_site_label
_atom_site_fract_x
_atom_site_fract_y
_atom_site_fract_z
Si Si1 0.500000 0.250000 0.607471
Si Si2 0.500000 0.750000 0.459468
Si Si3 0.860023 0.127718 0.514533
Si Si4 0.305308 0.000000 0.750000
Si Si5 0.876209 0.559102 0.840674
Si Si6 0.087814 0.500000 0.250000
O O1 0.589426 0.304281 0.549326
O O2 0.475198 0.458970 0.669930
O O3 0.423762 0.594928 0.505531
O O4 0.566323 0.599375 0.401150
O O5 0.750000 0.105586 0.500000
O O6 0.878270 0.195232 0.610018
O O7 0.233564 0.004561 0.672603
O O8 0.354803 0.254636 0.753225
O O9 0.915171 0.500000 0.750000
#
# Coordination Sequence:
#
# PCOD9336321 Si02
#       6
#     4   4   8   4   8   4
#     4  12  28  52  82 114 174 208 298 336 432 494
#     4  12  26  46  78 124 162 224 274 360 428 520
#     4  12  28  53  77 124 167 215 285 357 431 513
#     4  10  27  48  89 116 168 220 293 330 441 500
#     4  10  26  46  79 120 165 218 275 350 421 516
#     4  12  27  54  79 126 158 234 279 366 405 528
#
# _framework density 24.055016999999999
#
# number of rings (size 3 to 8) (size 9 to 14) (size 15 to 20)
#    0.750    0.000    2.500    2.250   10.500    4.000 
#    0.000    0.000    0.000    0.000    0.000    0.000 
#    0.000    0.000    0.000    0.000    0.000    0.000 
#
# Total GULP energy -89170.218841 kJ/mol
# GULP energy per Si atom -5573.138678 kJ/mol
# Density = 2.400027 g / cm^3
# Si number density = 24.055017 Si / 1000 Ang^3
#
#
#
# Elastic Constant Matrix: (Units=GPa)
#
#
# Indices 1 2 3 4 5 6 
#
# 1 187.6791 84.6657 58.0739 0.0000 0.0000 0.0000
# 2 84.6657 126.4368 36.7372 0.0000 0.0000 0.0000
# 3 58.0739 36.7372 158.4520 0.0000 0.0000 0.0000
# 4 0.0000 0.0000 0.0000 24.6249 0.0000 0.0000
# 5 0.0000 0.0000 0.0000 0.0000 22.6182 0.0000
# 6 0.0000 0.0000 0.0000 0.0000 0.0000 35.5454
#
#
#
# Elastic Compliance Matrix: (Units=1/GPa)
#
#
# Indices 1 2 3 4 5 6 
#
# 1 0.008104 -0.004893 -0.001836 0.000000 0.000000 0.000000
# 2 -0.004893 0.011435 -0.000858 0.000000 0.000000 0.000000
# 3 -0.001836 -0.000858 0.007183 0.000000 0.000000 0.000000
# 4 0.000000 0.000000 0.000000 0.040609 0.000000 0.000000
# 5 0.000000 0.000000 0.000000 0.000000 0.044212 0.000000
# 6 0.000000 0.000000 0.000000 0.000000 0.000000 0.028133
#
#
# Mechanical properties :
#
#
# Convention : Reuss Voigt Hill
#
# Bulk Modulus (GPa) = 86.59336 92.39128 89.49232
# Shear Modulus (GPa) = 31.50640 36.09711 33.80175
#
# Velocity S-wave (km/s) = 3.62299 3.87797 3.75265
# Velocity P-wave (km/s) = 7.31967 7.65135 7.48735
#
# Compressibility (1/GPa) = 0.01154823
#
# Stress axis : x y z
#
# Youngs Moduli (GPa) = 123.40237 87.45183 139.22341
#
# Poissons Ratio (x) = 0.42791 0.25555
# Poissons Ratio (y) = 0.60381 0.11943
# Poissons Ratio (z) = 0.22651 0.07502
#
# Static dielectric constant tensor:
#      x y z
#    x 1.922700 0.000000 0.000000 
#    y 0.000000 2.115750 0.000000 
#    z 0.000000 0.000000 2.069240 
# 
# From -- ./inp_files/30517.got.cif
#   From: 2010.05.17/outbox.cif.g08.bks.cpg/sg24_16_cif.got.tgz:30517.got - 2010.06.04 00:33:39.
