data_PCOD9336674
_publ_section_title
;
Structure prediction by ZEFSAII (Michael W. Deem and Ramdas Pophale) SiO2 
 PCOD9336674
Probable space group: I 21 21 21
;
_chemical_formula_sum "Si O2"
_cell_formula_units_Z 40
_cell_length_a 14.034111
_cell_length_b 18.985188
_cell_length_c 7.551669
_cell_angle_alpha 90.000000
_cell_angle_beta 90.000000
_cell_angle_gamma 90.000000
_cell_volume 2012.068469
_symmetry_space_group_name_H-M "I 21 21 21"
_symmetry_group_IT_number 24
_symmetry_cell_setting 'orthorhombic'
loop_
_space_group_symop_operation_xyz
x,y,z
-x,1/2-y,z
x,-y,1/2-z
1/2-x,y,-z
1/2+x,1/2+y,1/2+z
1/2-x,-y,1/2+z
1/2+x,1/2-y,-z
-x,1/2+y,1/2-z
loop_
_atom_site_type_symbol
_atom_site_label
_atom_site_fract_x
_atom_site_fract_y
_atom_site_fract_z
Si Si1 0.367464 0.133439 0.352755
Si Si2 0.853703 0.188422 0.079685
Si Si3 0.500000 0.750000 0.303130
Si Si4 0.985617 0.933871 0.381815
Si Si5 0.165739 0.155939 0.232296
Si Si6 0.514952 0.500000 0.250000
O O1 0.438768 0.195817 0.306865
O O2 0.277961 0.138028 0.217108
O O3 0.346586 0.142650 0.559251
O O4 0.418552 0.059707 0.331179
O O5 0.903599 0.121957 0.173320
O O6 0.847571 0.261515 0.188497
O O7 0.750000 0.172589 0.000000
O O8 0.927159 0.206600 0.923567
O O9 0.086799 0.891292 0.368936
O O10 0.964939 0.963043 0.580629
O O11 0.990144 0.000000 0.250000
#
# Coordination Sequence:
#
# PCOD9336674 Si02
#       6
#     8   8   4   8   8   4
#     4  11  25  39  67 106 139 174 226 286 343 409
#     4  12  24  46  69  98 135 179 236 282 338 404
#     4  12  22  40  68  96 134 178 226 282 336 402
#     4  12  26  46  69 100 139 190 224 280 346 413
#     4  11  24  42  69 103 134 178 230 283 341 406
#     4  12  24  42  68 104 144 176 224 282 350 404
#
# _framework density 19.880039
#
# number of rings (size 3 to 8) (size 9 to 14) (size 15 to 20)
#    0.000    0.400    8.000    0.000    4.200    0.000 
#    1.800    0.000    0.000    0.000    0.000    0.000 
#    0.000    0.000    0.000    0.000    0.000    0.000 
#
# Total GULP energy -111683.419822 kJ/mol
# GULP energy per Si atom -5584.170991 kJ/mol
# Density = 1.983479 g / cm^3
# Si number density = 19.880039 Si / 1000 Ang^3
#
#
#
# Elastic Constant Matrix: (Units=GPa)
#
#
# Indices 1 2 3 4 5 6 
#
# 1 66.3916 11.8816 -7.2097 0.0000 0.0000 0.0000
# 2 11.8816 118.4116 3.5596 0.0000 0.0000 0.0000
# 3 -7.2097 3.5596 56.4870 0.0000 0.0000 0.0000
# 4 0.0000 0.0000 0.0000 38.6236 0.0000 0.0000
# 5 0.0000 0.0000 0.0000 0.0000 22.9984 0.0000
# 6 0.0000 0.0000 0.0000 0.0000 0.0000 21.7423
#
#
#
# Elastic Compliance Matrix: (Units=1/GPa)
#
#
# Indices 1 2 3 4 5 6 
#
# 1 0.015580 -0.001626 0.002091 0.000000 0.000000 0.000000
# 2 -0.001626 0.008631 -0.000751 0.000000 0.000000 0.000000
# 3 0.002091 -0.000751 0.018017 0.000000 0.000000 0.000000
# 4 0.000000 0.000000 0.000000 0.025891 0.000000 0.000000
# 5 0.000000 0.000000 0.000000 0.000000 0.043481 0.000000
# 6 0.000000 0.000000 0.000000 0.000000 0.000000 0.045993
#
#
# Mechanical properties :
#
#
# Convention : Reuss Voigt Hill
#
# Bulk Modulus (GPa) = 24.00650 28.63924 26.32287
# Shear Modulus (GPa) = 29.06092 32.21011 30.63552
#
# Velocity S-wave (km/s) = 3.82752 4.02957 3.92984
# Velocity P-wave (km/s) = 5.62451 6.00726 5.81903
#
# Compressibility (1/GPa) = 0.04165539
#
# Stress axis : x y z
#
# Youngs Moduli (GPa) = 64.18380 115.86302 55.50184
#
# Poissons Ratio (x) = 0.18842 -0.11606
# Poissons Ratio (y) = 0.10438 0.04171
# Poissons Ratio (z) = -0.13421 0.08706
#
# Static dielectric constant tensor:
#      x y z
#    x 1.744160 0.000000 0.000000 
#    y 0.000000 1.677820 0.000000 
#    z 0.000000 0.000000 1.729130 
# 
# From -- ./inp_files/10787.got.cif
#   From: 2010.05.17/outbox.cif.g08.bks.cpg/sg24_6_cif.got.tgz:10787.got - 2010.06.04 00:33:39.
