data_PCOD9336291
_publ_section_title
;
Structure prediction by ZEFSAII (Michael W. Deem and Ramdas Pophale) SiO2 
 PCOD9336291
Probable space group: I 21 21 21
;
_chemical_formula_sum "Si O2"
_cell_formula_units_Z 28
_cell_length_a 7.739884
_cell_length_b 9.118050
_cell_length_c 16.027599
_cell_angle_alpha 90.000000
_cell_angle_beta 90.000000
_cell_angle_gamma 90.000000
_cell_volume 1131.110123
_symmetry_space_group_name_H-M "I 21 21 21"
_symmetry_group_IT_number 24
_symmetry_cell_setting 'orthorhombic'
loop_
_space_group_symop_operation_xyz
x,y,z
-x,1/2-y,z
x,-y,1/2-z
1/2-x,y,-z
1/2+x,1/2+y,1/2+z
1/2-x,-y,1/2+z
1/2+x,1/2-y,-z
-x,1/2+y,1/2-z
loop_
_atom_site_type_symbol
_atom_site_label
_atom_site_fract_x
_atom_site_fract_y
_atom_site_fract_z
Si Si1 0.000000 0.250000 0.945877
Si Si2 0.297308 0.228236 0.357050
Si Si3 0.000000 0.250000 0.224285
Si Si4 0.750000 0.510324 0.500000
Si Si5 0.248822 0.458195 0.155755
O O1 0.909140 0.376965 0.998338
O O2 0.864105 0.163445 0.888164
O O3 0.500000 0.250000 0.336174
O O4 0.243011 0.388440 0.392420
O O5 0.165316 0.207491 0.280529
O O6 0.272418 0.096606 0.421222
O O7 0.936507 0.112603 0.171734
O O8 0.313801 0.500000 0.250000
#
# Coordination Sequence:
#
# PCOD9336291 Si02
#       5
#     4   8   4   4   8
#     4  12  28  47  76 115 160 208 262 334 392 464
#     4  11  25  53  80 115 155 212 260 327 395 483
#     4  10  26  45  82 121 154 200 260 334 404 478
#     4  12  30  50  80 108 166 212 268 326 396 478
#     4  10  25  49  76 116 152 199 261 325 405 467
#
# _framework density 24.754441
#
# number of rings (size 3 to 8) (size 9 to 14) (size 15 to 20)
#    0.000    1.143    2.857    0.000   10.000   13.714 
#    0.000    0.000    0.000    0.000    0.000    0.000 
#    0.000    0.000    0.000    0.000    0.000    0.000 
#
# Total GULP energy -78382.158640 kJ/mol
# GULP energy per Si atom -5598.725617 kJ/mol
# Density = 2.469810 g / cm^3
# Si number density = 24.754441 Si / 1000 Ang^3
#
#
#
# Elastic Constant Matrix: (Units=GPa)
#
#
# Indices 1 2 3 4 5 6 
#
# 1 185.6981 97.9662 79.2056 0.0000 0.0000 0.0000
# 2 97.9662 233.9552 67.0117 0.0000 0.0000 0.0000
# 3 79.2056 67.0117 109.1949 0.0000 0.0000 0.0000
# 4 0.0000 0.0000 0.0000 40.9011 0.0000 0.0000
# 5 0.0000 0.0000 0.0000 0.0000 19.4957 0.0000
# 6 0.0000 0.0000 0.0000 0.0000 0.0000 60.5814
#
#
#
# Elastic Compliance Matrix: (Units=1/GPa)
#
#
# Indices 1 2 3 4 5 6 
#
# 1 0.008650 -0.002214 -0.004915 0.000000 0.000000 0.000000
# 2 -0.002214 0.005753 -0.001924 0.000000 0.000000 0.000000
# 3 -0.004915 -0.001924 0.013904 0.000000 0.000000 0.000000
# 4 0.000000 0.000000 0.000000 0.024449 0.000000 0.000000
# 5 0.000000 0.000000 0.000000 0.000000 0.051293 0.000000
# 6 0.000000 0.000000 0.000000 0.000000 0.000000 0.016507
#
#
# Mechanical properties :
#
#
# Convention : Reuss Voigt Hill
#
# Bulk Modulus (GPa) = 98.04832 113.02390 105.53611
# Shear Modulus (GPa) = 35.19560 43.17329 39.18445
#
# Velocity S-wave (km/s) = 3.77475 4.18073 3.98292
# Velocity P-wave (km/s) = 7.66112 8.31034 7.99232
#
# Compressibility (1/GPa) = 0.01019905
#
# Stress axis : x y z
#
# Youngs Moduli (GPa) = 115.61126 173.83392 71.92015
#
# Poissons Ratio (x) = 0.38488 0.35352
# Poissons Ratio (y) = 0.25597 0.13840
# Poissons Ratio (z) = 0.56827 0.33452
#
# Static dielectric constant tensor:
#      x y z
#    x 1.933500 0.000000 0.000000 
#    y 0.000000 1.987070 0.000000 
#    z 0.000000 0.000000 1.981620 
# 
# From -- ./inp_files/13680.got.cif
#   From: 2010.05.17/outbox.cif.g08.bks.cpg/sg24_7_cif.got.tgz:13680.got - 2010.06.04 00:33:39.
