data_PCOD9336842
_publ_section_title
;
Structure prediction by ZEFSAII (Michael W. Deem and Ramdas Pophale) SiO2 
 PCOD9336842
Probable space group: I 21 21 21
;
_chemical_formula_sum "Si O2"
_cell_formula_units_Z 36
_cell_length_a 18.271587
_cell_length_b 19.833799
_cell_length_c 4.928169
_cell_angle_alpha 90.000000
_cell_angle_beta 90.000000
_cell_angle_gamma 90.000000
_cell_volume 1785.943726
_symmetry_space_group_name_H-M "I 21 21 21"
_symmetry_group_IT_number 24
_symmetry_cell_setting 'orthorhombic'
loop_
_space_group_symop_operation_xyz
x,y,z
-x,1/2-y,z
x,-y,1/2-z
1/2-x,y,-z
1/2+x,1/2+y,1/2+z
1/2-x,-y,1/2+z
1/2+x,1/2-y,-z
-x,1/2+y,1/2-z
loop_
_atom_site_type_symbol
_atom_site_label
_atom_site_fract_x
_atom_site_fract_y
_atom_site_fract_z
Si Si1 0.485760 0.919437 0.771020
Si Si2 0.336639 0.256909 0.030509
Si Si3 0.427191 0.297787 0.511472
Si Si4 0.792337 0.500000 0.750000
Si Si5 0.105613 0.885030 0.715455
O O1 0.548856 0.871322 0.885696
O O2 0.464567 0.890187 0.477752
O O3 0.498306 0.000000 0.750000
O O4 0.419376 0.903727 0.981632
O O5 0.379152 0.304578 0.241448
O O6 0.353604 0.184440 0.166017
O O7 0.250000 0.267822 0.000000
O O8 0.377871 0.262961 0.743727
O O9 0.500000 0.250000 0.468434
O O10 0.750000 0.467328 0.500000
O O11 0.841538 0.556384 0.613798
#
# Coordination Sequence:
#
# PCOD9336842 Si02
#       5
#     8   8   8   4   8
#     4  12  23  40  65  94 127 168 222 274 324 386
#     4  12  25  42  65 100 133 171 219 276 332 393
#     4  12  23  42  70  93 131 176 221 273 329 385
#     4  12  24  36  52  82 130 182 210 238 310 396
#     4  12  22  39  61  88 131 174 212 263 324 387
#
# _framework density 20.157411
#
# number of rings (size 3 to 8) (size 9 to 14) (size 15 to 20)
#    0.000    0.000    6.667    4.667    0.000    1.778 
#    0.000    0.000    0.000    2.667    0.000    0.000 
#    0.000    0.000    0.000    0.000    0.000    0.000 
#
# Total GULP energy -100595.081459 kJ/mol
# GULP energy per Si atom -5588.615637 kJ/mol
# Density = 2.011153 g / cm^3
# Si number density = 20.157411 Si / 1000 Ang^3
#
#
#
# Elastic Constant Matrix: (Units=GPa)
#
#
# Indices 1 2 3 4 5 6 
#
# 1 125.4522 41.8545 40.4318 0.0000 0.0000 0.0000
# 2 41.8545 76.3915 8.2076 0.0000 0.0000 0.0000
# 3 40.4318 8.2076 107.0183 0.0000 0.0000 0.0000
# 4 0.0000 0.0000 0.0000 24.2236 0.0000 0.0000
# 5 0.0000 0.0000 0.0000 0.0000 14.6868 0.0000
# 6 0.0000 0.0000 0.0000 0.0000 0.0000 128.0106
#
#
#
# Elastic Compliance Matrix: (Units=1/GPa)
#
#
# Indices 1 2 3 4 5 6 
#
# 1 0.011068 -0.005661 -0.003747 0.000000 0.000000 0.000000
# 2 -0.005661 0.016095 0.000904 0.000000 0.000000 0.000000
# 3 -0.003747 0.000904 0.010691 0.000000 0.000000 0.000000
# 4 0.000000 0.000000 0.000000 0.041282 0.000000 0.000000
# 5 0.000000 0.000000 0.000000 0.000000 0.068088 0.000000
# 6 0.000000 0.000000 0.000000 0.000000 0.000000 0.007812
#
#
# Mechanical properties :
#
#
# Convention : Reuss Voigt Hill
#
# Bulk Modulus (GPa) = 47.97271 54.42776 51.20024
# Shear Modulus (GPa) = 27.93425 47.94208 37.93816
#
# Velocity S-wave (km/s) = 3.72668 4.88216 4.34302
# Velocity P-wave (km/s) = 6.50909 7.67076 7.11368
#
# Compressibility (1/GPa) = 0.02084518
#
# Stress axis : x y z
#
# Youngs Moduli (GPa) = 90.35378 62.13081 93.54081
#
# Poissons Ratio (x) = 0.35174 0.35051
# Poissons Ratio (y) = 0.51152 -0.08460
# Poissons Ratio (z) = 0.33857 -0.05619
#
# Static dielectric constant tensor:
#      x y z
#    x 1.749990 0.000000 0.000000 
#    y 0.000000 1.732770 0.000000 
#    z 0.000000 0.000000 1.709030 
# 
# From -- ./inp_files/3364.got.cif
#   From: 2010.05.17/outbox.cif.g08.bks.cpg/sg24_2_cif.got.tgz:3364.got - 2010.06.04 00:33:39.
