data_PCOD9336398
_publ_section_title
;
Structure prediction by ZEFSAII (Michael W. Deem and Ramdas Pophale) SiO2 
 PCOD9336398
Probable space group: I 21 21 21
;
_chemical_formula_sum "Si O2"
_cell_formula_units_Z 52
_cell_length_a 15.299570
_cell_length_b 20.809291
_cell_length_c 9.573701
_cell_angle_alpha 90.000000
_cell_angle_beta 90.000000
_cell_angle_gamma 90.000000
_cell_volume 3048.009864
_symmetry_space_group_name_H-M "I 21 21 21"
_symmetry_group_IT_number 24
_symmetry_cell_setting 'orthorhombic'
loop_
_space_group_symop_operation_xyz
x,y,z
-x,1/2-y,z
x,-y,1/2-z
1/2-x,y,-z
1/2+x,1/2+y,1/2+z
1/2-x,-y,1/2+z
1/2+x,1/2-y,-z
-x,1/2+y,1/2-z
loop_
_atom_site_type_symbol
_atom_site_label
_atom_site_fract_x
_atom_site_fract_y
_atom_site_fract_z
Si Si1 0.194749 0.387487 0.864252
Si Si2 0.646656 0.901361 0.970591
Si Si3 0.314689 0.500000 0.750000
Si Si4 0.969499 0.073643 0.739475
Si Si5 0.759850 0.251151 0.831604
Si Si6 0.578021 0.301774 0.324588
Si Si7 0.900352 0.242684 0.372271
O O1 0.249326 0.448131 0.814223
O O2 0.092961 0.405820 0.869865
O O3 0.206670 0.320420 0.784394
O O4 0.250000 0.370623 0.000000
O O5 0.630981 0.958522 0.860108
O O6 0.616030 0.831723 0.916757
O O7 0.750000 0.899696 0.000000
O O8 0.598865 0.920367 0.112148
O O9 0.039949 0.127554 0.703290
O O10 0.999406 0.000000 0.750000
O O11 0.838271 0.293955 0.773410
O O12 0.670210 0.260961 0.745617
O O13 0.750000 0.258985 0.000000
O O14 0.500000 0.250000 0.292889
O O15 0.604756 0.285013 0.485044
O O16 0.000000 0.250000 0.320991
#
# Coordination Sequence:
#
# PCOD9336398 Si02
#       7
#     8   8   4   8   8   8   8
#     4  11  20  32  49  83 121 158 185 227 297 374
#     4  12  20  34  55  84 126 163 190 241 294 378
#     4  12  20  28  48  80 124 158 184 218 308 360
#     4  12  21  36  58  87 121 157 206 249 304 362
#     4  11  23  39  59  87 124 160 196 252 310 355
#     4  11  21  38  64  89 115 159 211 249 289 361
#     4  11  21  39  63  89 117 156 216 252 295 354
#
# _framework density 17.060312
#
# number of rings (size 3 to 8) (size 9 to 14) (size 15 to 20)
#    0.000    0.615    8.462    2.769    0.000    0.615 
#    0.000    0.000    0.000    1.846    2.000    0.000 
#    0.000    0.000    0.000    0.000    0.000    0.000 
#
# Total GULP energy -144906.542588 kJ/mol
# GULP energy per Si atom -5573.328561 kJ/mol
# Density = 1.702148 g / cm^3
# Si number density = 17.060312 Si / 1000 Ang^3
#
#
#
# Elastic Constant Matrix: (Units=GPa)
#
#
# Indices 1 2 3 4 5 6 
#
# 1 99.4218 57.4918 54.4573 0.0000 0.0000 0.0000
# 2 57.4918 126.8268 37.1442 0.0000 0.0000 0.0000
# 3 54.4573 37.1442 76.9592 0.0000 0.0000 0.0000
# 4 0.0000 0.0000 0.0000 5.3950 0.0000 0.0000
# 5 0.0000 0.0000 0.0000 0.0000 22.5706 0.0000
# 6 0.0000 0.0000 0.0000 0.0000 0.0000 36.9549
#
#
#
# Elastic Compliance Matrix: (Units=1/GPa)
#
#
# Indices 1 2 3 4 5 6 
#
# 1 0.019252 -0.005517 -0.010960 0.000000 0.000000 0.000000
# 2 -0.005517 0.010764 -0.001291 0.000000 0.000000 0.000000
# 3 -0.010960 -0.001291 0.021372 0.000000 0.000000 0.000000
# 4 0.000000 0.000000 0.000000 0.185358 0.000000 0.000000
# 5 0.000000 0.000000 0.000000 0.000000 0.044305 0.000000
# 6 0.000000 0.000000 0.000000 0.000000 0.000000 0.027060
#
#
# Mechanical properties :
#
#
# Convention : Reuss Voigt Hill
#
# Bulk Modulus (GPa) = 63.08508 66.82161 64.95334
# Shear Modulus (GPa) = 14.32947 23.25839 18.79393
#
# Velocity S-wave (km/s) = 2.90130 3.69630 3.32266
# Velocity P-wave (km/s) = 6.94848 7.58088 7.27156
#
# Compressibility (1/GPa) = 0.01585161
#
# Stress axis : x y z
#
# Youngs Moduli (GPa) = 51.94354 92.90326 46.78915
#
# Poissons Ratio (x) = 0.51256 0.51281
# Poissons Ratio (y) = 0.28658 0.06041
# Poissons Ratio (z) = 0.56930 0.11996
#
# Static dielectric constant tensor:
#      x y z
#    x 1.593330 0.000000 0.000000 
#    y 0.000000 1.722180 0.000000 
#    z 0.000000 0.000000 1.685560 
# 
# From -- ./inp_files/13059.got.cif
#   From: 2010.05.17/outbox.cif.g08.bks.cpg/sg24_7_cif.got.tgz:13059.got - 2010.06.04 00:33:39.
