data_PCOD9336932
_publ_section_title
;
Structure prediction by ZEFSAII (Michael W. Deem and Ramdas Pophale) SiO2 
 PCOD9336932
Probable space group: I 21 21 21
;
_chemical_formula_sum "Si O2"
_cell_formula_units_Z 28
_cell_length_a 24.101846
_cell_length_b 7.930932
_cell_length_c 6.095072
_cell_angle_alpha 90.000000
_cell_angle_beta 90.000000
_cell_angle_gamma 90.000000
_cell_volume 1165.073633
_symmetry_space_group_name_H-M "I 21 21 21"
_symmetry_group_IT_number 24
_symmetry_cell_setting 'orthorhombic'
loop_
_space_group_symop_operation_xyz
x,y,z
-x,1/2-y,z
x,-y,1/2-z
1/2-x,y,-z
1/2+x,1/2+y,1/2+z
1/2-x,-y,1/2+z
1/2+x,1/2-y,-z
-x,1/2+y,1/2-z
loop_
_atom_site_type_symbol
_atom_site_label
_atom_site_fract_x
_atom_site_fract_y
_atom_site_fract_z
Si Si1 0.500000 0.750000 0.617841
Si Si2 0.838301 0.500000 0.750000
Si Si3 0.180290 0.500000 0.250000
Si Si4 0.095462 0.270961 0.480209
Si Si5 0.519999 0.000000 0.250000
Si Si6 0.750000 0.730139 0.500000
O O1 0.555174 0.756870 0.768985
O O2 0.506630 0.581724 0.467378
O O3 0.874851 0.393813 0.576615
O O4 0.797296 0.621618 0.616476
O O5 0.140730 0.414868 0.429798
O O6 0.218713 0.649449 0.331924
O O7 0.056879 0.344771 0.669214
#
# Coordination Sequence:
#
# PCOD9336932 Si02
#       6
#     4   4   4   8   4   4
#     4  12  28  52  78 116 166 214 280 332 402 500
#     4  12  28  49  82 126 162 212 276 343 418 472
#     4  12  24  53  80 110 160 210 273 328 412 476
#     4  12  27  51  80 121 163 213 271 338 407 496
#     4  12  26  52  74 114 160 224 269 327 402 486
#     4  12  26  52  80 116 160 212 272 344 402 490
#
# _framework density 24.032813999999998
#
# number of rings (size 3 to 8) (size 9 to 14) (size 15 to 20)
#    0.000    0.000    2.857    6.000    0.000    6.857 
#    5.143    0.000    0.000    0.000    0.000    0.000 
#    0.000    0.000    0.000    0.000    0.000    0.000 
#
# Total GULP energy -78490.653836 kJ/mol
# GULP energy per Si atom -5606.475274 kJ/mol
# Density = 2.397811 g / cm^3
# Si number density = 24.032814 Si / 1000 Ang^3
#
#
#
# Elastic Constant Matrix: (Units=GPa)
#
#
# Indices 1 2 3 4 5 6 
#
# 1 127.2442 80.8838 57.8343 0.0000 0.0000 0.0000
# 2 80.8838 152.3466 62.7201 0.0000 0.0000 0.0000
# 3 57.8343 62.7201 105.1685 0.0000 0.0000 0.0000
# 4 0.0000 0.0000 0.0000 73.4003 0.0000 0.0000
# 5 0.0000 0.0000 0.0000 0.0000 26.9415 0.0000
# 6 0.0000 0.0000 0.0000 0.0000 0.0000 48.4297
#
#
#
# Elastic Compliance Matrix: (Units=1/GPa)
#
#
# Indices 1 2 3 4 5 6 
#
# 1 0.013035 -0.005261 -0.004031 0.000000 0.000000 0.000000
# 2 -0.005261 0.010824 -0.003562 0.000000 0.000000 0.000000
# 3 -0.004031 -0.003562 0.013849 0.000000 0.000000 0.000000
# 4 0.000000 0.000000 0.000000 0.013624 0.000000 0.000000
# 5 0.000000 0.000000 0.000000 0.000000 0.037117 0.000000
# 6 0.000000 0.000000 0.000000 0.000000 0.000000 0.020649
#
#
# Mechanical properties :
#
#
# Convention : Reuss Voigt Hill
#
# Bulk Modulus (GPa) = 83.32735 87.51508 85.42122
# Shear Modulus (GPa) = 36.02165 41.97571 38.99868
#
# Velocity S-wave (km/s) = 3.87570 4.18377 4.03268
# Velocity P-wave (km/s) = 7.40106 7.73514 7.56994
#
# Compressibility (1/GPa) = 0.01200086
#
# Stress axis : x y z
#
# Youngs Moduli (GPa) = 76.71490 92.39052 72.20641
#
# Poissons Ratio (x) = 0.48609 0.29104
# Poissons Ratio (y) = 0.40362 0.25718
# Poissons Ratio (z) = 0.30921 0.32907
#
# Static dielectric constant tensor:
#      x y z
#    x 2.074780 0.000000 0.000000 
#    y 0.000000 1.909120 0.000000 
#    z 0.000000 0.000000 2.137670 
# 
# From -- ./inp_files/1061.got.cif
#   From: 2010.05.17/outbox.cif.g08.bks.cpg/sg24_1_cif.got.tgz:1061.got - 2010.06.04 00:33:39.
