data_PCOD9336120
_publ_section_title
;
Structure prediction by ZEFSAII (Michael W. Deem and Ramdas Pophale) SiO2 
 PCOD9336120
Probable space group: I 21 21 21
;
_chemical_formula_sum "Si O2"
_cell_formula_units_Z 36
_cell_length_a 11.526203
_cell_length_b 24.098176
_cell_length_c 5.642523
_cell_angle_alpha 90.000000
_cell_angle_beta 90.000000
_cell_angle_gamma 90.000000
_cell_volume 1567.269832
_symmetry_space_group_name_H-M "I 21 21 21"
_symmetry_group_IT_number 24
_symmetry_cell_setting 'orthorhombic'
loop_
_space_group_symop_operation_xyz
x,y,z
-x,1/2-y,z
x,-y,1/2-z
1/2-x,y,-z
1/2+x,1/2+y,1/2+z
1/2-x,-y,1/2+z
1/2+x,1/2-y,-z
-x,1/2+y,1/2-z
loop_
_atom_site_type_symbol
_atom_site_label
_atom_site_fract_x
_atom_site_fract_y
_atom_site_fract_z
Si Si1 0.535961 0.937783 0.723357
Si Si2 0.250000 0.392914 0.500000
Si Si3 0.430523 0.642392 0.359372
Si Si4 0.615380 0.342722 0.526238
Si Si5 0.874951 0.756522 0.390225
O O1 0.658373 0.930357 0.857532
O O2 0.556021 0.919974 0.452170
O O3 0.492909 0.000000 0.750000
O O4 0.446846 0.891543 0.825068
O O5 0.330858 0.354550 0.336122
O O6 0.548802 0.657955 0.223907
O O7 0.383621 0.676777 0.587981
O O8 0.750000 0.355385 0.500000
O O9 0.610229 0.282972 0.662010
O O10 0.750000 0.741122 0.500000
O O11 0.000000 0.750000 0.522296
#
# Coordination Sequence:
#
# PCOD9336120 Si02
#       5
#     8   4   8   8   8
#     4  11  25  47  75 107 143 192 244 305 370 442
#     4  10  24  42  76 108 148 184 236 304 384 436
#     4  11  25  49  71 108 154 185 248 303 374 451
#     4  11  27  49  69 105 148 199 249 303 371 441
#     4  12  25  46  73 106 148 198 244 310 377 450
#
# _framework density 22.969878999999999
#
# number of rings (size 3 to 8) (size 9 to 14) (size 15 to 20)
#    0.000    0.889    2.222    3.333    6.222    5.333 
#    6.000    0.000    0.000    0.000    0.000    0.000 
#    0.000    0.000    0.000    0.000    0.000    0.000 
#
# Total GULP energy -100344.115456 kJ/mol
# GULP energy per Si atom -5574.673081 kJ/mol
# Density = 2.291760 g / cm^3
# Si number density = 22.969879 Si / 1000 Ang^3
#
#
#
# Elastic Constant Matrix: (Units=GPa)
#
#
# Indices 1 2 3 4 5 6 
#
# 1 208.6924 36.8751 54.4867 0.0008 0.0009 0.0002
# 2 36.8751 114.9667 51.8158 -0.0022 0.0006 -0.0001
# 3 54.4867 51.8158 86.5643 -0.0024 -0.0020 -0.0019
# 4 0.0008 -0.0022 -0.0024 24.8649 0.0019 0.0019
# 5 0.0009 0.0006 -0.0020 0.0019 46.5775 0.0002
# 6 0.0002 -0.0001 -0.0019 0.0019 0.0002 19.8747
#
#
#
# Elastic Compliance Matrix: (Units=1/GPa)
#
#
# Indices 1 2 3 4 5 6 
#
# 1 0.005741 -0.000291 -0.003439 -0.000001 0.000000 0.000000
# 2 -0.000291 0.011927 -0.006956 0.000000 0.000000 -0.000001
# 3 -0.003439 -0.006956 0.017880 0.000001 0.000001 0.000002
# 4 -0.000001 0.000000 0.000001 0.040217 -0.000002 -0.000004
# 5 0.000000 0.000000 0.000001 -0.000002 0.021470 0.000000
# 6 0.000000 -0.000001 0.000002 -0.000004 0.000000 0.050315
#
#
# Mechanical properties :
#
#
# Convention : Reuss Voigt Hill
#
# Bulk Modulus (GPa) = 70.54376 77.39761 73.97068
# Shear Modulus (GPa) = 28.79386 36.06645 32.43015
#
# Velocity S-wave (km/s) = 3.54439 3.96683 3.76154
# Velocity P-wave (km/s) = 6.89408 7.39928 7.15114
#
# Compressibility (1/GPa) = 0.01417560
#
# Stress axis : x y z
#
# Youngs Moduli (GPa) = 174.18030 83.84661 55.92704
#
# Poissons Ratio (x) = 0.02443 0.19235
# Poissons Ratio (y) = 0.05075 0.38901
# Poissons Ratio (z) = 0.59906 0.58321
#
# Static dielectric constant tensor:
#      x y z
#    x 1.895210 0.000000 -0.000010 
#    y 0.000000 1.976970 -0.000010 
#    z -0.000010 -0.000010 1.940570 
# 
# From -- ./inp_files/2290.got.cif
#   From: 2010.05.17/outbox.cif.g08.bks.cpg/sg24_2_cif.got.tgz:2290.got - 2010.06.04 00:33:39.
