data_PCOD9336937
_publ_section_title
;
Structure prediction by ZEFSAII (Michael W. Deem and Ramdas Pophale) SiO2 
 PCOD9336937
Probable space group: I 21 21 21
;
_chemical_formula_sum "Si O2"
_cell_formula_units_Z 24
_cell_length_a 27.618612
_cell_length_b 4.963920
_cell_length_c 7.758855
_cell_angle_alpha 90.000000
_cell_angle_beta 90.000000
_cell_angle_gamma 90.000000
_cell_volume 1063.712489
_symmetry_space_group_name_H-M "I 21 21 21"
_symmetry_group_IT_number 24
_symmetry_cell_setting 'orthorhombic'
loop_
_space_group_symop_operation_xyz
x,y,z
-x,1/2-y,z
x,-y,1/2-z
1/2-x,y,-z
1/2+x,1/2+y,1/2+z
1/2-x,-y,1/2+z
1/2+x,1/2-y,-z
-x,1/2+y,1/2-z
loop_
_atom_site_type_symbol
_atom_site_label
_atom_site_fract_x
_atom_site_fract_y
_atom_site_fract_z
Si Si1 0.705361 0.749670 0.373615
Si Si2 0.894044 0.902798 0.445492
Si Si3 0.452022 0.894954 0.057316
O O1 0.695685 0.500000 0.250000
O O2 0.750000 0.693925 0.500000
O O3 0.657482 0.810681 0.483085
O O4 0.717233 0.000000 0.250000
O O5 0.931363 0.653749 0.458867
O O6 0.890498 0.000000 0.250000
O O7 0.912589 0.157347 0.556088
O O8 0.500000 0.750000 0.985511
O O9 0.462382 0.000000 0.250000
#
# Coordination Sequence:
#
# PCOD9336937 Si02
#       3
#     8   8   8
#     4  12  26  46  73 103 139 180 228 281 342 408
#     4  12  26  45  71 103 140 180 228 283 342 405
#     4  12  25  45  71 100 137 184 232 282 341 405
#
# _framework density 22.562487000000001
#
# number of rings (size 3 to 8) (size 9 to 14) (size 15 to 20)
#    0.000    0.000    0.000   12.000    0.000    5.333 
#    0.000    1.667    0.000    0.000    0.000    0.000 
#    0.000    0.000    0.000    0.000    0.000    0.000 
#
# Total GULP energy -67326.700030 kJ/mol
# GULP energy per Si atom -5610.558336 kJ/mol
# Density = 2.251113 g / cm^3
# Si number density = 22.562487 Si / 1000 Ang^3
#
#
#
# Elastic Constant Matrix: (Units=GPa)
#
#
# Indices 1 2 3 4 5 6 
#
# 1 136.1429 59.1722 58.3759 0.0000 0.0000 0.0000
# 2 59.1722 172.5323 57.8253 0.0000 0.0000 0.0000
# 3 58.3759 57.8253 109.2671 0.0000 0.0000 0.0000
# 4 0.0000 0.0000 0.0000 45.2928 0.0000 0.0000
# 5 0.0000 0.0000 0.0000 0.0000 51.5367 0.0000
# 6 0.0000 0.0000 0.0000 0.0000 0.0000 40.0533
#
#
#
# Elastic Compliance Matrix: (Units=1/GPa)
#
#
# Indices 1 2 3 4 5 6 
#
# 1 0.010068 -0.002006 -0.004317 0.000000 0.000000 0.000000
# 2 -0.002006 0.007445 -0.002868 0.000000 0.000000 0.000000
# 3 -0.004317 -0.002868 0.012976 0.000000 0.000000 0.000000
# 4 0.000000 0.000000 0.000000 0.022079 0.000000 0.000000
# 5 0.000000 0.000000 0.000000 0.000000 0.019404 0.000000
# 6 0.000000 0.000000 0.000000 0.000000 0.000000 0.024967
#
#
# Mechanical properties :
#
#
# Convention : Reuss Voigt Hill
#
# Bulk Modulus (GPa) = 82.60080 85.40990 84.00535
# Shear Modulus (GPa) = 41.89064 43.54782 42.71923
#
# Velocity S-wave (km/s) = 4.31356 4.39805 4.35601
# Velocity P-wave (km/s) = 7.84209 7.98295 7.91283
#
# Compressibility (1/GPa) = 0.01210642
#
# Stress axis : x y z
#
# Youngs Moduli (GPa) = 99.32109 134.31105 77.06266
#
# Poissons Ratio (x) = 0.26944 0.33271
# Poissons Ratio (y) = 0.19925 0.22105
# Poissons Ratio (z) = 0.42881 0.38526
#
# Static dielectric constant tensor:
#      x y z
#    x 1.816830 0.000000 0.000000 
#    y 0.000000 1.794260 0.000000 
#    z 0.000000 0.000000 1.813560 
# 
# From -- ./inp_files/6729.got.cif
#   From: 2010.05.17/outbox.cif.g08.bks.cpg/sg24_4_cif.got.tgz:6729.got - 2010.06.04 00:33:39.
