data_PCOD9336578
_publ_section_title
;
Structure prediction by ZEFSAII (Michael W. Deem and Ramdas Pophale) SiO2 
 PCOD9336578
Probable space group: I 21 21 21
;
_chemical_formula_sum "Si O2"
_cell_formula_units_Z 48
_cell_length_a 9.437642
_cell_length_b 14.031116
_cell_length_c 17.711770
_cell_angle_alpha 90.000000
_cell_angle_beta 90.000000
_cell_angle_gamma 90.000000
_cell_volume 2345.404090
_symmetry_space_group_name_H-M "I 21 21 21"
_symmetry_group_IT_number 24
_symmetry_cell_setting 'orthorhombic'
loop_
_space_group_symop_operation_xyz
x,y,z
-x,1/2-y,z
x,-y,1/2-z
1/2-x,y,-z
1/2+x,1/2+y,1/2+z
1/2-x,-y,1/2+z
1/2+x,1/2-y,-z
-x,1/2+y,1/2-z
loop_
_atom_site_type_symbol
_atom_site_label
_atom_site_fract_x
_atom_site_fract_y
_atom_site_fract_z
Si Si1 0.473706 0.057910 0.172391
Si Si2 0.615767 0.401592 0.551887
Si Si3 0.136036 0.942647 0.328913
Si Si4 0.236512 0.262420 0.340820
Si Si5 0.500000 0.250000 0.777198
Si Si6 0.500000 0.250000 0.241258
Si Si7 0.630964 0.925491 0.055338
O O1 0.305324 0.066393 0.158441
O O2 0.538236 0.161047 0.189521
O O3 0.492449 0.000000 0.250000
O O4 0.550458 0.002657 0.105557
O O5 0.750000 0.426126 0.500000
O O6 0.576743 0.491136 0.604425
O O7 0.665721 0.316487 0.606069
O O8 0.486292 0.375556 0.497646
O O9 0.065737 0.838906 0.322097
O O10 0.117024 0.000000 0.250000
O O11 0.370464 0.220006 0.295307
O O12 0.294793 0.348925 0.390229
O O13 0.122019 0.290506 0.278131
O O14 0.750000 0.966645 0.000000
#
# Coordination Sequence:
#
# PCOD9336578 Si02
#       7
#     8   8   8   8   4   4   8
#     4  11  22  47  72 101 144 192 238 288 350 436
#     4  12  24  46  72  99 150 192 229 290 361 434
#     4  11  23  46  73 101 142 190 242 286 353 433
#     4  12  24  43  69 111 144 180 235 302 361 424
#     4  12  24  44  76 108 140 184 248 300 346 414
#     4  12  22  42  78 104 134 192 246 294 346 418
#     4  12  27  44  68 107 150 187 231 295 366 422
#
# _framework density 20.465554999999998
#
# number of rings (size 3 to 8) (size 9 to 14) (size 15 to 20)
#    0.000    0.333    6.667    3.500    0.000    2.667 
#    0.000    0.833    0.000    0.000    0.000    0.000 
#    0.000    0.000    0.000    0.000    0.000    0.000 
#
# Total GULP energy -134364.764280 kJ/mol
# GULP energy per Si atom -5598.531845 kJ/mol
# Density = 2.041897 g / cm^3
# Si number density = 20.465555 Si / 1000 Ang^3
#
#
#
# Elastic Constant Matrix: (Units=GPa)
#
#
# Indices 1 2 3 4 5 6 
#
# 1 100.8544 37.5476 39.3326 0.0000 0.0000 0.0000
# 2 37.5476 148.4293 51.8722 0.0000 0.0000 0.0000
# 3 39.3326 51.8722 74.3380 0.0000 0.0000 0.0000
# 4 0.0000 0.0000 0.0000 17.8209 0.0000 0.0000
# 5 0.0000 0.0000 0.0000 0.0000 30.8848 0.0000
# 6 0.0000 0.0000 0.0000 0.0000 0.0000 32.1888
#
#
#
# Elastic Compliance Matrix: (Units=1/GPa)
#
#
# Indices 1 2 3 4 5 6 
#
# 1 0.012637 -0.001137 -0.005893 0.000000 0.000000 0.000000
# 2 -0.001137 0.009012 -0.005687 0.000000 0.000000 0.000000
# 3 -0.005893 -0.005687 0.020538 0.000000 0.000000 0.000000
# 4 0.000000 0.000000 0.000000 0.056114 0.000000 0.000000
# 5 0.000000 0.000000 0.000000 0.000000 0.032378 0.000000
# 6 0.000000 0.000000 0.000000 0.000000 0.000000 0.031067
#
#
# Mechanical properties :
#
#
# Convention : Reuss Voigt Hill
#
# Bulk Modulus (GPa) = 59.68879 64.56962 62.12921
# Shear Modulus (GPa) = 25.93839 29.17019 27.55429
#
# Velocity S-wave (km/s) = 3.56394 3.77945 3.67328
# Velocity P-wave (km/s) = 6.79444 7.11790 6.95805
#
# Compressibility (1/GPa) = 0.01675356
#
# Stress axis : x y z
#
# Youngs Moduli (GPa) = 79.13405 110.95865 48.68996
#
# Poissons Ratio (x) = 0.12620 0.28691
# Poissons Ratio (y) = 0.09001 0.27690
# Poissons Ratio (z) = 0.46630 0.63101
#
# Static dielectric constant tensor:
#      x y z
#    x 1.756740 0.000000 0.000000 
#    y 0.000000 1.722860 0.000000 
#    z 0.000000 0.000000 1.720400 
# 
# From -- ./inp_files/29518.got.cif
#   From: 2010.05.17/outbox.cif.g08.bks.cpg/sg24_15_cif.got.tgz:29518.got - 2010.06.04 00:33:39.
