data_PCOD9336885
_publ_section_title
;
Structure prediction by ZEFSAII (Michael W. Deem and Ramdas Pophale) SiO2 
 PCOD9336885
Probable space group: I 21 21 21
;
_chemical_formula_sum "Si O2"
_cell_formula_units_Z 20
_cell_length_a 8.030061
_cell_length_b 13.930675
_cell_length_c 7.200926
_cell_angle_alpha 90.000000
_cell_angle_beta 90.000000
_cell_angle_gamma 90.000000
_cell_volume 805.525610
_symmetry_space_group_name_H-M "I 21 21 21"
_symmetry_group_IT_number 24
_symmetry_cell_setting 'orthorhombic'
loop_
_space_group_symop_operation_xyz
x,y,z
-x,1/2-y,z
x,-y,1/2-z
1/2-x,y,-z
1/2+x,1/2+y,1/2+z
1/2-x,-y,1/2+z
1/2+x,1/2-y,-z
-x,1/2+y,1/2-z
loop_
_atom_site_type_symbol
_atom_site_label
_atom_site_fract_x
_atom_site_fract_y
_atom_site_fract_z
Si Si1 0.566372 0.022935 0.966139
Si Si2 0.095996 0.839420 0.881227
Si Si3 0.750000 0.339270 0.000000
O O1 0.971252 0.069419 0.599982
O O2 0.086456 0.095659 0.021624
O O3 0.566646 0.000000 0.750000
O O4 0.750000 0.063907 0.000000
O O5 0.188623 0.795334 0.696268
O O6 0.000000 0.750000 0.967287
O O7 0.250000 0.876057 0.000000
#
# Coordination Sequence:
#
# PCOD9336885 Si02
#       3
#     8   8   4
#     4  12  23  45  77 108 144 200 254 302 370 451
#     4  12  26  47  74 109 157 196 244 319 379 435
#     4  12  24  50  76 104 150 204 252 302 370 460
#
# _framework density 24.828510000000001
#
# number of rings (size 3 to 8) (size 9 to 14) (size 15 to 20)
#    0.000    0.000    6.000    4.800    0.000    1.600 
#   10.800    0.000    0.000    0.000    0.000    0.000 
#    0.000    0.000    0.000    0.000    0.000    0.000 
#
# Total GULP energy -55713.038724 kJ/mol
# GULP energy per Si atom -5571.303872 kJ/mol
# Density = 2.477200 g / cm^3
# Si number density = 24.828510 Si / 1000 Ang^3
#
#
#
# Elastic Constant Matrix: (Units=GPa)
#
#
# Indices 1 2 3 4 5 6 
#
# 1 181.6441 18.6541 -7.6730 0.0002 0.0001 0.0000
# 2 18.6541 32.4223 -3.4566 0.0009 -0.0003 0.0000
# 3 -7.6730 -3.4566 49.2552 0.0023 -0.0001 0.0006
# 4 0.0002 0.0009 0.0023 23.0405 -0.0001 0.0001
# 5 0.0001 -0.0003 -0.0001 -0.0001 41.7252 -0.0001
# 6 0.0000 0.0000 0.0006 0.0001 -0.0001 19.8467
#
#
#
# Elastic Compliance Matrix: (Units=1/GPa)
#
#
# Indices 1 2 3 4 5 6 
#
# 1 0.005874 -0.003307 0.000683 0.000000 0.000000 0.000000
# 2 -0.003307 0.032937 0.001796 -0.000001 0.000000 0.000000
# 3 0.000683 0.001796 0.020535 -0.000002 0.000000 -0.000001
# 4 0.000000 -0.000001 -0.000002 0.043402 0.000000 0.000000
# 5 0.000000 0.000000 0.000000 0.000000 0.023966 0.000000
# 6 0.000000 0.000000 -0.000001 0.000000 0.000000 0.050386
#
#
# Mechanical properties :
#
#
# Convention : Reuss Voigt Hill
#
# Bulk Modulus (GPa) = 17.33379 30.93006 24.13193
# Shear Modulus (GPa) = 25.25446 33.97562 29.61504
#
# Velocity S-wave (km/s) = 3.19275 3.70322 3.45742
# Velocity P-wave (km/s) = 4.53741 5.54704 5.06743
#
# Compressibility (1/GPa) = 0.05769078
#
# Stress axis : x y z
#
# Youngs Moduli (GPa) = 170.25056 30.36111 48.69764
#
# Poissons Ratio (x) = 0.10039 -0.03326
# Poissons Ratio (y) = 0.56295 -0.08748
# Poissons Ratio (z) = -0.11628 -0.05454
#
# Static dielectric constant tensor:
#      x y z
#    x 1.880020 0.000000 0.000000 
#    y 0.000000 1.916520 0.000000 
#    z 0.000000 0.000000 2.743270 
# 
# From -- ./inp_files/8025.got.cif
#   From: 2010.05.17/outbox.cif.g08.bks.cpg/sg24_5_cif.got.tgz:8025.got - 2010.06.04 00:33:39.
