data_PCOD9336004
_publ_section_title
;
Structure prediction by ZEFSAII (Michael W. Deem and Ramdas Pophale) SiO2 
 PCOD9336004
Probable space group: I 21 21 21
;
_chemical_formula_sum "Si O2"
_cell_formula_units_Z 56
_cell_length_a 12.729981
_cell_length_b 13.930868
_cell_length_c 13.906579
_cell_angle_alpha 90.000000
_cell_angle_beta 90.000000
_cell_angle_gamma 90.000000
_cell_volume 2466.188339
_symmetry_space_group_name_H-M "I 21 21 21"
_symmetry_group_IT_number 24
_symmetry_cell_setting 'orthorhombic'
loop_
_space_group_symop_operation_xyz
x,y,z
-x,1/2-y,z
x,-y,1/2-z
1/2-x,y,-z
1/2+x,1/2+y,1/2+z
1/2-x,-y,1/2+z
1/2+x,1/2-y,-z
-x,1/2+y,1/2-z
loop_
_atom_site_type_symbol
_atom_site_label
_atom_site_fract_x
_atom_site_fract_y
_atom_site_fract_z
Si Si1 0.966419 0.046178 0.080088
Si Si2 0.078442 0.463946 0.875009
Si Si3 0.301429 0.962635 0.902053
Si Si4 0.719810 0.900863 0.897945
Si Si5 0.744253 0.359397 0.209805
Si Si6 0.607820 0.203235 0.768665
Si Si7 0.516243 0.354116 0.295167
O O1 0.934360 0.117577 0.164837
O O2 0.887280 0.957584 0.085932
O O3 0.082466 0.004609 0.086189
O O4 0.943713 0.088547 0.974814
O O5 0.190005 0.519832 0.875611
O O6 0.064201 0.389168 0.788406
O O7 0.994622 0.552627 0.863210
O O8 0.299287 0.893305 0.809835
O O9 0.236210 0.054599 0.865550
O O10 0.250000 0.924060 0.000000
O O11 0.690980 0.831578 0.811231
O O12 0.750000 0.853555 0.000000
O O13 0.821606 0.277862 0.170766
O O14 0.626656 0.339812 0.242710
O O15 0.500000 0.250000 0.728994
O O16 0.500000 0.250000 0.342530
#
# Coordination Sequence:
#
# PCOD9336004 Si02
#       7
#     8   8   8   8   8   8   8
#     4  11  23  41  69  99 135 188 231 291 364 436
#     4  10  23  45  66 100 139 188 243 291 362 436
#     4  11  22  43  68  94 135 184 231 287 358 437
#     4  10  24  43  68  97 136 187 239 283 357 436
#     4  11  24  40  62 101 132 176 232 285 365 419
#     4  12  24  42  68 105 143 179 234 304 362 442
#     4  11  23  41  69  95 137 189 240 299 359 432
#
# _framework density 22.707106
#
# number of rings (size 3 to 8) (size 9 to 14) (size 15 to 20)
#    0.000    1.143    1.429    5.571    8.000    1.143 
#    2.571    8.571    0.000    0.000    0.000    0.000 
#    0.000    0.000    0.000    0.000    0.000    0.000 
#
# Total GULP energy -156377.132116 kJ/mol
# GULP energy per Si atom -5584.897576 kJ/mol
# Density = 2.265542 g / cm^3
# Si number density = 22.707106 Si / 1000 Ang^3
#
#
#
# Elastic Constant Matrix: (Units=GPa)
#
#
# Indices 1 2 3 4 5 6 
#
# 1 105.4320 7.7078 -2.0402 0.0000 0.0000 0.0000
# 2 7.7078 53.3422 16.5570 0.0000 0.0000 0.0000
# 3 -2.0402 16.5570 88.6881 0.0000 0.0000 0.0000
# 4 0.0000 0.0000 0.0000 3.9440 0.0000 0.0000
# 5 0.0000 0.0000 0.0000 0.0000 24.7752 0.0000
# 6 0.0000 0.0000 0.0000 0.0000 0.0000 24.1954
#
#
#
# Elastic Compliance Matrix: (Units=1/GPa)
#
#
# Indices 1 2 3 4 5 6 
#
# 1 0.009608 -0.001547 0.000510 0.000000 0.000000 0.000000
# 2 -0.001547 0.020149 -0.003797 0.000000 0.000000 0.000000
# 3 0.000510 -0.003797 0.011996 0.000000 0.000000 0.000000
# 4 0.000000 0.000000 0.000000 0.253549 0.000000 0.000000
# 5 0.000000 0.000000 0.000000 0.000000 0.040363 0.000000
# 6 0.000000 0.000000 0.000000 0.000000 0.000000 0.041330
#
#
# Mechanical properties :
#
#
# Convention : Reuss Voigt Hill
#
# Bulk Modulus (GPa) = 31.16728 32.43459 31.80094
# Shear Modulus (GPa) = 12.58312 25.59879 19.09095
#
# Velocity S-wave (km/s) = 2.35659 3.36124 2.90271
# Velocity P-wave (km/s) = 4.60003 5.42022 5.02688
#
# Compressibility (1/GPa) = 0.03208493
#
# Stress axis : x y z
#
# Youngs Moduli (GPa) = 104.08302 49.63038 83.36065
#
# Poissons Ratio (x) = 0.07675 -0.04249
# Poissons Ratio (y) = 0.16097 0.31653
# Poissons Ratio (z) = -0.05305 0.18845
#
# Static dielectric constant tensor:
#      x y z
#    x 1.847810 0.000000 0.000000 
#    y 0.000000 1.848870 0.000000 
#    z 0.000000 0.000000 1.920800 
# 
# From -- ./inp_files/25836.got.cif
#   From: 2010.05.17/outbox.cif.g08.bks.cpg/sg24_13_cif.got.tgz:25836.got - 2010.06.04 00:33:39.
