data_PCOD9336808
_publ_section_title
;
Structure prediction by ZEFSAII (Michael W. Deem and Ramdas Pophale) SiO2 
 PCOD9336808
Probable space group: I 21 21 21
;
_chemical_formula_sum "Si O2"
_cell_formula_units_Z 32
_cell_length_a 7.189749
_cell_length_b 10.167242
_cell_length_c 17.313285
_cell_angle_alpha 90.000000
_cell_angle_beta 90.000000
_cell_angle_gamma 90.000000
_cell_volume 1265.599714
_symmetry_space_group_name_H-M "I 21 21 21"
_symmetry_group_IT_number 24
_symmetry_cell_setting 'orthorhombic'
loop_
_space_group_symop_operation_xyz
x,y,z
-x,1/2-y,z
x,-y,1/2-z
1/2-x,y,-z
1/2+x,1/2+y,1/2+z
1/2-x,-y,1/2+z
1/2+x,1/2-y,-z
-x,1/2+y,1/2-z
loop_
_atom_site_type_symbol
_atom_site_label
_atom_site_fract_x
_atom_site_fract_y
_atom_site_fract_z
Si Si1 0.500000 0.250000 0.097833
Si Si2 0.250000 0.311868 0.500000
Si Si3 0.433105 0.500000 0.250000
Si Si4 0.500000 0.750000 0.141186
Si Si5 0.844102 0.813674 0.333907
Si Si6 0.532244 0.539892 0.523928
O O1 0.683328 0.290300 0.143113
O O2 0.444142 0.369511 0.043183
O O3 0.324529 0.250763 0.418794
O O4 0.426208 0.402977 0.523397
O O5 0.517164 0.618630 0.195898
O O6 0.291878 0.576166 0.304770
O O7 0.000000 0.750000 0.279240
O O8 0.973096 0.880678 0.399523
O O9 0.750000 0.531540 0.500000
#
# Coordination Sequence:
#
# PCOD9336808 Si02
#       6
#     4   4   4   4   8   8
#     4  12  19  38  78 115 168 208 286 366 443 520
#     4  12  28  52  82 130 174 228 310 380 448 550
#     4  12  28  58  88 128 182 248 304 368 482 568
#     4  12  29  60  94 125 194 242 310 382 467 566
#     4  12  24  46  75 121 172 232 293 369 451 552
#     4  12  21  40  77 121 164 218 288 373 446 521
#
# _framework density 25.284454
#
# number of rings (size 3 to 8) (size 9 to 14) (size 15 to 20)
#    0.000    0.000    8.750    0.750    1.750    0.000 
#    6.750    1.250    0.000    0.000    0.000    0.000 
#    0.000    0.000    0.000    0.000    0.000    0.000 
#
# Total GULP energy -89184.776858 kJ/mol
# GULP energy per Si atom -5574.048554 kJ/mol
# Density = 2.522691 g / cm^3
# Si number density = 25.284454 Si / 1000 Ang^3
#
#
#
# Elastic Constant Matrix: (Units=GPa)
#
#
# Indices 1 2 3 4 5 6 
#
# 1 192.5779 35.4158 58.3977 0.0000 0.0000 0.0000
# 2 35.4158 122.2259 55.9661 0.0000 0.0000 0.0000
# 3 58.3977 55.9661 118.5322 0.0000 0.0000 0.0000
# 4 0.0000 0.0000 0.0000 40.3775 0.0000 0.0000
# 5 0.0000 0.0000 0.0000 0.0000 119.1298 0.0000
# 6 0.0000 0.0000 0.0000 0.0000 0.0000 -4.0068
#
#
#
# Elastic Compliance Matrix: (Units=1/GPa)
#
#
# Indices 1 2 3 4 5 6 
#
# 1 0.006129 -0.000502 -0.002783 0.000000 0.000000 0.000000
# 2 -0.000502 0.010479 -0.004701 0.000000 0.000000 0.000000
# 3 -0.002783 -0.004701 0.012027 0.000000 0.000000 0.000000
# 4 0.000000 0.000000 0.000000 0.024766 0.000000 0.000000
# 5 0.000000 0.000000 0.000000 0.000000 0.008394 0.000000
# 6 0.000000 0.000000 0.000000 0.000000 0.000000 -0.249574
#
#
# Mechanical properties :
#
#
# Convention : Reuss Voigt Hill
#
# Bulk Modulus (GPa) = 78.95803 81.43278 80.19540
# Shear Modulus (GPa) = -29.83525 50.00386 10.08431
#
# Velocity S-wave (km/s) = -3.43882 4.45190 1.99925
# Velocity P-wave (km/s) = 3.94061 7.66176 6.09225
#
# Compressibility (1/GPa) = 0.01266496
#
# Stress axis : x y z
#
# Youngs Moduli (GPa) = 163.16485 95.42554 83.14672
#
# Poissons Ratio (x) = 0.04788 0.23136
# Poissons Ratio (y) = 0.08187 0.39085
# Poissons Ratio (z) = 0.45402 0.44857
#
# Static dielectric constant tensor:
#      x y z
#    x 1.933070 0.000000 0.000000 
#    y 0.000000 -0.038370 0.000000 
#    z 0.000000 0.000000 2.529120 
# 
# From -- ./inp_files/29247.got.cif
#   From: 2010.05.17/outbox.cif.g08.bks.cpg/sg24_15_cif.got.tgz:29247.got - 2010.06.04 00:33:39.
