data_PCOD9336075
_publ_section_title
;
Structure prediction by ZEFSAII (Michael W. Deem and Ramdas Pophale) SiO2 
 PCOD9336075
Probable space group: I 21 21 21
;
_chemical_formula_sum "Si O2"
_cell_formula_units_Z 48
_cell_length_a 27.881731
_cell_length_b 10.977283
_cell_length_c 8.479550
_cell_angle_alpha 90.000000
_cell_angle_beta 90.000000
_cell_angle_gamma 90.000000
_cell_volume 2595.298997
_symmetry_space_group_name_H-M "I 21 21 21"
_symmetry_group_IT_number 24
_symmetry_cell_setting 'orthorhombic'
loop_
_space_group_symop_operation_xyz
x,y,z
-x,1/2-y,z
x,-y,1/2-z
1/2-x,y,-z
1/2+x,1/2+y,1/2+z
1/2-x,-y,1/2+z
1/2+x,1/2-y,-z
-x,1/2+y,1/2-z
loop_
_atom_site_type_symbol
_atom_site_label
_atom_site_fract_x
_atom_site_fract_y
_atom_site_fract_z
Si Si1 0.432331 0.538135 0.571897
Si Si2 0.040277 0.120839 0.149587
Si Si3 0.802154 0.547433 0.427867
Si Si4 0.130074 0.112761 0.646337
Si Si5 0.946918 0.765498 0.032282
Si Si6 0.376291 0.232111 0.038053
O O1 0.419209 0.500000 0.750000
O O2 0.486851 0.593672 0.581175
O O3 0.433648 0.404495 0.495409
O O4 0.394665 0.632505 0.499627
O O5 0.048196 0.226825 0.282427
O O6 0.052338 0.000000 0.250000
O O7 0.076794 0.152333 0.011048
O O8 0.799407 0.500000 0.250000
O O9 0.750000 0.570033 0.500000
O O10 0.828225 0.446089 0.539369
O O11 0.834410 0.669764 0.435178
O O12 0.090400 0.172518 0.538530
O O13 0.141006 0.211466 0.782741
O O14 0.111739 0.000000 0.750000
O O15 0.000000 0.750000 0.965009
#
# Coordination Sequence:
#
# PCOD9336075 Si02
#       6
#     8   8   8   8   8   8
#     4  11  22  33  58  88 124 174 222 250 304 373
#     4  11  19  33  57  83 118 170 217 260 296 357
#     4  11  23  42  71  97 120 153 200 263 324 380
#     4  10  24  40  58  90 125 159 208 261 320 370
#     4  12  21  36  54  85 124 172 220 257 301 372
#     4  11  21  38  57  87 128 161 202 263 308 371
#
# _framework density 18.494976999999999
#
# number of rings (size 3 to 8) (size 9 to 14) (size 15 to 20)
#    0.000    1.000    5.000    5.500    0.000    2.000 
#    0.000    0.000    0.000    1.000    0.000    0.000 
#    0.000    0.000    0.000    0.000    0.000    0.000 
#
# Total GULP energy -133743.834446 kJ/mol
# GULP energy per Si atom -5572.659769 kJ/mol
# Density = 1.845288 g / cm^3
# Si number density = 18.494977 Si / 1000 Ang^3
#
#
#
# Elastic Constant Matrix: (Units=GPa)
#
#
# Indices 1 2 3 4 5 6 
#
# 1 90.6593 69.5175 32.2250 0.0000 0.0000 0.0000
# 2 69.5175 125.5170 31.7317 0.0000 0.0000 0.0000
# 3 32.2250 31.7317 72.0985 0.0000 0.0000 0.0000
# 4 0.0000 0.0000 0.0000 28.9382 0.0000 0.0000
# 5 0.0000 0.0000 0.0000 0.0000 29.7606 0.0000
# 6 0.0000 0.0000 0.0000 0.0000 0.0000 25.6061
#
#
#
# Elastic Compliance Matrix: (Units=1/GPa)
#
#
# Indices 1 2 3 4 5 6 
#
# 1 0.020489 -0.010163 -0.004685 0.000000 0.000000 0.000000
# 2 -0.010163 0.014006 -0.001622 0.000000 0.000000 0.000000
# 3 -0.004685 -0.001622 0.016677 0.000000 0.000000 0.000000
# 4 0.000000 0.000000 0.000000 0.034556 0.000000 0.000000
# 5 0.000000 0.000000 0.000000 0.000000 0.033601 0.000000
# 6 0.000000 0.000000 0.000000 0.000000 0.000000 0.039053
#
#
# Mechanical properties :
#
#
# Convention : Reuss Voigt Hill
#
# Bulk Modulus (GPa) = 54.84562 61.69147 58.26855
# Shear Modulus (GPa) = 25.32930 27.18103 26.25516
#
# Velocity S-wave (km/s) = 3.70472 3.83775 3.77182
# Velocity P-wave (km/s) = 6.92955 7.28464 7.10931
#
# Compressibility (1/GPa) = 0.01823300
#
# Stress axis : x y z
#
# Youngs Moduli (GPa) = 48.80744 71.39802 59.96136
#
# Poissons Ratio (x) = 0.72564 0.28089
# Poissons Ratio (y) = 0.49605 0.09724
# Poissons Ratio (z) = 0.22864 0.11578
#
# Static dielectric constant tensor:
#      x y z
#    x 1.627900 0.000000 0.000000 
#    y 0.000000 1.705370 0.000000 
#    z 0.000000 0.000000 1.702370 
# 
# From -- ./inp_files/16351.got.cif
#   From: 2010.05.17/outbox.cif.g08.bks.cpg/sg24_9_cif.got.tgz:16351.got - 2010.06.04 00:33:39.
