data_PCOD9336249
_publ_section_title
;
Structure prediction by ZEFSAII (Michael W. Deem and Ramdas Pophale) SiO2 
 PCOD9336249
Probable space group: I 21 21 21
;
_chemical_formula_sum "Si O2"
_cell_formula_units_Z 32
_cell_length_a 28.002985
_cell_length_b 5.032539
_cell_length_c 8.556348
_cell_angle_alpha 90.000000
_cell_angle_beta 90.000000
_cell_angle_gamma 90.000000
_cell_volume 1205.812875
_symmetry_space_group_name_H-M "I 21 21 21"
_symmetry_group_IT_number 24
_symmetry_cell_setting 'orthorhombic'
loop_
_space_group_symop_operation_xyz
x,y,z
-x,1/2-y,z
x,-y,1/2-z
1/2-x,y,-z
1/2+x,1/2+y,1/2+z
1/2-x,-y,1/2+z
1/2+x,1/2-y,-z
-x,1/2+y,1/2-z
loop_
_atom_site_type_symbol
_atom_site_label
_atom_site_fract_x
_atom_site_fract_y
_atom_site_fract_z
Si Si1 0.464240 0.500000 0.250000
Si Si2 0.754477 0.500000 0.250000
Si Si3 0.409539 0.811121 0.995355
Si Si4 0.317702 0.878785 0.488183
Si Si5 0.147743 0.500000 0.250000
Si Si6 0.500000 0.250000 0.660520
O O1 0.500000 0.750000 0.276479
O O2 0.427646 0.418864 0.388504
O O3 0.716590 0.685264 0.342808
O O4 0.789050 0.580591 0.106397
O O5 0.385084 0.712339 0.837026
O O6 0.460910 0.912289 0.939927
O O7 0.368961 0.005239 0.061636
O O8 0.324955 0.639677 0.607993
O O9 0.477275 0.500000 0.750000
#
# Coordination Sequence:
#
# PCOD9336249 Si02
#       6
#     4   4   8   8   4   4
#     4  12  32  51  77 122 170 222 284 356 436 520
#     4  10  24  51  75 106 176 203 279 358 422 516
#     4  12  27  47  75 112 157 211 271 345 416 519
#     4  11  25  51  74 118 155 221 271 354 427 510
#     4  12  24  46  80 110 156 209 285 334 436 512
#     4  12  26  44  76 108 152 206 266 338 408 490
#
# _framework density 26.538115000000001
#
# number of rings (size 3 to 8) (size 9 to 14) (size 15 to 20)
#    0.000    0.500    5.000    1.500    8.750    0.000 
#    9.000    0.000    0.000    0.000    0.000    0.000 
#    0.000    0.000    0.000    0.000    0.000    0.000 
#
# Total GULP energy -89248.569380 kJ/mol
# GULP energy per Si atom -5578.035586 kJ/mol
# Density = 2.647771 g / cm^3
# Si number density = 26.538115 Si / 1000 Ang^3
#
#
#
# Elastic Constant Matrix: (Units=GPa)
#
#
# Indices 1 2 3 4 5 6 
#
# 1 208.8312 57.7944 43.1070 0.0000 0.0000 0.0000
# 2 57.7944 120.7169 39.5756 0.0000 0.0000 0.0000
# 3 43.1070 39.5756 96.4796 0.0000 0.0000 0.0000
# 4 0.0000 0.0000 0.0000 39.6976 0.0000 0.0000
# 5 0.0000 0.0000 0.0000 0.0000 54.8792 0.0000
# 6 0.0000 0.0000 0.0000 0.0000 0.0000 -5.7393
#
#
#
# Elastic Compliance Matrix: (Units=1/GPa)
#
#
# Indices 1 2 3 4 5 6 
#
# 1 0.005741 -0.002204 -0.001661 0.000000 0.000000 0.000000
# 2 -0.002204 0.010417 -0.003288 0.000000 0.000000 0.000000
# 3 -0.001661 -0.003288 0.012456 0.000000 0.000000 0.000000
# 4 0.000000 0.000000 0.000000 0.025190 0.000000 0.000000
# 5 0.000000 0.000000 0.000000 0.000000 0.018222 0.000000
# 6 0.000000 0.000000 0.000000 0.000000 0.000000 -0.174239
#
#
# Mechanical properties :
#
#
# Convention : Reuss Voigt Hill
#
# Bulk Modulus (GPa) = 69.89406 78.55354 74.22380
# Shear Modulus (GPa) = -60.14276 36.80423 -11.66926
#
# Velocity S-wave (km/s) = -4.76571 3.72808 -2.09922
# Velocity P-wave (km/s) = 1.97186 6.94233 4.70679
#
# Compressibility (1/GPa) = 0.01430737
#
# Stress axis : x y z
#
# Youngs Moduli (GPa) = 174.17166 95.99567 80.28320
#
# Poissons Ratio (x) = 0.21159 0.13336
# Poissons Ratio (y) = 0.38391 0.26399
# Poissons Ratio (z) = 0.28932 0.31566
#
# Static dielectric constant tensor:
#      x y z
#    x 2.140220 0.000000 0.000000 
#    y 0.000000 2.393450 0.000000 
#    z 0.000000 0.000000 2.192050 
# 
# From -- ./inp_files/16602.got.cif
#   From: 2010.05.17/outbox.cif.g08.bks.cpg/sg24_9_cif.got.tgz:16602.got - 2010.06.04 00:33:39.
