data_PCOD9336718
_publ_section_title
;
Structure prediction by ZEFSAII (Michael W. Deem and Ramdas Pophale) SiO2 
 PCOD9336718
Probable space group: I 21 21 21
;
_chemical_formula_sum "Si O2"
_cell_formula_units_Z 32
_cell_length_a 21.400669
_cell_length_b 8.981418
_cell_length_c 7.673687
_cell_angle_alpha 90.000000
_cell_angle_beta 90.000000
_cell_angle_gamma 90.000000
_cell_volume 1474.946746
_symmetry_space_group_name_H-M "I 21 21 21"
_symmetry_group_IT_number 24
_symmetry_cell_setting 'orthorhombic'
loop_
_space_group_symop_operation_xyz
x,y,z
-x,1/2-y,z
x,-y,1/2-z
1/2-x,y,-z
1/2+x,1/2+y,1/2+z
1/2-x,-y,1/2+z
1/2+x,1/2-y,-z
-x,1/2+y,1/2-z
loop_
_atom_site_type_symbol
_atom_site_label
_atom_site_fract_x
_atom_site_fract_y
_atom_site_fract_z
Si Si1 0.359594 0.172367 0.270246
Si Si2 0.107805 0.339973 0.390998
Si Si3 0.745115 0.159276 0.790973
Si Si4 0.064608 0.321867 0.030315
O O1 0.391721 0.238788 0.440330
O O2 0.286270 0.208932 0.286805
O O3 0.371850 0.000000 0.250000
O O4 0.383829 0.258593 0.100139
O O5 0.178236 0.350511 0.307432
O O6 0.071601 0.268509 0.229343
O O7 0.078485 0.500468 0.446991
O O8 0.776875 0.000000 0.750000
O O9 0.750000 0.174530 0.000000
O O10 0.000000 0.250000 0.964360
#
# Coordination Sequence:
#
# PCOD9336718 Si02
#       4
#     8   8   8   8
#     4  12  27  42  68 111 150 193 239 310 376 444
#     4  11  24  48  74 104 142 199 245 311 377 434
#     4  12  21  42  75 104 143 191 250 306 375 455
#     4  11  25  47  74 105 139 195 259 302 364 449
#
# _framework density 21.695698
#
# number of rings (size 3 to 8) (size 9 to 14) (size 15 to 20)
#    0.000    0.500    5.000    4.500    0.000   10.000 
#    0.000    0.000    0.000    0.000    0.000    0.000 
#    0.000    0.000    0.000    0.000    0.000    0.000 
#
# Total GULP energy -89306.003480 kJ/mol
# GULP energy per Si atom -5581.625218 kJ/mol
# Density = 2.164632 g / cm^3
# Si number density = 21.695698 Si / 1000 Ang^3
#
#
#
# Elastic Constant Matrix: (Units=GPa)
#
#
# Indices 1 2 3 4 5 6 
#
# 1 104.4959 29.7290 14.2764 0.0000 0.0000 0.0000
# 2 29.7290 74.2487 57.9659 0.0000 0.0000 0.0000
# 3 14.2764 57.9659 122.6109 0.0000 0.0000 0.0000
# 4 0.0000 0.0000 0.0000 5.3546 0.0000 0.0000
# 5 0.0000 0.0000 0.0000 0.0000 20.6553 0.0000
# 6 0.0000 0.0000 0.0000 0.0000 0.0000 22.1340
#
#
#
# Elastic Compliance Matrix: (Units=1/GPa)
#
#
# Indices 1 2 3 4 5 6 
#
# 1 0.010922 -0.005358 0.001261 0.000000 0.000000 0.000000
# 2 -0.005358 0.023975 -0.010711 0.000000 0.000000 0.000000
# 3 0.001261 -0.010711 0.013073 0.000000 0.000000 0.000000
# 4 0.000000 0.000000 0.000000 0.186754 0.000000 0.000000
# 5 0.000000 0.000000 0.000000 0.000000 0.048414 0.000000
# 6 0.000000 0.000000 0.000000 0.000000 0.000000 0.045179
#
#
# Mechanical properties :
#
#
# Convention : Reuss Voigt Hill
#
# Bulk Modulus (GPa) = 54.48036 56.14423 55.31230
# Shear Modulus (GPa) = 13.73438 22.92106 18.32772
#
# Velocity S-wave (km/s) = 2.51877 3.25388 2.90963
# Velocity P-wave (km/s) = 5.79867 6.32860 6.06942
#
# Compressibility (1/GPa) = 0.01835524
#
# Stress axis : x y z
#
# Youngs Moduli (GPa) = 91.56097 41.70942 76.49512
#
# Poissons Ratio (x) = 0.22346 -0.09648
# Poissons Ratio (y) = 0.49055 0.81933
# Poissons Ratio (z) = -0.11548 0.44674
#
# Static dielectric constant tensor:
#      x y z
#    x 1.953920 0.000000 0.000000 
#    y 0.000000 1.756380 0.000000 
#    z 0.000000 0.000000 1.774290 
# 
# From -- ./inp_files/14773.got.cif
#   From: 2010.05.17/outbox.cif.g08.bks.cpg/sg24_8_cif.got.tgz:14773.got - 2010.06.04 00:33:39.
