data_PCOD9336208
_publ_section_title
;
Structure prediction by ZEFSAII (Michael W. Deem and Ramdas Pophale) SiO2 
 PCOD9336208
Probable space group: I 21 21 21
;
_chemical_formula_sum "Si O2"
_cell_formula_units_Z 36
_cell_length_a 21.342611
_cell_length_b 9.348034
_cell_length_c 6.769802
_cell_angle_alpha 90.000000
_cell_angle_beta 90.000000
_cell_angle_gamma 90.000000
_cell_volume 1350.653035
_symmetry_space_group_name_H-M "I 21 21 21"
_symmetry_group_IT_number 24
_symmetry_cell_setting 'orthorhombic'
loop_
_space_group_symop_operation_xyz
x,y,z
-x,1/2-y,z
x,-y,1/2-z
1/2-x,y,-z
1/2+x,1/2+y,1/2+z
1/2-x,-y,1/2+z
1/2+x,1/2-y,-z
-x,1/2+y,1/2-z
loop_
_atom_site_type_symbol
_atom_site_label
_atom_site_fract_x
_atom_site_fract_y
_atom_site_fract_z
Si Si1 0.359134 0.646770 0.255406
Si Si2 0.690986 0.683303 0.892971
Si Si3 0.045432 0.891135 0.126119
Si Si4 0.453130 0.882941 0.372100
Si Si5 0.250000 0.306880 0.000000
O O1 0.400768 0.500000 0.250000
O O2 0.387568 0.792373 0.350782
O O3 0.305213 0.603424 0.405914
O O4 0.328287 0.691818 0.048359
O O5 0.621304 0.625577 0.863570
O O6 0.719384 0.722829 0.681998
O O7 0.750000 0.604422 0.000000
O O8 0.034182 0.923079 0.376447
O O9 0.000000 0.750000 0.114064
O O10 0.043419 0.932258 0.877074
O O11 0.500000 0.750000 0.361788
#
# Coordination Sequence:
#
# PCOD9336208 Si02
#       5
#     8   8   8   8   4
#     4  11  25  44  76 114 156 208 270 334 404 494
#     4  10  24  50  76 117 159 217 280 342 418 503
#     4  12  27  51  78 120 164 219 282 347 422 507
#     4  12  25  46  74 112 154 211 268 334 419 494
#     4  10  24  46  74 110 158 212 262 344 412 486
#
# _framework density 26.653772
#
# number of rings (size 3 to 8) (size 9 to 14) (size 15 to 20)
#    0.000    0.889    2.222    3.333    7.778    0.000 
#   12.000    0.000    0.000    0.000    0.000    0.000 
#    0.000    0.000    0.000    0.000    0.000    0.000 
#
# Total GULP energy -100252.244329 kJ/mol
# GULP energy per Si atom -5569.569129 kJ/mol
# Density = 2.659311 g / cm^3
# Si number density = 26.653772 Si / 1000 Ang^3
#
#
#
# Elastic Constant Matrix: (Units=GPa)
#
#
# Indices 1 2 3 4 5 6 
#
# 1 149.5401 91.4096 50.4153 0.0000 0.0000 0.0000
# 2 91.4096 223.5783 113.7079 0.0000 0.0000 0.0000
# 3 50.4153 113.7079 264.6187 0.0000 0.0000 0.0000
# 4 0.0000 0.0000 0.0000 74.2038 0.0000 0.0000
# 5 0.0000 0.0000 0.0000 0.0000 63.1276 0.0000
# 6 0.0000 0.0000 0.0000 0.0000 0.0000 7.4867
#
#
#
# Elastic Compliance Matrix: (Units=1/GPa)
#
#
# Indices 1 2 3 4 5 6 
#
# 1 0.008921 -0.003561 -0.000169 0.000000 0.000000 0.000000
# 2 -0.003561 0.007145 -0.002392 0.000000 0.000000 0.000000
# 3 -0.000169 -0.002392 0.004839 0.000000 0.000000 0.000000
# 4 0.000000 0.000000 0.000000 0.013476 0.000000 0.000000
# 5 0.000000 0.000000 0.000000 0.000000 0.015841 0.000000
# 6 0.000000 0.000000 0.000000 0.000000 0.000000 0.133570
#
#
# Mechanical properties :
#
#
# Convention : Reuss Voigt Hill
#
# Bulk Modulus (GPa) = 115.46693 127.64475 121.55584
# Shear Modulus (GPa) = 25.13522 54.44391 39.78956
#
# Velocity S-wave (km/s) = 3.07421 4.52445 3.86791
# Velocity P-wave (km/s) = 7.48439 8.67687 8.10260
#
# Compressibility (1/GPa) = 0.00866049
#
# Stress axis : x y z
#
# Youngs Moduli (GPa) = 112.09287 139.95497 206.65154
#
# Poissons Ratio (x) = 0.49842 0.03500
# Poissons Ratio (y) = 0.39919 0.49427
# Poissons Ratio (z) = 0.01899 0.33475
#
# Static dielectric constant tensor:
#      x y z
#    x 2.265170 0.000000 0.000000 
#    y 0.000000 2.260910 0.000000 
#    z 0.000000 0.000000 2.226620 
# 
# From -- ./inp_files/3336.got.cif
#   From: 2010.05.17/outbox.cif.g08.bks.cpg/sg24_2_cif.got.tgz:3336.got - 2010.06.04 00:33:39.
