data_PCOD9336864
_publ_section_title
;
Structure prediction by ZEFSAII (Michael W. Deem and Ramdas Pophale) SiO2 
 PCOD9336864
Probable space group: I 21 21 21
;
_chemical_formula_sum "Si O2"
_cell_formula_units_Z 48
_cell_length_a 14.208798
_cell_length_b 7.655196
_cell_length_c 17.901864
_cell_angle_alpha 90.000000
_cell_angle_beta 90.000000
_cell_angle_gamma 90.000000
_cell_volume 1947.206041
_symmetry_space_group_name_H-M "I 21 21 21"
_symmetry_group_IT_number 24
_symmetry_cell_setting 'orthorhombic'
loop_
_space_group_symop_operation_xyz
x,y,z
-x,1/2-y,z
x,-y,1/2-z
1/2-x,y,-z
1/2+x,1/2+y,1/2+z
1/2-x,-y,1/2+z
1/2+x,1/2-y,-z
-x,1/2+y,1/2-z
loop_
_atom_site_type_symbol
_atom_site_label
_atom_site_fract_x
_atom_site_fract_y
_atom_site_fract_z
Si Si1 0.000000 0.250000 0.004507
Si Si2 0.574651 0.500000 0.250000
Si Si3 0.213993 0.278568 0.821022
Si Si4 0.100800 0.330290 0.402342
Si Si5 0.863809 0.000000 0.250000
Si Si6 0.366405 0.467201 0.442022
Si Si7 0.321819 0.030973 0.931646
Si Si8 0.000000 0.750000 0.865978
O O1 0.082313 0.139972 0.047471
O O2 0.051276 0.391195 0.953911
O O3 0.633975 0.666354 0.279934
O O4 0.512804 0.580639 0.184528
O O5 0.294072 0.340137 0.764822
O O6 0.188675 0.446248 0.872949
O O7 0.262740 0.148792 0.877205
O O8 0.085540 0.447538 0.327932
O O9 0.154476 0.434096 0.469342
O O10 0.000000 0.250000 0.427293
O O11 0.157990 0.152710 0.392426
O O12 0.407983 0.283018 0.415096
O O13 0.250000 0.002295 0.000000
#
# Coordination Sequence:
#
# PCOD9336864 Si02
#       8
#     4   4   8   8   4   8   8   4
#     4  12  22  47  74 119 146 186 256 328 388 447
#     4  12  26  47  69 114 162 206 256 318 420 474
#     4  12  27  47  75 112 154 210 255 329 394 490
#     4  12  28  51  77 114 153 210 266 335 393 475
#     4  12  30  49  73 108 160 204 260 326 406 474
#     4  12  24  46  79 114 148 199 265 321 392 463
#     4  12  27  46  81 116 151 201 263 333 384 476
#     4  12  24  43  76 111 154 208 252 330 388 493
#
# _framework density 24.650704999999999
#
# number of rings (size 3 to 8) (size 9 to 14) (size 15 to 20)
#    0.000    0.000    4.167    5.000    4.667    1.333 
#    1.500    0.000    0.000    0.000    0.000    0.000 
#    0.000    0.000    0.000    0.000    0.000    0.000 
#
# Total GULP energy -134134.776238 kJ/mol
# GULP energy per Si atom -5588.949010 kJ/mol
# Density = 2.459460 g / cm^3
# Si number density = 24.650705 Si / 1000 Ang^3
#
#
#
# Elastic Constant Matrix: (Units=GPa)
#
#
# Indices 1 2 3 4 5 6 
#
# 1 41.9031 -3.7123 15.0529 0.0000 0.0000 0.0000
# 2 -3.7123 87.7011 24.8244 0.0000 0.0000 0.0000
# 3 15.0529 24.8244 114.3675 0.0000 0.0000 0.0000
# 4 0.0000 0.0000 0.0000 73.5287 0.0000 0.0000
# 5 0.0000 0.0000 0.0000 0.0000 42.7456 0.0000
# 6 0.0000 0.0000 0.0000 0.0000 0.0000 58.0557
#
#
#
# Elastic Compliance Matrix: (Units=1/GPa)
#
#
# Indices 1 2 3 4 5 6 
#
# 1 0.025426 0.002156 -0.003814 0.000000 0.000000 0.000000
# 2 0.002156 0.012332 -0.002960 0.000000 0.000000 0.000000
# 3 -0.003814 -0.002960 0.009888 0.000000 0.000000 0.000000
# 4 0.000000 0.000000 0.000000 0.013600 0.000000 0.000000
# 5 0.000000 0.000000 0.000000 0.000000 0.023394 0.000000
# 6 0.000000 0.000000 0.000000 0.000000 0.000000 0.017225
#
#
# Mechanical properties :
#
#
# Convention : Reuss Voigt Hill
#
# Bulk Modulus (GPa) = 26.03627 35.14462 30.59045
# Shear Modulus (GPa) = 40.35328 48.71978 44.53653
#
# Velocity S-wave (km/s) = 4.05038 4.45050 4.25515
# Velocity P-wave (km/s) = 5.69729 6.37944 6.04799
#
# Compressibility (1/GPa) = 0.03840796
#
# Stress axis : x y z
#
# Youngs Moduli (GPa) = 39.32997 81.09245 101.12870
#
# Poissons Ratio (x) = -0.17483 0.38576
# Poissons Ratio (y) = -0.08479 0.29939
# Poissons Ratio (z) = 0.15002 0.24007
#
# Static dielectric constant tensor:
#      x y z
#    x 1.991230 0.000000 0.000000 
#    y 0.000000 1.801580 0.000000 
#    z 0.000000 0.000000 2.054700 
# 
# From -- ./inp_files/30779.got.cif
#   From: 2010.05.17/outbox.cif.g08.bks.cpg/sg24_16_cif.got.tgz:30779.got - 2010.06.04 00:33:39.
