data_PCOD9336411
_publ_section_title
;
Structure prediction by ZEFSAII (Michael W. Deem and Ramdas Pophale) SiO2 
 PCOD9336411
Probable space group: I 21 21 21
;
_chemical_formula_sum "Si O2"
_cell_formula_units_Z 44
_cell_length_a 13.352783
_cell_length_b 16.339060
_cell_length_c 9.380595
_cell_angle_alpha 90.000000
_cell_angle_beta 90.000000
_cell_angle_gamma 90.000000
_cell_volume 2046.582446
_symmetry_space_group_name_H-M "I 21 21 21"
_symmetry_group_IT_number 24
_symmetry_cell_setting 'orthorhombic'
loop_
_space_group_symop_operation_xyz
x,y,z
-x,1/2-y,z
x,-y,1/2-z
1/2-x,y,-z
1/2+x,1/2+y,1/2+z
1/2-x,-y,1/2+z
1/2+x,1/2-y,-z
-x,1/2+y,1/2-z
loop_
_atom_site_type_symbol
_atom_site_label
_atom_site_fract_x
_atom_site_fract_y
_atom_site_fract_z
Si Si1 0.408417 0.200320 0.984290
Si Si2 0.290701 0.645677 0.646962
Si Si3 0.810358 0.433574 0.362490
Si Si4 0.000000 0.250000 0.513444
Si Si5 0.680056 0.713937 0.225072
Si Si6 0.484541 0.385898 0.717070
O O1 0.500000 0.250000 0.053118
O O2 0.346737 0.271440 0.906308
O O3 0.454087 0.143757 0.859983
O O4 0.348566 0.171586 0.122670
O O5 0.250000 0.607350 0.500000
O O6 0.207666 0.690401 0.744659
O O7 0.375019 0.592045 0.723822
O O8 0.776853 0.500000 0.250000
O O9 0.750000 0.457500 0.500000
O O10 0.772355 0.341005 0.330517
O O11 0.931194 0.438429 0.364242
O O12 0.911335 0.285415 0.613087
O O13 0.039282 0.317160 0.401148
#
# Coordination Sequence:
#
# PCOD9336411 Si02
#       6
#     8   8   8   4   8   8
#     4   9  16  30  50  76 110 152 180 228 310 377
#     4   9  18  32  56  87 115 151 196 253 330 379
#     4  12  27  41  57  86 124 175 216 245 302 388
#     4  12  20  32  58  92 128 158 198 272 334 368
#     4  11  21  34  55  88 126 152 203 262 319 381
#     4  11  20  36  56  81 121 158 202 259 315 370
#
# _framework density 21.499255000000002
#
# number of rings (size 3 to 8) (size 9 to 14) (size 15 to 20)
#    0.000    1.455    7.273    0.000    2.545    0.000 
#    0.000    0.000    0.000    0.000    4.727    0.000 
#    0.000    0.000    0.000    0.000    0.000    0.000 
#
# Total GULP energy -122468.594264 kJ/mol
# GULP energy per Si atom -5566.754285 kJ/mol
# Density = 2.145032 g / cm^3
# Si number density = 21.499255 Si / 1000 Ang^3
#
#
#
# Elastic Constant Matrix: (Units=GPa)
#
#
# Indices 1 2 3 4 5 6 
#
# 1 97.7259 13.3349 41.3361 0.0000 0.0000 0.0000
# 2 13.3349 42.6120 25.8474 0.0000 0.0000 0.0000
# 3 41.3361 25.8474 123.8870 0.0000 0.0000 0.0000
# 4 0.0000 0.0000 0.0000 9.6401 0.0000 0.0000
# 5 0.0000 0.0000 0.0000 0.0000 49.7484 0.0000
# 6 0.0000 0.0000 0.0000 0.0000 0.0000 -429.8099
#
#
#
# Elastic Compliance Matrix: (Units=1/GPa)
#
#
# Indices 1 2 3 4 5 6 
#
# 1 0.011999 -0.001519 -0.003687 0.000000 0.000000 0.000000
# 2 -0.001519 0.027060 -0.005139 0.000000 0.000000 0.000000
# 3 -0.003687 -0.005139 0.010374 0.000000 0.000000 0.000000
# 4 0.000000 0.000000 0.000000 0.103733 0.000000 0.000000
# 5 0.000000 0.000000 0.000000 0.000000 0.020101 0.000000
# 6 0.000000 0.000000 0.000000 0.000000 0.000000 -0.002327
#
#
# Mechanical properties :
#
#
# Convention : Reuss Voigt Hill
#
# Bulk Modulus (GPa) = 34.78923 47.25130 41.02027
# Shear Modulus (GPa) = 24.84942 -61.83717 -18.49388
#
# Velocity S-wave (km/s) = 3.40343 -5.36888 -2.93612
# Velocity P-wave (km/s) = 5.62683 4.05060 2.76169
#
# Compressibility (1/GPa) = 0.02874453
#
# Stress axis : x y z
#
# Youngs Moduli (GPa) = 83.33754 36.95491 96.39284
#
# Poissons Ratio (x) = 0.05612 0.35539
# Poissons Ratio (y) = 0.12656 0.49536
# Poissons Ratio (z) = 0.30725 0.18991
#
# Static dielectric constant tensor:
#      x y z
#    x 1.905640 0.000000 0.000000 
#    y 0.000000 1.827510 0.000000 
#    z 0.000000 0.000000 1.884050 
# 
# From -- ./inp_files/12681.got.cif
#   From: 2010.05.17/outbox.cif.g08.bks.cpg/sg24_7_cif.got.tgz:12681.got - 2010.06.04 00:33:39.
