data_PCOD9336749
_publ_section_title
;
Structure prediction by ZEFSAII (Michael W. Deem and Ramdas Pophale) SiO2 
 PCOD9336749
Probable space group: I 21 21 21
;
_chemical_formula_sum "Si O2"
_cell_formula_units_Z 40
_cell_length_a 15.519275
_cell_length_b 10.680291
_cell_length_c 9.531927
_cell_angle_alpha 90.000000
_cell_angle_beta 90.000000
_cell_angle_gamma 90.000000
_cell_volume 1579.920457
_symmetry_space_group_name_H-M "I 21 21 21"
_symmetry_group_IT_number 24
_symmetry_cell_setting 'orthorhombic'
loop_
_space_group_symop_operation_xyz
x,y,z
-x,1/2-y,z
x,-y,1/2-z
1/2-x,y,-z
1/2+x,1/2+y,1/2+z
1/2-x,-y,1/2+z
1/2+x,1/2-y,-z
-x,1/2+y,1/2-z
loop_
_atom_site_type_symbol
_atom_site_label
_atom_site_fract_x
_atom_site_fract_y
_atom_site_fract_z
Si Si1 0.337151 0.262819 0.434992
Si Si2 0.849609 0.250451 0.055844
Si Si3 0.075198 0.622342 0.178948
Si Si4 0.069389 0.640430 0.695728
Si Si5 0.114943 0.973437 0.103007
O O1 0.250000 0.310716 0.500000
O O2 0.093724 0.340843 0.478920
O O3 0.347610 0.302896 0.276743
O O4 0.348121 0.120763 0.486540
O O5 0.878220 0.221917 0.216709
O O6 0.888065 0.390138 0.031406
O O7 0.750000 0.248077 0.000000
O O8 0.904365 0.149703 0.966212
O O9 0.113861 0.500000 0.250000
O O10 0.026486 0.909435 0.159627
O O11 0.049280 0.500000 0.750000
O O12 0.000000 0.750000 0.725726
O O13 0.166480 0.000000 0.250000
#
# Coordination Sequence:
#
# PCOD9336749 Si02
#       5
#     8   8   8   8   8
#     4  12  26  47  74 109 157 203 258 337 405 478
#     4  12  28  50  80 118 158 208 267 346 410 477
#     4  11  25  44  79 106 148 207 276 318 389 493
#     4  12  31  50  76 115 164 207 257 326 417 490
#     4  11  25  45  80 113 150 206 282 322 387 491
#
# _framework density 25.317729
#
# number of rings (size 3 to 8) (size 9 to 14) (size 15 to 20)
#    0.000    0.400    2.000    4.800   14.000    4.800 
#    0.000    0.000    0.000    0.000    0.000    0.000 
#    0.000    0.000    0.000    0.000    0.000    0.000 
#
# Total GULP energy -111517.433989 kJ/mol
# GULP energy per Si atom -5575.871699 kJ/mol
# Density = 2.526011 g / cm^3
# Si number density = 25.317729 Si / 1000 Ang^3
#
#
#
# Elastic Constant Matrix: (Units=GPa)
#
#
# Indices 1 2 3 4 5 6 
#
# 1 112.7622 30.0639 1.5064 0.0000 0.0000 0.0000
# 2 30.0639 149.8462 14.0611 0.0000 0.0000 0.0000
# 3 1.5064 14.0611 82.8687 0.0000 0.0000 0.0000
# 4 0.0000 0.0000 0.0000 44.1298 0.0000 0.0000
# 5 0.0000 0.0000 0.0000 0.0000 26.1201 0.0000
# 6 0.0000 0.0000 0.0000 0.0000 0.0000 3.8598
#
#
#
# Elastic Compliance Matrix: (Units=1/GPa)
#
#
# Indices 1 2 3 4 5 6 
#
# 1 0.009371 -0.001894 0.000151 0.000000 0.000000 0.000000
# 2 -0.001894 0.007164 -0.001181 0.000000 0.000000 0.000000
# 3 0.000151 -0.001181 0.012265 0.000000 0.000000 0.000000
# 4 0.000000 0.000000 0.000000 0.022660 0.000000 0.000000
# 5 0.000000 0.000000 0.000000 0.000000 0.038285 0.000000
# 6 0.000000 0.000000 0.000000 0.000000 0.000000 0.259083
#
#
# Mechanical properties :
#
#
# Convention : Reuss Voigt Hill
#
# Bulk Modulus (GPa) = 43.56984 48.52667 46.04826
# Shear Modulus (GPa) = 13.79963 34.81165 24.30564
#
# Velocity S-wave (km/s) = 2.33718 3.71211 3.10179
# Velocity P-wave (km/s) = 4.95276 6.13039 5.57277
#
# Compressibility (1/GPa) = 0.02295166
#
# Stress axis : x y z
#
# Youngs Moduli (GPa) = 106.70927 139.57868 81.53308
#
# Poissons Ratio (x) = 0.26441 -0.01232
# Poissons Ratio (y) = 0.20214 0.09631
# Poissons Ratio (z) = -0.01612 0.16487
#
# Static dielectric constant tensor:
#      x y z
#    x 2.268650 0.000000 0.000000 
#    y 0.000000 2.063510 0.000000 
#    z 0.000000 0.000000 2.628300 
# 
# From -- ./inp_files/21337.got.cif
#   From: 2010.05.17/outbox.cif.g08.bks.cpg/sg24_11_cif.got.tgz:21337.got - 2010.06.04 00:33:39.
