data_PCOD9336074
_publ_section_title
;
Structure prediction by ZEFSAII (Michael W. Deem and Ramdas Pophale) SiO2 
 PCOD9336074
Probable space group: I 21 21 21
;
_chemical_formula_sum "Si O2"
_cell_formula_units_Z 48
_cell_length_a 19.809164
_cell_length_b 8.414439
_cell_length_c 13.357072
_cell_angle_alpha 90.000000
_cell_angle_beta 90.000000
_cell_angle_gamma 90.000000
_cell_volume 2226.396860
_symmetry_space_group_name_H-M "I 21 21 21"
_symmetry_group_IT_number 24
_symmetry_cell_setting 'orthorhombic'
loop_
_space_group_symop_operation_xyz
x,y,z
-x,1/2-y,z
x,-y,1/2-z
1/2-x,y,-z
1/2+x,1/2+y,1/2+z
1/2-x,-y,1/2+z
1/2+x,1/2-y,-z
-x,1/2+y,1/2-z
loop_
_atom_site_type_symbol
_atom_site_label
_atom_site_fract_x
_atom_site_fract_y
_atom_site_fract_z
Si Si1 0.824609 0.405675 0.946582
Si Si2 0.778059 0.855841 0.692303
Si Si3 0.750000 0.986534 0.000000
Si Si4 0.834790 0.337507 0.282902
Si Si5 0.640650 0.731883 0.015660
Si Si6 0.554958 0.609976 0.609936
Si Si7 0.500000 0.750000 0.945105
O O1 0.823579 0.280543 0.856479
O O2 0.750000 0.403683 0.000000
O O3 0.837048 0.587724 0.914798
O O4 0.887726 0.376182 0.022590
O O5 0.719019 0.796842 0.763796
O O6 0.813538 0.000000 0.750000
O O7 0.734904 0.910945 0.595873
O O8 0.812068 0.879429 0.969715
O O9 0.799150 0.500000 0.250000
O O10 0.848664 0.328072 0.400316
O O11 0.901092 0.344677 0.210774
O O12 0.563830 0.780613 0.014657
O O13 0.500000 0.750000 0.598976
O O14 0.518596 0.428986 0.606432
#
# Coordination Sequence:
#
# PCOD9336074 Si02
#       7
#     8   8   4   8   8   8   4
#     4  11  20  42  64  89 135 184 225 275 345 402
#     4  12  25  39  66 105 134 176 236 291 346 407
#     4  12  24  40  64  98 136 176 222 304 332 396
#     4  12  22  41  59  96 138 183 228 268 340 426
#     4  11  24  41  63  93 140 182 223 278 345 420
#     4  11  25  39  66  98 143 193 221 286 346 430
#     4  10  24  40  58 100 130 186 232 264 348 432
#
# _framework density 21.559498999999999
#
# number of rings (size 3 to 8) (size 9 to 14) (size 15 to 20)
#    0.000    0.667    8.333    0.000    5.833    0.000 
#    0.000    0.000    0.000    0.000    2.167    3.500 
#    0.000    0.000    0.000    0.000    0.000    0.000 
#
# Total GULP energy -133636.289488 kJ/mol
# GULP energy per Si atom -5568.178729 kJ/mol
# Density = 2.151043 g / cm^3
# Si number density = 21.559499 Si / 1000 Ang^3
#
#
#
# Elastic Constant Matrix: (Units=GPa)
#
#
# Indices 1 2 3 4 5 6 
#
# 1 105.0211 40.8011 25.3850 0.0000 0.0000 0.0000
# 2 40.8011 97.8369 24.9425 0.0000 0.0000 0.0000
# 3 25.3850 24.9425 57.4037 0.0000 0.0000 0.0000
# 4 0.0000 0.0000 0.0000 49.6628 0.0000 0.0000
# 5 0.0000 0.0000 0.0000 0.0000 20.2517 0.0000
# 6 0.0000 0.0000 0.0000 0.0000 0.0000 28.9491
#
#
#
# Elastic Compliance Matrix: (Units=1/GPa)
#
#
# Indices 1 2 3 4 5 6 
#
# 1 0.011961 -0.004093 -0.003511 0.000000 0.000000 0.000000
# 2 -0.004093 0.012895 -0.003793 0.000000 0.000000 0.000000
# 3 -0.003511 -0.003793 0.020621 0.000000 0.000000 0.000000
# 4 0.000000 0.000000 0.000000 0.020136 0.000000 0.000000
# 5 0.000000 0.000000 0.000000 0.000000 0.049379 0.000000
# 6 0.000000 0.000000 0.000000 0.000000 0.000000 0.034543
#
#
# Mechanical properties :
#
#
# Convention : Reuss Voigt Hill
#
# Bulk Modulus (GPa) = 44.08546 49.16879 46.62713
# Shear Modulus (GPa) = 27.79491 31.04825 29.42158
#
# Velocity S-wave (km/s) = 3.59446 3.79901 3.69815
# Velocity P-wave (km/s) = 6.14163 6.48836 6.31737
#
# Compressibility (1/GPa) = 0.02268321
#
# Stress axis : x y z
#
# Youngs Moduli (GPa) = 83.60770 77.54968 48.49396
#
# Poissons Ratio (x) = 0.31740 0.17025
# Poissons Ratio (y) = 0.34220 0.18394
# Poissons Ratio (z) = 0.29353 0.29415
#
# Static dielectric constant tensor:
#      x y z
#    x 1.776750 0.000000 0.000000 
#    y 0.000000 1.947270 0.000000 
#    z 0.000000 0.000000 1.851230 
# 
# From -- ./inp_files/27451.got.cif
#   From: 2010.05.17/outbox.cif.g08.bks.cpg/sg24_14_cif.got.tgz:27451.got - 2010.06.04 00:33:39.
