data_PCOD9336563
_publ_section_title
;
Structure prediction by ZEFSAII (Michael W. Deem and Ramdas Pophale) SiO2 
 PCOD9336563
Probable space group: I 21 21 21
;
_chemical_formula_sum "Si O2"
_cell_formula_units_Z 56
_cell_length_a 14.438936
_cell_length_b 6.755390
_cell_length_c 27.948204
_cell_angle_alpha 90.000000
_cell_angle_beta 90.000000
_cell_angle_gamma 90.000000
_cell_volume 2726.085813
_symmetry_space_group_name_H-M "I 21 21 21"
_symmetry_group_IT_number 24
_symmetry_cell_setting 'orthorhombic'
loop_
_space_group_symop_operation_xyz
x,y,z
-x,1/2-y,z
x,-y,1/2-z
1/2-x,y,-z
1/2+x,1/2+y,1/2+z
1/2-x,-y,1/2+z
1/2+x,1/2-y,-z
-x,1/2+y,1/2-z
loop_
_atom_site_type_symbol
_atom_site_label
_atom_site_fract_x
_atom_site_fract_y
_atom_site_fract_z
Si Si1 0.563906 0.921182 0.297839
Si Si2 0.400184 0.681528 0.109672
Si Si3 0.250000 0.806663 0.716870
Si Si4 0.750000 0.520656 0.388295
Si Si5 0.563906 0.921182 0.702161
Si Si6 0.599816 0.818470 0.890328
Si Si7 0.750000 0.082806 0.943434
O O1 0.500000 0.750000 0.320225
O O2 0.657546 0.821559 0.278023
O O3 0.513741 0.000000 0.250000
O O4 0.585331 0.085270 0.337653
O O5 0.500000 0.750000 0.090845
O O6 0.340431 0.523106 0.079557
O O7 0.337920 0.877129 0.111033
O O8 0.249999 0.868269 0.661751
O O9 0.342454 0.678441 0.721977
O O10 0.250000 0.000000 0.750000
O O11 0.837921 0.377131 0.388966
O O12 0.750000 0.687210 0.428831
O O13 0.500000 0.750000 0.679775
O O14 0.513741 0.000000 0.750000
O O15 0.585330 0.085270 0.662347
O O16 0.500000 0.750000 0.909156
O O17 0.659570 0.976891 0.920443
O O18 0.750000 0.055769 0.000000
#
# Coordination Sequence:
#
# PCOD9336563 Si02
#       7
#     8   8   8   8   8   8   8
#     4  12  23  39  61 100 142 180 225 270 327 400
#     4  11  24  43  71 100 138 178 226 280 338 403
#     4  12  21  36  62  90 136 185 227 269 331 396
#     4  11  22  44  65  98 135 176 224 288 332 394
#     4  12  23  39  61 100 142 180 225 270 327 400
#     4  11  24  43  71 100 138 178 226 280 338 403
#     4  11  26  48  71 100 134 175 226 288 348 399
#
# _framework density 20.542275
#
# number of rings (size 3 to 8) (size 9 to 14) (size 15 to 20)
#    0.000    0.571    2.857    6.429    0.000    2.857 
#    0.000    1.429    0.000    0.000    0.000    0.000 
#    0.000    0.000    0.000    0.000    0.000    0.000 
#
# Total GULP energy -156619.601916 kJ/mol
# GULP energy per Si atom -5593.557211 kJ/mol
# Density = 2.049552 g / cm^3
# Si number density = 20.542275 Si / 1000 Ang^3
#
#
#
# Elastic Constant Matrix: (Units=GPa)
#
#
# Indices 1 2 3 4 5 6 
#
# 1 137.4040 56.6198 17.4954 0.0000 0.0000 0.0000
# 2 56.6198 126.9731 41.1680 0.0000 0.0000 0.0000
# 3 17.4954 41.1680 121.5016 0.0000 0.0000 0.0000
# 4 0.0000 0.0000 0.0000 25.9760 0.0000 0.0000
# 5 0.0000 0.0000 0.0000 0.0000 9.3051 0.0000
# 6 0.0000 0.0000 0.0000 0.0000 0.0000 -6.7563
#
#
#
# Elastic Compliance Matrix: (Units=1/GPa)
#
#
# Indices 1 2 3 4 5 6 
#
# 1 0.008917 -0.003999 0.000071 0.000000 0.000000 0.000000
# 2 -0.003999 0.010641 -0.003030 0.000000 0.000000 0.000000
# 3 0.000071 -0.003030 0.009247 0.000000 0.000000 0.000000
# 4 0.000000 0.000000 0.000000 0.038497 0.000000 0.000000
# 5 0.000000 0.000000 0.000000 0.000000 0.107468 0.000000
# 6 0.000000 0.000000 0.000000 0.000000 0.000000 -0.148010
#
#
# Mechanical properties :
#
#
# Convention : Reuss Voigt Hill
#
# Bulk Modulus (GPa) = 67.16339 68.49388 67.82864
# Shear Modulus (GPa) = 109.55744 23.74467 66.65105
#
# Velocity S-wave (km/s) = 7.31084 3.40353 5.70230
# Velocity P-wave (km/s) = 10.19955 6.99004 8.74332
#
# Compressibility (1/GPa) = 0.01488906
#
# Stress axis : x y z
#
# Youngs Moduli (GPa) = 112.14925 93.97353 108.14727
#
# Poissons Ratio (x) = 0.37582 -0.00769
# Poissons Ratio (y) = 0.44850 0.32765
# Poissons Ratio (z) = -0.00797 0.28471
#
# Static dielectric constant tensor:
#      x y z
#    x 1.838960 0.000000 0.000000 
#    y 0.000000 1.799820 0.000000 
#    z 0.000000 0.000000 1.694230 
# 
# From -- ./inp_files/3980.got.cif
#   From: 2010.05.17/outbox.cif.g08.bks.cpg/sg24_2_cif.got.tgz:3980.got - 2010.06.04 00:33:39.
