data_PCOD9336936
_publ_section_title
;
Structure prediction by ZEFSAII (Michael W. Deem and Ramdas Pophale) SiO2 
 PCOD9336936
Probable space group: I 21 21 21
;
_chemical_formula_sum "Si O2"
_cell_formula_units_Z 20
_cell_length_a 8.022869
_cell_length_b 5.010400
_cell_length_c 22.991359
_cell_angle_alpha 90.000000
_cell_angle_beta 90.000000
_cell_angle_gamma 90.000000
_cell_volume 924.201656
_symmetry_space_group_name_H-M "I 21 21 21"
_symmetry_group_IT_number 24
_symmetry_cell_setting 'orthorhombic'
loop_
_space_group_symop_operation_xyz
x,y,z
-x,1/2-y,z
x,-y,1/2-z
1/2-x,y,-z
1/2+x,1/2+y,1/2+z
1/2-x,-y,1/2+z
1/2+x,1/2-y,-z
-x,1/2+y,1/2-z
loop_
_atom_site_type_symbol
_atom_site_label
_atom_site_fract_x
_atom_site_fract_y
_atom_site_fract_z
Si Si1 0.309905 0.153315 0.434841
Si Si2 0.117162 0.500000 0.750000
Si Si3 0.811492 0.150696 0.133811
O O1 0.500000 0.250000 0.435274
O O2 0.250000 0.094702 0.500000
O O3 0.201546 0.392331 0.407312
O O4 0.289514 0.891085 0.395943
O O5 0.229773 0.576917 0.695152
O O6 0.000000 0.750000 0.765401
O O7 0.000000 0.250000 0.140585
#
# Coordination Sequence:
#
# PCOD9336936 Si02
#       3
#     8   4   8
#     4  12  25  45  70 100 136 177 221 273 332 397
#     4  12  26  46  70  98 134 178 224 274 332 396
#     4  12  26  45  69 101 135 175 223 276 332 394
#
# _framework density 21.640298000000001
#
# number of rings (size 3 to 8) (size 9 to 14) (size 15 to 20)
#    0.000    0.000    0.000   12.000    0.000    4.800 
#    0.000    0.000    0.000    0.000    0.000    0.000 
#    0.000    0.000    0.000    0.000    0.000    0.000 
#
# Total GULP energy -56125.408796 kJ/mol
# GULP energy per Si atom -5612.540880 kJ/mol
# Density = 2.159104 g / cm^3
# Si number density = 21.640298 Si / 1000 Ang^3
#
#
#
# Elastic Constant Matrix: (Units=GPa)
#
#
# Indices 1 2 3 4 5 6 
#
# 1 128.8790 33.2112 80.1137 0.0000 0.0000 0.0000
# 2 33.2112 142.4731 71.7419 0.0000 0.0000 0.0000
# 3 80.1137 71.7419 188.8827 0.0000 0.0000 0.0000
# 4 0.0000 0.0000 0.0000 109.8895 0.0000 0.0000
# 5 0.0000 0.0000 0.0000 0.0000 10.7077 0.0000
# 6 0.0000 0.0000 0.0000 0.0000 0.0000 41.7168
#
#
#
# Elastic Compliance Matrix: (Units=1/GPa)
#
#
# Indices 1 2 3 4 5 6 
#
# 1 0.010545 -0.000255 -0.004376 0.000000 0.000000 0.000000
# 2 -0.000255 0.008685 -0.003191 0.000000 0.000000 0.000000
# 3 -0.004376 -0.003191 0.008362 0.000000 0.000000 0.000000
# 4 0.000000 0.000000 0.000000 0.009100 0.000000 0.000000
# 5 0.000000 0.000000 0.000000 0.000000 0.093391 0.000000
# 6 0.000000 0.000000 0.000000 0.000000 0.000000 0.023971
#
#
# Mechanical properties :
#
#
# Convention : Reuss Voigt Hill
#
# Bulk Modulus (GPa) = 83.68470 92.26314 87.97392
# Shear Modulus (GPa) = 28.78863 50.80735 39.79799
#
# Velocity S-wave (km/s) = 3.65132 4.85068 4.29309
# Velocity P-wave (km/s) = 7.51870 8.60811 8.08178
#
# Compressibility (1/GPa) = 0.01194962
#
# Stress axis : x y z
#
# Youngs Moduli (GPa) = 94.83206 115.14238 119.58571
#
# Poissons Ratio (x) = 0.02932 0.52329
# Poissons Ratio (y) = 0.02415 0.38156
# Poissons Ratio (z) = 0.41497 0.36739
#
# Static dielectric constant tensor:
#      x y z
#    x 1.699010 0.000000 0.000000 
#    y 0.000000 1.758330 0.000000 
#    z 0.000000 0.000000 1.740230 
# 
# From -- ./inp_files/594.got.cif
#   From: 2010.05.17/outbox.cif.g08.bks.cpg/sg24_1_cif.got.tgz:594.got - 2010.06.04 00:33:39.
