data_PCOD9336743
_publ_section_title
;
Structure prediction by ZEFSAII (Michael W. Deem and Ramdas Pophale) SiO2 
 PCOD9336743
Probable space group: I 21 21 21
;
_chemical_formula_sum "Si O2"
_cell_formula_units_Z 20
_cell_length_a 5.296295
_cell_length_b 28.907387
_cell_length_c 5.346861
_cell_angle_alpha 90.000000
_cell_angle_beta 90.000000
_cell_angle_gamma 90.000000
_cell_volume 818.615376
_symmetry_space_group_name_H-M "I 21 21 21"
_symmetry_group_IT_number 24
_symmetry_cell_setting 'orthorhombic'
loop_
_space_group_symop_operation_xyz
x,y,z
-x,1/2-y,z
x,-y,1/2-z
1/2-x,y,-z
1/2+x,1/2+y,1/2+z
1/2-x,-y,1/2+z
1/2+x,1/2-y,-z
-x,1/2+y,1/2-z
loop_
_atom_site_type_symbol
_atom_site_label
_atom_site_fract_x
_atom_site_fract_y
_atom_site_fract_z
Si Si1 0.250000 0.280364 0.500000
Si Si2 0.994452 0.051969 0.843478
Si Si3 0.410922 0.848372 0.240402
O O1 0.500000 0.250000 0.565617
O O2 0.348229 0.314527 0.278743
O O3 0.021707 0.097941 0.680782
O O4 0.953667 0.000000 0.750000
O O5 0.250000 0.049013 0.000000
O O6 0.750000 0.063560 0.000000
O O7 0.250000 0.845966 0.500000
O O8 0.250000 0.834430 0.000000
#
# Coordination Sequence:
#
# PCOD9336743 Si02
#       3
#     4   8   8
#     4  12  28  56  84 122 160 218 278 348 412 484
#     4  11  25  43  75 115 160 208 259 318 393 479
#     4  11  28  53  83 117 164 210 270 335 405 485
#
# _framework density 24.4315
#
# number of rings (size 3 to 8) (size 9 to 14) (size 15 to 20)
#    0.000    0.800    2.000    2.400   14.000    0.000 
#    7.200    0.000    0.000    0.000    0.000    0.000 
#    0.000    0.000    0.000    0.000    0.000    0.000 
#
# Total GULP energy -55816.289756 kJ/mol
# GULP energy per Si atom -5581.628976 kJ/mol
# Density = 2.437589 g / cm^3
# Si number density = 24.431500 Si / 1000 Ang^3
#
#
#
# Elastic Constant Matrix: (Units=GPa)
#
#
# Indices 1 2 3 4 5 6 
#
# 1 135.0423 37.0155 47.1045 0.0004 -0.0002 -0.0014
# 2 37.0155 202.5550 34.7153 -0.0030 0.0000 0.0001
# 3 47.1045 34.7153 101.8591 -0.0089 0.0006 0.0052
# 4 0.0004 -0.0030 -0.0089 -41.9110 -0.0009 -0.0134
# 5 -0.0002 0.0000 0.0006 -0.0009 48.7095 0.0007
# 6 -0.0014 0.0001 0.0052 -0.0134 0.0007 166.3903
#
#
#
# Elastic Compliance Matrix: (Units=1/GPa)
#
#
# Indices 1 2 3 4 5 6 
#
# 1 0.009013 -0.000991 -0.003830 0.000001 0.000000 0.000000
# 2 -0.000991 0.005352 -0.001366 0.000000 0.000000 0.000000
# 3 -0.003830 -0.001366 0.012054 -0.000002 0.000000 0.000000
# 4 0.000001 0.000000 -0.000002 -0.023860 0.000000 -0.000002
# 5 0.000000 0.000000 0.000000 0.000000 0.020530 0.000000
# 6 0.000000 0.000000 0.000000 -0.000002 0.000000 0.006010
#
#
# Mechanical properties :
#
#
# Convention : Reuss Voigt Hill
#
# Bulk Modulus (GPa) = 71.19763 75.23631 73.21697
# Shear Modulus (GPa) = 108.33234 56.01249 82.17242
#
# Velocity S-wave (km/s) = 6.66615 4.79334 5.80576
# Velocity P-wave (km/s) = 9.40505 7.84197 8.65885
#
# Compressibility (1/GPa) = 0.01404541
#
# Stress axis : x y z
#
# Youngs Moduli (GPa) = 110.95515 186.84395 82.95763
#
# Poissons Ratio (x) = 0.18508 0.31775
# Poissons Ratio (y) = 0.10991 0.11332
# Poissons Ratio (z) = 0.42499 0.25523
#
# Static dielectric constant tensor:
#      x y z
#    x 2.238580 0.000000 0.000010 
#    y 0.000000 2.052470 0.000000 
#    z 0.000010 0.000000 1.862880 
# 
# From -- ./inp_files/323.got.cif
#   From: 2010.05.17/outbox.cif.g08.bks.cpg/sg24_1_cif.got.tgz:323.got - 2010.06.04 00:33:39.
