data_PCOD9336919
_publ_section_title
;
Structure prediction by ZEFSAII (Michael W. Deem and Ramdas Pophale) SiO2 
 PCOD9336919
Probable space group: I 21 21 21
;
_chemical_formula_sum "Si O2"
_cell_formula_units_Z 40
_cell_length_a 5.751172
_cell_length_b 17.222116
_cell_length_c 17.438558
_cell_angle_alpha 90.000000
_cell_angle_beta 90.000000
_cell_angle_gamma 90.000000
_cell_volume 1727.242981
_symmetry_space_group_name_H-M "I 21 21 21"
_symmetry_group_IT_number 24
_symmetry_cell_setting 'orthorhombic'
loop_
_space_group_symop_operation_xyz
x,y,z
-x,1/2-y,z
x,-y,1/2-z
1/2-x,y,-z
1/2+x,1/2+y,1/2+z
1/2-x,-y,1/2+z
1/2+x,1/2-y,-z
-x,1/2+y,1/2-z
loop_
_atom_site_type_symbol
_atom_site_label
_atom_site_fract_x
_atom_site_fract_y
_atom_site_fract_z
Si Si1 0.500000 0.750000 0.387088
Si Si2 0.208823 0.500000 0.750000
Si Si3 0.823335 0.383760 0.790675
Si Si4 0.244747 0.207567 0.649251
Si Si5 0.983987 0.510633 0.396972
Si Si6 0.750000 0.383789 0.500000
Si Si7 0.750000 0.132510 0.000000
O O1 0.333554 0.802805 0.335654
O O2 0.626297 0.811960 0.439862
O O3 0.340496 0.487361 0.670147
O O4 0.064893 0.421756 0.765813
O O5 0.703311 0.360717 0.711063
O O6 0.718540 0.448968 0.846677
O O7 0.500000 0.250000 0.640951
O O8 0.166331 0.170955 0.568404
O O9 0.000000 0.250000 0.675626
O O10 0.080605 0.577867 0.451908
O O11 0.921773 0.441221 0.454218
#
# Coordination Sequence:
#
# PCOD9336919 Si02
#       7
#     4   4   8   8   8   4   4
#     4  12  24  46  72 108 154 196 260 326 400 482
#     4  12  26  52  76 116 154 210 270 328 418 506
#     4  12  27  49  76 114 153 208 267 331 403 494
#     4  12  30  52  83 118 160 218 275 339 412 489
#     4  12  28  48  78 114 154 208 264 341 412 491
#     4  12  28  51  77 114 164 204 276 342 412 489
#     4  12  26  45  77 112 154 198 262 332 416 479
#
# _framework density 23.158293
#
# number of rings (size 3 to 8) (size 9 to 14) (size 15 to 20)
#    0.000    0.000    3.000    6.000   11.200    0.000 
#    0.000    0.000    0.000    0.000    0.000    0.000 
#    0.000    0.000    0.000    0.000    0.000    0.000 
#
# Total GULP energy -111747.365911 kJ/mol
# GULP energy per Si atom -5587.368296 kJ/mol
# Density = 2.310558 g / cm^3
# Si number density = 23.158293 Si / 1000 Ang^3
#
#
#
# Elastic Constant Matrix: (Units=GPa)
#
#
# Indices 1 2 3 4 5 6 
#
# 1 79.4203 50.7703 37.1120 0.0000 0.0000 0.0000
# 2 50.7703 96.0599 44.2685 0.0000 0.0000 0.0000
# 3 37.1120 44.2685 156.6129 0.0000 0.0000 0.0000
# 4 0.0000 0.0000 0.0000 89.2640 0.0000 0.0000
# 5 0.0000 0.0000 0.0000 0.0000 12.8596 0.0000
# 6 0.0000 0.0000 0.0000 0.0000 0.0000 73.9935
#
#
#
# Elastic Compliance Matrix: (Units=1/GPa)
#
#
# Indices 1 2 3 4 5 6 
#
# 1 0.019529 -0.009415 -0.001966 0.000000 0.000000 0.000000
# 2 -0.009415 0.016509 -0.002435 0.000000 0.000000 0.000000
# 3 -0.001966 -0.002435 0.007539 0.000000 0.000000 0.000000
# 4 0.000000 0.000000 0.000000 0.011203 0.000000 0.000000
# 5 0.000000 0.000000 0.000000 0.000000 0.077763 0.000000
# 6 0.000000 0.000000 0.000000 0.000000 0.000000 0.013515
#
#
# Mechanical properties :
#
#
# Convention : Reuss Voigt Hill
#
# Bulk Modulus (GPa) = 62.72275 66.26609 64.49442
# Shear Modulus (GPa) = 27.93202 48.55291 38.24247
#
# Velocity S-wave (km/s) = 3.47671 4.58380 4.06809
# Velocity P-wave (km/s) = 6.57722 7.52937 7.06935
#
# Compressibility (1/GPa) = 0.01594318
#
# Stress axis : x y z
#
# Youngs Moduli (GPa) = 51.20595 60.57396 132.63511
#
# Poissons Ratio (x) = 0.57033 0.26081
# Poissons Ratio (y) = 0.48213 0.32300
# Poissons Ratio (z) = 0.10069 0.14751
#
# Static dielectric constant tensor:
#      x y z
#    x 1.924650 0.000000 0.000000 
#    y 0.000000 1.862140 0.000000 
#    z 0.000000 0.000000 1.837720 
# 
# From -- ./inp_files/28661.got.cif
#   From: 2010.05.17/outbox.cif.g08.bks.cpg/sg24_15_cif.got.tgz:28661.got - 2010.06.04 00:33:39.
