data_PCOD9336761
_publ_section_title
;
Structure prediction by ZEFSAII (Michael W. Deem and Ramdas Pophale) SiO2 
 PCOD9336761
Probable space group: I 21 21 21
;
_chemical_formula_sum "Si O2"
_cell_formula_units_Z 40
_cell_length_a 8.983576
_cell_length_b 13.576530
_cell_length_c 14.564107
_cell_angle_alpha 90.000000
_cell_angle_beta 90.000000
_cell_angle_gamma 90.000000
_cell_volume 1776.322802
_symmetry_space_group_name_H-M "I 21 21 21"
_symmetry_group_IT_number 24
_symmetry_cell_setting 'orthorhombic'
loop_
_space_group_symop_operation_xyz
x,y,z
-x,1/2-y,z
x,-y,1/2-z
1/2-x,y,-z
1/2+x,1/2+y,1/2+z
1/2-x,-y,1/2+z
1/2+x,1/2-y,-z
-x,1/2+y,1/2-z
loop_
_atom_site_type_symbol
_atom_site_label
_atom_site_fract_x
_atom_site_fract_y
_atom_site_fract_z
Si Si1 0.651417 0.304733 0.924412
Si Si2 0.675782 0.738667 0.268262
Si Si3 0.719298 0.045486 0.149848
Si Si4 0.005241 0.502712 0.482402
Si Si5 0.846465 0.696158 0.081234
O O1 0.500000 0.250000 0.894701
O O2 0.755871 0.337440 0.840936
O O3 0.591547 0.399663 0.976579
O O4 0.750000 0.246481 0.000000
O O5 0.500000 0.750000 0.259700
O O6 0.724338 0.839144 0.321729
O O7 0.747400 0.708993 0.171874
O O8 0.869181 0.012787 0.097326
O O9 0.701806 0.000000 0.250000
O O10 0.589817 0.008688 0.080451
O O11 0.902811 0.409057 0.458319
O O12 0.000000 0.750000 0.101298
O O13 0.750000 0.744741 0.000000
#
# Coordination Sequence:
#
# PCOD9336761 Si02
#       5
#     8   8   8   8   8
#     4  12  23  43  73 109 152 193 252 322 391 468
#     4  12  27  48  77 113 151 204 258 323 393 473
#     4  11  25  46  79 110 155 200 260 317 398 469
#     4  11  26  47  76 116 151 204 257 327 396 476
#     4  12  29  49  76 110 157 204 258 318 393 481
#
# _framework density 22.518429000000001
#
# number of rings (size 3 to 8) (size 9 to 14) (size 15 to 20)
#    0.000    0.400    2.000    6.000   11.200    0.000 
#    0.000    0.000    0.000    0.000    0.000    0.000 
#    0.000    0.000    0.000    0.000    0.000    0.000 
#
# Total GULP energy -111697.442464 kJ/mol
# GULP energy per Si atom -5584.872123 kJ/mol
# Density = 2.246718 g / cm^3
# Si number density = 22.518429 Si / 1000 Ang^3
#
#
#
# Elastic Constant Matrix: (Units=GPa)
#
#
# Indices 1 2 3 4 5 6 
#
# 1 187.7519 8.7668 89.6268 0.0000 0.0000 0.0000
# 2 8.7668 33.5434 5.9126 0.0000 0.0000 0.0000
# 3 89.6268 5.9126 232.1106 0.0000 0.0000 0.0000
# 4 0.0000 0.0000 0.0000 35.3777 0.0000 0.0000
# 5 0.0000 0.0000 0.0000 0.0000 47.8909 0.0000
# 6 0.0000 0.0000 0.0000 0.0000 0.0000 6.4394
#
#
#
# Elastic Compliance Matrix: (Units=1/GPa)
#
#
# Indices 1 2 3 4 5 6 
#
# 1 0.006584 -0.001278 -0.002510 0.000000 0.000000 0.000000
# 2 -0.001278 0.030195 -0.000276 0.000000 0.000000 0.000000
# 3 -0.002510 -0.000276 0.005284 0.000000 0.000000 0.000000
# 4 0.000000 0.000000 0.000000 0.028266 0.000000 0.000000
# 5 0.000000 0.000000 0.000000 0.000000 0.020881 0.000000
# 6 0.000000 0.000000 0.000000 0.000000 0.000000 0.155294
#
#
# Mechanical properties :
#
#
# Convention : Reuss Voigt Hill
#
# Bulk Modulus (GPa) = 29.46733 73.55759 51.51246
# Shear Modulus (GPa) = 18.80098 41.21489 30.00794
#
# Velocity S-wave (km/s) = 2.89262 4.28281 3.65443
# Velocity P-wave (km/s) = 4.92652 7.56261 6.38215
#
# Compressibility (1/GPa) = 0.03393589
#
# Stress axis : x y z
#
# Youngs Moduli (GPa) = 151.88461 33.11825 189.23553
#
# Poissons Ratio (x) = 0.04234 0.47493
# Poissons Ratio (y) = 0.19416 0.05214
# Poissons Ratio (z) = 0.38119 0.00913
#
# Static dielectric constant tensor:
#      x y z
#    x 1.857950 0.000000 0.000000 
#    y 0.000000 1.994940 0.000000 
#    z 0.000000 0.000000 1.988550 
# 
# From -- ./inp_files/24534.got.cif
#   From: 2010.05.17/outbox.cif.g08.bks.cpg/sg24_13_cif.got.tgz:24534.got - 2010.06.04 00:33:39.
