data_PCOD9336585
_publ_section_title
;
Structure prediction by ZEFSAII (Michael W. Deem and Ramdas Pophale) SiO2 
 PCOD9336585
Probable space group: I 21 21 21
;
_chemical_formula_sum "Si O2"
_cell_formula_units_Z 64
_cell_length_a 11.664545
_cell_length_b 18.472869
_cell_length_c 14.450279
_cell_angle_alpha 90.000000
_cell_angle_beta 90.000000
_cell_angle_gamma 90.000000
_cell_volume 3113.711608
_symmetry_space_group_name_H-M "I 21 21 21"
_symmetry_group_IT_number 24
_symmetry_cell_setting 'orthorhombic'
loop_
_space_group_symop_operation_xyz
x,y,z
-x,1/2-y,z
x,-y,1/2-z
1/2-x,y,-z
1/2+x,1/2+y,1/2+z
1/2-x,-y,1/2+z
1/2+x,1/2-y,-z
-x,1/2+y,1/2-z
loop_
_atom_site_type_symbol
_atom_site_label
_atom_site_fract_x
_atom_site_fract_y
_atom_site_fract_z
Si Si1 0.825171 0.181542 0.371810
Si Si2 0.237574 0.054703 0.336965
Si Si3 0.133450 0.731785 0.453965
Si Si4 0.945159 0.078593 0.240504
Si Si5 0.851505 0.689414 0.260068
Si Si6 0.923116 0.817901 0.925824
Si Si7 0.635747 0.938142 0.544073
Si Si8 0.068001 0.956009 0.988506
O O1 0.883052 0.109887 0.330068
O O2 0.868813 0.251400 0.318089
O O3 0.865795 0.195759 0.474839
O O4 0.688267 0.173107 0.361666
O O5 0.240630 0.133396 0.285251
O O6 0.132844 0.059413 0.413044
O O7 0.339353 0.030723 0.406966
O O8 0.234686 0.000000 0.250000
O O9 0.250000 0.763065 0.500000
O O10 0.158099 0.759361 0.349632
O O11 0.132722 0.646752 0.478678
O O12 0.000000 0.750000 0.475672
O O13 0.859933 0.065718 0.155319
O O14 0.042390 0.136624 0.216640
O O15 0.998997 0.000000 0.250000
O O16 0.000000 0.750000 0.897026
O O17 0.999483 0.887746 0.947009
O O18 0.750000 0.971836 0.500000
O O19 0.522977 0.980368 0.509967
#
# Coordination Sequence:
#
# PCOD9336585 Si02
#       8
#     8   8   8   8   8   8   8   8
#     4  11  23  38  66  94 129 173 221 287 344 417
#     4  11  25  45  70 105 134 186 241 288 352 418
#     4  11  24  44  68 101 137 186 243 298 367 427
#     4  12  23  39  68 101 127 174 237 280 340 413
#     4  12  21  43  70  97 133 177 235 294 338 426
#     4  11  23  40  61  97 131 174 222 276 361 419
#     4  11  24  43  67  98 139 181 228 289 353 426
#     4  11  25  45  70  99 145 181 230 297 352 425
#
# _framework density 20.554247
#
# number of rings (size 3 to 8) (size 9 to 14) (size 15 to 20)
#    0.000    0.750    2.500    6.000    3.500    3.000 
#    2.250    1.875    0.000    0.000    0.000    0.000 
#    0.000    0.000    0.000    0.000    0.000    0.000 
#
# Total GULP energy -178279.883091 kJ/mol
# GULP energy per Si atom -5571.246347 kJ/mol
# Density = 2.050747 g / cm^3
# Si number density = 20.554247 Si / 1000 Ang^3
#
#
#
# Elastic Constant Matrix: (Units=GPa)
#
#
# Indices 1 2 3 4 5 6 
#
# 1 103.4259 23.8417 30.5612 0.0000 0.0000 0.0001
# 2 23.8417 97.6601 11.9515 0.0000 0.0000 0.0001
# 3 30.5612 11.9515 58.0198 0.0000 0.0000 0.0001
# 4 0.0000 0.0000 0.0000 6.0893 0.0000 0.0000
# 5 0.0000 0.0000 0.0000 0.0000 24.3880 0.0000
# 6 0.0001 0.0001 0.0001 0.0000 0.0000 -84.8417
#
#
#
# Elastic Compliance Matrix: (Units=1/GPa)
#
#
# Indices 1 2 3 4 5 6 
#
# 1 0.011891 -0.002192 -0.005812 0.000000 0.000000 0.000000
# 2 -0.002192 0.010908 -0.001093 0.000000 0.000000 0.000000
# 3 -0.005812 -0.001093 0.020522 0.000000 0.000000 0.000000
# 4 0.000000 0.000000 0.000000 0.164224 0.000000 0.000000
# 5 0.000000 0.000000 0.000000 0.000000 0.041004 0.000000
# 6 0.000000 0.000000 0.000000 0.000000 0.000000 -0.011787
#
#
# Mechanical properties :
#
#
# Convention : Reuss Voigt Hill
#
# Bulk Modulus (GPa) = 39.79481 43.53495 41.66488
# Shear Modulus (GPa) = 18.98744 1.97722 10.48233
#
# Velocity S-wave (km/s) = 3.04266 0.98186 2.26073
# Velocity P-wave (km/s) = 5.63441 4.74467 5.20857
#
# Compressibility (1/GPa) = 0.02512890
#
# Stress axis : x y z
#
# Youngs Moduli (GPa) = 84.09413 91.67269 48.72810
#
# Poissons Ratio (x) = 0.20093 0.28322
# Poissons Ratio (y) = 0.18431 0.05324
# Poissons Ratio (z) = 0.48877 0.10015
#
# Static dielectric constant tensor:
#      x y z
#    x 1.836330 0.000000 0.000000 
#    y 0.000000 1.759030 0.000000 
#    z 0.000000 0.000000 1.964970 
# 
# From -- ./inp_files/26006.got.cif
#   From: 2010.05.17/outbox.cif.g08.bks.cpg/sg24_14_cif.got.tgz:26006.got - 2010.06.04 00:33:39.
