data_PCOD9336530
_publ_section_title
;
Structure prediction by ZEFSAII (Michael W. Deem and Ramdas Pophale) SiO2 
 PCOD9336530
Probable space group: I 21 21 21
;
_chemical_formula_sum "Si O2"
_cell_formula_units_Z 64
_cell_length_a 17.646936
_cell_length_b 14.168265
_cell_length_c 12.009436
_cell_angle_alpha 90.000000
_cell_angle_beta 90.000000
_cell_angle_gamma 90.000000
_cell_volume 3002.676838
_symmetry_space_group_name_H-M "I 21 21 21"
_symmetry_group_IT_number 24
_symmetry_cell_setting 'orthorhombic'
loop_
_space_group_symop_operation_xyz
x,y,z
-x,1/2-y,z
x,-y,1/2-z
1/2-x,y,-z
1/2+x,1/2+y,1/2+z
1/2-x,-y,1/2+z
1/2+x,1/2-y,-z
-x,1/2+y,1/2-z
loop_
_atom_site_type_symbol
_atom_site_label
_atom_site_fract_x
_atom_site_fract_y
_atom_site_fract_z
Si Si1 0.311337 0.788245 0.351565
Si Si2 0.172481 0.466507 0.435023
Si Si3 0.968566 0.647036 0.719046
Si Si4 0.736866 0.516617 0.629115
Si Si5 0.181770 0.347448 0.218635
Si Si6 0.928733 0.501305 0.368335
Si Si7 0.413614 0.780261 0.568222
Si Si8 0.020904 0.530722 0.926333
O O1 0.378358 0.835571 0.278655
O O2 0.250856 0.870667 0.377247
O O3 0.263830 0.703252 0.297273
O O4 0.357256 0.760199 0.464057
O O5 0.250000 0.452837 0.500000
O O6 0.165387 0.384354 0.342500
O O7 0.177070 0.563190 0.364344
O O8 0.105300 0.473314 0.525363
O O9 0.000000 0.750000 0.695178
O O10 0.004372 0.607384 0.832266
O O11 0.992772 0.568589 0.627780
O O12 0.777221 0.500000 0.750000
O O13 0.750000 0.486375 0.500000
O O14 0.656206 0.465721 0.648408
O O15 0.118958 0.275148 0.173894
O O16 0.970386 0.500000 0.250000
O O17 0.916531 0.608639 0.407258
O O18 0.970855 0.448777 0.465475
O O19 0.500000 0.750000 0.547556
#
# Coordination Sequence:
#
# PCOD9336530 Si02
#       8
#     8   8   8   8   8   8   8   8
#     4  12  23  43  71 105 138 178 245 304 361 443
#     4  11  27  47  70  99 143 193 241 308 379 438
#     4  11  27  45  75 110 140 194 242 316 371 436
#     4  11  22  40  65  96 136 178 225 280 359 437
#     4  11  26  44  72 104 137 188 244 312 364 445
#     4  11  24  42  65  99 139 182 224 291 362 442
#     4  12  23  40  68 104 133 179 243 297 362 427
#     4  11  26  48  73 105 149 187 255 301 377 453
#
# _framework density 21.314314
#
# number of rings (size 3 to 8) (size 9 to 14) (size 15 to 20)
#    0.000    0.750    3.750    2.250   12.250    1.000 
#    2.250    0.625    0.000    0.000    0.000    0.000 
#    0.000    0.000    0.000    0.000    0.000    0.000 
#
# Total GULP energy -178513.547207 kJ/mol
# GULP energy per Si atom -5578.548350 kJ/mol
# Density = 2.126580 g / cm^3
# Si number density = 21.314314 Si / 1000 Ang^3
#
#
#
# Elastic Constant Matrix: (Units=GPa)
#
#
# Indices 1 2 3 4 5 6 
#
# 1 118.0739 19.7070 31.2699 0.0000 0.0000 0.0000
# 2 19.7070 45.6563 9.4269 0.0000 0.0000 0.0000
# 3 31.2699 9.4269 146.4984 0.0000 0.0000 0.0000
# 4 0.0000 0.0000 0.0000 26.8897 0.0000 0.0000
# 5 0.0000 0.0000 0.0000 0.0000 3.1661 0.0000
# 6 0.0000 0.0000 0.0000 0.0000 0.0000 31.3471
#
#
#
# Elastic Compliance Matrix: (Units=1/GPa)
#
#
# Indices 1 2 3 4 5 6 
#
# 1 0.009574 -0.003761 -0.001802 0.000000 0.000000 0.000000
# 2 -0.003761 0.023675 -0.000721 0.000000 0.000000 0.000000
# 3 -0.001802 -0.000721 0.007257 0.000000 0.000000 0.000000
# 4 0.000000 0.000000 0.000000 0.037189 0.000000 0.000000
# 5 0.000000 0.000000 0.000000 0.000000 0.315846 0.000000
# 6 0.000000 0.000000 0.000000 0.000000 0.000000 0.031901
#
#
# Mechanical properties :
#
#
# Convention : Reuss Voigt Hill
#
# Bulk Modulus (GPa) = 35.79093 47.89292 41.84193
# Shear Modulus (GPa) = 11.17765 28.93555 20.05660
#
# Velocity S-wave (km/s) = 2.29251 3.68851 3.07089
# Velocity P-wave (km/s) = 4.88220 6.37642 5.67867
#
# Compressibility (1/GPa) = 0.02794004
#
# Stress axis : x y z
#
# Youngs Moduli (GPa) = 104.44910 42.23897 137.79912
#
# Poissons Ratio (x) = 0.15884 0.24826
# Poissons Ratio (y) = 0.39279 0.09932
# Poissons Ratio (z) = 0.18817 0.03044
#
# Static dielectric constant tensor:
#      x y z
#    x 1.954100 0.000000 0.000000 
#    y 0.000000 1.786770 0.000000 
#    z 0.000000 0.000000 1.781110 
# 
# From -- ./inp_files/21710.got.cif
#   From: 2010.05.17/outbox.cif.g08.bks.cpg/sg24_11_cif.got.tgz:21710.got - 2010.06.04 00:33:39.
