data_PCOD9336324
_publ_section_title
;
Structure prediction by ZEFSAII (Michael W. Deem and Ramdas Pophale) SiO2 
 PCOD9336324
Probable space group: I 21 21 21
;
_chemical_formula_sum "Si O2"
_cell_formula_units_Z 32
_cell_length_a 5.307899
_cell_length_b 18.433823
_cell_length_c 13.573353
_cell_angle_alpha 90.000000
_cell_angle_beta 90.000000
_cell_angle_gamma 90.000000
_cell_volume 1328.082969
_symmetry_space_group_name_H-M "I 21 21 21"
_symmetry_group_IT_number 24
_symmetry_cell_setting 'orthorhombic'
loop_
_space_group_symop_operation_xyz
x,y,z
-x,1/2-y,z
x,-y,1/2-z
1/2-x,y,-z
1/2+x,1/2+y,1/2+z
1/2-x,-y,1/2+z
1/2+x,1/2-y,-z
-x,1/2+y,1/2-z
loop_
_atom_site_type_symbol
_atom_site_label
_atom_site_fract_x
_atom_site_fract_y
_atom_site_fract_z
Si Si1 0.006160 0.833220 0.300650
Si Si2 0.491050 0.036561 0.937546
Si Si3 0.645853 0.676320 0.108814
Si Si4 0.820027 0.063996 0.691166
O O1 0.096411 0.889604 0.382788
O O2 0.158873 0.833411 0.197892
O O3 0.000000 0.750000 0.334115
O O4 0.746316 0.872198 0.267966
O O5 0.582168 0.977227 0.857119
O O6 0.250000 0.012915 0.000000
O O7 0.750000 0.049355 0.000000
O O8 0.500000 0.750000 0.132206
O O9 0.469028 0.606127 0.108358
O O10 0.750000 0.685900 0.000000
O O11 0.960567 0.000000 0.750000
#
# Coordination Sequence:
#
# PCOD9336324 Si02
#       4
#     8   8   8   8
#     4  11  25  48  75 107 150 202 252 318 377 455
#     4  11  29  49  77 115 154 202 259 313 382 453
#     4  12  27  45  75 112 152 202 258 314 387 458
#     4  10  26  48  71 106 151 198 249 315 384 449
#
# _framework density 24.094878000000001
#
# number of rings (size 3 to 8) (size 9 to 14) (size 15 to 20)
#    0.000    1.000    2.500    0.750   14.000    2.000 
#    0.000    0.000    0.000    0.000    0.000    0.000 
#    0.000    0.000    0.000    0.000    0.000    0.000 
#
# Total GULP energy -89519.926025 kJ/mol
# GULP energy per Si atom -5594.995377 kJ/mol
# Density = 2.404004 g / cm^3
# Si number density = 24.094878 Si / 1000 Ang^3
#
#
#
# Elastic Constant Matrix: (Units=GPa)
#
#
# Indices 1 2 3 4 5 6 
#
# 1 54.5958 35.6163 16.4502 0.0000 0.0000 0.0000
# 2 35.6163 212.5543 30.0402 0.0000 0.0000 0.0000
# 3 16.4502 30.0402 70.9895 -0.0002 0.0001 0.0000
# 4 0.0000 0.0000 -0.0002 46.8146 0.0000 0.0000
# 5 0.0000 0.0000 0.0001 0.0000 33.1811 0.0000
# 6 0.0000 0.0000 0.0000 0.0000 0.0000 28.9485
#
#
#
# Elastic Compliance Matrix: (Units=1/GPa)
#
#
# Indices 1 2 3 4 5 6 
#
# 1 0.021425 -0.003072 -0.003665 0.000000 0.000000 0.000000
# 2 -0.003072 0.005444 -0.001592 0.000000 0.000000 0.000000
# 3 -0.003665 -0.001592 0.015609 0.000000 0.000000 0.000000
# 4 0.000000 0.000000 0.000000 0.021361 0.000000 0.000000
# 5 0.000000 0.000000 0.000000 0.000000 0.030138 0.000000
# 6 0.000000 0.000000 0.000000 0.000000 0.000000 0.034544
#
#
# Mechanical properties :
#
#
# Convention : Reuss Voigt Hill
#
# Bulk Modulus (GPa) = 38.72801 55.81701 47.27251
# Shear Modulus (GPa) = 32.51273 38.85770 35.68522
#
# Velocity S-wave (km/s) = 3.67735 4.02019 3.85259
# Velocity P-wave (km/s) = 5.84282 6.69067 6.28107
#
# Compressibility (1/GPa) = 0.02582111
#
# Stress axis : x y z
#
# Youngs Moduli (GPa) = 46.67497 183.67346 64.06363
#
# Poissons Ratio (x) = 0.56426 0.23477
# Poissons Ratio (y) = 0.14339 0.10199
# Poissons Ratio (z) = 0.17105 0.29241
#
# Static dielectric constant tensor:
#      x y z
#    x 1.996290 0.000000 0.000000 
#    y 0.000000 1.905590 0.000000 
#    z 0.000000 0.000000 1.945910 
# 
# From -- ./inp_files/3065.got.cif
#   From: 2010.05.17/outbox.cif.g08.bks.cpg/sg24_2_cif.got.tgz:3065.got - 2010.06.04 00:33:39.
