data_PCOD9336007
_publ_section_title
;
Structure prediction by ZEFSAII (Michael W. Deem and Ramdas Pophale) SiO2 
 PCOD9336007
Probable space group: I 21 21 21
;
_chemical_formula_sum "Si O2"
_cell_formula_units_Z 64
_cell_length_a 27.868910
_cell_length_b 11.710569
_cell_length_c 8.611930
_cell_angle_alpha 90.000000
_cell_angle_beta 90.000000
_cell_angle_gamma 90.000000
_cell_volume 2810.596308
_symmetry_space_group_name_H-M "I 21 21 21"
_symmetry_group_IT_number 24
_symmetry_cell_setting 'orthorhombic'
loop_
_space_group_symop_operation_xyz
x,y,z
-x,1/2-y,z
x,-y,1/2-z
1/2-x,y,-z
1/2+x,1/2+y,1/2+z
1/2-x,-y,1/2+z
1/2+x,1/2-y,-z
-x,1/2+y,1/2-z
loop_
_atom_site_type_symbol
_atom_site_label
_atom_site_fract_x
_atom_site_fract_y
_atom_site_fract_z
Si Si1 0.194215 0.279016 0.871442
Si Si2 0.126498 0.932532 0.617683
Si Si3 0.876018 0.361080 0.387977
Si Si4 0.944346 0.241890 0.172568
Si Si5 0.233748 0.873119 0.183710
Si Si6 0.357328 0.567808 0.605253
Si Si7 0.374014 0.358516 0.385858
Si Si8 0.947513 0.261172 0.804708
O O1 0.157950 0.176870 0.920787
O O2 0.240627 0.215166 0.802325
O O3 0.172956 0.343037 0.719450
O O4 0.184586 0.363499 0.015152
O O5 0.080911 0.880117 0.710668
O O6 0.155096 0.000000 0.750000
O O7 0.118431 0.020496 0.480198
O O8 0.916679 0.341597 0.261394
O O9 0.823247 0.354965 0.316590
O O10 0.878733 0.252830 0.504431
O O11 0.903823 0.138775 0.172449
O O12 0.000000 0.250000 0.232557
O O13 0.949614 0.255909 0.989490
O O14 0.241547 0.000000 0.250000
O O15 0.250000 0.863848 0.000000
O O16 0.335833 0.500000 0.750000
O O17 0.375514 0.472860 0.483405
O O18 0.416787 0.341414 0.264209
O O19 0.000000 0.250000 0.735788
#
# Coordination Sequence:
#
# PCOD9336007 Si02
#       8
#     8   8   8   8   8   8   8   8
#     4  11  23  46  76 109 152 196 258 315 386 462
#     4  11  20  43  70 106 155 193 240 320 381 459
#     4  12  25  45  75 113 154 199 246 313 399 458
#     4  11  26  50  68 107 156 196 257 319 382 449
#     4  12  26  45  77 121 158 197 251 321 402 477
#     4  12  25  49  77 105 153 209 257 320 380 460
#     4  11  22  45  79 100 147 203 251 314 374 459
#     4  10  23  45  67 107 151 201 262 307 376 454
#
# _framework density 22.770969000000001
#
# number of rings (size 3 to 8) (size 9 to 14) (size 15 to 20)
#    0.000    0.750    7.500    1.500    1.750    1.500 
#    9.000    0.000    8.250    0.000    0.000    0.000 
#    0.000    0.000    0.000    0.000    0.000    0.000 
#
# Total GULP energy -178575.903740 kJ/mol
# GULP energy per Si atom -5580.496992 kJ/mol
# Density = 2.271914 g / cm^3
# Si number density = 22.770969 Si / 1000 Ang^3
#
#
#
# Elastic Constant Matrix: (Units=GPa)
#
#
# Indices 1 2 3 4 5 6 
#
# 1 152.4084 35.4070 54.0075 0.0000 0.0000 0.0000
# 2 35.4070 115.3672 71.8328 0.0000 0.0000 0.0000
# 3 54.0075 71.8328 127.0190 0.0000 0.0000 0.0000
# 4 0.0000 0.0000 0.0000 68.0547 0.0000 0.0000
# 5 0.0000 0.0000 0.0000 0.0000 36.8516 0.0000
# 6 0.0000 0.0000 0.0000 0.0000 0.0000 8.2036
#
#
#
# Elastic Compliance Matrix: (Units=1/GPa)
#
#
# Indices 1 2 3 4 5 6 
#
# 1 0.007744 -0.000504 -0.003008 0.000000 0.000000 0.000000
# 2 -0.000504 0.013412 -0.007370 0.000000 0.000000 0.000000
# 3 -0.003008 -0.007370 0.013320 0.000000 0.000000 0.000000
# 4 0.000000 0.000000 0.000000 0.014694 0.000000 0.000000
# 5 0.000000 0.000000 0.000000 0.000000 0.027136 0.000000
# 6 0.000000 0.000000 0.000000 0.000000 0.000000 0.121898
#
#
# Mechanical properties :
#
#
# Convention : Reuss Voigt Hill
#
# Bulk Modulus (GPa) = 78.66871 79.69880 79.18376
# Shear Modulus (GPa) = 22.30094 38.19181 30.24637
#
# Velocity S-wave (km/s) = 3.13287 4.09982 3.64852
# Velocity P-wave (km/s) = 6.90719 7.58206 7.25248
#
# Compressibility (1/GPa) = 0.01271153
#
# Stress axis : x y z
#
# Youngs Moduli (GPa) = 129.12824 74.56098 75.07540
#
# Poissons Ratio (x) = 0.03758 0.22581
# Poissons Ratio (y) = 0.06508 0.55334
# Poissons Ratio (z) = 0.38839 0.54955
#
# Static dielectric constant tensor:
#      x y z
#    x 1.914800 0.000000 0.000000 
#    y 0.000000 1.532410 0.000000 
#    z 0.000000 0.000000 1.905100 
# 
# From -- ./inp_files/16992.got.cif
#   From: 2010.05.17/outbox.cif.g08.bks.cpg/sg24_9_cif.got.tgz:16992.got - 2010.06.04 00:33:39.
