data_PCOD9336537
_publ_section_title
;
Structure prediction by ZEFSAII (Michael W. Deem and Ramdas Pophale) SiO2 
 PCOD9336537
Probable space group: I 21 21 21
;
_chemical_formula_sum "Si O2"
_cell_formula_units_Z 48
_cell_length_a 19.882954
_cell_length_b 15.203660
_cell_length_c 7.889627
_cell_angle_alpha 90.000000
_cell_angle_beta 90.000000
_cell_angle_gamma 90.000000
_cell_volume 2384.984320
_symmetry_space_group_name_H-M "I 21 21 21"
_symmetry_group_IT_number 24
_symmetry_cell_setting 'orthorhombic'
loop_
_space_group_symop_operation_xyz
x,y,z
-x,1/2-y,z
x,-y,1/2-z
1/2-x,y,-z
1/2+x,1/2+y,1/2+z
1/2-x,-y,1/2+z
1/2+x,1/2-y,-z
-x,1/2+y,1/2-z
loop_
_atom_site_type_symbol
_atom_site_label
_atom_site_fract_x
_atom_site_fract_y
_atom_site_fract_z
Si Si1 0.500000 0.250000 0.731439
Si Si2 0.934145 0.701799 0.729972
Si Si3 0.750000 0.264901 0.500000
Si Si4 0.114187 0.672780 0.996096
Si Si5 0.419308 0.901653 0.594675
Si Si6 0.997035 0.050272 0.572216
Si Si7 0.731491 0.401662 0.802531
O O1 0.564177 0.220994 0.624098
O O2 0.473931 0.164137 0.828017
O O3 0.901002 0.641926 0.588188
O O4 0.000000 0.750000 0.657054
O O5 0.961832 0.638154 0.878242
O O6 0.892608 0.779944 0.812880
O O7 0.688992 0.198911 0.544046
O O8 0.756952 0.330977 0.662806
O O9 0.077973 0.577945 0.985128
O O10 0.350448 0.903910 0.699442
O O11 0.457648 0.992444 0.553010
O O12 0.990848 0.000000 0.750000
O O13 0.755513 0.500000 0.750000
O O14 0.750000 0.384655 0.000000
#
# Coordination Sequence:
#
# PCOD9336537 Si02
#       7
#     4   8   4   8   8   8   8
#     4  12  22  36  64  96 128 162 214 274 326 392
#     4   9  17  36  60  88 122 160 208 259 317 386
#     4  12  26  46  68  88 138 188 218 272 340 416
#     4  11  22  41  64  91 123 170 218 259 332 396
#     4  11  23  37  64  95 128 160 214 277 328 386
#     4   9  20  37  66  95 120 163 214 280 327 380
#     4  12  27  43  62  95 136 177 218 263 335 417
#
# _framework density 20.125917999999999
#
# number of rings (size 3 to 8) (size 9 to 14) (size 15 to 20)
#    0.000    1.333    5.833    1.000    4.667    2.000 
#    0.000    0.000    3.667    0.000    0.000    0.000 
#    0.000    0.000    0.000    0.000    0.000    0.000 
#
# Total GULP energy -133808.362856 kJ/mol
# GULP energy per Si atom -5575.348452 kJ/mol
# Density = 2.008011 g / cm^3
# Si number density = 20.125918 Si / 1000 Ang^3
#
#
#
# Elastic Constant Matrix: (Units=GPa)
#
#
# Indices 1 2 3 4 5 6 
#
# 1 96.8344 24.2052 17.9499 0.0000 0.0000 0.0000
# 2 24.2052 64.8992 14.4546 0.0000 0.0000 0.0000
# 3 17.9499 14.4546 72.7077 0.0000 0.0000 0.0000
# 4 0.0000 0.0000 0.0000 35.0358 0.0000 0.0000
# 5 0.0000 0.0000 0.0000 0.0000 26.6546 0.0000
# 6 0.0000 0.0000 0.0000 0.0000 0.0000 30.7558
#
#
#
# Elastic Compliance Matrix: (Units=1/GPa)
#
#
# Indices 1 2 3 4 5 6 
#
# 1 0.011691 -0.003890 -0.002113 0.000000 0.000000 0.000000
# 2 -0.003890 0.017417 -0.002502 0.000000 0.000000 0.000000
# 3 -0.002113 -0.002502 0.014773 0.000000 0.000000 0.000000
# 4 0.000000 0.000000 0.000000 0.028542 0.000000 0.000000
# 5 0.000000 0.000000 0.000000 0.000000 0.037517 0.000000
# 6 0.000000 0.000000 0.000000 0.000000 0.000000 0.032514
#
#
# Mechanical properties :
#
#
# Convention : Reuss Voigt Hill
#
# Bulk Modulus (GPa) = 37.21550 38.62899 37.92224
# Shear Modulus (GPa) = 29.68766 30.34467 30.01617
#
# Velocity S-wave (km/s) = 3.84486 3.88718 3.86608
# Velocity P-wave (km/s) = 6.18402 6.27552 6.22994
#
# Compressibility (1/GPa) = 0.02687052
#
# Stress axis : x y z
#
# Youngs Moduli (GPa) = 85.53689 57.41669 67.69200
#
# Poissons Ratio (x) = 0.22333 0.14303
# Poissons Ratio (y) = 0.33271 0.16938
# Poissons Ratio (z) = 0.18073 0.14367
#
# Static dielectric constant tensor:
#      x y z
#    x 1.742310 0.000000 0.000000 
#    y 0.000000 1.788260 0.000000 
#    z 0.000000 0.000000 1.779140 
# 
# From -- ./inp_files/14223.got.cif
#   From: 2010.05.17/outbox.cif.g08.bks.cpg/sg24_8_cif.got.tgz:14223.got - 2010.06.04 00:33:39.
