data_PCOD9336434
_publ_section_title
;
Structure prediction by ZEFSAII (Michael W. Deem and Ramdas Pophale) SiO2 
 PCOD9336434
Probable space group: I 21 21 21
;
_chemical_formula_sum "Si O2"
_cell_formula_units_Z 56
_cell_length_a 8.634787
_cell_length_b 19.459315
_cell_length_c 15.114684
_cell_angle_alpha 90.000000
_cell_angle_beta 90.000000
_cell_angle_gamma 90.000000
_cell_volume 2539.675616
_symmetry_space_group_name_H-M "I 21 21 21"
_symmetry_group_IT_number 24
_symmetry_cell_setting 'orthorhombic'
loop_
_space_group_symop_operation_xyz
x,y,z
-x,1/2-y,z
x,-y,1/2-z
1/2-x,y,-z
1/2+x,1/2+y,1/2+z
1/2-x,-y,1/2+z
1/2+x,1/2-y,-z
-x,1/2+y,1/2-z
loop_
_atom_site_type_symbol
_atom_site_label
_atom_site_fract_x
_atom_site_fract_y
_atom_site_fract_z
Si Si1 0.066334 0.581893 0.518009
Si Si2 0.074023 0.825330 0.875475
Si Si3 0.638505 0.302396 0.736014
Si Si4 0.566701 0.076462 0.728692
Si Si5 0.425889 0.420499 0.224159
Si Si6 0.929494 0.919554 0.020214
Si Si7 0.136401 0.804483 0.421766
O O1 0.250000 0.596686 0.500000
O O2 0.034044 0.593503 0.622258
O O3 0.046042 0.500046 0.501568
O O4 0.949364 0.625560 0.457130
O O5 0.250502 0.813415 0.846173
O O6 0.000000 0.750000 0.884685
O O7 0.000400 0.868718 0.794227
O O8 0.038535 0.871078 0.961622
O O9 0.500000 0.250000 0.715274
O O10 0.550791 0.370331 0.768203
O O11 0.726190 0.289530 0.828420
O O12 0.740178 0.085473 0.763902
O O13 0.556954 0.089218 0.624491
O O14 0.517783 0.000000 0.750000
O O15 0.464839 0.500000 0.250000
O O16 0.750000 0.902832 0.000000
O O17 0.250000 0.785782 0.500000
O O18 0.000000 0.750000 0.415267
#
# Coordination Sequence:
#
# PCOD9336434 Si02
#       7
#     8   8   8   8   8   8   8
#     4  11  21  39  70 102 139 179 230 287 363 421
#     4  12  26  45  71 101 135 190 237 294 357 420
#     4  11  26  45  65  97 141 186 237 290 357 427
#     4  11  22  42  70  97 138 184 230 281 357 424
#     4  11  20  40  69 101 137 179 234 293 352 427
#     4  11  22  44  70 103 138 175 236 297 348 429
#     4  11  24  43  66 101 141 183 235 298 358 428
#
# _framework density 22.050060999999999
#
# number of rings (size 3 to 8) (size 9 to 14) (size 15 to 20)
#    0.000    0.857    2.857    6.429    0.000    6.286 
#    5.143    0.000    0.000    0.000    0.000    0.000 
#    0.000    0.000    0.000    0.000    0.000    0.000 
#
# Total GULP energy -156470.704180 kJ/mol
# GULP energy per Si atom -5588.239435 kJ/mol
# Density = 2.199987 g / cm^3
# Si number density = 22.050061 Si / 1000 Ang^3
#
#
#
# Elastic Constant Matrix: (Units=GPa)
#
#
# Indices 1 2 3 4 5 6 
#
# 1 16.4895 21.0392 -5.0375 0.0000 0.0000 0.0000
# 2 21.0392 61.1116 7.3414 0.0000 0.0000 0.0000
# 3 -5.0375 7.3414 127.9464 0.0000 0.0000 0.0000
# 4 0.0000 0.0000 0.0000 -9.3266 0.0000 0.0000
# 5 0.0000 0.0000 0.0000 0.0000 38.3157 0.0000
# 6 0.0000 0.0000 0.0000 0.0000 0.0000 24.6229
#
#
#
# Elastic Compliance Matrix: (Units=1/GPa)
#
#
# Indices 1 2 3 4 5 6 
#
# 1 0.113690 -0.039954 0.006769 0.000000 0.000000 0.000000
# 2 -0.039954 0.030518 -0.003324 0.000000 0.000000 0.000000
# 3 0.006769 -0.003324 0.008273 0.000000 0.000000 0.000000
# 4 0.000000 0.000000 0.000000 -0.107220 0.000000 0.000000
# 5 0.000000 0.000000 0.000000 0.000000 0.026099 0.000000
# 6 0.000000 0.000000 0.000000 0.000000 0.000000 0.040613
#
#
# Mechanical properties :
#
#
# Convention : Reuss Voigt Hill
#
# Bulk Modulus (GPa) = 12.58453 28.02596 20.30525
# Shear Modulus (GPa) = 23.64304 22.86935 23.25619
#
# Velocity S-wave (km/s) = 3.27807 3.22398 3.25114
# Velocity P-wave (km/s) = 4.47742 5.15718 4.82927
#
# Compressibility (1/GPa) = 0.07946261
#
# Stress axis : x y z
#
# Youngs Moduli (GPa) = 8.79584 32.76767 120.87510
#
# Poissons Ratio (x) = 1.30919 -0.81816
# Poissons Ratio (y) = 0.35143 0.40180
# Poissons Ratio (z) = -0.05954 0.10892
#
# Static dielectric constant tensor:
#      x y z
#    x 1.827750 0.000000 0.000000 
#    y 0.000000 1.809500 0.000000 
#    z 0.000000 0.000000 1.878170 
# 
# From -- ./inp_files/25075.got.cif
#   From: 2010.05.17/outbox.cif.g08.bks.cpg/sg24_13_cif.got.tgz:25075.got - 2010.06.04 00:33:39.
