data_PCOD9336909
_publ_section_title
;
Structure prediction by ZEFSAII (Michael W. Deem and Ramdas Pophale) SiO2 
 PCOD9336909
Probable space group: I 21 21 21
;
_chemical_formula_sum "Si O2"
_cell_formula_units_Z 40
_cell_length_a 4.841074
_cell_length_b 11.706826
_cell_length_c 25.577650
_cell_angle_alpha 90.000000
_cell_angle_beta 90.000000
_cell_angle_gamma 90.000000
_cell_volume 1449.577786
_symmetry_space_group_name_H-M "I 21 21 21"
_symmetry_group_IT_number 24
_symmetry_cell_setting 'orthorhombic'
loop_
_space_group_symop_operation_xyz
x,y,z
-x,1/2-y,z
x,-y,1/2-z
1/2-x,y,-z
1/2+x,1/2+y,1/2+z
1/2-x,-y,1/2+z
1/2+x,1/2-y,-z
-x,1/2+y,1/2-z
loop_
_atom_site_type_symbol
_atom_site_label
_atom_site_fract_x
_atom_site_fract_y
_atom_site_fract_z
Si Si1 0.500000 0.750000 0.143033
Si Si2 0.370751 0.370150 0.171070
Si Si3 0.859062 0.134775 0.446277
Si Si4 0.000000 0.750000 0.468237
Si Si5 0.839853 0.439817 0.110308
Si Si6 0.697092 0.634854 0.760164
O O1 0.671880 0.825956 0.102371
O O2 0.701006 0.676638 0.182407
O O3 0.500000 0.250000 0.152001
O O4 0.058129 0.396185 0.155016
O O5 0.513598 0.374757 0.227894
O O6 0.545720 0.455401 0.135912
O O7 0.750000 0.080103 0.500000
O O8 0.000000 0.250000 0.465978
O O9 0.071819 0.051288 0.419338
O O10 0.250000 0.695256 0.500000
O O11 0.851803 0.657610 0.432719
O O12 0.500000 0.750000 0.744455
O O13 0.586805 0.500000 0.750000
#
# Coordination Sequence:
#
# PCOD9336909 Si02
#       6
#     4   8   8   4   8   8
#     4  12  28  54  79 118 171 218 286 352 426 508
#     4  12  24  51  78 123 165 217 268 342 418 515
#     4  12  29  53  80 115 157 223 287 353 418 503
#     4  12  24  44  71 112 155 202 270 340 414 484
#     4  12  27  47  82 113 163 214 274 341 420 497
#     4  12  29  51  84 125 173 222 287 350 437 527
#
# _framework density 27.594238000000001
#
# number of rings (size 3 to 8) (size 9 to 14) (size 15 to 20)
#    0.000    0.000    4.000    4.800    8.400    1.600 
#    0.000    0.000    0.000    0.000    0.000    0.000 
#    0.000    0.000    0.000    0.000    0.000    0.000 
#
# Total GULP energy -111758.654035 kJ/mol
# GULP energy per Si atom -5587.932702 kJ/mol
# Density = 2.753143 g / cm^3
# Si number density = 27.594238 Si / 1000 Ang^3
#
#
#
# Elastic Constant Matrix: (Units=GPa)
#
#
# Indices 1 2 3 4 5 6 
#
# 1 89.3602 16.0242 27.0054 0.0000 0.0000 0.0000
# 2 16.0242 155.0024 33.2667 0.0000 0.0000 0.0000
# 3 27.0054 33.2667 169.9334 0.0000 0.0000 0.0000
# 4 0.0000 0.0000 0.0000 28.2660 0.0000 0.0000
# 5 0.0000 0.0000 0.0000 0.0000 89.3428 0.0000
# 6 0.0000 0.0000 0.0000 0.0000 0.0000 47.7987
#
#
#
# Elastic Compliance Matrix: (Units=1/GPa)
#
#
# Indices 1 2 3 4 5 6 
#
# 1 0.011864 -0.000858 -0.001717 0.000000 0.000000 0.000000
# 2 -0.000858 0.006796 -0.001194 0.000000 0.000000 0.000000
# 3 -0.001717 -0.001194 0.006391 0.000000 0.000000 0.000000
# 4 0.000000 0.000000 0.000000 0.035378 0.000000 0.000000
# 5 0.000000 0.000000 0.000000 0.000000 0.011193 0.000000
# 6 0.000000 0.000000 0.000000 0.000000 0.000000 0.020921
#
#
# Mechanical properties :
#
#
# Convention : Reuss Voigt Hill
#
# Bulk Modulus (GPa) = 57.10203 62.98762 60.04482
# Shear Modulus (GPa) = 47.20554 55.61481 51.41018
#
# Velocity S-wave (km/s) = 4.14055 4.49425 4.32102
# Velocity P-wave (km/s) = 6.60282 7.05740 6.83389
#
# Compressibility (1/GPa) = 0.01751251
#
# Stress axis : x y z
#
# Youngs Moduli (GPa) = 84.29213 147.13472 156.46128
#
# Poissons Ratio (x) = 0.12622 0.26870
# Poissons Ratio (y) = 0.07231 0.18684
# Poissons Ratio (z) = 0.14476 0.17570
#
# Static dielectric constant tensor:
#      x y z
#    x 2.148150 0.000000 0.000000 
#    y 0.000000 2.099680 0.000000 
#    z 0.000000 0.000000 2.204350 
# 
# From -- ./inp_files/36352.got.cif
#   From: 2010.05.17/outbox.cif.g08.bks.cpg/sg24_19_cif.got.tgz:36352.got - 2010.06.04 00:33:39.
