data_PCOD9336863
_publ_section_title
;
Structure prediction by ZEFSAII (Michael W. Deem and Ramdas Pophale) SiO2 
 PCOD9336863
Probable space group: I 21 21 21
;
_chemical_formula_sum "Si O2"
_cell_formula_units_Z 32
_cell_length_a 5.602038
_cell_length_b 12.280980
_cell_length_c 19.718983
_cell_angle_alpha 90.000000
_cell_angle_beta 90.000000
_cell_angle_gamma 90.000000
_cell_volume 1356.636780
_symmetry_space_group_name_H-M "I 21 21 21"
_symmetry_group_IT_number 24
_symmetry_cell_setting 'orthorhombic'
loop_
_space_group_symop_operation_xyz
x,y,z
-x,1/2-y,z
x,-y,1/2-z
1/2-x,y,-z
1/2+x,1/2+y,1/2+z
1/2-x,-y,1/2+z
1/2+x,1/2-y,-z
-x,1/2+y,1/2-z
loop_
_atom_site_type_symbol
_atom_site_label
_atom_site_fract_x
_atom_site_fract_y
_atom_site_fract_z
Si Si1 0.532070 0.000000 0.250000
Si Si2 0.129054 0.453234 0.370651
Si Si3 0.674511 0.660548 0.675114
Si Si4 0.500000 0.250000 0.059484
Si Si5 0.000000 0.750000 0.045013
Si Si6 0.750000 0.935250 0.500000
O O1 0.698930 0.944035 0.193383
O O2 0.374117 0.900578 0.279915
O O3 0.279931 0.491801 0.434888
O O4 0.966834 0.556447 0.352665
O O5 0.991242 0.351973 0.402810
O O6 0.500000 0.750000 0.709673
O O7 0.789063 0.726425 0.612581
O O8 0.464810 0.351571 0.010366
O O9 0.750000 0.751048 0.000000
#
# Coordination Sequence:
#
# PCOD9336863 Si02
#       6
#     4   8   8   4   4   4
#     4  12  28  56  80 122 170 220 278 352 430 524
#     4  12  28  54  81 119 166 227 281 351 420 519
#     4  12  25  51  81 121 163 215 275 352 436 506
#     4  12  24  44  78 122 162 200 268 350 422 500
#     4  12  32  58  88 126 174 236 294 354 424 516
#     4  12  22  46  82 116 160 208 272 354 420 494
#
# _framework density 23.587744000000001
#
# number of rings (size 3 to 8) (size 9 to 14) (size 15 to 20)
#    0.000    0.000    6.250    2.250    7.000    0.000 
#   22.500    0.000    0.000    0.000    0.000    0.000 
#    0.000    0.000    0.000    0.000    0.000    0.000 
#
# Total GULP energy -89338.264091 kJ/mol
# GULP energy per Si atom -5583.641506 kJ/mol
# Density = 2.353406 g / cm^3
# Si number density = 23.587744 Si / 1000 Ang^3
#
#
#
# Elastic Constant Matrix: (Units=GPa)
#
#
# Indices 1 2 3 4 5 6 
#
# 1 110.1049 45.1830 55.4732 0.0000 0.0000 0.0000
# 2 45.1830 146.1294 42.0574 0.0000 0.0000 0.0000
# 3 55.4732 42.0574 139.4335 0.0000 0.0000 0.0000
# 4 0.0000 0.0000 0.0000 -22.3455 0.0000 0.0000
# 5 0.0000 0.0000 0.0000 0.0000 31.5039 0.0000
# 6 0.0000 0.0000 0.0000 0.0000 0.0000 46.6276
#
#
#
# Elastic Compliance Matrix: (Units=1/GPa)
#
#
# Indices 1 2 3 4 5 6 
#
# 1 0.012200 -0.002601 -0.004069 0.000000 0.000000 0.000000
# 2 -0.002601 0.008048 -0.001393 0.000000 0.000000 0.000000
# 3 -0.004069 -0.001393 0.009211 0.000000 0.000000 0.000000
# 4 0.000000 0.000000 0.000000 -0.044752 0.000000 0.000000
# 5 0.000000 0.000000 0.000000 0.000000 0.031742 0.000000
# 6 0.000000 0.000000 0.000000 0.000000 0.000000 0.021447
#
#
# Mechanical properties :
#
#
# Convention : Reuss Voigt Hill
#
# Bulk Modulus (GPa) = 75.00134 75.67724 75.33929
# Shear Modulus (GPa) = 85.51997 28.02082 56.77040
#
# Velocity S-wave (km/s) = 6.02784 3.45039 4.91121
# Velocity P-wave (km/s) = 8.96171 6.93012 8.01058
#
# Compressibility (1/GPa) = 0.01333309
#
# Stress axis : x y z
#
# Youngs Moduli (GPa) = 81.96923 124.24913 108.56745
#
# Poissons Ratio (x) = 0.32317 0.44177
# Poissons Ratio (y) = 0.21320 0.15121
# Poissons Ratio (z) = 0.33354 0.17306
#
# Static dielectric constant tensor:
#      x y z
#    x 2.153210 0.000000 0.000000 
#    y 0.000000 1.916740 0.000000 
#    z 0.000000 0.000000 1.996960 
# 
# From -- ./inp_files/2079.got.cif
#   From: 2010.05.17/outbox.cif.g08.bks.cpg/sg24_2_cif.got.tgz:2079.got - 2010.06.04 00:33:39.
