data_PCOD9336576
_publ_section_title
;
Structure prediction by ZEFSAII (Michael W. Deem and Ramdas Pophale) SiO2 
 PCOD9336576
Probable space group: I 21 21 21
;
_chemical_formula_sum "Si O2"
_cell_formula_units_Z 32
_cell_length_a 9.034315
_cell_length_b 9.742291
_cell_length_c 14.133644
_cell_angle_alpha 90.000000
_cell_angle_beta 90.000000
_cell_angle_gamma 90.000000
_cell_volume 1243.971627
_symmetry_space_group_name_H-M "I 21 21 21"
_symmetry_group_IT_number 24
_symmetry_cell_setting 'orthorhombic'
loop_
_space_group_symop_operation_xyz
x,y,z
-x,1/2-y,z
x,-y,1/2-z
1/2-x,y,-z
1/2+x,1/2+y,1/2+z
1/2-x,-y,1/2+z
1/2+x,1/2-y,-z
-x,1/2+y,1/2-z
loop_
_atom_site_type_symbol
_atom_site_label
_atom_site_fract_x
_atom_site_fract_y
_atom_site_fract_z
Si Si1 0.500000 0.750000 0.695895
Si Si2 0.728995 0.149744 0.649417
Si Si3 0.750000 0.615036 0.000000
Si Si4 0.000000 0.750000 0.626178
Si Si5 0.005078 0.500000 0.750000
Si Si6 0.530453 0.057699 0.967314
O O1 0.627068 0.815054 0.760496
O O2 0.453397 0.865895 0.621607
O O3 0.742624 0.288774 0.591349
O O4 0.882138 0.082982 0.681471
O O5 0.645114 0.044428 0.580759
O O6 0.602870 0.527878 0.010767
O O7 0.932143 0.628943 0.693001
O O8 0.908268 0.838816 0.548223
#
# Coordination Sequence:
#
# PCOD9336576 Si02
#       6
#     4   8   4   4   4   8
#     4  11  22  46  75 108 144 200 269 296 376 477
#     4  12  24  46  77 109 151 208 250 317 389 462
#     4  12  26  38  76 110 154 184 260 322 378 440
#     4  11  30  48  73 108 156 192 263 314 408 443
#     4  12  28  50  78 108 156 204 252 328 390 468
#     4  11  25  47  71 109 151 202 258 317 377 468
#
# _framework density 25.724057999999999
#
# number of rings (size 3 to 8) (size 9 to 14) (size 15 to 20)
#    0.000    0.500    5.000    1.500    7.000    0.000 
#    0.000    0.000    0.000    0.000    0.000    0.000 
#    0.000    0.000    0.000    0.000    0.000    0.000 
#
# Total GULP energy -89541.520457 kJ/mol
# GULP energy per Si atom -5596.345029 kJ/mol
# Density = 2.566551 g / cm^3
# Si number density = 25.724058 Si / 1000 Ang^3
#
#
#
# Elastic Constant Matrix: (Units=GPa)
#
#
# Indices 1 2 3 4 5 6 
#
# 1 65.8586 44.3983 35.1849 0.0000 0.0000 0.0000
# 2 44.3983 168.4278 90.4881 0.0000 0.0000 0.0000
# 3 35.1849 90.4881 154.6081 0.0000 0.0000 0.0000
# 4 0.0000 0.0000 0.0000 -125.4801 0.0000 0.0000
# 5 0.0000 0.0000 0.0000 0.0000 -2.4923 0.0000
# 6 0.0000 0.0000 0.0000 0.0000 0.0000 38.5170
#
#
#
# Elastic Compliance Matrix: (Units=1/GPa)
#
#
# Indices 1 2 3 4 5 6 
#
# 1 0.018888 -0.003894 -0.002019 0.000000 0.000000 0.000000
# 2 -0.003894 0.009463 -0.004652 0.000000 0.000000 0.000000
# 3 -0.002019 -0.004652 0.009650 0.000000 0.000000 0.000000
# 4 0.000000 0.000000 0.000000 -0.007969 0.000000 0.000000
# 5 0.000000 0.000000 0.000000 0.000000 -0.401230 0.000000
# 6 0.000000 0.000000 0.000000 0.000000 0.000000 0.025963
#
#
# Mechanical properties :
#
#
# Convention : Reuss Voigt Hill
#
# Bulk Modulus (GPa) = 59.27641 81.00412 70.14026
# Shear Modulus (GPa) = -15.69956 -3.30289 -9.50122
#
# Velocity S-wave (km/s) = -2.47312 -1.13435 -1.92394
# Velocity P-wave (km/s) = 3.86499 5.46281 4.73183
#
# Compressibility (1/GPa) = 0.01687012
#
# Stress axis : x y z
#
# Youngs Moduli (GPa) = 52.94351 105.67161 103.62199
#
# Poissons Ratio (x) = 0.41149 0.20925
# Poissons Ratio (y) = 0.20617 0.48209
# Poissons Ratio (z) = 0.10691 0.49163
#
# Static dielectric constant tensor:
#      x y z
#    x 2.182530 0.000000 0.000000 
#    y 0.000000 2.070840 0.000000 
#    z 0.000000 0.000000 2.055700 
# 
# From -- ./inp_files/10341.got.cif
#   From: 2010.05.17/outbox.cif.g08.bks.cpg/sg24_6_cif.got.tgz:10341.got - 2010.06.04 00:33:39.
