data_PCOD9336121
_publ_section_title
;
Structure prediction by ZEFSAII (Michael W. Deem and Ramdas Pophale) SiO2 
 PCOD9336121
Probable space group: I 21 21 21
;
_chemical_formula_sum "Si O2"
_cell_formula_units_Z 40
_cell_length_a 18.119981
_cell_length_b 17.862243
_cell_length_c 5.236735
_cell_angle_alpha 90.000000
_cell_angle_beta 90.000000
_cell_angle_gamma 90.000000
_cell_volume 1694.939998
_symmetry_space_group_name_H-M "I 21 21 21"
_symmetry_group_IT_number 24
_symmetry_cell_setting 'orthorhombic'
loop_
_space_group_symop_operation_xyz
x,y,z
-x,1/2-y,z
x,-y,1/2-z
1/2-x,y,-z
1/2+x,1/2+y,1/2+z
1/2-x,-y,1/2+z
1/2+x,1/2-y,-z
-x,1/2+y,1/2-z
loop_
_atom_site_type_symbol
_atom_site_label
_atom_site_fract_x
_atom_site_fract_y
_atom_site_fract_z
Si Si1 0.250000 0.757903 0.000000
Si Si2 0.048624 0.500000 0.250000
Si Si3 0.500000 0.750000 0.963231
Si Si4 0.664171 0.928711 0.432263
Si Si5 0.871465 0.789451 0.366641
Si Si6 0.119561 0.839769 0.716705
Si Si7 0.553647 0.500000 0.250000
O O1 0.299601 0.706891 0.812488
O O2 0.193617 0.812367 0.853838
O O3 0.109318 0.562155 0.327312
O O4 0.997711 0.488735 0.498438
O O5 0.552995 0.799109 0.785294
O O6 0.449204 0.802025 0.137251
O O7 0.750000 0.933732 0.500000
O O8 0.642203 0.841889 0.383200
O O9 0.649388 0.000000 0.250000
O O10 0.876355 0.702299 0.447402
O O11 0.103252 0.926966 0.705578
#
# Coordination Sequence:
#
# PCOD9336121 Si02
#       7
#     4   4   4   8   8   8   4
#     4  10  24  48  72 108 142 196 248 322 378 468
#     4  12  28  47  73 108 156 198 248 316 380 456
#     4  10  24  42  78 106 140 200 246 306 380 462
#     4  12  26  46  71 109 150 203 252 311 376 457
#     4  11  25  46  75 106 150 192 256 307 388 453
#     4  11  25  48  74 108 143 194 249 313 384 457
#     4  12  30  49  77 112 154 196 254 322 390 454
#
# _framework density 23.599654000000001
#
# number of rings (size 3 to 8) (size 9 to 14) (size 15 to 20)
#    0.000    0.800    2.000    3.600   11.200    4.800 
#    5.400    0.000    0.000    0.000    0.000    0.000 
#    0.000    0.000    0.000    0.000    0.000    0.000 
#
# Total GULP energy -111761.812479 kJ/mol
# GULP energy per Si atom -5588.090624 kJ/mol
# Density = 2.354594 g / cm^3
# Si number density = 23.599654 Si / 1000 Ang^3
#
#
#
# Elastic Constant Matrix: (Units=GPa)
#
#
# Indices 1 2 3 4 5 6 
#
# 1 133.0360 34.8046 40.8902 0.0000 0.0000 0.0000
# 2 34.8046 129.5100 21.9003 0.0000 0.0000 0.0000
# 3 40.8902 21.9003 95.3136 0.0000 0.0000 0.0000
# 4 0.0000 0.0000 0.0000 25.9650 0.0000 0.0000
# 5 0.0000 0.0000 0.0000 0.0000 38.6517 0.0000
# 6 0.0000 0.0000 0.0000 0.0000 0.0000 -613.9849
#
#
#
# Elastic Compliance Matrix: (Units=1/GPa)
#
#
# Indices 1 2 3 4 5 6 
#
# 1 0.009066 -0.001851 -0.003464 0.000000 0.000000 0.000000
# 2 -0.001851 0.008411 -0.001139 0.000000 0.000000 0.000000
# 3 -0.003464 -0.001139 0.012239 0.000000 0.000000 0.000000
# 4 0.000000 0.000000 0.000000 0.038513 0.000000 0.000000
# 5 0.000000 0.000000 0.000000 0.000000 0.025872 0.000000
# 6 0.000000 0.000000 0.000000 0.000000 0.000000 -0.001629
#
#
# Mechanical properties :
#
#
# Convention : Reuss Voigt Hill
#
# Bulk Modulus (GPa) = 59.48954 61.44999 60.46977
# Shear Modulus (GPa) = 45.05197 -92.52268 -23.73535
#
# Velocity S-wave (km/s) = 4.37396 -6.26819 -3.17480
# Velocity P-wave (km/s) = 7.12539 5.12756 3.49852
#
# Compressibility (1/GPa) = 0.01680968
#
# Stress axis : x y z
#
# Youngs Moduli (GPa) = 110.30717 118.88782 81.70320
#
# Poissons Ratio (x) = 0.22000 0.28302
# Poissons Ratio (y) = 0.20413 0.09304
# Poissons Ratio (z) = 0.38210 0.13539
#
# Static dielectric constant tensor:
#      x y z
#    x 1.848700 0.000000 0.000000 
#    y 0.000000 2.074950 0.000000 
#    z 0.000000 0.000000 1.981710 
# 
# From -- ./inp_files/4564.got.cif
#   From: 2010.05.17/outbox.cif.g08.bks.cpg/sg24_3_cif.got.tgz:4564.got - 2010.06.04 00:33:39.
