data_PCOD9336370
_publ_section_title
;
Structure prediction by ZEFSAII (Michael W. Deem and Ramdas Pophale) SiO2 
 PCOD9336370
Probable space group: I 21 21 21
;
_chemical_formula_sum "Si O2"
_cell_formula_units_Z 64
_cell_length_a 9.542036
_cell_length_b 13.312252
_cell_length_c 31.272280
_cell_angle_alpha 90.000000
_cell_angle_beta 90.000000
_cell_angle_gamma 90.000000
_cell_volume 3972.392259
_symmetry_space_group_name_H-M "I 21 21 21"
_symmetry_group_IT_number 24
_symmetry_cell_setting 'orthorhombic'
loop_
_space_group_symop_operation_xyz
x,y,z
-x,1/2-y,z
x,-y,1/2-z
1/2-x,y,-z
1/2+x,1/2+y,1/2+z
1/2-x,-y,1/2+z
1/2+x,1/2-y,-z
-x,1/2+y,1/2-z
loop_
_atom_site_type_symbol
_atom_site_label
_atom_site_fract_x
_atom_site_fract_y
_atom_site_fract_z
Si Si1 0.520994 0.059951 0.686430
Si Si2 0.457449 0.940941 0.183499
Si Si3 0.210487 0.143838 0.366160
Si Si4 0.339639 0.867934 0.959735
Si Si5 0.774384 0.880050 0.864355
Si Si6 0.162619 0.376683 0.458298
Si Si7 0.081452 0.150440 0.775170
Si Si8 0.421682 0.147166 0.777430
O O1 0.446873 0.121298 0.648259
O O2 0.681943 0.065681 0.672320
O O3 0.480889 0.115994 0.730457
O O4 0.465604 0.946604 0.692550
O O5 0.304118 0.918886 0.165878
O O6 0.567191 0.905102 0.148145
O O7 0.468606 0.877880 0.227233
O O8 0.464734 0.057108 0.195718
O O9 0.229095 0.107358 0.414399
O O10 0.248582 0.260390 0.361359
O O11 0.499323 0.905403 0.961073
O O12 0.339875 0.745648 0.959561
O O13 0.250000 0.902084 0.000000
O O14 0.730303 0.907916 0.912872
O O15 0.250000 0.409791 0.500000
O O16 0.252092 0.157955 0.775494
O O17 0.000000 0.250000 0.788379
O O18 0.500000 0.250000 0.789784
#
# Coordination Sequence:
#
# PCOD9336370 Si02
#       8
#     8   8   8   8   8   8   8   8
#     4  11  21  36  53  75 103 131 181 216 248 299
#     4  11  23  36  52  75 104 136 177 212 255 305
#     4  11  18  35  51  73 105 141 174 212 248 299
#     4   9  18  29  47  68  99 139 170 203 252 303
#     4  11  22  31  53  78 101 142 174 211 250 303
#     4   9  18  31  43  69 104 133 170 208 248 301
#     4  11  23  39  53  72 106 135 169 219 263 303
#     4  11  23  37  56  74 100 137 170 218 265 300
#
# _framework density 16.111198000000002
#
# number of rings (size 3 to 8) (size 9 to 14) (size 15 to 20)
#    0.000    1.500    3.750    3.000    5.250    1.000 
#    0.000    0.000    0.000    0.000    0.000    0.000 
#    0.000    6.000    0.000    0.000    0.000    0.000 
#
# Total GULP energy -178453.157203 kJ/mol
# GULP energy per Si atom -5576.661163 kJ/mol
# Density = 1.607453 g / cm^3
# Si number density = 16.111198 Si / 1000 Ang^3
#
#
#
# Elastic Constant Matrix: (Units=GPa)
#
#
# Indices 1 2 3 4 5 6 
#
# 1 43.2654 14.5219 5.1559 0.0000 0.0000 0.0000
# 2 14.5219 74.6819 19.8633 0.0000 0.0000 0.0000
# 3 5.1559 19.8633 71.8976 0.0000 0.0000 0.0000
# 4 0.0000 0.0000 0.0000 9.2589 0.0000 0.0000
# 5 0.0000 0.0000 0.0000 0.0000 25.9918 0.0000
# 6 0.0000 0.0000 0.0000 0.0000 0.0000 22.9274
#
#
#
# Elastic Compliance Matrix: (Units=1/GPa)
#
#
# Indices 1 2 3 4 5 6 
#
# 1 0.024742 -0.004683 -0.000480 0.000000 0.000000 0.000000
# 2 -0.004683 0.015339 -0.003902 0.000000 0.000000 0.000000
# 3 -0.000480 -0.003902 0.015021 0.000000 0.000000 0.000000
# 4 0.000000 0.000000 0.000000 0.108004 0.000000 0.000000
# 5 0.000000 0.000000 0.000000 0.000000 0.038474 0.000000
# 6 0.000000 0.000000 0.000000 0.000000 0.000000 0.043616
#
#
# Mechanical properties :
#
#
# Convention : Reuss Voigt Hill
#
# Bulk Modulus (GPa) = 27.04832 29.88078 28.46455
# Shear Modulus (GPa) = 18.13891 21.65588 19.89739
#
# Velocity S-wave (km/s) = 3.35902 3.67024 3.51807
# Velocity P-wave (km/s) = 5.64526 6.04547 5.84879
#
# Compressibility (1/GPa) = 0.03697087
#
# Stress axis : x y z
#
# Youngs Moduli (GPa) = 40.41654 65.19520 66.57317
#
# Poissons Ratio (x) = 0.30533 0.03198
# Poissons Ratio (y) = 0.18929 0.25975
# Poissons Ratio (z) = 0.01942 0.25438
#
# Static dielectric constant tensor:
#      x y z
#    x 1.538400 0.000000 0.000000 
#    y 0.000000 1.523590 0.000000 
#    z 0.000000 0.000000 1.538060 
# 
# From -- ./inp_files/38462.got.cif
#   From: 2010.05.17/outbox.cif.g08.bks.cpg/sg24_20_cif.got.tgz:38462.got - 2010.06.04 00:33:39.
