data_PCOD9336907
_publ_section_title
;
Structure prediction by ZEFSAII (Michael W. Deem and Ramdas Pophale) SiO2 
 PCOD9336907
Probable space group: I 21 21 21
;
_chemical_formula_sum "Si O2"
_cell_formula_units_Z 32
_cell_length_a 11.480427
_cell_length_b 22.024550
_cell_length_c 4.746399
_cell_angle_alpha 90.000000
_cell_angle_beta 90.000000
_cell_angle_gamma 90.000000
_cell_volume 1200.132865
_symmetry_space_group_name_H-M "I 21 21 21"
_symmetry_group_IT_number 24
_symmetry_cell_setting 'orthorhombic'
loop_
_space_group_symop_operation_xyz
x,y,z
-x,1/2-y,z
x,-y,1/2-z
1/2-x,y,-z
1/2+x,1/2+y,1/2+z
1/2-x,-y,1/2+z
1/2+x,1/2-y,-z
-x,1/2+y,1/2-z
loop_
_atom_site_type_symbol
_atom_site_label
_atom_site_fract_x
_atom_site_fract_y
_atom_site_fract_z
Si Si1 0.750000 0.462464 0.000000
Si Si2 0.126344 0.759177 0.340064
Si Si3 0.585997 0.070313 0.166782
Si Si4 0.942281 0.610074 0.161191
Si Si5 0.750000 0.156989 0.500000
O O1 0.812055 0.500000 0.750000
O O2 0.661492 0.425666 0.809118
O O3 0.250000 0.766762 0.500000
O O4 0.098470 0.820713 0.176143
O O5 0.155070 0.702113 0.139605
O O6 0.000000 0.750000 0.496625
O O7 0.475782 0.094067 0.346168
O O8 0.687884 0.114136 0.274191
O O9 0.608539 0.000000 0.250000
O O10 0.552156 0.085081 0.846019
#
# Coordination Sequence:
#
# PCOD9336907 Si02
#       5
#     4   8   8   8   4
#     4  12  24  43  72 111 154 202 266 330 406 500
#     4  12  27  52  83 121 170 218 280 353 427 511
#     4  12  28  52  80 114 166 217 283 343 414 506
#     4  12  26  49  78 117 156 216 269 342 422 494
#     4  12  30  49  82 119 162 222 280 346 428 502
#
# _framework density 26.663709999999998
#
# number of rings (size 3 to 8) (size 9 to 14) (size 15 to 20)
#    0.000    0.000    3.750    6.000    3.500    4.000 
#    0.000    0.000    0.000    0.000    0.000    0.000 
#    0.000    0.000    0.000    0.000    0.000    0.000 
#
# Total GULP energy -89636.440295 kJ/mol
# GULP energy per Si atom -5602.277518 kJ/mol
# Density = 2.660302 g / cm^3
# Si number density = 26.663710 Si / 1000 Ang^3
#
#
#
# Elastic Constant Matrix: (Units=GPa)
#
#
# Indices 1 2 3 4 5 6 
#
# 1 189.6992 40.6713 11.6489 -0.0129 0.0064 0.0075
# 2 40.6713 202.5214 18.2765 0.0008 -0.0112 0.1422
# 3 11.6489 18.2765 72.8412 0.1109 -0.0618 0.5549
# 4 -0.0129 0.0008 0.1109 22.9944 -0.0361 0.1791
# 5 0.0064 -0.0112 -0.0618 -0.0361 51.4713 -0.1301
# 6 0.0075 0.1422 0.5549 0.1791 -0.1301 91.1346
#
#
#
# Elastic Compliance Matrix: (Units=1/GPa)
#
#
# Indices 1 2 3 4 5 6 
#
# 1 0.005536 -0.001056 -0.000620 0.000006 -0.000002 0.000005
# 2 -0.001056 0.005253 -0.001149 0.000005 0.000000 -0.000001
# 3 -0.000620 -0.001149 0.014117 -0.000068 0.000017 -0.000084
# 4 0.000006 0.000005 -0.000068 0.043490 0.000030 -0.000085
# 5 -0.000002 0.000000 0.000017 0.000030 0.019428 0.000028
# 6 0.000005 -0.000001 -0.000084 -0.000085 0.000028 0.010973
#
#
# Mechanical properties :
#
#
# Convention : Reuss Voigt Hill
#
# Bulk Modulus (GPa) = 51.93396 67.36169 59.64782
# Shear Modulus (GPa) = 45.09881 59.41773 52.25827
#
# Velocity S-wave (km/s) = 4.11712 4.72573 4.43188
# Velocity P-wave (km/s) = 6.49003 7.42260 6.97193
#
# Compressibility (1/GPa) = 0.01925522
#
# Stress axis : x y z
#
# Youngs Moduli (GPa) = 180.63712 190.34949 70.83733
#
# Poissons Ratio (x) = 0.20097 0.04395
# Poissons Ratio (y) = 0.19071 0.08141
# Poissons Ratio (z) = 0.11208 0.21877
#
# Static dielectric constant tensor:
#      x y z
#    x 2.250340 -0.000030 0.000210 
#    y -0.000030 2.079150 0.000100 
#    z 0.000210 0.000100 1.877060 
# 
# From -- ./inp_files/2026.got.cif
#   From: 2010.05.17/outbox.cif.g08.bks.cpg/sg24_2_cif.got.tgz:2026.got - 2010.06.04 00:33:39.
