data_PCOD9336839
_publ_section_title
;
Structure prediction by ZEFSAII (Michael W. Deem and Ramdas Pophale) SiO2 
 PCOD9336839
Probable space group: I 21 21 21
;
_chemical_formula_sum "Si O2"
_cell_formula_units_Z 28
_cell_length_a 7.399960
_cell_length_b 7.270486
_cell_length_c 19.213295
_cell_angle_alpha 90.000000
_cell_angle_beta 90.000000
_cell_angle_gamma 90.000000
_cell_volume 1033.700356
_symmetry_space_group_name_H-M "I 21 21 21"
_symmetry_group_IT_number 24
_symmetry_cell_setting 'orthorhombic'
loop_
_space_group_symop_operation_xyz
x,y,z
-x,1/2-y,z
x,-y,1/2-z
1/2-x,y,-z
1/2+x,1/2+y,1/2+z
1/2-x,-y,1/2+z
1/2+x,1/2-y,-z
-x,1/2+y,1/2-z
loop_
_atom_site_type_symbol
_atom_site_label
_atom_site_fract_x
_atom_site_fract_y
_atom_site_fract_z
Si Si1 0.723616 0.763742 0.199597
Si Si2 0.922462 0.952887 0.917885
Si Si3 0.000000 0.750000 0.467550
Si Si4 0.252361 0.130267 0.844535
O O1 0.500000 0.750000 0.205523
O O2 0.743844 0.897195 0.132919
O O3 0.775300 0.772832 0.280885
O O4 0.818339 0.572012 0.178659
O O5 0.000000 0.750000 0.937284
O O6 0.050444 0.068989 0.865604
O O7 0.936980 0.077833 0.985944
O O8 0.158202 0.807411 0.415420
#
# Coordination Sequence:
#
# PCOD9336839 Si02
#       4
#     8   8   4   8
#     4   8  17  40  75  93 127 183 244 292 322 417
#     4   9  21  42  69  97 140 184 237 286 351 420
#     4  12  22  38  72 108 154 178 216 306 378 422
#     4   9  19  38  70 101 138 181 237 286 348 426
#
# _framework density 27.087150999999999
#
# number of rings (size 3 to 8) (size 9 to 14) (size 15 to 20)
#    0.000    3.429    0.000    0.857    2.000    0.000 
#    0.000   11.429   37.714    0.000    0.000    0.000 
#    0.000    0.000    0.000    0.000    0.000    0.000 
#
# Total GULP energy -78012.845778 kJ/mol
# GULP energy per Si atom -5572.346127 kJ/mol
# Density = 2.702550 g / cm^3
# Si number density = 27.087151 Si / 1000 Ang^3
#
#
#
# Elastic Constant Matrix: (Units=GPa)
#
#
# Indices 1 2 3 4 5 6 
#
# 1 50.9835 25.5484 29.4983 0.0000 0.0000 0.0000
# 2 25.5484 206.9370 139.0916 0.0000 0.0000 0.0000
# 3 29.4983 139.0916 291.0495 0.0000 0.0000 0.0000
# 4 0.0000 0.0000 0.0000 59.5366 0.0000 0.0000
# 5 0.0000 0.0000 0.0000 0.0000 16.8797 0.0000
# 6 0.0000 0.0000 0.0000 0.0000 0.0000 13.3604
#
#
#
# Elastic Compliance Matrix: (Units=1/GPa)
#
#
# Indices 1 2 3 4 5 6 
#
# 1 0.021249 -0.001732 -0.001326 0.000000 0.000000 0.000000
# 2 -0.001732 0.007260 -0.003294 0.000000 0.000000 0.000000
# 3 -0.001326 -0.003294 0.005144 0.000000 0.000000 0.000000
# 4 0.000000 0.000000 0.000000 0.016796 0.000000 0.000000
# 5 0.000000 0.000000 0.000000 0.000000 0.059243 0.000000
# 6 0.000000 0.000000 0.000000 0.000000 0.000000 0.074848
#
#
# Mechanical properties :
#
#
# Convention : Reuss Voigt Hill
#
# Bulk Modulus (GPa) = 47.73331 104.13849 75.93590
# Shear Modulus (GPa) = 24.48230 41.61079 33.04654
#
# Velocity S-wave (km/s) = 3.00965 3.92367 3.49665
# Velocity P-wave (km/s) = 5.45323 7.68479 6.66310
#
# Compressibility (1/GPa) = 0.02094973
#
# Stress axis : x y z
#
# Youngs Moduli (GPa) = 47.06024 137.73336 194.38335
#
# Poissons Ratio (x) = 0.23860 0.25771
# Poissons Ratio (y) = 0.08152 0.64033
# Poissons Ratio (z) = 0.06239 0.45371
#
# Static dielectric constant tensor:
#      x y z
#    x 2.364010 0.000000 0.000000 
#    y 0.000000 2.341530 0.000000 
#    z 0.000000 0.000000 2.127280 
# 
# From -- ./inp_files/29149.got.cif
#   From: 2010.05.17/outbox.cif.g08.bks.cpg/sg24_15_cif.got.tgz:29149.got - 2010.06.04 00:33:39.
