data_PCOD9336787
_publ_section_title
;
Structure prediction by ZEFSAII (Michael W. Deem and Ramdas Pophale) SiO2 
 PCOD9336787
Probable space group: I 21 21 21
;
_chemical_formula_sum "Si O2"
_cell_formula_units_Z 40
_cell_length_a 10.313148
_cell_length_b 6.796695
_cell_length_c 25.450762
_cell_angle_alpha 90.000000
_cell_angle_beta 90.000000
_cell_angle_gamma 90.000000
_cell_volume 1783.979343
_symmetry_space_group_name_H-M "I 21 21 21"
_symmetry_group_IT_number 24
_symmetry_cell_setting 'orthorhombic'
loop_
_space_group_symop_operation_xyz
x,y,z
-x,1/2-y,z
x,-y,1/2-z
1/2-x,y,-z
1/2+x,1/2+y,1/2+z
1/2-x,-y,1/2+z
1/2+x,1/2-y,-z
-x,1/2+y,1/2-z
loop_
_atom_site_type_symbol
_atom_site_label
_atom_site_fract_x
_atom_site_fract_y
_atom_site_fract_z
Si Si1 0.877159 0.167893 0.217550
Si Si2 0.000000 0.750000 0.466061
Si Si3 0.204237 0.000000 0.750000
Si Si4 0.598089 0.935352 0.884593
Si Si5 0.877102 0.403333 0.529794
Si Si6 0.353175 0.189155 0.358594
O O1 0.784957 0.350117 0.213681
O O2 0.000000 0.250000 0.249913
O O3 0.806637 0.000000 0.250000
O O4 0.934345 0.064187 0.166794
O O5 0.914475 0.605178 0.501393
O O6 0.082382 0.594651 0.430823
O O7 0.145179 0.876303 0.797740
O O8 0.500000 0.750000 0.891503
O O9 0.740930 0.849423 0.871064
O O10 0.750000 0.318017 0.500000
O O11 0.836340 0.450710 0.590182
O O12 0.000000 0.250000 0.525861
O O13 0.500000 0.250000 0.366834
#
# Coordination Sequence:
#
# PCOD9336787 Si02
#       6
#     8   4   4   8   8   8
#     4  12  22  39  70 109 145 182 237 300 366 424
#     4  12  26  44  82 112 140 192 246 306 378 438
#     4  12  26  44  72 104 144 198 248 284 354 444
#     4  12  25  46  76 111 147 186 241 308 366 435
#     4  11  26  50  75 107 148 190 245 312 369 437
#     4  11  27  50  70 104 154 193 240 303 358 432
#
# _framework density 22.421785
#
# number of rings (size 3 to 8) (size 9 to 14) (size 15 to 20)
#    0.000    0.400    4.000    4.800    2.800    5.600 
#    1.800    0.000    0.000    0.000    0.000    0.000 
#    0.000    0.000    0.000    0.000    0.000    0.000 
#
# Total GULP energy -111390.106369 kJ/mol
# GULP energy per Si atom -5569.505318 kJ/mol
# Density = 2.237075 g / cm^3
# Si number density = 22.421785 Si / 1000 Ang^3
#
#
#
# Elastic Constant Matrix: (Units=GPa)
#
#
# Indices 1 2 3 4 5 6 
#
# 1 119.9729 46.2075 28.1114 0.0000 0.0000 0.0000
# 2 46.2075 127.7147 47.8170 0.0000 0.0000 0.0000
# 3 28.1114 47.8170 171.6713 0.0000 0.0000 0.0000
# 4 0.0000 0.0000 0.0000 35.1369 0.0000 0.0000
# 5 0.0000 0.0000 0.0000 0.0000 32.3926 0.0000
# 6 0.0000 0.0000 0.0000 0.0000 0.0000 11.2922
#
#
#
# Elastic Compliance Matrix: (Units=1/GPa)
#
#
# Indices 1 2 3 4 5 6 
#
# 1 0.009757 -0.003273 -0.000686 0.000000 0.000000 0.000000
# 2 -0.003273 0.009840 -0.002205 0.000000 0.000000 0.000000
# 3 -0.000686 -0.002205 0.006552 0.000000 0.000000 0.000000
# 4 0.000000 0.000000 0.000000 0.028460 0.000000 0.000000
# 5 0.000000 0.000000 0.000000 0.000000 0.030871 0.000000
# 6 0.000000 0.000000 0.000000 0.000000 0.000000 0.088557
#
#
# Mechanical properties :
#
#
# Convention : Reuss Voigt Hill
#
# Bulk Modulus (GPa) = 72.35842 73.73673 73.04758
# Shear Modulus (GPa) = 26.18206 35.57920 30.88063
#
# Velocity S-wave (km/s) = 3.42088 3.98780 3.71517
# Velocity P-wave (km/s) = 6.92422 7.35942 7.14513
#
# Compressibility (1/GPa) = 0.01382009
#
# Stress axis : x y z
#
# Youngs Moduli (GPa) = 102.49483 101.62973 152.63643
#
# Poissons Ratio (x) = 0.33265 0.10470
# Poissons Ratio (y) = 0.33548 0.33652
# Poissons Ratio (z) = 0.07031 0.22407
#
# Static dielectric constant tensor:
#      x y z
#    x 1.827560 0.000000 0.000000 
#    y 0.000000 1.853930 0.000000 
#    z 0.000000 0.000000 1.901550 
# 
# From -- ./inp_files/38521.got.cif
#   From: 2010.05.17/outbox.cif.g08.bks.cpg/sg24_20_cif.got.tgz:38521.got - 2010.06.04 00:33:39.
