data_PCOD9336329
_publ_section_title
;
Structure prediction by ZEFSAII (Michael W. Deem and Ramdas Pophale) SiO2 
 PCOD9336329
Probable space group: I 21 21 21
;
_chemical_formula_sum "Si O2"
_cell_formula_units_Z 40
_cell_length_a 12.122665
_cell_length_b 5.311339
_cell_length_c 25.449121
_cell_angle_alpha 90.000000
_cell_angle_beta 90.000000
_cell_angle_gamma 90.000000
_cell_volume 1638.607401
_symmetry_space_group_name_H-M "I 21 21 21"
_symmetry_group_IT_number 24
_symmetry_cell_setting 'orthorhombic'
loop_
_space_group_symop_operation_xyz
x,y,z
-x,1/2-y,z
x,-y,1/2-z
1/2-x,y,-z
1/2+x,1/2+y,1/2+z
1/2-x,-y,1/2+z
1/2+x,1/2-y,-z
-x,1/2+y,1/2-z
loop_
_atom_site_type_symbol
_atom_site_label
_atom_site_fract_x
_atom_site_fract_y
_atom_site_fract_z
Si Si1 0.558042 0.500000 0.750000
Si Si2 0.207405 0.030964 0.157789
Si Si3 0.617787 0.834302 0.203152
Si Si4 0.750000 0.796940 0.500000
Si Si5 0.118228 0.624306 0.596267
Si Si6 0.568070 0.506948 0.937450
O O1 0.500000 0.750000 0.773490
O O2 0.625459 0.629691 0.702090
O O3 0.292371 0.870289 0.191062
O O4 0.287864 0.204430 0.123560
O O5 0.132800 0.896065 0.114074
O O6 0.500000 0.750000 0.224719
O O7 0.665561 0.000000 0.250000
O O8 0.592571 0.946261 0.145494
O O9 0.816297 0.958820 0.543792
O O10 0.657107 0.609662 0.522834
O O11 0.000000 0.750000 0.582269
O O12 0.500000 0.250000 0.923086
O O13 0.500000 0.750000 0.957298
#
# Coordination Sequence:
#
# PCOD9336329 Si02
#       6
#     4   8   8   4   8   8
#     4  12  28  46  70 106 146 196 252 310 372 458
#     4  11  26  45  71 105 144 203 244 317 384 455
#     4  12  26  44  76 112 156 202 257 324 396 473
#     4  10  26  48  78 108 150 206 256 330 400 468
#     4  11  23  48  71 109 152 198 260 324 390 473
#     4  11  26  50  74 109 149 199 259 320 389 470
#
# _framework density 24.410972999999998
#
# number of rings (size 3 to 8) (size 9 to 14) (size 15 to 20)
#    0.000    0.800    2.000    3.600   11.200    0.800 
#   10.800    0.000    0.000    0.000    0.000    0.000 
#    0.000    0.000    0.000    0.000    0.000    0.000 
#
# Total GULP energy -111611.873994 kJ/mol
# GULP energy per Si atom -5580.593700 kJ/mol
# Density = 2.435541 g / cm^3
# Si number density = 24.410973 Si / 1000 Ang^3
#
#
#
# Elastic Constant Matrix: (Units=GPa)
#
#
# Indices 1 2 3 4 5 6 
#
# 1 94.9330 21.0208 18.1193 0.0000 0.0000 0.0000
# 2 21.0208 60.0853 0.7947 0.0000 0.0000 0.0000
# 3 18.1193 0.7947 98.6950 0.0000 0.0000 0.0000
# 4 0.0000 0.0000 0.0000 -86.6787 0.0000 0.0000
# 5 0.0000 0.0000 0.0000 0.0000 61.5289 0.0000
# 6 0.0000 0.0000 0.0000 0.0000 0.0000 31.6996
#
#
#
# Elastic Compliance Matrix: (Units=1/GPa)
#
#
# Indices 1 2 3 4 5 6 
#
# 1 0.011855 -0.004119 -0.002143 0.000000 0.000000 0.000000
# 2 -0.004119 0.018076 0.000611 0.000000 0.000000 0.000000
# 3 -0.002143 0.000611 0.010521 0.000000 0.000000 0.000000
# 4 0.000000 0.000000 0.000000 -0.011537 0.000000 0.000000
# 5 0.000000 0.000000 0.000000 0.000000 0.016253 0.000000
# 6 0.000000 0.000000 0.000000 0.000000 0.000000 0.031546
#
#
# Mechanical properties :
#
#
# Convention : Reuss Voigt Hill
#
# Bulk Modulus (GPa) = 34.30726 37.06475 35.68600
# Shear Modulus (GPa) = 51.15987 15.56188 33.36087
#
# Velocity S-wave (km/s) = 4.58293 2.52761 3.70081
# Velocity P-wave (km/s) = 6.48759 4.87186 5.73689
#
# Compressibility (1/GPa) = 0.02914835
#
# Stress axis : x y z
#
# Youngs Moduli (GPa) = 84.35341 55.32199 95.04995
#
# Poissons Ratio (x) = 0.22788 0.20372
# Poissons Ratio (y) = 0.34746 -0.05804
# Poissons Ratio (z) = 0.18079 -0.03378
#
# Static dielectric constant tensor:
#      x y z
#    x 2.090960 0.000000 0.000000 
#    y 0.000000 2.004990 0.000000 
#    z 0.000000 0.000000 2.119790 
# 
# From -- ./inp_files/37073.got.cif
#   From: 2010.05.17/outbox.cif.g08.bks.cpg/sg24_19_cif.got.tgz:37073.got - 2010.06.04 00:33:39.
