data_PCOD9336775
_publ_section_title
;
Structure prediction by ZEFSAII (Michael W. Deem and Ramdas Pophale) SiO2 
 PCOD9336775
Probable space group: I 21 21 21
;
_chemical_formula_sum "Si O2"
_cell_formula_units_Z 32
_cell_length_a 6.778337
_cell_length_b 22.174526
_cell_length_c 7.478946
_cell_angle_alpha 90.000000
_cell_angle_beta 90.000000
_cell_angle_gamma 90.000000
_cell_volume 1124.133524
_symmetry_space_group_name_H-M "I 21 21 21"
_symmetry_group_IT_number 24
_symmetry_cell_setting 'orthorhombic'
loop_
_space_group_symop_operation_xyz
x,y,z
-x,1/2-y,z
x,-y,1/2-z
1/2-x,y,-z
1/2+x,1/2+y,1/2+z
1/2-x,-y,1/2+z
1/2+x,1/2-y,-z
-x,1/2+y,1/2-z
loop_
_atom_site_type_symbol
_atom_site_label
_atom_site_fract_x
_atom_site_fract_y
_atom_site_fract_z
Si Si1 0.421414 0.438702 0.861881
Si Si2 0.478899 0.682778 0.055755
Si Si3 0.844299 0.562583 0.805260
Si Si4 0.922966 0.683621 0.350687
O O1 0.400108 0.500000 0.750000
O O2 0.607865 0.682726 0.868855
O O3 0.404580 0.366046 0.856174
O O4 0.250000 0.452056 0.000000
O O5 0.500000 0.750000 0.138432
O O6 0.972402 0.622966 0.826586
O O7 0.250000 0.676765 0.000000
O O8 0.947720 0.500000 0.750000
O O9 0.661788 0.432768 0.830359
O O10 0.750000 0.554124 0.000000
O O11 0.750000 0.675400 0.500000
O O12 0.000000 0.750000 0.386876
#
# Coordination Sequence:
#
# PCOD9336775 Si02
#       4
#     8   8   8   8
#     4  11  27  57  86 133 182 241 305 382 461 554
#     4  11  26  55  95 133 181 242 312 383 470 565
#     4  11  25  57  88 131 185 239 305 388 463 548
#     4  11  26  56  89 137 184 235 304 385 465 552
#
# _framework density 28.466370999999999
#
# number of rings (size 3 to 8) (size 9 to 14) (size 15 to 20)
#    0.000    1.000    2.500    1.500    3.500    5.000 
#   31.500    1.250    0.000    0.000    0.000    0.000 
#    0.000    0.000    0.000    0.000    0.000    0.000 
#
# Total GULP energy -89067.921734 kJ/mol
# GULP energy per Si atom -5566.745108 kJ/mol
# Density = 2.840158 g / cm^3
# Si number density = 28.466371 Si / 1000 Ang^3
#
#
#
# Elastic Constant Matrix: (Units=GPa)
#
#
# Indices 1 2 3 4 5 6 
#
# 1 166.1599 119.3979 99.1652 0.0003 -0.0003 0.0003
# 2 119.3979 372.2597 95.9558 0.0000 -0.0002 0.0002
# 3 99.1652 95.9558 167.0188 0.0030 -0.0024 0.0000
# 4 0.0003 0.0000 0.0030 48.6358 0.0001 0.0009
# 5 -0.0003 -0.0002 -0.0024 0.0001 37.2784 0.0004
# 6 0.0003 0.0002 0.0000 0.0009 0.0004 56.5047
#
#
#
# Elastic Compliance Matrix: (Units=1/GPa)
#
#
# Indices 1 2 3 4 5 6 
#
# 1 0.010527 -0.002072 -0.005060 0.000000 0.000000 0.000000
# 2 -0.002072 0.003561 -0.000816 0.000000 0.000000 0.000000
# 3 -0.005060 -0.000816 0.009460 -0.000001 0.000001 0.000000
# 4 0.000000 0.000000 -0.000001 0.020561 0.000000 0.000000
# 5 0.000000 0.000000 0.000001 0.000000 0.026825 0.000000
# 6 0.000000 0.000000 0.000000 0.000000 0.000000 0.017698
#
#
# Mechanical properties :
#
#
# Convention : Reuss Voigt Hill
#
# Bulk Modulus (GPa) = 130.66537 148.27513 139.47025
# Shear Modulus (GPa) = 46.69481 54.54509 50.61995
#
# Velocity S-wave (km/s) = 4.05452 4.38210 4.22149
# Velocity P-wave (km/s) = 8.24137 8.82070 8.53595
#
# Compressibility (1/GPa) = 0.00765314
#
# Stress axis : x y z
#
# Youngs Moduli (GPa) = 94.99377 280.80690 105.70694
#
# Poissons Ratio (x) = 0.58188 0.53485
# Poissons Ratio (y) = 0.19684 0.08622
# Poissons Ratio (z) = 0.48065 0.22904
#
# Static dielectric constant tensor:
#      x y z
#    x 2.329430 0.000000 0.000000 
#    y 0.000000 2.340430 0.000000 
#    z 0.000000 0.000000 2.387740 
# 
# From -- ./inp_files/18058.got.cif
#   From: 2010.05.17/outbox.cif.g08.bks.cpg/sg24_10_cif.got.tgz:18058.got - 2010.06.04 00:33:39.
