data_PCOD9336551
_publ_section_title
;
Structure prediction by ZEFSAII (Michael W. Deem and Ramdas Pophale) SiO2 
 PCOD9336551
Probable space group: I 21 21 21
;
_chemical_formula_sum "Si O2"
_cell_formula_units_Z 64
_cell_length_a 13.241806
_cell_length_b 17.684707
_cell_length_c 14.323674
_cell_angle_alpha 90.000000
_cell_angle_beta 90.000000
_cell_angle_gamma 90.000000
_cell_volume 3354.281585
_symmetry_space_group_name_H-M "I 21 21 21"
_symmetry_group_IT_number 24
_symmetry_cell_setting 'orthorhombic'
loop_
_space_group_symop_operation_xyz
x,y,z
-x,1/2-y,z
x,-y,1/2-z
1/2-x,y,-z
1/2+x,1/2+y,1/2+z
1/2-x,-y,1/2+z
1/2+x,1/2-y,-z
-x,1/2+y,1/2-z
loop_
_atom_site_type_symbol
_atom_site_label
_atom_site_fract_x
_atom_site_fract_y
_atom_site_fract_z
Si Si1 0.219449 0.694021 0.802418
Si Si2 0.922610 0.578042 0.802078
Si Si3 0.073809 0.324750 0.184549
Si Si4 0.997724 0.341201 0.373762
Si Si5 0.534437 0.173087 0.161601
Si Si6 0.765224 0.355945 0.391241
Si Si7 0.632700 0.082125 0.997473
Si Si8 0.894338 0.091827 0.550600
O O1 0.315638 0.691465 0.731456
O O2 0.123028 0.689999 0.735190
O O3 0.233035 0.773044 0.855177
O O4 0.192702 0.630669 0.883593
O O5 0.940191 0.500000 0.750000
O O6 0.810553 0.586458 0.841457
O O7 0.943988 0.640802 0.723727
O O8 0.006193 0.587443 0.883165
O O9 0.086259 0.377741 0.094252
O O10 0.000000 0.250000 0.168031
O O11 0.028853 0.370104 0.272172
O O12 0.883691 0.367983 0.381914
O O13 0.000000 0.250000 0.369202
O O14 0.070558 0.361624 0.459477
O O15 0.500000 0.250000 0.113393
O O16 0.574443 0.114544 0.086710
O O17 0.750000 0.359022 0.500000
O O18 0.750000 0.105270 0.000000
O O19 0.629602 0.991508 0.010815
#
# Coordination Sequence:
#
# PCOD9336551 Si02
#       8
#     8   8   8   8   8   8   8   8
#     4  11  23  40  68 101 126 161 225 269 334 392
#     4  11  23  43  66  95 133 167 211 274 330 389
#     4  11  24  45  67  92 137 177 217 281 330 397
#     4  11  23  42  67  98 131 171 217 272 337 397
#     4  11  22  42  71  93 122 170 221 274 320 393
#     4  12  22  40  70  97 130 169 216 272 330 402
#     4  12  26  44  64  93 136 176 227 272 333 401
#     4  11  26  41  66 100 133 173 214 276 344 406
#
# _framework density 19.080092
#
# number of rings (size 3 to 8) (size 9 to 14) (size 15 to 20)
#    0.000    0.750    7.500    1.125    1.750    0.500 
#    2.250    0.000    0.000    0.000    0.000    0.000 
#    0.000    0.000    0.000    0.000    0.000    0.000 
#
# Total GULP energy -178379.757308 kJ/mol
# GULP energy per Si atom -5574.367416 kJ/mol
# Density = 1.903666 g / cm^3
# Si number density = 19.080092 Si / 1000 Ang^3
#
#
#
# Elastic Constant Matrix: (Units=GPa)
#
#
# Indices 1 2 3 4 5 6 
#
# 1 70.1231 7.3829 21.0484 0.0000 -0.0001 0.0000
# 2 7.3829 70.0703 38.5820 0.0000 0.0001 0.0000
# 3 21.0484 38.5820 117.0816 0.0000 0.0004 0.0000
# 4 0.0000 0.0000 0.0000 38.4188 0.0002 0.0000
# 5 -0.0001 0.0001 0.0004 0.0002 83.5099 0.0000
# 6 0.0000 0.0000 0.0000 0.0000 0.0000 22.7253
#
#
#
# Elastic Compliance Matrix: (Units=1/GPa)
#
#
# Indices 1 2 3 4 5 6 
#
# 1 0.015075 -0.000117 -0.002671 0.000000 0.000000 0.000000
# 2 -0.000117 0.017436 -0.005725 0.000000 0.000000 0.000000
# 3 -0.002671 -0.005725 0.010908 0.000000 0.000000 0.000000
# 4 0.000000 0.000000 0.000000 0.026029 0.000000 0.000000
# 5 0.000000 0.000000 0.000000 0.000000 0.011975 0.000000
# 6 0.000000 0.000000 0.000000 0.000000 0.000000 0.044004
#
#
# Mechanical properties :
#
#
# Convention : Reuss Voigt Hill
#
# Bulk Modulus (GPa) = 37.89077 43.47797 40.68437
# Shear Modulus (GPa) = 33.05793 41.61491 37.33642
#
# Velocity S-wave (km/s) = 4.16695 4.67525 4.42840
# Velocity P-wave (km/s) = 6.56150 7.20975 6.89325
#
# Compressibility (1/GPa) = 0.02639165
#
# Stress axis : x y z
#
# Youngs Moduli (GPa) = 66.33561 57.35327 91.67823
#
# Poissons Ratio (x) = 0.00674 0.24491
# Poissons Ratio (y) = 0.00779 0.52481
# Poissons Ratio (z) = 0.17721 0.32832
#
# Static dielectric constant tensor:
#      x y z
#    x 1.498280 0.000000 0.000000 
#    y 0.000000 1.588700 0.000000 
#    z 0.000000 0.000000 1.636570 
# 
# From -- ./inp_files/26021.got.cif
#   From: 2010.05.17/outbox.cif.g08.bks.cpg/sg24_14_cif.got.tgz:26021.got - 2010.06.04 00:33:39.
