data_PCOD9336183
_publ_section_title
;
Structure prediction by ZEFSAII (Michael W. Deem and Ramdas Pophale) SiO2 
 PCOD9336183
Probable space group: I 21 21 21
;
_chemical_formula_sum "Si O2"
_cell_formula_units_Z 56
_cell_length_a 9.406898
_cell_length_b 15.168142
_cell_length_c 18.318891
_cell_angle_alpha 90.000000
_cell_angle_beta 90.000000
_cell_angle_gamma 90.000000
_cell_volume 2613.833978
_symmetry_space_group_name_H-M "I 21 21 21"
_symmetry_group_IT_number 24
_symmetry_cell_setting 'orthorhombic'
loop_
_space_group_symop_operation_xyz
x,y,z
-x,1/2-y,z
x,-y,1/2-z
1/2-x,y,-z
1/2+x,1/2+y,1/2+z
1/2-x,-y,1/2+z
1/2+x,1/2-y,-z
-x,1/2+y,1/2-z
loop_
_atom_site_type_symbol
_atom_site_label
_atom_site_fract_x
_atom_site_fract_y
_atom_site_fract_z
Si Si1 0.269337 0.118149 0.914962
Si Si2 0.855280 0.695589 0.849576
Si Si3 0.523455 0.486301 0.398231
Si Si4 0.241702 0.449383 0.817832
Si Si5 0.662554 0.749462 0.311758
Si Si6 0.367316 0.307006 0.561474
Si Si7 0.540954 0.001586 0.568596
O O1 0.273221 0.205857 0.867383
O O2 0.396801 0.048179 0.909272
O O3 0.250000 0.139826 0.000000
O O4 0.128160 0.068001 0.888992
O O5 0.837075 0.693101 0.762578
O O6 0.721190 0.747106 0.882517
O O7 0.000000 0.750000 0.861832
O O8 0.885012 0.601836 0.886683
O O9 0.397328 0.494333 0.340367
O O10 0.462163 0.492366 0.480507
O O11 0.312503 0.500000 0.750000
O O12 0.201758 0.350500 0.796051
O O13 0.335988 0.448231 0.890778
O O14 0.500000 0.750000 0.340923
O O15 0.500000 0.250000 0.532507
O O16 0.250000 0.329059 0.500000
O O17 0.432325 0.397285 0.592594
#
# Coordination Sequence:
#
# PCOD9336183 Si02
#       7
#     8   8   8   8   8   8   8
#     4  10  24  45  68  99 132 176 236 287 341 415
#     4  11  23  41  69 101 138 179 235 297 359 431
#     4  11  22  42  71  97 131 183 238 294 349 417
#     4  12  24  42  68 100 142 184 232 286 359 435
#     4  11  23  45  69 101 134 180 239 288 351 427
#     4  12  23  40  66 101 142 185 235 292 358 427
#     4  11  24  43  65  99 139 183 229 290 362 422
#
# _framework density 21.424468000000001
#
# number of rings (size 3 to 8) (size 9 to 14) (size 15 to 20)
#    0.000    0.857    1.429    7.714    0.000    2.857 
#    7.714    0.000    0.000    0.000    0.000    0.000 
#    0.000    0.000    0.000    0.000    0.000    0.000 
#
# Total GULP energy -156514.771472 kJ/mol
# GULP energy per Si atom -5589.813267 kJ/mol
# Density = 2.137570 g / cm^3
# Si number density = 21.424468 Si / 1000 Ang^3
#
#
#
# Elastic Constant Matrix: (Units=GPa)
#
#
# Indices 1 2 3 4 5 6 
#
# 1 80.0510 19.2231 39.2587 0.0000 0.0000 0.0000
# 2 19.2231 83.0739 44.4247 0.0000 0.0000 0.0000
# 3 39.2587 44.4247 72.0485 0.0000 0.0000 0.0000
# 4 0.0000 0.0000 0.0000 30.4354 0.0000 0.0000
# 5 0.0000 0.0000 0.0000 0.0000 28.8229 0.0000
# 6 0.0000 0.0000 0.0000 0.0000 0.0000 27.2075
#
#
#
# Elastic Compliance Matrix: (Units=1/GPa)
#
#
# Indices 1 2 3 4 5 6 
#
# 1 0.017178 0.001537 -0.010308 0.000000 0.000000 0.000000
# 2 0.001537 0.018097 -0.011996 0.000000 0.000000 0.000000
# 3 -0.010308 -0.011996 0.026893 0.000000 0.000000 0.000000
# 4 0.000000 0.000000 0.000000 0.032856 0.000000 0.000000
# 5 0.000000 0.000000 0.000000 0.000000 0.034695 0.000000
# 6 0.000000 0.000000 0.000000 0.000000 0.000000 0.036755
#
#
# Mechanical properties :
#
#
# Convention : Reuss Voigt Hill
#
# Bulk Modulus (GPa) = 48.46298 48.99851 48.73074
# Shear Modulus (GPa) = 23.26815 26.11094 24.68954
#
# Velocity S-wave (km/s) = 3.29911 3.49484 3.39838
# Velocity P-wave (km/s) = 6.09768 6.26140 6.18008
#
# Compressibility (1/GPa) = 0.02063431
#
# Stress axis : x y z
#
# Youngs Moduli (GPa) = 58.21321 55.25847 37.18408
#
# Poissons Ratio (x) = -0.08496 0.38330
# Poissons Ratio (y) = -0.08950 0.44607
# Poissons Ratio (z) = 0.60008 0.66289
#
# Static dielectric constant tensor:
#      x y z
#    x 1.771150 0.000000 0.000000 
#    y 0.000000 1.769460 0.000000 
#    z 0.000000 0.000000 1.800810 
# 
# From -- ./inp_files/32850.got.cif
#   From: 2010.05.17/outbox.cif.g08.bks.cpg/sg24_17_cif.got.tgz:32850.got - 2010.06.04 00:33:39.
