data_PCOD9336359
_publ_section_title
;
Structure prediction by ZEFSAII (Michael W. Deem and Ramdas Pophale) SiO2 
 PCOD9336359
Probable space group: I 21 21 21
;
_chemical_formula_sum "Si O2"
_cell_formula_units_Z 40
_cell_length_a 11.455966
_cell_length_b 12.752972
_cell_length_c 10.922267
_cell_angle_alpha 90.000000
_cell_angle_beta 90.000000
_cell_angle_gamma 90.000000
_cell_volume 1595.717144
_symmetry_space_group_name_H-M "I 21 21 21"
_symmetry_group_IT_number 24
_symmetry_cell_setting 'orthorhombic'
loop_
_space_group_symop_operation_xyz
x,y,z
-x,1/2-y,z
x,-y,1/2-z
1/2-x,y,-z
1/2+x,1/2+y,1/2+z
1/2-x,-y,1/2+z
1/2+x,1/2-y,-z
-x,1/2+y,1/2-z
loop_
_atom_site_type_symbol
_atom_site_label
_atom_site_fract_x
_atom_site_fract_y
_atom_site_fract_z
Si Si1 0.476256 0.612441 0.282718
Si Si2 0.049342 0.955859 0.956466
Si Si3 0.768394 0.745997 0.627526
Si Si4 0.907182 0.658173 0.190153
Si Si5 0.601526 0.061087 0.861300
O O1 0.413116 0.500000 0.250000
O O2 0.568896 0.565624 0.382072
O O3 0.534852 0.629253 0.150749
O O4 0.391110 0.699975 0.335884
O O5 0.120153 0.911513 0.071055
O O6 0.928545 0.985388 0.027301
O O7 0.750000 0.685264 0.500000
O O8 0.711142 0.693949 0.746521
O O9 0.677631 0.841621 0.603002
O O10 0.000000 0.750000 0.152473
O O11 0.981158 0.602797 0.299403
O O12 0.659077 0.000000 0.750000
#
# Coordination Sequence:
#
# PCOD9336359 Si02
#       5
#     8   8   8   8   8
#     4   8  17  29  54  80 107 149 193 252 299 342
#     4   8  16  33  50  76 111 155 203 237 297 371
#     4  11  17  29  49  85 121 145 189 256 316 342
#     4   9  19  30  47  78 118 159 190 231 314 375
#     4   9  16  28  48  75 108 154 195 235 288 375
#
# _framework density 25.0671
#
# number of rings (size 3 to 8) (size 9 to 14) (size 15 to 20)
#    1.200    1.600    2.000    0.600    0.000    0.000 
#    3.600    0.000    8.800    0.000    0.000   42.000 
#    0.000    0.000    0.000    0.000    0.000    0.000 
#
# Total GULP energy -111366.056838 kJ/mol
# GULP energy per Si atom -5568.302842 kJ/mol
# Density = 2.501005 g / cm^3
# Si number density = 25.067100 Si / 1000 Ang^3
#
#
#
# Elastic Constant Matrix: (Units=GPa)
#
#
# Indices 1 2 3 4 5 6 
#
# 1 105.6401 35.8801 56.2891 0.0000 0.0000 0.0000
# 2 35.8801 62.4326 51.4174 0.0000 0.0000 0.0000
# 3 56.2891 51.4174 226.5178 0.0000 0.0000 0.0000
# 4 0.0000 0.0000 0.0000 23.1552 0.0000 0.0000
# 5 0.0000 0.0000 0.0000 0.0000 16.6879 0.0000
# 6 0.0000 0.0000 0.0000 0.0000 0.0000 181.7246
#
#
#
# Elastic Compliance Matrix: (Units=1/GPa)
#
#
# Indices 1 2 3 4 5 6 
#
# 1 0.012325 -0.005609 -0.001789 0.000000 0.000000 0.000000
# 2 -0.005609 0.022253 -0.003657 0.000000 0.000000 0.000000
# 3 -0.001789 -0.003657 0.005690 0.000000 0.000000 0.000000
# 4 0.000000 0.000000 0.000000 0.043187 0.000000 0.000000
# 5 0.000000 0.000000 0.000000 0.000000 0.059923 0.000000
# 6 0.000000 0.000000 0.000000 0.000000 0.000000 0.005503
#
#
# Mechanical properties :
#
#
# Convention : Reuss Voigt Hill
#
# Bulk Modulus (GPa) = 55.08084 75.75152 65.41618
# Shear Modulus (GPa) = 28.24152 61.04715 44.64433
#
# Velocity S-wave (km/s) = 3.36018 4.94028 4.22476
# Velocity P-wave (km/s) = 6.08897 7.92634 7.06762
#
# Compressibility (1/GPa) = 0.01815513
#
# Stress axis : x y z
#
# Youngs Moduli (GPa) = 81.13758 44.93771 175.76231
#
# Poissons Ratio (x) = 0.25207 0.31451
# Poissons Ratio (y) = 0.45513 0.64282
# Poissons Ratio (z) = 0.14519 0.16435
#
# Static dielectric constant tensor:
#      x y z
#    x 1.980550 0.000000 0.000000 
#    y 0.000000 2.183400 0.000000 
#    z 0.000000 0.000000 0.748160 
# 
# From -- ./inp_files/20594.got.cif
#   From: 2010.05.17/outbox.cif.g08.bks.cpg/sg24_11_cif.got.tgz:20594.got - 2010.06.04 00:33:39.
