data_PCOD9336782
_publ_section_title
;
Structure prediction by ZEFSAII (Michael W. Deem and Ramdas Pophale) SiO2 
 PCOD9336782
Probable space group: I 21 21 21
;
_chemical_formula_sum "Si O2"
_cell_formula_units_Z 24
_cell_length_a 4.965667
_cell_length_b 18.949056
_cell_length_c 10.562360
_cell_angle_alpha 90.000000
_cell_angle_beta 90.000000
_cell_angle_gamma 90.000000
_cell_volume 993.862117
_symmetry_space_group_name_H-M "I 21 21 21"
_symmetry_group_IT_number 24
_symmetry_cell_setting 'orthorhombic'
loop_
_space_group_symop_operation_xyz
x,y,z
-x,1/2-y,z
x,-y,1/2-z
1/2-x,y,-z
1/2+x,1/2+y,1/2+z
1/2-x,-y,1/2+z
1/2+x,1/2-y,-z
-x,1/2+y,1/2-z
loop_
_atom_site_type_symbol
_atom_site_label
_atom_site_fract_x
_atom_site_fract_y
_atom_site_fract_z
Si Si1 0.027972 0.621251 0.233621
Si Si2 0.995283 0.503407 0.422454
Si Si3 0.750000 0.801576 0.000000
Si Si4 0.500000 0.250000 0.909279
O O1 0.225361 0.655971 0.131391
O O2 0.915259 0.685396 0.316894
O O3 0.127746 0.563799 0.334864
O O4 0.862192 0.564746 0.147883
O O5 0.750000 0.536409 0.500000
O O6 0.250000 0.477096 0.500000
O O7 0.500000 0.750000 0.007131
O O8 0.750000 0.230334 0.000000
#
# Coordination Sequence:
#
# PCOD9336782 Si02
#       4
#     8   8   4   4
#     4  11  26  47  74 104 148 190 242 306 362 437
#     4  11  26  46  73 107 142 191 242 297 368 435
#     4  12  28  46  76 108 146 194 250 306 372 436
#     4  12  28  46  72 104 144 192 242 302 370 428
#
# _framework density 24.148219999999998
#
# number of rings (size 3 to 8) (size 9 to 14) (size 15 to 20)
#    0.000    0.667    3.333    2.000    4.667   10.667 
#    0.000    0.000    0.000    0.000    0.000    0.000 
#    0.000    0.000    0.000    0.000    0.000    0.000 
#
# Total GULP energy -66880.862775 kJ/mol
# GULP energy per Si atom -5573.405231 kJ/mol
# Density = 2.409326 g / cm^3
# Si number density = 24.148220 Si / 1000 Ang^3
#
#
#
# Elastic Constant Matrix: (Units=GPa)
#
#
# Indices 1 2 3 4 5 6 
#
# 1 97.5338 18.3977 43.4436 0.0000 0.0000 0.0000
# 2 18.3977 162.3680 66.9815 0.0000 0.0000 0.0000
# 3 43.4436 66.9815 132.9662 0.0000 0.0000 0.0000
# 4 0.0000 0.0000 0.0000 -26.1706 0.0000 0.0000
# 5 0.0000 0.0000 0.0000 0.0000 13.1318 0.0000
# 6 0.0000 0.0000 0.0000 0.0000 0.0000 12.2099
#
#
#
# Elastic Compliance Matrix: (Units=1/GPa)
#
#
# Indices 1 2 3 4 5 6 
#
# 1 0.012013 0.000326 -0.004089 0.000000 0.000000 0.000000
# 2 0.000326 0.007783 -0.004027 0.000000 0.000000 0.000000
# 3 -0.004089 -0.004027 0.010885 0.000000 0.000000 0.000000
# 4 0.000000 0.000000 0.000000 -0.038211 0.000000 0.000000
# 5 0.000000 0.000000 0.000000 0.000000 0.076151 0.000000
# 6 0.000000 0.000000 0.000000 0.000000 0.000000 0.081901
#
#
# Mechanical properties :
#
#
# Convention : Reuss Voigt Hill
#
# Bulk Modulus (GPa) = 66.22337 72.27928 69.25133
# Shear Modulus (GPa) = 29.21643 17.43724 23.32684
#
# Velocity S-wave (km/s) = 3.48211 2.69009 3.11140
# Velocity P-wave (km/s) = 6.60681 6.29645 6.45350
#
# Compressibility (1/GPa) = 0.01510041
#
# Stress axis : x y z
#
# Youngs Moduli (GPa) = 83.24509 128.48034 91.86649
#
# Poissons Ratio (x) = -0.04184 0.37563
# Poissons Ratio (y) = -0.02711 0.36997
# Poissons Ratio (z) = 0.34038 0.51742
#
# Static dielectric constant tensor:
#      x y z
#    x 1.805950 0.000000 0.000000 
#    y 0.000000 1.914510 0.000000 
#    z 0.000000 0.000000 2.064510 
# 
# From -- ./inp_files/17294.got.cif
#   From: 2010.05.17/outbox.cif.g08.bks.cpg/sg24_9_cif.got.tgz:17294.got - 2010.06.04 00:33:39.
