data_PCOD9336513
_publ_section_title
;
Structure prediction by ZEFSAII (Michael W. Deem and Ramdas Pophale) SiO2 
 PCOD9336513
Probable space group: I 21 21 21
;
_chemical_formula_sum "Si O2"
_cell_formula_units_Z 48
_cell_length_a 31.649966
_cell_length_b 9.600756
_cell_length_c 8.238769
_cell_angle_alpha 90.000000
_cell_angle_beta 90.000000
_cell_angle_gamma 90.000000
_cell_volume 2503.462016
_symmetry_space_group_name_H-M "I 21 21 21"
_symmetry_group_IT_number 24
_symmetry_cell_setting 'orthorhombic'
loop_
_space_group_symop_operation_xyz
x,y,z
-x,1/2-y,z
x,-y,1/2-z
1/2-x,y,-z
1/2+x,1/2+y,1/2+z
1/2-x,-y,1/2+z
1/2+x,1/2-y,-z
-x,1/2+y,1/2-z
loop_
_atom_site_type_symbol
_atom_site_label
_atom_site_fract_x
_atom_site_fract_y
_atom_site_fract_z
Si Si1 0.106151 0.959472 0.431951
Si Si2 0.296948 0.540733 0.059580
Si Si3 0.567247 0.021395 0.446700
Si Si4 0.869673 0.255157 0.594695
Si Si5 0.640239 0.190048 0.020000
Si Si6 0.482656 0.093697 0.090861
O O1 0.138801 0.832580 0.425268
O O2 0.096488 0.000000 0.250000
O O3 0.124547 0.087775 0.536120
O O4 0.062633 0.902622 0.507927
O O5 0.296535 0.500000 0.250000
O O6 0.328748 0.670130 0.031652
O O7 0.319127 0.403929 0.985028
O O8 0.250000 0.566752 0.000000
O O9 0.588472 0.171851 0.465579
O O10 0.520225 0.986894 0.504473
O O11 0.566204 0.000000 0.250000
O O12 0.600341 0.909725 0.514963
O O13 0.865261 0.234489 0.789651
O O14 0.500000 0.750000 0.374766
O O15 0.476089 0.000000 0.250000
#
# Coordination Sequence:
#
# PCOD9336513 Si02
#       6
#     8   8   8   8   8   8
#     4  12  25  37  51  82 120 154 185 237 294 327
#     4   9  19  36  64  93 115 139 180 232 286 344
#     4   8  16  32  57  80 100 136 196 241 268 310
#     4   9  19  37  60  82 106 150 195 231 267 342
#     4   9  17  37  60  80 108 147 193 229 269 335
#     4  11  22  37  60  83 107 149 200 244 274 331
#
# _framework density 19.173446999999999
#
# number of rings (size 3 to 8) (size 9 to 14) (size 15 to 20)
#    0.000    2.333    1.667    3.500    4.667    1.333 
#    3.000    3.333    0.000    0.000    0.000    0.000 
#    0.000    0.000    0.000    0.000    0.000    0.000 
#
# Total GULP energy -133816.002943 kJ/mol
# GULP energy per Si atom -5575.666789 kJ/mol
# Density = 1.912981 g / cm^3
# Si number density = 19.173447 Si / 1000 Ang^3
#
#
#
# Elastic Constant Matrix: (Units=GPa)
#
#
# Indices 1 2 3 4 5 6 
#
# 1 100.0420 24.0000 3.9582 0.0000 0.0000 0.0000
# 2 24.0000 92.1419 10.5464 0.0000 0.0000 0.0000
# 3 3.9582 10.5464 16.5853 0.0000 0.0000 0.0000
# 4 0.0000 0.0000 0.0000 8.7686 0.0000 0.0000
# 5 0.0000 0.0000 0.0000 0.0000 13.8844 0.0000
# 6 0.0000 0.0000 0.0000 0.0000 0.0000 14.7654
#
#
#
# Elastic Compliance Matrix: (Units=1/GPa)
#
#
# Indices 1 2 3 4 5 6 
#
# 1 0.010673 -0.002684 -0.000841 0.000000 0.000000 0.000000
# 2 -0.002684 0.012380 -0.007232 0.000000 0.000000 0.000000
# 3 -0.000841 -0.007232 0.065094 0.000000 0.000000 0.000000
# 4 0.000000 0.000000 0.000000 0.114043 0.000000 0.000000
# 5 0.000000 0.000000 0.000000 0.000000 0.072023 0.000000
# 6 0.000000 0.000000 0.000000 0.000000 0.000000 0.067726
#
#
# Mechanical properties :
#
#
# Convention : Reuss Voigt Hill
#
# Bulk Modulus (GPa) = 15.00731 31.75316 23.38023
# Shear Modulus (GPa) = 12.96475 18.83466 15.89970
#
# Velocity S-wave (km/s) = 2.60317 3.13762 2.88281
# Velocity P-wave (km/s) = 4.10846 5.45189 4.82714
#
# Compressibility (1/GPa) = 0.06663420
#
# Stress axis : x y z
#
# Youngs Moduli (GPa) = 93.69539 80.77827 15.36252
#
# Poissons Ratio (x) = 0.21679 0.01291
# Poissons Ratio (y) = 0.25145 0.11109
# Poissons Ratio (z) = 0.07876 0.58415
#
# Static dielectric constant tensor:
#      x y z
#    x 1.668710 0.000000 0.000000 
#    y 0.000000 1.678620 0.000000 
#    z 0.000000 0.000000 1.701420 
# 
# From -- ./inp_files/16831.got.cif
#   From: 2010.05.17/outbox.cif.g08.bks.cpg/sg24_9_cif.got.tgz:16831.got - 2010.06.04 00:33:39.
