data_PCOD9336444
_publ_section_title
;
Structure prediction by ZEFSAII (Michael W. Deem and Ramdas Pophale) SiO2 
 PCOD9336444
Probable space group: I 21 21 21
;
_chemical_formula_sum "Si O2"
_cell_formula_units_Z 64
_cell_length_a 8.535481
_cell_length_b 13.990743
_cell_length_c 30.596254
_cell_angle_alpha 90.000000
_cell_angle_beta 90.000000
_cell_angle_gamma 90.000000
_cell_volume 3653.734925
_symmetry_space_group_name_H-M "I 21 21 21"
_symmetry_group_IT_number 24
_symmetry_cell_setting 'orthorhombic'
loop_
_space_group_symop_operation_xyz
x,y,z
-x,1/2-y,z
x,-y,1/2-z
1/2-x,y,-z
1/2+x,1/2+y,1/2+z
1/2-x,-y,1/2+z
1/2+x,1/2-y,-z
-x,1/2+y,1/2-z
loop_
_atom_site_type_symbol
_atom_site_label
_atom_site_fract_x
_atom_site_fract_y
_atom_site_fract_z
Si Si1 0.933603 0.142609 0.359562
Si Si2 0.440320 0.859589 0.044747
Si Si3 0.566108 0.641820 0.950108
Si Si4 0.936634 0.599616 0.773610
Si Si5 0.139439 0.310204 0.804341
Si Si6 0.434160 0.642681 0.134472
Si Si7 0.623768 0.968762 0.703567
Si Si8 0.373353 0.175535 0.757798
O O1 0.750147 0.153375 0.368001
O O2 0.000000 0.250000 0.352594
O O3 0.010623 0.100938 0.403934
O O4 0.936645 0.062106 0.321860
O O5 0.500000 0.750000 0.044403
O O6 0.253445 0.856680 0.048861
O O7 0.506965 0.903343 0.089287
O O8 0.484934 0.901152 0.997114
O O9 0.500000 0.750000 0.949817
O O10 0.910360 0.500000 0.750000
O O11 0.762520 0.645372 0.775782
O O12 0.052771 0.656188 0.740733
O O13 0.010807 0.591743 0.821289
O O14 0.242804 0.402501 0.819549
O O15 0.273030 0.233342 0.793518
O O16 0.000000 0.250000 0.828299
O O17 0.500000 0.750000 0.138305
O O18 0.473282 0.906630 0.718660
O O19 0.697203 0.000000 0.750000
O O20 0.500000 0.250000 0.739588
#
# Coordination Sequence:
#
# PCOD9336444 Si02
#       8
#     8   8   8   8   8   8   8   8
#     4  11  23  35  51  74 104 139 173 210 254 309
#     4   9  17  29  47  68  93 127 172 215 246 288
#     4   9  17  31  48  68  95 131 171 209 249 293
#     4  11  21  33  48  71 101 134 170 214 262 306
#     4   9  18  35  53  67  91 131 174 215 259 301
#     4  11  21  32  47  69  97 132 175 215 250 298
#     4  11  22  34  48  72 100 131 175 218 255 304
#     4   9  20  35  51  67  90 133 176 214 258 299
#
# _framework density 17.516323
#
# number of rings (size 3 to 8) (size 9 to 14) (size 15 to 20)
#    0.000    2.000    0.000    6.375    0.000    9.000 
#    0.000    0.625    0.000    0.000    0.000    0.000 
#    0.000    0.000    0.000  132.750    0.000   23.375 
#
# Total GULP energy -178259.338686 kJ/mol
# GULP energy per Si atom -5570.604334 kJ/mol
# Density = 1.747645 g / cm^3
# Si number density = 17.516323 Si / 1000 Ang^3
#
#
#
# Elastic Constant Matrix: (Units=GPa)
#
#
# Indices 1 2 3 4 5 6 
#
# 1 114.4806 32.3007 29.5288 0.0000 0.0000 0.0000
# 2 32.3007 66.0665 29.6659 0.0000 0.0000 0.0000
# 3 29.5288 29.6659 111.1989 0.0000 0.0000 0.0000
# 4 0.0000 0.0000 0.0000 8.9758 0.0000 0.0000
# 5 0.0000 0.0000 0.0000 0.0000 118.9909 0.0000
# 6 0.0000 0.0000 0.0000 0.0000 0.0000 27.8024
#
#
#
# Elastic Compliance Matrix: (Units=1/GPa)
#
#
# Indices 1 2 3 4 5 6 
#
# 1 0.010375 -0.004357 -0.001593 0.000000 0.000000 0.000000
# 2 -0.004357 0.019026 -0.003919 0.000000 0.000000 0.000000
# 3 -0.001593 -0.003919 0.010461 0.000000 0.000000 0.000000
# 4 0.000000 0.000000 0.000000 0.111410 0.000000 0.000000
# 5 0.000000 0.000000 0.000000 0.000000 0.008404 0.000000
# 6 0.000000 0.000000 0.000000 0.000000 0.000000 0.035968
#
#
# Mechanical properties :
#
#
# Convention : Reuss Voigt Hill
#
# Bulk Modulus (GPa) = 49.68908 52.74854 51.21881
# Shear Modulus (GPa) = 22.51324 44.50389 33.50856
#
# Velocity S-wave (km/s) = 3.58896 5.04601 4.37852
# Velocity P-wave (km/s) = 6.75300 8.00806 7.40716
#
# Compressibility (1/GPa) = 0.02012515
#
# Stress axis : x y z
#
# Youngs Moduli (GPa) = 96.38206 52.55876 95.59053
#
# Poissons Ratio (x) = 0.22902 0.15224
# Poissons Ratio (y) = 0.41998 0.37460
# Poissons Ratio (z) = 0.15351 0.20597
#
# Static dielectric constant tensor:
#      x y z
#    x 1.641180 0.000000 0.000000 
#    y 0.000000 1.656890 0.000000 
#    z 0.000000 0.000000 1.660130 
# 
# From -- ./inp_files/38473.got.cif
#   From: 2010.05.17/outbox.cif.g08.bks.cpg/sg24_20_cif.got.tgz:38473.got - 2010.06.04 00:33:39.
