data_PCOD9336354
_publ_section_title
;
Structure prediction by ZEFSAII (Michael W. Deem and Ramdas Pophale) SiO2 
 PCOD9336354
Probable space group: I 21 21 21
;
_chemical_formula_sum "Si O2"
_cell_formula_units_Z 56
_cell_length_a 15.188518
_cell_length_b 12.921777
_cell_length_c 14.053201
_cell_angle_alpha 90.000000
_cell_angle_beta 90.000000
_cell_angle_gamma 90.000000
_cell_volume 2758.118365
_symmetry_space_group_name_H-M "I 21 21 21"
_symmetry_group_IT_number 24
_symmetry_cell_setting 'orthorhombic'
loop_
_space_group_symop_operation_xyz
x,y,z
-x,1/2-y,z
x,-y,1/2-z
1/2-x,y,-z
1/2+x,1/2+y,1/2+z
1/2-x,-y,1/2+z
1/2+x,1/2-y,-z
-x,1/2+y,1/2-z
loop_
_atom_site_type_symbol
_atom_site_label
_atom_site_fract_x
_atom_site_fract_y
_atom_site_fract_z
Si Si1 0.818816 0.500000 0.250000
Si Si2 0.431922 0.925188 0.575801
Si Si3 0.790174 0.292231 0.741755
Si Si4 0.450974 0.143850 0.128578
Si Si5 0.792975 0.109821 0.624911
Si Si6 0.368083 0.504408 0.559510
Si Si7 0.926097 0.000000 0.750000
Si Si8 0.683871 0.764530 0.579887
O O1 0.875018 0.485808 0.153663
O O2 0.759088 0.400401 0.263903
O O3 0.412022 0.917042 0.462542
O O4 0.402086 0.805890 0.599389
O O5 0.529441 0.976293 0.582909
O O6 0.883621 0.318447 0.790251
O O7 0.783926 0.231970 0.641798
O O8 0.737047 0.227374 0.821973
O O9 0.500000 0.250000 0.096020
O O10 0.516247 0.061162 0.174451
O O11 0.700047 0.049214 0.633326
O O12 0.843179 0.066665 0.531513
O O13 0.861146 0.083355 0.706723
O O14 0.339344 0.622491 0.541950
O O15 0.750000 0.717318 0.500000
#
# Coordination Sequence:
#
# PCOD9336354 Si02
#       8
#     4   8   8   8   8   8   4   8
#     4  10  27  49  70  92 138 190 242 281 359 428
#     4  11  24  42  69 102 135 181 235 291 349 417
#     4  11  24  45  68 101 136 184 233 294 349 425
#     4  12  23  39  70 107 139 170 233 300 352 407
#     4  11  23  38  66  98 141 181 226 278 361 424
#     4  11  23  41  64 100 143 188 228 286 351 420
#     4  12  23  39  64 108 142 178 222 291 365 412
#     4  11  20  37  66 103 135 174 230 288 349 403
#
# _framework density 20.303697
#
# number of rings (size 3 to 8) (size 9 to 14) (size 15 to 20)
#    0.000    0.857    5.714    2.571    0.000    1.714 
#    0.000    7.857    6.286    0.000    0.000    0.000 
#    0.000    0.000    0.000    0.000    0.000    0.000 
#
# Total GULP energy -155903.777194 kJ/mol
# GULP energy per Si atom -5567.992043 kJ/mol
# Density = 2.025748 g / cm^3
# Si number density = 20.303697 Si / 1000 Ang^3
#
#
#
# Elastic Constant Matrix: (Units=GPa)
#
#
# Indices 1 2 3 4 5 6 
#
# 1 109.1908 53.6655 24.2615 0.0000 0.0000 0.0000
# 2 53.6655 85.7587 45.2822 0.0000 0.0000 0.0000
# 3 24.2615 45.2822 69.9555 0.0000 0.0000 0.0000
# 4 0.0000 0.0000 0.0000 43.7647 0.0000 0.0000
# 5 0.0000 0.0000 0.0000 0.0000 297.0403 0.0000
# 6 0.0000 0.0000 0.0000 0.0000 0.0000 6.4847
#
#
#
# Elastic Compliance Matrix: (Units=1/GPa)
#
#
# Indices 1 2 3 4 5 6 
#
# 1 0.013289 -0.008937 0.001176 0.000000 0.000000 0.000000
# 2 -0.008937 0.023726 -0.012258 0.000000 0.000000 0.000000
# 3 0.001176 -0.012258 0.021822 0.000000 0.000000 0.000000
# 4 0.000000 0.000000 0.000000 0.022849 0.000000 0.000000
# 5 0.000000 0.000000 0.000000 0.000000 0.003367 0.000000
# 6 0.000000 0.000000 0.000000 0.000000 0.000000 0.154209
#
#
# Mechanical properties :
#
#
# Convention : Reuss Voigt Hill
#
# Bulk Modulus (GPa) = 53.19621 56.81372 55.00496
# Shear Modulus (GPa) = 17.50906 78.90432 48.20669
#
# Velocity S-wave (km/s) = 2.93978 6.24071 4.87795
# Velocity P-wave (km/s) = 6.14656 8.94266 7.67305
#
# Compressibility (1/GPa) = 0.01879833
#
# Stress axis : x y z
#
# Youngs Moduli (GPa) = 75.24767 42.14811 45.82600
#
# Poissons Ratio (x) = 0.37669 -0.05389
# Poissons Ratio (y) = 0.67250 0.56175
# Poissons Ratio (z) = -0.08850 0.51666
#
# Static dielectric constant tensor:
#      x y z
#    x 1.777990 0.000000 0.000000 
#    y 0.000000 0.999890 0.000000 
#    z 0.000000 0.000000 1.800430 
# 
# From -- ./inp_files/26582.got.cif
#   From: 2010.05.17/outbox.cif.g08.bks.cpg/sg24_14_cif.got.tgz:26582.got - 2010.06.04 00:33:39.
