data_PCOD9336046
_publ_section_title
;
Structure prediction by ZEFSAII (Michael W. Deem and Ramdas Pophale) SiO2 
 PCOD9336046
Probable space group: I 21 21 21
;
_chemical_formula_sum "Si O2"
_cell_formula_units_Z 60
_cell_length_a 12.360862
_cell_length_b 24.908958
_cell_length_c 9.740507
_cell_angle_alpha 90.000000
_cell_angle_beta 90.000000
_cell_angle_gamma 90.000000
_cell_volume 2999.065017
_symmetry_space_group_name_H-M "I 21 21 21"
_symmetry_group_IT_number 24
_symmetry_cell_setting 'orthorhombic'
loop_
_space_group_symop_operation_xyz
x,y,z
-x,1/2-y,z
x,-y,1/2-z
1/2-x,y,-z
1/2+x,1/2+y,1/2+z
1/2-x,-y,1/2+z
1/2+x,1/2-y,-z
-x,1/2+y,1/2-z
loop_
_atom_site_type_symbol
_atom_site_label
_atom_site_fract_x
_atom_site_fract_y
_atom_site_fract_z
Si Si1 0.346780 0.648838 0.852884
Si Si2 0.242054 0.186102 0.713490
Si Si3 0.463938 0.841126 0.346984
Si Si4 0.454142 0.946566 0.159770
Si Si5 0.526226 0.311746 0.848915
Si Si6 0.357985 0.707799 0.147817
Si Si7 0.750000 0.408668 0.500000
Si Si8 0.797959 0.959371 0.873453
O O1 0.451299 0.657375 0.761212
O O2 0.252569 0.685412 0.787853
O O3 0.285154 0.591197 0.858545
O O4 0.371202 0.675307 0.003805
O O5 0.156995 0.181257 0.836587
O O6 0.357552 0.195795 0.778291
O O7 0.175364 0.230331 0.622511
O O8 0.260230 0.131922 0.627618
O O9 0.456216 0.897525 0.267686
O O10 0.488627 0.842735 0.507166
O O11 0.546827 0.806124 0.253547
O O12 0.576493 0.944710 0.100502
O O13 0.437902 0.000000 0.250000
O O14 0.359400 0.940404 0.045026
O O15 0.500000 0.250000 0.881092
O O16 0.797545 0.000000 0.750000
O O17 0.750000 0.991497 0.000000
#
# Coordination Sequence:
#
# PCOD9336046 Si02
#       8
#     8   8   8   8   8   8   4   8
#     4  11  23  39  65  95 128 167 222 273 319 389
#     4  11  24  40  65  96 132 176 223 271 333 398
#     4  11  24  43  66  91 136 178 214 273 342 401
#     4  10  23  47  71  94 129 177 224 278 343 401
#     4  12  26  40  60  98 138 174 217 270 326 403
#     4  11  21  42  65  93 128 180 214 267 330 397
#     4  10  24  42  68 100 124 170 234 280 332 398
#     4  11  23  43  69  95 131 167 214 277 338 400
#
# _framework density 20.006236000000001
#
# number of rings (size 3 to 8) (size 9 to 14) (size 15 to 20)
#    0.000    1.067    4.000    2.400    5.600    2.667 
#    4.800    0.667    0.000    0.000    0.000    0.000 
#    0.000    0.000    0.000    0.000    0.000    0.000 
#
# Total GULP energy -167022.725129 kJ/mol
# GULP energy per Si atom -5567.424171 kJ/mol
# Density = 1.996070 g / cm^3
# Si number density = 20.006236 Si / 1000 Ang^3
#
#
#
# Elastic Constant Matrix: (Units=GPa)
#
#
# Indices 1 2 3 4 5 6 
#
# 1 128.9879 51.0828 78.6569 0.0002 -0.0001 0.0001
# 2 51.0828 70.4566 23.5967 0.0000 0.0000 -0.0002
# 3 78.6569 23.5967 105.5547 0.0000 -0.0002 -0.0009
# 4 0.0002 0.0000 0.0000 20.4244 -0.0001 -0.0003
# 5 -0.0001 0.0000 -0.0002 -0.0001 27.4193 0.0000
# 6 0.0001 -0.0002 -0.0009 -0.0003 0.0000 12.8423
#
#
#
# Elastic Compliance Matrix: (Units=1/GPa)
#
#
# Indices 1 2 3 4 5 6 
#
# 1 0.018812 -0.009668 -0.011857 0.000000 0.000000 -0.000001
# 2 -0.009668 0.020310 0.002664 0.000000 0.000000 0.000000
# 3 -0.011857 0.002664 0.017714 0.000000 0.000000 0.000001
# 4 0.000000 0.000000 0.000000 0.048961 0.000000 0.000001
# 5 0.000000 0.000000 0.000000 0.000000 0.036471 0.000000
# 6 -0.000001 0.000000 0.000001 0.000001 0.000000 0.077868
#
#
# Mechanical properties :
#
#
# Convention : Reuss Voigt Hill
#
# Bulk Modulus (GPa) = 52.31713 67.96354 60.14034
# Shear Modulus (GPa) = 18.92302 22.24805 20.58553
#
# Velocity S-wave (km/s) = 3.07881 3.33837 3.21121
# Velocity P-wave (km/s) = 6.23265 6.99318 6.62384
#
# Compressibility (1/GPa) = 0.01911420
#
# Stress axis : x y z
#
# Youngs Moduli (GPa) = 53.15831 49.23571 56.45367
#
# Poissons Ratio (x) = 0.47601 0.66936
# Poissons Ratio (y) = 0.51393 -0.15039
# Poissons Ratio (z) = 0.63029 -0.13116
#
# Static dielectric constant tensor:
#      x y z
#    x 1.734880 0.000000 0.000000 
#    y 0.000000 1.771740 0.000000 
#    z 0.000000 0.000000 1.727730 
# 
# From -- ./inp_files/11539.got.cif
#   From: 2010.05.17/outbox.cif.g08.bks.cpg/sg24_6_cif.got.tgz:11539.got - 2010.06.04 00:33:39.
