data_PCOD9336139
_publ_section_title
;
Structure prediction by ZEFSAII (Michael W. Deem and Ramdas Pophale) SiO2 
 PCOD9336139
Probable space group: I 21 21 21
;
_chemical_formula_sum "Si O2"
_cell_formula_units_Z 40
_cell_length_a 15.340066
_cell_length_b 5.937769
_cell_length_c 17.973539
_cell_angle_alpha 90.000000
_cell_angle_beta 90.000000
_cell_angle_gamma 90.000000
_cell_volume 1637.133610
_symmetry_space_group_name_H-M "I 21 21 21"
_symmetry_group_IT_number 24
_symmetry_cell_setting 'orthorhombic'
loop_
_space_group_symop_operation_xyz
x,y,z
-x,1/2-y,z
x,-y,1/2-z
1/2-x,y,-z
1/2+x,1/2+y,1/2+z
1/2-x,-y,1/2+z
1/2+x,1/2-y,-z
-x,1/2+y,1/2-z
loop_
_atom_site_type_symbol
_atom_site_label
_atom_site_fract_x
_atom_site_fract_y
_atom_site_fract_z
Si Si1 0.590720 0.381477 0.949011
Si Si2 0.326405 0.538683 0.914247
Si Si3 0.359681 0.760710 0.060080
Si Si4 0.401200 0.748447 0.228180
Si Si5 0.591660 0.680214 0.802942
O O1 0.500000 0.250000 0.955916
O O2 0.575116 0.554679 0.881484
O O3 0.671512 0.227199 0.921963
O O4 0.620688 0.496837 0.025203
O O5 0.239323 0.684357 0.922991
O O6 0.361204 0.599878 0.833090
O O7 0.382365 0.606062 0.988440
O O8 0.404788 0.738516 0.138787
O O9 0.500000 0.750000 0.260105
O O10 0.361935 0.500000 0.250000
O O11 0.364017 0.000000 0.250000
O O12 0.500000 0.750000 0.767114
O O13 0.637120 0.500000 0.750000
#
# Coordination Sequence:
#
# PCOD9336139 Si02
#       5
#     8   8   8   8   8
#     4  11  23  42  75 102 137 184 242 291 353 439
#     4  10  24  44  64 103 135 182 234 287 357 424
#     4  10  25  43  69 100 141 178 230 298 364 425
#     4  10  24  45  70 104 139 181 240 298 362 439
#     4  11  23  40  65 101 140 182 235 290 346 421
#
# _framework density 24.432946000000001
#
# number of rings (size 3 to 8) (size 9 to 14) (size 15 to 20)
#    0.000    1.600    2.000    0.600    5.600    8.000 
#    3.600    0.000    0.000    0.000    0.000    0.000 
#    0.000    0.000    0.000    0.000    0.000    0.000 
#
# Total GULP energy -111461.978430 kJ/mol
# GULP energy per Si atom -5573.098922 kJ/mol
# Density = 2.437734 g / cm^3
# Si number density = 24.432946 Si / 1000 Ang^3
#
#
#
# Elastic Constant Matrix: (Units=GPa)
#
#
# Indices 1 2 3 4 5 6 
#
# 1 48.9214 12.2352 10.0069 0.0000 0.0000 0.0000
# 2 12.2352 119.4958 38.0500 0.0000 0.0000 0.0000
# 3 10.0069 38.0500 123.4717 0.0000 0.0000 0.0000
# 4 0.0000 0.0000 0.0000 58.1580 0.0000 0.0000
# 5 0.0000 0.0000 0.0000 0.0000 42.3758 0.0000
# 6 0.0000 0.0000 0.0000 0.0000 0.0000 22.8656
#
#
#
# Elastic Compliance Matrix: (Units=1/GPa)
#
#
# Indices 1 2 3 4 5 6 
#
# 1 0.021127 -0.001794 -0.001159 0.000000 0.000000 0.000000
# 2 -0.001794 0.009431 -0.002761 0.000000 0.000000 0.000000
# 3 -0.001159 -0.002761 0.009044 0.000000 0.000000 0.000000
# 4 0.000000 0.000000 0.000000 0.017195 0.000000 0.000000
# 5 0.000000 0.000000 0.000000 0.000000 0.023598 0.000000
# 6 0.000000 0.000000 0.000000 0.000000 0.000000 0.043734
#
#
# Mechanical properties :
#
#
# Convention : Reuss Voigt Hill
#
# Bulk Modulus (GPa) = 35.49482 45.83034 40.66258
# Shear Modulus (GPa) = 34.49498 40.11967 37.30733
#
# Velocity S-wave (km/s) = 3.76150 4.05660 3.91183
# Velocity P-wave (km/s) = 5.78136 6.38276 6.08949
#
# Compressibility (1/GPa) = 0.02817313
#
# Stress axis : x y z
#
# Youngs Moduli (GPa) = 47.33327 106.02925 110.57232
#
# Poissons Ratio (x) = 0.19022 0.12820
# Poissons Ratio (y) = 0.08492 0.30530
# Poissons Ratio (z) = 0.05488 0.29275
#
# Static dielectric constant tensor:
#      x y z
#    x 2.024220 0.000000 0.000000 
#    y 0.000000 2.066670 0.000000 
#    z 0.000000 0.000000 1.867610 
# 
# From -- ./inp_files/4496.got.cif
#   From: 2010.05.17/outbox.cif.g08.bks.cpg/sg24_3_cif.got.tgz:4496.got - 2010.06.04 00:33:39.
