data_PCOD9336979
_publ_section_title
;
Structure prediction by ZEFSAII (Michael W. Deem and Ramdas Pophale) SiO2 
 PCOD9336979
Probable space group: I 21 21 21
;
_chemical_formula_sum "Si O2"
_cell_formula_units_Z 32
_cell_length_a 7.795011
_cell_length_b 31.274608
_cell_length_c 5.537190
_cell_angle_alpha 90.000000
_cell_angle_beta 90.000000
_cell_angle_gamma 90.000000
_cell_volume 1349.888922
_symmetry_space_group_name_H-M "I 21 21 21"
_symmetry_group_IT_number 24
_symmetry_cell_setting 'orthorhombic'
loop_
_space_group_symop_operation_xyz
x,y,z
-x,1/2-y,z
x,-y,1/2-z
1/2-x,y,-z
1/2+x,1/2+y,1/2+z
1/2-x,-y,1/2+z
1/2+x,1/2-y,-z
-x,1/2+y,1/2-z
loop_
_atom_site_type_symbol
_atom_site_label
_atom_site_fract_x
_atom_site_fract_y
_atom_site_fract_z
Si Si1 0.071109 0.296706 0.350013
Si Si2 0.250000 0.641133 0.500000
Si Si3 0.750000 0.353009 0.500000
Si Si4 0.329160 0.000000 0.250000
Si Si5 0.012701 0.082461 0.724029
Si Si6 0.750000 0.027619 0.500000
O O1 0.250000 0.292924 0.500000
O O2 0.120303 0.327047 0.130733
O O3 0.000000 0.250000 0.286428
O O4 0.913518 0.322279 0.468490
O O5 0.362493 0.610775 0.333793
O O6 0.824443 0.386747 0.693814
O O7 0.250000 0.018442 0.500000
O O8 0.429803 0.959722 0.364816
O O9 0.915603 0.059163 0.499359
O O10 0.747301 0.000000 0.750000
#
# Coordination Sequence:
#
# PCOD9336979 Si02
#       6
#     8   4   4   4   8   4
#     4  12  27  53  83 119 163 204 266 343 438 506
#     4  12  29  50  80 120 156 216 274 350 412 511
#     4  12  26  48  83 112 164 212 262 349 414 502
#     4  12  30  46  72 114 162 224 282 346 402 490
#     4  12  27  47  78 112 169 213 288 335 418 486
#     4  12  27  48  77 116 170 230 282 351 416 481
#
# _framework density 23.705655
#
# number of rings (size 3 to 8) (size 9 to 14) (size 15 to 20)
#    0.000    0.000    6.250    2.250    5.250    3.000 
#    0.000    0.000    0.000    0.000    0.000    0.000 
#    0.000    0.000    0.000    0.000    0.000    0.000 
#
# Total GULP energy -89194.381757 kJ/mol
# GULP energy per Si atom -5574.648860 kJ/mol
# Density = 2.365170 g / cm^3
# Si number density = 23.705655 Si / 1000 Ang^3
#
#
#
# Elastic Constant Matrix: (Units=GPa)
#
#
# Indices 1 2 3 4 5 6 
#
# 1 146.0031 65.0994 29.4801 0.0039 -0.0018 0.0010
# 2 65.0994 216.9816 48.8785 0.0084 -0.0031 0.0017
# 3 29.4801 48.8785 82.9399 0.0238 -0.0382 0.0390
# 4 0.0039 0.0084 0.0238 41.7478 -0.0021 -0.0090
# 5 -0.0018 -0.0031 -0.0382 -0.0021 8.9711 0.0097
# 6 0.0010 0.0017 0.0390 -0.0090 0.0097 71.0045
#
#
#
# Elastic Compliance Matrix: (Units=1/GPa)
#
#
# Indices 1 2 3 4 5 6 
#
# 1 0.008102 -0.002055 -0.001669 0.000001 -0.000006 0.000001
# 2 -0.002055 0.005835 -0.002709 0.000001 -0.000010 0.000001
# 3 -0.001669 -0.002709 0.014246 -0.000007 0.000059 -0.000008
# 4 0.000001 0.000001 -0.000007 0.023953 0.000006 0.000003
# 5 -0.000006 -0.000010 0.000059 0.000006 0.111469 -0.000015
# 6 0.000001 0.000001 -0.000008 0.000003 -0.000015 0.014084
#
#
# Mechanical properties :
#
#
# Convention : Reuss Voigt Hill
#
# Bulk Modulus (GPa) = 65.27674 81.42673 73.35173
# Shear Modulus (GPa) = 25.55439 44.50912 35.03176
#
# Velocity S-wave (km/s) = 3.28683 4.33780 3.84836
# Velocity P-wave (km/s) = 6.48078 7.71442 7.12435
#
# Compressibility (1/GPa) = 0.01531939
#
# Stress axis : x y z
#
# Youngs Moduli (GPa) = 123.42020 171.36921 70.19352
#
# Poissons Ratio (x) = 0.35216 0.11714
# Poissons Ratio (y) = 0.25362 0.19012
# Poissons Ratio (z) = 0.20597 0.46415
#
# Static dielectric constant tensor:
#      x y z
#    x 2.056510 -0.000010 -0.000020 
#    y -0.000010 1.841400 0.000010 
#    z -0.000020 0.000010 1.937560 
# 
# From -- ./inp_files/1351.got.cif
#   From: 2010.05.17/outbox.cif.g08.bks.cpg/sg24_1_cif.got.tgz:1351.got - 2010.06.04 00:33:39.
