data_PCOD9336711
_publ_section_title
;
Structure prediction by ZEFSAII (Michael W. Deem and Ramdas Pophale) SiO2 
 PCOD9336711
Probable space group: I 21 21 21
;
_chemical_formula_sum "Si O2"
_cell_formula_units_Z 40
_cell_length_a 15.299305
_cell_length_b 14.786330
_cell_length_c 7.794895
_cell_angle_alpha 90.000000
_cell_angle_beta 90.000000
_cell_angle_gamma 90.000000
_cell_volume 1763.365609
_symmetry_space_group_name_H-M "I 21 21 21"
_symmetry_group_IT_number 24
_symmetry_cell_setting 'orthorhombic'
loop_
_space_group_symop_operation_xyz
x,y,z
-x,1/2-y,z
x,-y,1/2-z
1/2-x,y,-z
1/2+x,1/2+y,1/2+z
1/2-x,-y,1/2+z
1/2+x,1/2-y,-z
-x,1/2+y,1/2-z
loop_
_atom_site_type_symbol
_atom_site_label
_atom_site_fract_x
_atom_site_fract_y
_atom_site_fract_z
Si Si1 0.591055 0.621999 0.861338
Si Si2 0.267939 0.765820 0.694140
Si Si3 0.160020 0.573333 0.399356
Si Si4 0.581614 0.302088 0.275462
Si Si5 0.968410 0.572596 0.489664
O O1 0.686617 0.657551 0.807713
O O2 0.539991 0.633940 0.682222
O O3 0.576411 0.520093 0.927132
O O4 0.563104 0.676600 0.028019
O O5 0.250000 0.797962 0.500000
O O6 0.325078 0.674559 0.676992
O O7 0.171387 0.747372 0.765224
O O8 0.148199 0.500000 0.250000
O O9 0.250000 0.554426 0.500000
O O10 0.072797 0.565049 0.515176
O O11 0.500000 0.250000 0.197861
O O12 0.582266 0.390046 0.154172
#
# Coordination Sequence:
#
# PCOD9336711 Si02
#       5
#     8   8   8   8   8
#     4  11  25  46  74 106 139 196 243 294 370 431
#     4  11  24  47  71 107 145 191 241 301 369 432
#     4  11  25  45  74 105 146 196 236 304 365 438
#     4  12  26  44  75 110 144 193 243 301 363 442
#     4  11  25  50  70 105 149 190 238 309 368 428
#
# _framework density 22.683896000000001
#
# number of rings (size 3 to 8) (size 9 to 14) (size 15 to 20)
#    0.000    0.800    4.000    3.600    2.800    4.800 
#   14.400    0.000    0.000    0.000    0.000    0.000 
#    0.000    0.000    0.000    0.000    0.000    0.000 
#
# Total GULP energy -111678.406076 kJ/mol
# GULP energy per Si atom -5583.920304 kJ/mol
# Density = 2.263227 g / cm^3
# Si number density = 22.683896 Si / 1000 Ang^3
#
#
#
# Elastic Constant Matrix: (Units=GPa)
#
#
# Indices 1 2 3 4 5 6 
#
# 1 102.1447 51.3733 -1.6575 0.0000 0.0000 0.0000
# 2 51.3733 84.5738 24.4848 0.0000 0.0000 0.0000
# 3 -1.6575 24.4848 107.1543 0.0000 0.0000 0.0000
# 4 0.0000 0.0000 0.0000 13.1914 0.0000 0.0000
# 5 0.0000 0.0000 0.0000 0.0000 26.9951 0.0000
# 6 0.0000 0.0000 0.0000 0.0000 0.0000 -17.1941
#
#
#
# Elastic Compliance Matrix: (Units=1/GPa)
#
#
# Indices 1 2 3 4 5 6 
#
# 1 0.014661 -0.009607 0.002422 0.000000 0.000000 0.000000
# 2 -0.009607 0.018957 -0.004480 0.000000 0.000000 0.000000
# 3 0.002422 -0.004480 0.010394 0.000000 0.000000 0.000000
# 4 0.000000 0.000000 0.000000 0.075807 0.000000 0.000000
# 5 0.000000 0.000000 0.000000 0.000000 0.037044 0.000000
# 6 0.000000 0.000000 0.000000 0.000000 0.000000 -0.058160
#
#
# Mechanical properties :
#
#
# Convention : Reuss Voigt Hill
#
# Bulk Modulus (GPa) = 48.35356 49.14156 48.74756
# Shear Modulus (GPa) = 38.78181 19.24328 29.01254
#
# Velocity S-wave (km/s) = 4.13929 2.91576 3.58018
# Velocity P-wave (km/s) = 6.64887 5.74858 6.21505
#
# Compressibility (1/GPa) = 0.02068100
#
# Stress axis : x y z
#
# Youngs Moduli (GPa) = 68.20795 52.75208 96.21370
#
# Poissons Ratio (x) = 0.50678 -0.23302
# Poissons Ratio (y) = 0.65526 0.43106
# Poissons Ratio (z) = -0.16520 0.23634
#
# Static dielectric constant tensor:
#      x y z
#    x 1.888130 0.000000 0.000000 
#    y 0.000000 1.929340 0.000000 
#    z 0.000000 0.000000 1.893760 
# 
# From -- ./inp_files/12296.got.cif
#   From: 2010.05.17/outbox.cif.g08.bks.cpg/sg24_7_cif.got.tgz:12296.got - 2010.06.04 00:33:39.
