data_PCOD9336217
_publ_section_title
;
Structure prediction by ZEFSAII (Michael W. Deem and Ramdas Pophale) SiO2 
 PCOD9336217
Probable space group: I 21 21 21
;
_chemical_formula_sum "Si O2"
_cell_formula_units_Z 40
_cell_length_a 8.780557
_cell_length_b 11.373497
_cell_length_c 17.141887
_cell_angle_alpha 90.000000
_cell_angle_beta 90.000000
_cell_angle_gamma 90.000000
_cell_volume 1711.885494
_symmetry_space_group_name_H-M "I 21 21 21"
_symmetry_group_IT_number 24
_symmetry_cell_setting 'orthorhombic'
loop_
_space_group_symop_operation_xyz
x,y,z
-x,1/2-y,z
x,-y,1/2-z
1/2-x,y,-z
1/2+x,1/2+y,1/2+z
1/2-x,-y,1/2+z
1/2+x,1/2-y,-z
-x,1/2+y,1/2-z
loop_
_atom_site_type_symbol
_atom_site_label
_atom_site_fract_x
_atom_site_fract_y
_atom_site_fract_z
Si Si1 0.941661 0.377185 0.611438
Si Si2 0.720429 0.998290 0.335911
Si Si3 0.182802 0.247118 0.912433
Si Si4 0.905408 0.041002 0.455600
Si Si5 0.333731 0.978982 0.657781
O O1 0.768870 0.412061 0.626655
O O2 0.000000 0.250000 0.635206
O O3 0.044370 0.468322 0.659766
O O4 0.995075 0.397838 0.521613
O O5 0.733784 0.867419 0.370572
O O6 0.779842 0.000000 0.250000
O O7 0.810345 0.099130 0.385249
O O8 0.237747 0.138638 0.859647
O O9 0.000000 0.250000 0.919742
O O10 0.250000 0.233743 0.000000
O O11 0.750000 0.994693 0.500000
O O12 0.023261 0.968655 0.401991
O O13 0.363782 0.000000 0.750000
#
# Coordination Sequence:
#
# PCOD9336217 Si02
#       5
#     8   8   8   8   8
#     4  11  24  44  76 104 146 197 247 309 373 451
#     4  11  25  44  71 104 150 192 250 315 377 436
#     4  12  27  46  77 108 150 206 257 308 377 463
#     4  10  24  47  70 104 142 197 250 302 371 453
#     4  12  27  45  75 113 152 193 255 318 378 447
#
# _framework density 23.366050000000001
#
# number of rings (size 3 to 8) (size 9 to 14) (size 15 to 20)
#    0.000    0.800    2.000    4.800    8.400    4.800 
#    0.000    0.000    0.000    0.000    0.000    0.000 
#    0.000    0.000    0.000    0.000    0.000    0.000 
#
# Total GULP energy -111403.170771 kJ/mol
# GULP energy per Si atom -5570.158539 kJ/mol
# Density = 2.331287 g / cm^3
# Si number density = 23.366050 Si / 1000 Ang^3
#
#
#
# Elastic Constant Matrix: (Units=GPa)
#
#
# Indices 1 2 3 4 5 6 
#
# 1 162.1480 39.7183 35.0775 0.0000 0.0000 0.0000
# 2 39.7183 119.3795 43.2881 0.0000 0.0000 0.0000
# 3 35.0775 43.2881 151.7416 0.0000 0.0000 0.0000
# 4 0.0000 0.0000 0.0000 16.9786 0.0000 0.0000
# 5 0.0000 0.0000 0.0000 0.0000 12.4786 0.0000
# 6 0.0000 0.0000 0.0000 0.0000 0.0000 16.7580
#
#
#
# Elastic Compliance Matrix: (Units=1/GPa)
#
#
# Indices 1 2 3 4 5 6 
#
# 1 0.006859 -0.001904 -0.001042 0.000000 0.000000 0.000000
# 2 -0.001904 0.009872 -0.002376 0.000000 0.000000 0.000000
# 3 -0.001042 -0.002376 0.007509 0.000000 0.000000 0.000000
# 4 0.000000 0.000000 0.000000 0.058898 0.000000 0.000000
# 5 0.000000 0.000000 0.000000 0.000000 0.080137 0.000000
# 6 0.000000 0.000000 0.000000 0.000000 0.000000 0.059673
#
#
# Mechanical properties :
#
#
# Convention : Reuss Voigt Hill
#
# Bulk Modulus (GPa) = 73.55761 74.38188 73.96974
# Shear Modulus (GPa) = 20.99743 30.25538 25.62640
#
# Velocity S-wave (km/s) = 3.00097 3.60230 3.31529
# Velocity P-wave (km/s) = 6.59975 7.01459 6.81033
#
# Compressibility (1/GPa) = 0.01359479
#
# Stress axis : x y z
#
# Youngs Moduli (GPa) = 145.79140 101.29965 133.17473
#
# Poissons Ratio (x) = 0.19288 0.13882
# Poissons Ratio (y) = 0.27760 0.31642
# Poissons Ratio (z) = 0.15197 0.24069
#
# Static dielectric constant tensor:
#      x y z
#    x 2.015270 0.000000 0.000000 
#    y 0.000000 1.875110 0.000000 
#    z 0.000000 0.000000 2.009470 
# 
# From -- ./inp_files/29252.got.cif
#   From: 2010.05.17/outbox.cif.g08.bks.cpg/sg24_15_cif.got.tgz:29252.got - 2010.06.04 00:33:39.
