data_PCOD9336260
_publ_section_title
;
Structure prediction by ZEFSAII (Michael W. Deem and Ramdas Pophale) SiO2 
 PCOD9336260
Probable space group: I 21 21 21
;
_chemical_formula_sum "Si O2"
_cell_formula_units_Z 44
_cell_length_a 13.362924
_cell_length_b 13.890914
_cell_length_c 9.399629
_cell_angle_alpha 90.000000
_cell_angle_beta 90.000000
_cell_angle_gamma 90.000000
_cell_volume 1744.789478
_symmetry_space_group_name_H-M "I 21 21 21"
_symmetry_group_IT_number 24
_symmetry_cell_setting 'orthorhombic'
loop_
_space_group_symop_operation_xyz
x,y,z
-x,1/2-y,z
x,-y,1/2-z
1/2-x,y,-z
1/2+x,1/2+y,1/2+z
1/2-x,-y,1/2+z
1/2+x,1/2-y,-z
-x,1/2+y,1/2-z
loop_
_atom_site_type_symbol
_atom_site_label
_atom_site_fract_x
_atom_site_fract_y
_atom_site_fract_z
Si Si1 0.837429 0.000000 0.250000
Si Si2 0.114561 0.760960 0.681212
Si Si3 0.512167 0.355218 0.762123
Si Si4 0.932209 0.448567 0.951148
Si Si5 0.865852 0.659974 0.974542
Si Si6 0.172149 0.557515 0.595256
O O1 0.810084 0.967234 0.422092
O O2 0.908585 0.906697 0.218280
O O3 0.136452 0.866560 0.620595
O O4 0.111619 0.763418 0.851979
O O5 0.180122 0.672365 0.628844
O O6 0.000000 0.750000 0.634976
O O7 0.500000 0.250000 0.830284
O O8 0.575716 0.333950 0.621915
O O9 0.562518 0.423285 0.880521
O O10 0.890021 0.553186 0.920757
O O11 0.048984 0.452780 0.903045
O O12 0.750000 0.669684 0.000000
O O13 0.201944 0.500000 0.750000
#
# Coordination Sequence:
#
# PCOD9336260 Si02
#       6
#     4   8   8   8   8   8
#     4  12  26  46  78 110 144 192 238 314 372 438
#     4  10  25  44  69 102 140 186 234 307 361 425
#     4  12  25  49  74 105 148 190 242 308 367 444
#     4  11  24  47  73 100 146 190 249 301 354 442
#     4  12  27  45  67 103 144 192 239 294 373 433
#     4  11  23  44  74 109 141 187 251 298 373 439
#
# _framework density 25.217942000000001
#
# number of rings (size 3 to 8) (size 9 to 14) (size 15 to 20)
#    0.000    0.727    3.636    2.727    7.636    3.636 
#    3.273    0.000    0.000    0.000    0.000    0.000 
#    0.000    0.000    0.000    0.000    0.000    0.000 
#
# Total GULP energy -123020.486304 kJ/mol
# GULP energy per Si atom -5591.840287 kJ/mol
# Density = 2.516055 g / cm^3
# Si number density = 25.217942 Si / 1000 Ang^3
#
#
#
# Elastic Constant Matrix: (Units=GPa)
#
#
# Indices 1 2 3 4 5 6 
#
# 1 118.1282 42.6091 85.4052 0.0000 0.0000 0.0000
# 2 42.6091 108.1521 57.9489 0.0000 0.0000 0.0000
# 3 85.4052 57.9489 214.2737 0.0000 0.0000 0.0000
# 4 0.0000 0.0000 0.0000 122.4041 0.0000 0.0000
# 5 0.0000 0.0000 0.0000 0.0000 33.8936 0.0000
# 6 0.0000 0.0000 0.0000 0.0000 0.0000 -21.1361
#
#
#
# Elastic Compliance Matrix: (Units=1/GPa)
#
#
# Indices 1 2 3 4 5 6 
#
# 1 0.012505 -0.002638 -0.004271 0.000000 0.000000 0.000000
# 2 -0.002638 0.011370 -0.002023 0.000000 0.000000 0.000000
# 3 -0.004271 -0.002023 0.006916 0.000000 0.000000 0.000000
# 4 0.000000 0.000000 0.000000 0.008170 0.000000 0.000000
# 5 0.000000 0.000000 0.000000 0.000000 0.029504 0.000000
# 6 0.000000 0.000000 0.000000 0.000000 0.000000 -0.047312
#
#
# Mechanical properties :
#
#
# Convention : Reuss Voigt Hill
#
# Bulk Modulus (GPa) = 77.36157 90.27560 83.81859
# Shear Modulus (GPa) = 115.40684 44.00504 79.70594
#
# Velocity S-wave (km/s) = 6.77223 4.18184 5.62809
# Velocity P-wave (km/s) = 9.58617 7.69369 8.69159
#
# Compressibility (1/GPa) = 0.01292631
#
# Stress axis : x y z
#
# Youngs Moduli (GPa) = 79.97072 87.95260 144.58634
#
# Poissons Ratio (x) = 0.23204 0.61747
# Poissons Ratio (y) = 0.21098 0.29254
# Poissons Ratio (z) = 0.34152 0.17796
#
# Static dielectric constant tensor:
#      x y z
#    x 1.975590 0.000000 0.000000 
#    y 0.000000 2.019440 0.000000 
#    z 0.000000 0.000000 2.028980 
# 
# From -- ./inp_files/14055.got.cif
#   From: 2010.05.17/outbox.cif.g08.bks.cpg/sg24_8_cif.got.tgz:14055.got - 2010.06.04 00:33:39.
