data_PCOD9336533
_publ_section_title
;
Structure prediction by ZEFSAII (Michael W. Deem and Ramdas Pophale) SiO2 
 PCOD9336533
Probable space group: I 21 21 21
;
_chemical_formula_sum "Si O2"
_cell_formula_units_Z 32
_cell_length_a 14.464271
_cell_length_b 10.662863
_cell_length_c 9.349366
_cell_angle_alpha 90.000000
_cell_angle_beta 90.000000
_cell_angle_gamma 90.000000
_cell_volume 1441.957767
_symmetry_space_group_name_H-M "I 21 21 21"
_symmetry_group_IT_number 24
_symmetry_cell_setting 'orthorhombic'
loop_
_space_group_symop_operation_xyz
x,y,z
-x,1/2-y,z
x,-y,1/2-z
1/2-x,y,-z
1/2+x,1/2+y,1/2+z
1/2-x,-y,1/2+z
1/2+x,1/2-y,-z
-x,1/2+y,1/2-z
loop_
_atom_site_type_symbol
_atom_site_label
_atom_site_fract_x
_atom_site_fract_y
_atom_site_fract_z
Si Si1 0.243054 0.627624 0.171828
Si Si2 0.994996 0.043403 0.087409
Si Si3 0.345928 0.238151 0.911848
Si Si4 0.456184 0.380355 0.330506
O O1 0.210297 0.500000 0.250000
O O2 0.184404 0.737932 0.245809
O O3 0.350235 0.635566 0.212839
O O4 0.250000 0.622031 0.000000
O O5 0.092978 0.113992 0.063178
O O6 0.915168 0.146123 0.053385
O O7 0.993990 0.000000 0.250000
O O8 0.972354 0.921242 0.993570
O O9 0.250000 0.242184 0.000000
O O10 0.500000 0.250000 0.294716
O O11 0.497135 0.500000 0.250000
#
# Coordination Sequence:
#
# PCOD9336533 Si02
#       4
#     8   8   8   8
#     4  11  22  40  70 103 135 185 248 295 353 443
#     4  11  26  45  73 105 144 191 243 301 364 437
#     4  11  24  45  73 103 146 189 241 303 370 433
#     4  11  26  44  72 103 144 190 242 296 360 437
#
# _framework density 22.192050999999999
#
# number of rings (size 3 to 8) (size 9 to 14) (size 15 to 20)
#    0.000    1.000    0.000    7.500   14.000    0.000 
#    4.500    0.000    0.000    0.000    0.000    0.000 
#    0.000    0.000    0.000    0.000    0.000    0.000 
#
# Total GULP energy -89424.666078 kJ/mol
# GULP energy per Si atom -5589.041630 kJ/mol
# Density = 2.214154 g / cm^3
# Si number density = 22.192051 Si / 1000 Ang^3
#
#
#
# Elastic Constant Matrix: (Units=GPa)
#
#
# Indices 1 2 3 4 5 6 
#
# 1 142.3249 54.9091 19.2192 0.0000 0.0000 0.0000
# 2 54.9091 93.1162 -0.2295 0.0000 0.0000 0.0000
# 3 19.2192 -0.2295 104.8148 0.0000 0.0000 0.0000
# 4 0.0000 0.0000 0.0000 21.4179 0.0000 0.0000
# 5 0.0000 0.0000 0.0000 0.0000 61.5360 0.0000
# 6 0.0000 0.0000 0.0000 0.0000 0.0000 18.7224
#
#
#
# Elastic Compliance Matrix: (Units=1/GPa)
#
#
# Indices 1 2 3 4 5 6 
#
# 1 0.009401 -0.005548 -0.001736 0.000000 0.000000 0.000000
# 2 -0.005548 0.014013 0.001048 0.000000 0.000000 0.000000
# 3 -0.001736 0.001048 0.009861 0.000000 0.000000 0.000000
# 4 0.000000 0.000000 0.000000 0.046690 0.000000 0.000000
# 5 0.000000 0.000000 0.000000 0.000000 0.016251 0.000000
# 6 0.000000 0.000000 0.000000 0.000000 0.000000 0.053412
#
#
# Mechanical properties :
#
#
# Convention : Reuss Voigt Hill
#
# Bulk Modulus (GPa) = 48.06805 54.22818 51.14812
# Shear Modulus (GPa) = 29.57976 38.09240 33.83608
#
# Velocity S-wave (km/s) = 3.65485 4.14755 3.90897
# Velocity P-wave (km/s) = 6.28630 6.88659 6.59328
#
# Compressibility (1/GPa) = 0.02080384
#
# Stress axis : x y z
#
# Youngs Moduli (GPa) = 106.37199 71.36051 101.40711
#
# Poissons Ratio (x) = 0.39590 0.17604
# Poissons Ratio (y) = 0.59014 -0.10627
# Poissons Ratio (z) = 0.18466 -0.07478
#
# Static dielectric constant tensor:
#      x y z
#    x 1.814240 0.000000 0.000000 
#    y 0.000000 1.812970 0.000000 
#    z 0.000000 0.000000 2.270640 
# 
# From -- ./inp_files/10204.got.cif
#   From: 2010.05.17/outbox.cif.g08.bks.cpg/sg24_6_cif.got.tgz:10204.got - 2010.06.04 00:33:39.
