data_PCOD9336984
_publ_section_title
;
Structure prediction by ZEFSAII (Michael W. Deem and Ramdas Pophale) SiO2 
 PCOD9336984
Probable space group: I 21 21 21
;
_chemical_formula_sum "Si O2"
_cell_formula_units_Z 32
_cell_length_a 5.500173
_cell_length_b 19.310630
_cell_length_c 12.556835
_cell_angle_alpha 90.000000
_cell_angle_beta 90.000000
_cell_angle_gamma 90.000000
_cell_volume 1333.684120
_symmetry_space_group_name_H-M "I 21 21 21"
_symmetry_group_IT_number 24
_symmetry_cell_setting 'orthorhombic'
loop_
_space_group_symop_operation_xyz
x,y,z
-x,1/2-y,z
x,-y,1/2-z
1/2-x,y,-z
1/2+x,1/2+y,1/2+z
1/2-x,-y,1/2+z
1/2+x,1/2-y,-z
-x,1/2+y,1/2-z
loop_
_atom_site_type_symbol
_atom_site_label
_atom_site_fract_x
_atom_site_fract_y
_atom_site_fract_z
Si Si1 0.250000 0.005722 0.000000
Si Si2 0.990480 0.171833 0.323267
Si Si3 0.160263 0.073596 0.795008
Si Si4 0.250000 0.420001 0.500000
Si Si5 0.679156 0.187162 0.121775
O O1 0.324283 0.050808 0.896056
O O2 0.498773 0.962192 0.019408
O O3 0.811854 0.127630 0.397650
O O4 0.894997 0.184917 0.204605
O O5 0.000000 0.250000 0.370610
O O6 0.220720 0.122103 0.296398
O O7 0.956045 0.116291 0.854492
O O8 0.077314 0.000000 0.750000
O O9 0.500000 0.250000 0.150688
O O10 0.750000 0.195096 0.000000
#
# Coordination Sequence:
#
# PCOD9336984 Si02
#       5
#     4   8   8   4   8
#     4  12  28  51  80 123 160 214 276 338 420 481
#     4  12  27  51  79 116 160 217 275 340 412 496
#     4  12  26  50  78 113 161 210 270 341 409 495
#     4  12  30  53  82 117 170 220 274 342 408 503
#     4  12  27  47  79 117 160 210 274 343 419 488
#
# _framework density 23.993689
#
# number of rings (size 3 to 8) (size 9 to 14) (size 15 to 20)
#    0.000    0.000    5.000    3.750    7.000    3.000 
#    0.000    0.000    0.000    0.000    0.000    0.000 
#    0.000    0.000    0.000    0.000    0.000    0.000 
#
# Total GULP energy -89417.084283 kJ/mol
# GULP energy per Si atom -5588.567768 kJ/mol
# Density = 2.393908 g / cm^3
# Si number density = 23.993689 Si / 1000 Ang^3
#
#
#
# Elastic Constant Matrix: (Units=GPa)
#
#
# Indices 1 2 3 4 5 6 
#
# 1 89.7722 48.0308 1.1655 0.0000 0.0000 0.0000
# 2 48.0308 161.2690 10.0279 0.0000 0.0000 0.0000
# 3 1.1655 10.0279 78.5354 0.0000 0.0000 0.0000
# 4 0.0000 0.0000 0.0000 42.6955 0.0000 0.0000
# 5 0.0000 0.0000 0.0000 0.0000 41.1188 0.0000
# 6 0.0000 0.0000 0.0000 0.0000 0.0000 52.2428
#
#
#
# Elastic Compliance Matrix: (Units=1/GPa)
#
#
# Indices 1 2 3 4 5 6 
#
# 1 0.013258 -0.003968 0.000310 0.000000 0.000000 0.000000
# 2 -0.003968 0.007438 -0.000891 0.000000 0.000000 0.000000
# 3 0.000310 -0.000891 0.012842 0.000000 0.000000 0.000000
# 4 0.000000 0.000000 0.000000 0.023422 0.000000 0.000000
# 5 0.000000 0.000000 0.000000 0.000000 0.024320 0.000000
# 6 0.000000 0.000000 0.000000 0.000000 0.000000 0.019141
#
#
# Mechanical properties :
#
#
# Convention : Reuss Voigt Hill
#
# Bulk Modulus (GPa) = 40.91541 49.78056 45.34798
# Shear Modulus (GPa) = 42.49312 45.23492 43.86402
#
# Velocity S-wave (km/s) = 4.21291 4.34670 4.28032
# Velocity P-wave (km/s) = 6.38391 6.78116 6.58553
#
# Compressibility (1/GPa) = 0.02444067
#
# Stress axis : x y z
#
# Youngs Moduli (GPa) = 75.42458 134.44471 77.86795
#
# Poissons Ratio (x) = 0.53348 -0.02413
# Poissons Ratio (y) = 0.29928 0.06937
# Poissons Ratio (z) = -0.02337 0.11977
#
# Static dielectric constant tensor:
#      x y z
#    x 1.919150 0.000000 0.000000 
#    y 0.000000 1.716140 0.000000 
#    z 0.000000 0.000000 1.928710 
# 
# From -- ./inp_files/17398.got.cif
#   From: 2010.05.17/outbox.cif.g08.bks.cpg/sg24_9_cif.got.tgz:17398.got - 2010.06.04 00:33:39.
