data_PCOD9336981
_publ_section_title
;
Structure prediction by ZEFSAII (Michael W. Deem and Ramdas Pophale) SiO2 
 PCOD9336981
Probable space group: I 21 21 21
;
_chemical_formula_sum "Si O2"
_cell_formula_units_Z 32
_cell_length_a 5.098172
_cell_length_b 13.425901
_cell_length_c 19.899096
_cell_angle_alpha 90.000000
_cell_angle_beta 90.000000
_cell_angle_gamma 90.000000
_cell_volume 1362.044419
_symmetry_space_group_name_H-M "I 21 21 21"
_symmetry_group_IT_number 24
_symmetry_cell_setting 'orthorhombic'
loop_
_space_group_symop_operation_xyz
x,y,z
-x,1/2-y,z
x,-y,1/2-z
1/2-x,y,-z
1/2+x,1/2+y,1/2+z
1/2-x,-y,1/2+z
1/2+x,1/2-y,-z
-x,1/2+y,1/2-z
loop_
_atom_site_type_symbol
_atom_site_label
_atom_site_fract_x
_atom_site_fract_y
_atom_site_fract_z
Si Si1 0.250000 0.319205 0.500000
Si Si2 0.636779 0.934161 0.868458
Si Si3 0.165582 0.899286 0.786203
Si Si4 0.339967 0.354199 0.923033
Si Si5 0.000000 0.250000 0.818891
O O1 0.500000 0.250000 0.503218
O O2 0.258517 0.386952 0.434598
O O3 0.374359 0.879251 0.844366
O O4 0.870383 0.921206 0.813381
O O5 0.544182 0.045045 0.891651
O O6 0.180590 0.810750 0.732408
O O7 0.258487 0.000000 0.750000
O O8 0.500000 0.250000 0.923004
O O9 0.112127 0.331462 0.869726
O O10 0.250000 0.370303 0.000000
#
# Coordination Sequence:
#
# PCOD9336981 Si02
#       5
#     4   8   8   8   4
#     4  12  28  52  78 112 152 202 264 322 378 452
#     4  12  28  51  76 112 152 204 255 322 384 455
#     4  12  27  48  75 109 155 198 251 307 386 464
#     4  12  26  49  79 113 154 202 261 325 394 461
#     4  12  28  48  74 112 154 204 252 322 382 472
#
# _framework density 23.494095999999999
#
# number of rings (size 3 to 8) (size 9 to 14) (size 15 to 20)
#    0.000    0.000    5.000    3.750    8.750    0.000 
#    2.250    0.000    0.000    0.000    0.000    0.000 
#    0.000    0.000    0.000    0.000    0.000    0.000 
#
# Total GULP energy -89483.371285 kJ/mol
# GULP energy per Si atom -5592.710705 kJ/mol
# Density = 2.344062 g / cm^3
# Si number density = 23.494096 Si / 1000 Ang^3
#
#
#
# Elastic Constant Matrix: (Units=GPa)
#
#
# Indices 1 2 3 4 5 6 
#
# 1 68.7402 -16.8769 21.9850 0.0000 0.0000 0.0000
# 2 -16.8769 50.6326 26.6567 0.0000 0.0000 0.0000
# 3 21.9850 26.6567 143.0046 0.0000 0.0000 0.0000
# 4 0.0000 0.0000 0.0000 116.2748 0.0000 0.0000
# 5 0.0000 0.0000 0.0000 0.0000 15.7540 0.0000
# 6 0.0000 0.0000 0.0000 0.0000 0.0000 26.7067
#
#
#
# Elastic Compliance Matrix: (Units=1/GPa)
#
#
# Indices 1 2 3 4 5 6 
#
# 1 0.017945 0.008243 -0.004295 0.000000 0.000000 0.000000
# 2 0.008243 0.025686 -0.006055 0.000000 0.000000 0.000000
# 3 -0.004295 -0.006055 0.008782 0.000000 0.000000 0.000000
# 4 0.000000 0.000000 0.000000 0.008600 0.000000 0.000000
# 5 0.000000 0.000000 0.000000 0.000000 0.063476 0.000000
# 6 0.000000 0.000000 0.000000 0.000000 0.000000 0.037444
#
#
# Mechanical properties :
#
#
# Convention : Reuss Voigt Hill
#
# Bulk Modulus (GPa) = 20.74809 36.21188 28.47998
# Shear Modulus (GPa) = 27.44039 47.12128 37.28084
#
# Velocity S-wave (km/s) = 3.42126 4.48332 3.98781
# Velocity P-wave (km/s) = 4.94541 6.49976 5.77512
#
# Compressibility (1/GPa) = 0.04819721
#
# Stress axis : x y z
#
# Youngs Moduli (GPa) = 55.72569 38.93246 113.87158
#
# Poissons Ratio (x) = -0.32091 0.48911
# Poissons Ratio (y) = -0.45934 0.68951
# Poissons Ratio (z) = 0.23936 0.23574
#
# Static dielectric constant tensor:
#      x y z
#    x 1.862580 0.000000 0.000000 
#    y 0.000000 2.182690 0.000000 
#    z 0.000000 0.000000 1.841030 
# 
# From -- ./inp_files/3105.got.cif
#   From: 2010.05.17/outbox.cif.g08.bks.cpg/sg24_2_cif.got.tgz:3105.got - 2010.06.04 00:33:39.
