data_PCOD9336790
_publ_section_title
;
Structure prediction by ZEFSAII (Michael W. Deem and Ramdas Pophale) SiO2 
 PCOD9336790
Probable space group: I 21 21 21
;
_chemical_formula_sum "Si O2"
_cell_formula_units_Z 32
_cell_length_a 5.395385
_cell_length_b 14.309668
_cell_length_c 14.848135
_cell_angle_alpha 90.000000
_cell_angle_beta 90.000000
_cell_angle_gamma 90.000000
_cell_volume 1146.367607
_symmetry_space_group_name_H-M "I 21 21 21"
_symmetry_group_IT_number 24
_symmetry_cell_setting 'orthorhombic'
loop_
_space_group_symop_operation_xyz
x,y,z
-x,1/2-y,z
x,-y,1/2-z
1/2-x,y,-z
1/2+x,1/2+y,1/2+z
1/2-x,-y,1/2+z
1/2+x,1/2-y,-z
-x,1/2+y,1/2-z
loop_
_atom_site_type_symbol
_atom_site_label
_atom_site_fract_x
_atom_site_fract_y
_atom_site_fract_z
Si Si1 0.250000 0.123337 0.500000
Si Si2 0.736551 0.500000 0.750000
Si Si3 0.750000 0.691828 0.500000
Si Si4 0.639207 0.845080 0.701727
Si Si5 0.483074 0.534619 0.417499
Si Si6 0.500000 0.750000 0.152853
O O1 0.317640 0.192794 0.416734
O O2 0.477105 0.044663 0.495349
O O3 0.554636 0.587025 0.747483
O O4 0.922548 0.482743 0.669260
O O5 0.500000 0.750000 0.499642
O O6 0.689740 0.616272 0.423784
O O7 0.500000 0.750000 0.675250
O O8 0.748429 0.903658 0.615374
O O9 0.838717 0.812012 0.776545
#
# Coordination Sequence:
#
# PCOD9336790 Si02
#       6
#     4   4   4   8   8   4
#     4  11  26  52  75 120 182 224 273 386 460 561
#     4  12  26  44  82 116 158 220 286 368 432 546
#     4  11  30  50  79 118 162 224 285 374 448 551
#     4  12  27  49  84 123 170 237 305 380 456 574
#     4  11  27  51  75 118 172 217 300 362 464 543
#     4  12  28  48  84 124 176 226 306 358 470 568
#
# _framework density 27.914258
#
# number of rings (size 3 to 8) (size 9 to 14) (size 15 to 20)
#    0.000    0.500    0.000    6.750   14.000    0.000 
#    0.000    0.000    0.000    0.000    0.000    0.000 
#    0.000    0.000    0.000    0.000    0.000    0.000 
#
# Total GULP energy -89286.253448 kJ/mol
# GULP energy per Si atom -5580.390840 kJ/mol
# Density = 2.785072 g / cm^3
# Si number density = 27.914258 Si / 1000 Ang^3
#
#
#
# Elastic Constant Matrix: (Units=GPa)
#
#
# Indices 1 2 3 4 5 6 
#
# 1 129.8867 58.3936 19.2812 0.0000 0.0000 0.0000
# 2 58.3936 186.9898 43.5258 0.0000 0.0000 0.0000
# 3 19.2812 43.5258 98.4153 0.0000 0.0000 0.0000
# 4 0.0000 0.0000 0.0000 46.1464 0.0000 0.0000
# 5 0.0000 0.0000 0.0000 0.0000 21.5296 0.0000
# 6 0.0000 0.0000 0.0000 0.0000 0.0000 84.5324
#
#
#
# Elastic Compliance Matrix: (Units=1/GPa)
#
#
# Indices 1 2 3 4 5 6 
#
# 1 0.008986 -0.002671 -0.000579 0.000000 0.000000 0.000000
# 2 -0.002671 0.006756 -0.002464 0.000000 0.000000 0.000000
# 3 -0.000579 -0.002464 0.011364 0.000000 0.000000 0.000000
# 4 0.000000 0.000000 0.000000 0.021670 0.000000 0.000000
# 5 0.000000 0.000000 0.000000 0.000000 0.046448 0.000000
# 6 0.000000 0.000000 0.000000 0.000000 0.000000 0.011830
#
#
# Mechanical properties :
#
#
# Convention : Reuss Voigt Hill
#
# Bulk Modulus (GPa) = 63.79035 73.07699 68.43367
# Shear Modulus (GPa) = 40.41743 50.04776 45.23259
#
# Velocity S-wave (km/s) = 3.80927 4.23887 4.02980
# Velocity P-wave (km/s) = 6.49994 7.08472 6.79862
#
# Compressibility (1/GPa) = 0.01567635
#
# Stress axis : x y z
#
# Youngs Moduli (GPa) = 111.28479 148.02168 87.99390
#
# Poissons Ratio (x) = 0.39542 0.05095
# Poissons Ratio (y) = 0.29728 0.21686
# Poissons Ratio (z) = 0.06444 0.36480
#
# Static dielectric constant tensor:
#      x y z
#    x 2.249100 0.000000 0.000000 
#    y 0.000000 2.233070 0.000000 
#    z 0.000000 0.000000 2.354950 
# 
# From -- ./inp_files/28522.got.cif
#   From: 2010.05.17/outbox.cif.g08.bks.cpg/sg24_15_cif.got.tgz:28522.got - 2010.06.04 00:33:39.
