data_PCOD9336785
_publ_section_title
;
Structure prediction by ZEFSAII (Michael W. Deem and Ramdas Pophale) SiO2 
 PCOD9336785
Probable space group: I 21 21 21
;
_chemical_formula_sum "Si O2"
_cell_formula_units_Z 28
_cell_length_a 11.441505
_cell_length_b 5.046809
_cell_length_c 18.917847
_cell_angle_alpha 90.000000
_cell_angle_beta 90.000000
_cell_angle_gamma 90.000000
_cell_volume 1092.374950
_symmetry_space_group_name_H-M "I 21 21 21"
_symmetry_group_IT_number 24
_symmetry_cell_setting 'orthorhombic'
loop_
_space_group_symop_operation_xyz
x,y,z
-x,1/2-y,z
x,-y,1/2-z
1/2-x,y,-z
1/2+x,1/2+y,1/2+z
1/2-x,-y,1/2+z
1/2+x,1/2-y,-z
-x,1/2+y,1/2-z
loop_
_atom_site_type_symbol
_atom_site_label
_atom_site_fract_x
_atom_site_fract_y
_atom_site_fract_z
Si Si1 0.298317 0.500000 0.750000
Si Si2 0.000000 0.750000 0.078327
Si Si3 0.366478 0.174871 0.182363
Si Si4 0.626049 0.408291 0.024379
Si Si5 0.500000 0.750000 0.681363
O O1 0.209289 0.444910 0.814276
O O2 0.389693 0.731573 0.732900
O O3 0.015033 0.499252 0.129509
O O4 0.896100 0.661410 0.025755
O O5 0.500000 0.250000 0.192344
O O6 0.356093 0.036123 0.107137
O O7 0.332222 0.000000 0.250000
O O8 0.500000 0.250000 0.019426
O O9 0.750000 0.281611 0.000000
#
# Coordination Sequence:
#
# PCOD9336785 Si02
#       5
#     4   4   8   8   4
#     4  12  28  50  82 120 176 220 306 358 462 534
#     4  12  27  54  82 121 176 228 302 364 448 543
#     4  11  26  48  80 122 166 231 289 368 449 547
#     4  11  27  51  85 128 176 237 298 378 456 550
#     4  12  29  50  84 127 168 234 286 378 448 527
#
# _framework density 25.632223
#
# number of rings (size 3 to 8) (size 9 to 14) (size 15 to 20)
#    0.000    0.571    2.857    2.571   12.000    1.143 
#    0.000    0.000    0.000    0.000    0.000    0.000 
#    0.000    0.000    0.000    0.000    0.000    0.000 
#
# Total GULP energy -78096.530392 kJ/mol
# GULP energy per Si atom -5578.323599 kJ/mol
# Density = 2.557388 g / cm^3
# Si number density = 25.632223 Si / 1000 Ang^3
#
#
#
# Elastic Constant Matrix: (Units=GPa)
#
#
# Indices 1 2 3 4 5 6 
#
# 1 219.5866 49.3741 62.6734 0.0000 0.0000 0.0000
# 2 49.3741 155.2160 90.8844 0.0000 0.0000 0.0000
# 3 62.6734 90.8844 206.2505 0.0000 0.0000 0.0000
# 4 0.0000 0.0000 0.0000 11.8060 0.0000 0.0000
# 5 0.0000 0.0000 0.0000 0.0000 -115.1366 0.0000
# 6 0.0000 0.0000 0.0000 0.0000 0.0000 27.1398
#
#
#
# Elastic Compliance Matrix: (Units=1/GPa)
#
#
# Indices 1 2 3 4 5 6 
#
# 1 0.005091 -0.000962 -0.001123 0.000000 0.000000 0.000000
# 2 -0.000962 0.008865 -0.003614 0.000000 0.000000 0.000000
# 3 -0.001123 -0.003614 0.006782 0.000000 0.000000 0.000000
# 4 0.000000 0.000000 0.000000 0.084703 0.000000 0.000000
# 5 0.000000 0.000000 0.000000 0.000000 -0.008685 0.000000
# 6 0.000000 0.000000 0.000000 0.000000 0.000000 0.036846
#
#
# Mechanical properties :
#
#
# Convention : Reuss Voigt Hill
#
# Bulk Modulus (GPa) = 107.06622 109.65743 108.36182
# Shear Modulus (GPa) = 33.75816 9.96991 21.86403
#
# Velocity S-wave (km/s) = 3.63301 1.97435 2.92377
# Velocity P-wave (km/s) = 7.71098 6.93335 7.33248
#
# Compressibility (1/GPa) = 0.00934001
#
# Stress axis : x y z
#
# Youngs Moduli (GPa) = 196.43178 112.80730 147.44318
#
# Poissons Ratio (x) = 0.10849 0.16560
# Poissons Ratio (y) = 0.18892 0.53286
# Poissons Ratio (z) = 0.22062 0.40768
#
# Static dielectric constant tensor:
#      x y z
#    x 2.040400 0.000000 0.000000 
#    y 0.000000 2.659150 0.000000 
#    z 0.000000 0.000000 1.982940 
# 
# From -- ./inp_files/6095.got.cif
#   From: 2010.05.17/outbox.cif.g08.bks.cpg/sg24_4_cif.got.tgz:6095.got - 2010.06.04 00:33:39.
