data_PCOD9336032
_publ_section_title
;
Structure prediction by ZEFSAII (Michael W. Deem and Ramdas Pophale) SiO2 
 PCOD9336032
Probable space group: I 21 21 21
;
_chemical_formula_sum "Si O2"
_cell_formula_units_Z 24
_cell_length_a 5.487646
_cell_length_b 14.369372
_cell_length_c 13.008519
_cell_angle_alpha 90.000000
_cell_angle_beta 90.000000
_cell_angle_gamma 90.000000
_cell_volume 1025.774106
_symmetry_space_group_name_H-M "I 21 21 21"
_symmetry_group_IT_number 24
_symmetry_cell_setting 'orthorhombic'
loop_
_space_group_symop_operation_xyz
x,y,z
-x,1/2-y,z
x,-y,1/2-z
1/2-x,y,-z
1/2+x,1/2+y,1/2+z
1/2-x,-y,1/2+z
1/2+x,1/2-y,-z
-x,1/2+y,1/2-z
loop_
_atom_site_type_symbol
_atom_site_label
_atom_site_fract_x
_atom_site_fract_y
_atom_site_fract_z
Si Si1 0.000000 0.750000 0.432723
Si Si2 0.374384 0.053106 0.859057
Si Si3 0.370065 0.524399 0.127914
Si Si4 0.750000 0.196395 0.500000
O O1 0.750000 0.767933 0.500000
O O2 0.926011 0.662406 0.362303
O O3 0.364331 0.000000 0.750000
O O4 0.611263 0.010778 0.911358
O O5 0.113411 0.028698 0.905245
O O6 0.361039 0.500000 0.250000
O O7 0.357186 0.631677 0.092879
O O8 0.500000 0.250000 0.533816
#
# Coordination Sequence:
#
# PCOD9336032 Si02
#       4
#     4   8   8   4
#     4  12  26  42  74 110 140 180 248 298 350 426
#     4  10  23  46  69 101 143 193 231 291 361 431
#     4  10  23  46  71 100 148 190 229 298 373 424
#     4  12  26  46  76 110 138 188 252 304 358 438
#
# _framework density 23.396965000000002
#
# number of rings (size 3 to 8) (size 9 to 14) (size 15 to 20)
#    0.000    1.333    0.000    4.000    7.000    0.000 
#   36.000    0.000    0.000    0.000    0.000    0.000 
#    0.000    0.000    0.000    0.000    0.000    0.000 
#
# Total GULP energy -66865.050542 kJ/mol
# GULP energy per Si atom -5572.087545 kJ/mol
# Density = 2.334371 g / cm^3
# Si number density = 23.396965 Si / 1000 Ang^3
#
#
#
# Elastic Constant Matrix: (Units=GPa)
#
#
# Indices 1 2 3 4 5 6 
#
# 1 241.0888 62.0748 46.7828 0.0000 0.0000 0.0000
# 2 62.0748 164.3235 49.1592 0.0000 0.0000 0.0000
# 3 46.7828 49.1592 120.0562 0.0000 0.0000 0.0000
# 4 0.0000 0.0000 0.0000 45.3311 0.0000 0.0000
# 5 0.0000 0.0000 0.0000 0.0000 4.6749 0.0000
# 6 0.0000 0.0000 0.0000 0.0000 0.0000 55.1592
#
#
#
# Elastic Compliance Matrix: (Units=1/GPa)
#
#
# Indices 1 2 3 4 5 6 
#
# 1 0.004760 -0.001417 -0.001275 0.000000 0.000000 0.000000
# 2 -0.001417 0.007357 -0.002460 0.000000 0.000000 0.000000
# 3 -0.001275 -0.002460 0.009834 0.000000 0.000000 0.000000
# 4 0.000000 0.000000 0.000000 0.022060 0.000000 0.000000
# 5 0.000000 0.000000 0.000000 0.000000 0.213907 0.000000
# 6 0.000000 0.000000 0.000000 0.000000 0.000000 0.018129
#
#
# Mechanical properties :
#
#
# Convention : Reuss Voigt Hill
#
# Bulk Modulus (GPa) = 85.86073 93.50022 89.68048
# Shear Modulus (GPa) = 17.22759 45.52983 31.37871
#
# Velocity S-wave (km/s) = 2.71646 4.41610 3.66614
# Velocity P-wave (km/s) = 6.82759 8.12723 7.50559
#
# Compressibility (1/GPa) = 0.01164677
#
# Stress axis : x y z
#
# Youngs Moduli (GPa) = 210.08425 135.92898 101.69253
#
# Poissons Ratio (x) = 0.19258 0.12963
# Poissons Ratio (y) = 0.29765 0.25019
# Poissons Ratio (z) = 0.26780 0.33442
#
# Static dielectric constant tensor:
#      x y z
#    x 1.924640 0.000000 0.000000 
#    y 0.000000 1.934300 0.000000 
#    z 0.000000 0.000000 2.182350 
# 
# From -- ./inp_files/2945.got.cif
#   From: 2010.05.17/outbox.cif.g08.bks.cpg/sg24_2_cif.got.tgz:2945.got - 2010.06.04 00:33:39.
