data_PCOD9336465
_publ_section_title
;
Structure prediction by ZEFSAII (Michael W. Deem and Ramdas Pophale) SiO2 
 PCOD9336465
Probable space group: I 21 21 21
;
_chemical_formula_sum "Si O2"
_cell_formula_units_Z 36
_cell_length_a 11.146991
_cell_length_b 14.878665
_cell_length_c 11.146968
_cell_angle_alpha 90.000000
_cell_angle_beta 90.000000
_cell_angle_gamma 90.000000
_cell_volume 1848.750781
_symmetry_space_group_name_H-M "I 21 21 21"
_symmetry_group_IT_number 24
_symmetry_cell_setting 'orthorhombic'
loop_
_space_group_symop_operation_xyz
x,y,z
-x,1/2-y,z
x,-y,1/2-z
1/2-x,y,-z
1/2+x,1/2+y,1/2+z
1/2-x,-y,1/2+z
1/2+x,1/2-y,-z
-x,1/2+y,1/2-z
loop_
_atom_site_type_symbol
_atom_site_label
_atom_site_fract_x
_atom_site_fract_y
_atom_site_fract_z
Si Si1 0.750000 0.625000 0.500000
Si Si2 0.869582 0.727104 0.066100
Si Si3 0.136934 0.270445 0.156983
Si Si4 0.816100 0.022896 0.119582
Si Si5 0.906983 0.520445 0.113066
O O1 0.728673 0.694834 0.609028
O O2 0.859028 0.555166 0.478673
O O3 0.867451 0.767653 0.199554
O O4 0.865631 0.619358 0.078717
O O5 0.000000 0.750000 0.010934
O O6 0.750000 0.758373 0.000000
O O7 0.171282 0.369358 0.115630
O O8 0.000000 0.250000 0.115089
O O9 0.949554 0.982347 0.117451
O O10 0.760935 0.000000 0.250000
O O11 0.750000 0.991627 0.000000
O O12 0.865089 0.500000 0.250000
#
# Coordination Sequence:
#
# PCOD9336465 Si02
#       5
#     4   8   8   8   8
#     4  12  20  36  68  92 112 160 222 252 308 368
#     4  11  23  40  64  92 128 170 210 257 321 387
#     4  11  21  39  64  89 122 167 211 259 318 380
#     4  11  23  40  64  92 128 170 210 257 321 387
#     4  11  21  39  64  89 122 167 211 259 318 380
#
# _framework density 19.47261
#
# number of rings (size 3 to 8) (size 9 to 14) (size 15 to 20)
#    0.000    0.889    6.667    4.000    0.000    3.556 
#    0.000    6.667    0.000    0.000    0.000    0.000 
#    0.000    0.000    0.000    0.000    0.000    0.000 
#
# Total GULP energy -100404.070384 kJ/mol
# GULP energy per Si atom -5578.003910 kJ/mol
# Density = 1.942829 g / cm^3
# Si number density = 19.472610 Si / 1000 Ang^3
#
#
#
# Elastic Constant Matrix: (Units=GPa)
#
#
# Indices 1 2 3 4 5 6 
#
# 1 87.1994 11.9770 58.3488 0.0000 0.0000 0.0000
# 2 11.9770 76.4750 11.9765 0.0000 0.0000 0.0000
# 3 58.3488 11.9765 87.1986 0.0000 0.0000 0.0000
# 4 0.0000 0.0000 0.0000 25.1216 0.0000 0.0000
# 5 0.0000 0.0000 0.0000 0.0000 24.0179 0.0000
# 6 0.0000 0.0000 0.0000 0.0000 0.0000 25.1215
#
#
#
# Elastic Compliance Matrix: (Units=1/GPa)
#
#
# Indices 1 2 3 4 5 6 
#
# 1 0.020857 -0.001105 -0.013805 0.000000 0.000000 0.000000
# 2 -0.001105 0.013422 -0.001104 0.000000 0.000000 0.000000
# 3 -0.013805 -0.001104 0.020857 0.000000 0.000000 0.000000
# 4 0.000000 0.000000 0.000000 0.039806 0.000000 0.000000
# 5 0.000000 0.000000 0.000000 0.000000 0.041636 0.000000
# 6 0.000000 0.000000 0.000000 0.000000 0.000000 0.039807
#
#
# Mechanical properties :
#
#
# Convention : Reuss Voigt Hill
#
# Bulk Modulus (GPa) = 43.27328 46.16419 44.71873
# Shear Modulus (GPa) = 23.13581 26.09024 24.61302
#
# Velocity S-wave (km/s) = 3.45065 3.66436 3.55911
# Velocity P-wave (km/s) = 6.17632 6.45462 6.31700
#
# Compressibility (1/GPa) = 0.02310895
#
# Stress axis : x y z
#
# Youngs Moduli (GPa) = 47.94553 74.50394 47.94513
#
# Poissons Ratio (x) = 0.08229 0.66187
# Poissons Ratio (y) = 0.05296 0.05295
# Poissons Ratio (z) = 0.66187 0.08228
#
# Static dielectric constant tensor:
#      x y z
#    x 1.692160 0.000000 0.000000 
#    y 0.000000 1.704200 0.000000 
#    z 0.000000 0.000000 1.692160 
# 
# From -- ./inp_files/19336.got.cif
#   From: 2010.05.17/outbox.cif.g08.bks.cpg/sg24_10_cif.got.tgz:19336.got - 2010.06.04 00:33:39.
