data_PCOD9336303
_publ_section_title
;
Structure prediction by ZEFSAII (Michael W. Deem and Ramdas Pophale) SiO2 
 PCOD9336303
Probable space group: I 21 21 21
;
_chemical_formula_sum "Si O2"
_cell_formula_units_Z 60
_cell_length_a 8.176244
_cell_length_b 25.796471
_cell_length_c 12.453380
_cell_angle_alpha 90.000000
_cell_angle_beta 90.000000
_cell_angle_gamma 90.000000
_cell_volume 2626.645007
_symmetry_space_group_name_H-M "I 21 21 21"
_symmetry_group_IT_number 24
_symmetry_cell_setting 'orthorhombic'
loop_
_space_group_symop_operation_xyz
x,y,z
-x,1/2-y,z
x,-y,1/2-z
1/2-x,y,-z
1/2+x,1/2+y,1/2+z
1/2-x,-y,1/2+z
1/2+x,1/2-y,-z
-x,1/2+y,1/2-z
loop_
_atom_site_type_symbol
_atom_site_label
_atom_site_fract_x
_atom_site_fract_y
_atom_site_fract_z
Si Si1 0.937897 0.803425 0.463416
Si Si2 0.518854 0.370719 0.140440
Si Si3 0.927674 0.895348 0.042028
Si Si4 0.084584 0.976360 0.139178
Si Si5 0.200837 0.869416 0.862947
Si Si6 0.750000 0.559935 0.500000
Si Si7 0.825570 0.154039 0.238885
Si Si8 0.698429 0.750072 0.120796
O O1 0.750000 0.801254 0.500000
O O2 0.946312 0.841220 0.362175
O O3 0.000000 0.750000 0.420598
O O4 0.030615 0.817993 0.571856
O O5 0.622043 0.370817 0.246735
O O6 0.333418 0.374472 0.186786
O O7 0.598643 0.409386 0.053629
O O8 0.915393 0.873747 0.163441
O O9 0.948147 0.957105 0.056128
O O10 0.750000 0.882610 0.000000
O O11 0.064892 0.874326 0.959004
O O12 0.194865 0.923254 0.136623
O O13 0.020033 0.000000 0.250000
O O14 0.188671 0.022699 0.093128
O O15 0.263093 0.809473 0.869484
O O16 0.765880 0.209283 0.290306
O O17 0.500000 0.750000 0.128622
O O18 0.750000 0.766740 0.000000
#
# Coordination Sequence:
#
# PCOD9336303 Si02
#       8
#     8   8   8   8   8   4   8   8
#     4  10  26  44  66 101 147 196 243 288 353 431
#     4  11  25  45  71 103 138 193 236 302 357 426
#     4  12  24  48  73 103 147 185 227 300 372 436
#     4  12  27  49  72 109 135 180 249 307 355 436
#     4  12  24  44  76 103 147 188 239 300 360 429
#     4  12  26  48  78 100 140 186 252 302 370 418
#     4  11  25  45  70 104 154 184 241 294 359 437
#     4  12  24  40  69 108 143 189 234 284 358 436
#
# _framework density 22.842827
#
# number of rings (size 3 to 8) (size 9 to 14) (size 15 to 20)
#    0.000    0.533    5.333    2.000    6.533    2.667 
#    2.400    0.667    0.000    0.000    0.000    0.000 
#    0.000    0.000    0.000    0.000    0.000    0.000 
#
# Total GULP energy -167321.334402 kJ/mol
# GULP energy per Si atom -5577.377813 kJ/mol
# Density = 2.279084 g / cm^3
# Si number density = 22.842827 Si / 1000 Ang^3
#
#
#
# Elastic Constant Matrix: (Units=GPa)
#
#
# Indices 1 2 3 4 5 6 
#
# 1 47.6929 39.9287 36.9406 0.0000 0.0000 0.0000
# 2 39.9287 98.2686 23.4962 0.0000 0.0000 0.0000
# 3 36.9406 23.4962 124.3912 -0.0004 -0.0001 -0.0001
# 4 0.0000 0.0000 -0.0004 44.4975 0.0000 0.0000
# 5 0.0000 0.0000 -0.0001 0.0000 34.5835 0.0000
# 6 0.0000 0.0000 -0.0001 0.0000 0.0000 14.3180
#
#
#
# Elastic Compliance Matrix: (Units=1/GPa)
#
#
# Indices 1 2 3 4 5 6 
#
# 1 0.039760 -0.013963 -0.009170 0.000000 0.000000 0.000000
# 2 -0.013963 0.015561 0.001207 0.000000 0.000000 0.000000
# 3 -0.009170 0.001207 0.010534 0.000000 0.000000 0.000000
# 4 0.000000 0.000000 0.000000 0.022473 0.000000 0.000000
# 5 0.000000 0.000000 0.000000 0.000000 0.028916 0.000000
# 6 0.000000 0.000000 0.000000 0.000000 0.000000 0.069842
#
#
# Mechanical properties :
#
#
# Convention : Reuss Voigt Hill
#
# Bulk Modulus (GPa) = 45.44643 52.34263 48.89453
# Shear Modulus (GPa) = 20.98442 30.01228 25.49835
#
# Velocity S-wave (km/s) = 3.03420 3.62865 3.34466
# Velocity P-wave (km/s) = 5.67571 6.36554 6.03050
#
# Compressibility (1/GPa) = 0.02200393
#
# Stress axis : x y z
#
# Youngs Moduli (GPa) = 25.15102 64.26369 94.92733
#
# Poissons Ratio (x) = 0.89729 0.87049
# Poissons Ratio (y) = 0.35118 -0.11460
# Poissons Ratio (z) = 0.23064 -0.07758
#
# Static dielectric constant tensor:
#      x y z
#    x 1.961820 0.000000 0.000000 
#    y 0.000000 1.864540 0.000000 
#    z 0.000000 0.000000 2.374920 
# 
# From -- ./inp_files/18797.got.cif
#   From: 2010.05.17/outbox.cif.g08.bks.cpg/sg24_10_cif.got.tgz:18797.got - 2010.06.04 00:33:39.
