data_PCOD9336965
_publ_section_title
;
Structure prediction by ZEFSAII (Michael W. Deem and Ramdas Pophale) SiO2 
 PCOD9336965
Probable space group: I 21 21 21
;
_chemical_formula_sum "Si O2"
_cell_formula_units_Z 20
_cell_length_a 4.800159
_cell_length_b 6.227328
_cell_length_c 28.643998
_cell_angle_alpha 90.000000
_cell_angle_beta 90.000000
_cell_angle_gamma 90.000000
_cell_volume 856.231101
_symmetry_space_group_name_H-M "I 21 21 21"
_symmetry_group_IT_number 24
_symmetry_cell_setting 'orthorhombic'
loop_
_space_group_symop_operation_xyz
x,y,z
-x,1/2-y,z
x,-y,1/2-z
1/2-x,y,-z
1/2+x,1/2+y,1/2+z
1/2-x,-y,1/2+z
1/2+x,1/2-y,-z
-x,1/2+y,1/2-z
loop_
_atom_site_type_symbol
_atom_site_label
_atom_site_fract_x
_atom_site_fract_y
_atom_site_fract_z
Si Si1 0.250000 0.903090 0.500000
Si Si2 0.500000 0.750000 0.929124
Si Si3 0.739898 0.396371 0.797418
Si Si4 0.000000 0.750000 0.864880
O O1 0.500000 0.750000 0.482934
O O2 0.375188 0.060332 0.539236
O O3 0.247654 0.663936 0.897453
O O4 0.500000 0.250000 0.819168
O O5 0.621733 0.500000 0.750000
O O6 0.000000 0.250000 0.783014
O O7 0.856849 0.572320 0.832522
#
# Coordination Sequence:
#
# PCOD9336965 Si02
#       4
#     4   4   8   4
#     4  12  26  50  84 110 148 200 244 302 386 460
#     4  12  27  50  78 114 154 192 248 314 375 442
#     4  12  26  46  75 105 146 205 257 303 370 433
#     4  12  27  48  74 114 156 192 254 316 357 444
#
# _framework density 23.358180999999998
#
# number of rings (size 3 to 8) (size 9 to 14) (size 15 to 20)
#    0.000    0.000    2.000    8.400    2.800    6.400 
#    0.000    4.000    0.000    0.000    0.000    0.000 
#    0.000    0.000    0.000    0.000    0.000    0.000 
#
# Total GULP energy -56088.765664 kJ/mol
# GULP energy per Si atom -5608.876566 kJ/mol
# Density = 2.330502 g / cm^3
# Si number density = 23.358181 Si / 1000 Ang^3
#
#
#
# Elastic Constant Matrix: (Units=GPa)
#
#
# Indices 1 2 3 4 5 6 
#
# 1 174.1838 83.2232 69.5436 0.0000 0.0000 0.0000
# 2 83.2232 152.1729 78.6540 0.0000 0.0000 0.0000
# 3 69.5436 78.6540 136.2848 0.0000 0.0000 0.0000
# 4 0.0000 0.0000 0.0000 3.3431 0.0000 0.0000
# 5 0.0000 0.0000 0.0000 0.0000 -183.0517 0.0000
# 6 0.0000 0.0000 0.0000 0.0000 0.0000 74.4442
#
#
#
# Elastic Compliance Matrix: (Units=1/GPa)
#
#
# Indices 1 2 3 4 5 6 
#
# 1 0.008243 -0.003326 -0.002287 0.000000 0.000000 0.000000
# 2 -0.003326 0.010707 -0.004482 0.000000 0.000000 0.000000
# 3 -0.002287 -0.004482 0.011091 0.000000 0.000000 0.000000
# 4 0.000000 0.000000 0.000000 0.299123 0.000000 0.000000
# 5 0.000000 0.000000 0.000000 0.000000 -0.005463 0.000000
# 6 0.000000 0.000000 0.000000 0.000000 0.000000 0.013433
#
#
# Mechanical properties :
#
#
# Convention : Reuss Voigt Hill
#
# Bulk Modulus (GPa) = 101.50721 102.83148 102.16935
# Shear Modulus (GPa) = 13.86545 -5.63817 4.11364
#
# Velocity S-wave (km/s) = 2.43904 -1.55532 1.32851
# Velocity P-wave (km/s) = 7.17517 6.39484 6.79621
#
# Compressibility (1/GPa) = 0.00985152
#
# Stress axis : x y z
#
# Youngs Moduli (GPa) = 121.31037 93.39376 90.16140
#
# Poissons Ratio (x) = 0.31066 0.20617
# Poissons Ratio (y) = 0.40352 0.40412
# Poissons Ratio (z) = 0.27740 0.41861
#
# Static dielectric constant tensor:
#      x y z
#    x 1.875570 0.000000 0.000000 
#    y 0.000000 2.060270 0.000000 
#    z 0.000000 0.000000 1.863960 
# 
# From -- ./inp_files/265.got.cif
#   From: 2010.05.17/outbox.cif.g08.bks.cpg/sg24_1_cif.got.tgz:265.got - 2010.06.04 00:33:39.
