data_PCOD9336949
_publ_section_title
;
Structure prediction by ZEFSAII (Michael W. Deem and Ramdas Pophale) SiO2 
 PCOD9336949
Probable space group: I 21 21 21
;
_chemical_formula_sum "Si O2"
_cell_formula_units_Z 32
_cell_length_a 7.467061
_cell_length_b 5.676815
_cell_length_c 31.558530
_cell_angle_alpha 90.000000
_cell_angle_beta 90.000000
_cell_angle_gamma 90.000000
_cell_volume 1337.738438
_symmetry_space_group_name_H-M "I 21 21 21"
_symmetry_group_IT_number 24
_symmetry_cell_setting 'orthorhombic'
loop_
_space_group_symop_operation_xyz
x,y,z
-x,1/2-y,z
x,-y,1/2-z
1/2-x,y,-z
1/2+x,1/2+y,1/2+z
1/2-x,-y,1/2+z
1/2+x,1/2-y,-z
-x,1/2+y,1/2-z
loop_
_atom_site_type_symbol
_atom_site_label
_atom_site_fract_x
_atom_site_fract_y
_atom_site_fract_z
Si Si1 0.500000 0.250000 0.356661
Si Si2 0.500000 0.750000 0.468736
Si Si3 0.000000 0.250000 0.146674
Si Si4 0.000000 0.750000 0.018034
Si Si5 0.818256 0.400716 0.795147
Si Si6 0.727130 0.005866 0.583054
O O1 0.631372 0.387293 0.325943
O O2 0.613375 0.085066 0.386837
O O3 0.516196 0.500918 0.493711
O O4 0.317141 0.713758 0.441637
O O5 0.167121 0.230818 0.178331
O O6 0.058842 0.450218 0.113208
O O7 0.831304 0.801908 0.048768
O O8 0.756619 0.500000 0.750000
O O9 0.000000 0.250000 0.788530
#
# Coordination Sequence:
#
# PCOD9336949 Si02
#       6
#     4   4   4   4   8   8
#     4  12  25  48  79 106 154 212 252 324 405 468
#     4  12  29  52  77 112 164 220 266 338 415 474
#     4  12  27  48  79 120 154 200 266 328 391 476
#     4  12  29  50  79 116 160 218 274 338 407 484
#     4  12  26  49  79 114 159 202 255 324 400 473
#     4  12  27  48  78 113 158 206 271 331 399 478
#
# _framework density 23.920967000000001
#
# number of rings (size 3 to 8) (size 9 to 14) (size 15 to 20)
#    0.000    0.000    3.750    5.250    0.000   15.000 
#    0.000    0.000    0.000    0.000    0.000    0.000 
#    0.000    0.000    0.000    0.000    0.000    0.000 
#
# Total GULP energy -89540.143259 kJ/mol
# GULP energy per Si atom -5596.258954 kJ/mol
# Density = 2.386652 g / cm^3
# Si number density = 23.920967 Si / 1000 Ang^3
#
#
#
# Elastic Constant Matrix: (Units=GPa)
#
#
# Indices 1 2 3 4 5 6 
#
# 1 66.6233 22.4092 32.3451 0.0000 0.0000 0.0000
# 2 22.4092 115.3666 77.0179 0.0000 0.0000 0.0000
# 3 32.3451 77.0179 160.6965 0.0000 0.0000 0.0000
# 4 0.0000 0.0000 0.0000 37.3673 0.0000 0.0000
# 5 0.0000 0.0000 0.0000 0.0000 38.3915 0.0000
# 6 0.0000 0.0000 0.0000 0.0000 0.0000 43.4651
#
#
#
# Elastic Compliance Matrix: (Units=1/GPa)
#
#
# Indices 1 2 3 4 5 6 
#
# 1 0.016805 -0.001480 -0.002673 0.000000 0.000000 0.000000
# 2 -0.001480 0.012877 -0.005874 0.000000 0.000000 0.000000
# 3 -0.002673 -0.005874 0.009576 0.000000 0.000000 0.000000
# 4 0.000000 0.000000 0.000000 0.026761 0.000000 0.000000
# 5 0.000000 0.000000 0.000000 0.000000 0.026047 0.000000
# 6 0.000000 0.000000 0.000000 0.000000 0.000000 0.023007
#
#
# Mechanical properties :
#
#
# Convention : Reuss Voigt Hill
#
# Bulk Modulus (GPa) = 52.07036 67.35898 59.71467
# Shear Modulus (GPa) = 35.32850 37.90574 36.61712
#
# Velocity S-wave (km/s) = 3.84719 3.98505 3.91673
# Velocity P-wave (km/s) = 6.44589 7.02811 6.74328
#
# Compressibility (1/GPa) = 0.01920478
#
# Stress axis : x y z
#
# Youngs Moduli (GPa) = 59.50471 77.66021 104.42636
#
# Poissons Ratio (x) = 0.11490 0.27918
# Poissons Ratio (y) = 0.08804 0.61336
# Poissons Ratio (z) = 0.15909 0.45615
#
# Static dielectric constant tensor:
#      x y z
#    x 1.930690 0.000000 0.000000 
#    y 0.000000 1.900970 0.000000 
#    z 0.000000 0.000000 1.882500 
# 
# From -- ./inp_files/38114.got.cif
#   From: 2010.05.17/outbox.cif.g08.bks.cpg/sg24_20_cif.got.tgz:38114.got - 2010.06.04 00:33:39.
