data_PCOD9336156
_publ_section_title
;
Structure prediction by ZEFSAII (Michael W. Deem and Ramdas Pophale) SiO2 
 PCOD9336156
Probable space group: I 21 21 21
;
_chemical_formula_sum "Si O2"
_cell_formula_units_Z 36
_cell_length_a 8.833402
_cell_length_b 19.346403
_cell_length_c 8.735751
_cell_angle_alpha 90.000000
_cell_angle_beta 90.000000
_cell_angle_gamma 90.000000
_cell_volume 1492.892279
_symmetry_space_group_name_H-M "I 21 21 21"
_symmetry_group_IT_number 24
_symmetry_cell_setting 'orthorhombic'
loop_
_space_group_symop_operation_xyz
x,y,z
-x,1/2-y,z
x,-y,1/2-z
1/2-x,y,-z
1/2+x,1/2+y,1/2+z
1/2-x,-y,1/2+z
1/2+x,1/2-y,-z
-x,1/2+y,1/2-z
loop_
_atom_site_type_symbol
_atom_site_label
_atom_site_fract_x
_atom_site_fract_y
_atom_site_fract_z
Si Si1 0.772457 0.568745 0.800238
Si Si2 0.250000 0.151752 0.000000
Si Si3 0.026140 0.331676 0.592855
Si Si4 0.833449 0.139620 0.257488
Si Si5 0.000000 0.250000 0.046028
Si Si6 0.507770 0.000000 0.750000
O O1 0.864406 0.500000 0.750000
O O2 0.712626 0.606929 0.647375
O O3 0.617804 0.533801 0.866441
O O4 0.873249 0.625547 0.880779
O O5 0.109916 0.199863 0.955525
O O6 0.091239 0.346984 0.423706
O O7 0.154552 0.355079 0.713637
O O8 0.000000 0.250000 0.603816
O O9 0.887154 0.063895 0.201655
O O10 0.895230 0.200202 0.149294
#
# Coordination Sequence:
#
# PCOD9336156 Si02
#       6
#     8   4   8   8   4   4
#     4  10  25  44  69  99 137 184 235 280 361 412
#     4  12  26  44  66 104 138 186 232 286 356 428
#     4  11  25  44  76 104 135 180 237 297 353 419
#     4  11  25  45  71 104 138 179 236 293 352 423
#     4  12  24  46  66 102 140 182 232 290 362 424
#     4  10  24  44  68  98 142 178 236 280 358 410
#
# _framework density 24.114266000000001
#
# number of rings (size 3 to 8) (size 9 to 14) (size 15 to 20)
#    0.667    0.444    3.333    1.333    9.333    0.889 
#    0.000    2.222    0.000    0.000    0.000    0.000 
#    0.000    0.000    0.000    0.000    0.000    0.000 
#
# Total GULP energy -100590.931742 kJ/mol
# GULP energy per Si atom -5588.385097 kJ/mol
# Density = 2.405938 g / cm^3
# Si number density = 24.114266 Si / 1000 Ang^3
#
#
#
# Elastic Constant Matrix: (Units=GPa)
#
#
# Indices 1 2 3 4 5 6 
#
# 1 127.0362 73.1952 17.9051 0.0000 -0.0001 0.0000
# 2 73.1952 199.8048 31.0579 0.0002 -0.0001 0.0000
# 3 17.9051 31.0579 43.7453 0.0006 0.0004 -0.0001
# 4 0.0000 0.0002 0.0006 28.3180 0.0000 -0.0001
# 5 -0.0001 -0.0001 0.0004 0.0000 28.7799 0.0000
# 6 0.0000 0.0000 -0.0001 -0.0001 0.0000 50.7283
#
#
#
# Elastic Compliance Matrix: (Units=1/GPa)
#
#
# Indices 1 2 3 4 5 6 
#
# 1 0.010088 -0.003433 -0.001692 0.000000 0.000000 0.000000
# 2 -0.003433 0.006794 -0.003418 0.000000 0.000000 0.000000
# 3 -0.001692 -0.003418 0.025979 -0.000001 0.000000 0.000000
# 4 0.000000 0.000000 -0.000001 0.035313 0.000000 0.000000
# 5 0.000000 0.000000 0.000000 0.000000 0.034746 0.000000
# 6 0.000000 0.000000 0.000000 0.000000 0.000000 0.019713
#
#
# Mechanical properties :
#
#
# Convention : Reuss Voigt Hill
#
# Bulk Modulus (GPa) = 38.79751 68.32253 53.56002
# Shear Modulus (GPa) = 31.58342 38.12711 34.85527
#
# Velocity S-wave (km/s) = 3.62296 3.98062 3.80599
# Velocity P-wave (km/s) = 5.79871 7.03715 6.44773
#
# Compressibility (1/GPa) = 0.02577485
#
# Stress axis : x y z
#
# Youngs Moduli (GPa) = 99.12755 147.19514 38.49253
#
# Poissons Ratio (x) = 0.50526 0.06513
# Poissons Ratio (y) = 0.34026 0.13158
# Poissons Ratio (z) = 0.16773 0.50317
#
# Static dielectric constant tensor:
#      x y z
#    x 1.918390 0.000000 0.000000 
#    y 0.000000 1.889890 0.000000 
#    z 0.000000 0.000000 1.992400 
# 
# From -- ./inp_files/9100.got.cif
#   From: 2010.05.17/outbox.cif.g08.bks.cpg/sg24_5_cif.got.tgz:9100.got - 2010.06.04 00:33:39.
