data_PCOD9336177
_publ_section_title
;
Structure prediction by ZEFSAII (Michael W. Deem and Ramdas Pophale) SiO2 
 PCOD9336177
Probable space group: I 21 21 21
;
_chemical_formula_sum "Si O2"
_cell_formula_units_Z 32
_cell_length_a 13.315341
_cell_length_b 8.829244
_cell_length_c 11.320491
_cell_angle_alpha 90.000000
_cell_angle_beta 90.000000
_cell_angle_gamma 90.000000
_cell_volume 1330.886671
_symmetry_space_group_name_H-M "I 21 21 21"
_symmetry_group_IT_number 24
_symmetry_cell_setting 'orthorhombic'
loop_
_space_group_symop_operation_xyz
x,y,z
-x,1/2-y,z
x,-y,1/2-z
1/2-x,y,-z
1/2+x,1/2+y,1/2+z
1/2-x,-y,1/2+z
1/2+x,1/2-y,-z
-x,1/2+y,1/2-z
loop_
_atom_site_type_symbol
_atom_site_label
_atom_site_fract_x
_atom_site_fract_y
_atom_site_fract_z
Si Si1 0.250000 0.229336 0.000000
Si Si2 0.092170 0.000000 0.750000
Si Si3 0.853742 0.732769 0.940303
Si Si4 0.077759 0.021518 0.111440
Si Si5 0.425323 0.567331 0.425337
O O1 0.326287 0.123233 0.926424
O O2 0.175937 0.335162 0.921981
O O3 0.153238 0.116748 0.669345
O O4 0.018953 0.092145 0.837834
O O5 0.901983 0.890261 0.902828
O O6 0.750000 0.774206 0.000000
O O7 0.908935 0.637010 0.042095
O O8 0.072536 0.000000 0.250000
O O9 0.974377 0.084427 0.055305
#
# Coordination Sequence:
#
# PCOD9336177 Si02
#       5
#     4   4   8   8   8
#     4  12  26  48  74 112 148 192 260 300 378 448
#     4  10  24  44  76 110 148 198 244 314 366 448
#     4  11  24  47  76 107 146 191 254 302 378 447
#     4  11  26  47  73 104 149 197 242 309 374 444
#     4  11  26  49  74 110 150 193 252 313 371 444
#
# _framework density 24.044122000000002
#
# number of rings (size 3 to 8) (size 9 to 14) (size 15 to 20)
#    0.000    1.000    2.500    3.750    1.750   14.000 
#    6.750    0.000    0.000    0.000    0.000    0.000 
#    0.000    0.000    0.000    0.000    0.000    0.000 
#
# Total GULP energy -89581.524634 kJ/mol
# GULP energy per Si atom -5598.845290 kJ/mol
# Density = 2.398940 g / cm^3
# Si number density = 24.044122 Si / 1000 Ang^3
#
#
#
# Elastic Constant Matrix: (Units=GPa)
#
#
# Indices 1 2 3 4 5 6 
#
# 1 67.6656 2.9274 3.6801 0.0000 0.0000 0.0000
# 2 2.9274 119.6456 14.1979 0.0000 0.0000 0.0000
# 3 3.6801 14.1979 134.5260 0.0000 0.0000 0.0000
# 4 0.0000 0.0000 0.0000 8.5442 0.0000 0.0000
# 5 0.0000 0.0000 0.0000 0.0000 30.5047 0.0000
# 6 0.0000 0.0000 0.0000 0.0000 0.0000 49.9499
#
#
#
# Elastic Compliance Matrix: (Units=1/GPa)
#
#
# Indices 1 2 3 4 5 6 
#
# 1 0.014813 -0.000318 -0.000372 0.000000 0.000000 0.000000
# 2 -0.000318 0.008471 -0.000885 0.000000 0.000000 0.000000
# 3 -0.000372 -0.000885 0.007537 0.000000 0.000000 0.000000
# 4 0.000000 0.000000 0.000000 0.117039 0.000000 0.000000
# 5 0.000000 0.000000 0.000000 0.000000 0.032782 0.000000
# 6 0.000000 0.000000 0.000000 0.000000 0.000000 0.020020
#
#
# Mechanical properties :
#
#
# Convention : Reuss Voigt Hill
#
# Bulk Modulus (GPa) = 36.14019 40.38309 38.26164
# Shear Modulus (GPa) = 23.47034 37.86856 30.66945
#
# Velocity S-wave (km/s) = 3.12771 3.97288 3.57536
# Velocity P-wave (km/s) = 5.30159 6.15442 5.74386
#
# Compressibility (1/GPa) = 0.02767002
#
# Stress axis : x y z
#
# Youngs Moduli (GPa) = 67.51039 118.05177 132.67683
#
# Poissons Ratio (x) = 0.03758 0.04930
# Poissons Ratio (y) = 0.02149 0.11746
# Poissons Ratio (z) = 0.02509 0.10451
#
# Static dielectric constant tensor:
#      x y z
#    x 2.104770 0.000000 0.000000 
#    y 0.000000 1.953220 0.000000 
#    z 0.000000 0.000000 1.913220 
# 
# From -- ./inp_files/10287.got.cif
#   From: 2010.05.17/outbox.cif.g08.bks.cpg/sg24_6_cif.got.tgz:10287.got - 2010.06.04 00:33:39.
