data_PCOD9336867
_publ_section_title
;
Structure prediction by ZEFSAII (Michael W. Deem and Ramdas Pophale) SiO2 
 PCOD9336867
Probable space group: I 21 21 21
;
_chemical_formula_sum "Si O2"
_cell_formula_units_Z 28
_cell_length_a 19.075757
_cell_length_b 7.631919
_cell_length_c 8.924987
_cell_angle_alpha 90.000000
_cell_angle_beta 90.000000
_cell_angle_gamma 90.000000
_cell_volume 1299.340951
_symmetry_space_group_name_H-M "I 21 21 21"
_symmetry_group_IT_number 24
_symmetry_cell_setting 'orthorhombic'
loop_
_space_group_symop_operation_xyz
x,y,z
-x,1/2-y,z
x,-y,1/2-z
1/2-x,y,-z
1/2+x,1/2+y,1/2+z
1/2-x,-y,1/2+z
1/2+x,1/2-y,-z
-x,1/2+y,1/2-z
loop_
_atom_site_type_symbol
_atom_site_label
_atom_site_fract_x
_atom_site_fract_y
_atom_site_fract_z
Si Si1 0.250000 0.364257 0.500000
Si Si2 0.860619 0.697282 0.770609
Si Si3 0.000000 0.250000 0.554774
Si Si4 0.852446 0.000000 0.250000
Si Si5 0.433333 0.627493 0.510230
O O1 0.303337 0.274096 0.383332
O O2 0.196788 0.458163 0.388713
O O3 0.834933 0.500000 0.750000
O O4 0.935846 0.676922 0.849336
O O5 0.879127 0.816802 0.623750
O O6 0.037501 0.426090 0.488106
O O7 0.899778 0.848681 0.324952
O O8 0.500000 0.750000 0.489457
#
# Coordination Sequence:
#
# PCOD9336867 Si02
#       5
#     4   8   4   4   8
#     4  12  28  46  70 106 150 198 240 292 368 440
#     4  12  24  47  77 105 145 194 243 298 364 438
#     4  12  22  48  76 110 140 188 242 304 366 422
#     4  12  28  46  72 104 156 190 242 304 358 438
#     4  12  26  46  79 111 146 188 245 308 364 428
#
# _framework density 21.549385999999998
#
# number of rings (size 3 to 8) (size 9 to 14) (size 15 to 20)
#    0.000    0.000    7.143    2.571    2.000    2.286 
#    0.000    0.000    0.000    0.000    0.000    0.000 
#    0.000    0.000    0.000    0.000    0.000    0.000 
#
# Total GULP energy -77948.937402 kJ/mol
# GULP energy per Si atom -5567.781243 kJ/mol
# Density = 2.150034 g / cm^3
# Si number density = 21.549386 Si / 1000 Ang^3
#
#
#
# Elastic Constant Matrix: (Units=GPa)
#
#
# Indices 1 2 3 4 5 6 
#
# 1 96.6238 23.5613 58.5153 0.0000 0.0000 0.0000
# 2 23.5613 115.9134 58.4340 0.0000 0.0000 0.0000
# 3 58.5153 58.4340 147.0932 0.0000 0.0000 0.0000
# 4 0.0000 0.0000 0.0000 17.3538 0.0000 0.0000
# 5 0.0000 0.0000 0.0000 0.0000 35.1192 0.0000
# 6 0.0000 0.0000 0.0000 0.0000 0.0000 -33.7432
#
#
#
# Elastic Compliance Matrix: (Units=1/GPa)
#
#
# Indices 1 2 3 4 5 6 
#
# 1 0.013634 -0.000046 -0.005405 0.000000 0.000000 0.000000
# 2 -0.000046 0.010788 -0.004267 0.000000 0.000000 0.000000
# 3 -0.005405 -0.004267 0.010644 0.000000 0.000000 0.000000
# 4 0.000000 0.000000 0.000000 0.057624 0.000000 0.000000
# 5 0.000000 0.000000 0.000000 0.000000 0.028474 0.000000
# 6 0.000000 0.000000 0.000000 0.000000 0.000000 -0.029636
#
#
# Mechanical properties :
#
#
# Convention : Reuss Voigt Hill
#
# Bulk Modulus (GPa) = 63.98753 71.18352 67.58552
# Shear Modulus (GPa) = 43.03820 18.35395 30.69608
#
# Velocity S-wave (km/s) = 4.47384 2.92158 3.77829
# Velocity P-wave (km/s) = 7.51298 6.66973 7.10388
#
# Compressibility (1/GPa) = 0.01562805
#
# Stress axis : x y z
#
# Youngs Moduli (GPa) = 73.34464 92.69866 93.95099
#
# Poissons Ratio (x) = 0.00430 0.50784
# Poissons Ratio (y) = 0.00341 0.40089
# Poissons Ratio (z) = 0.39646 0.39555
#
# Static dielectric constant tensor:
#      x y z
#    x 1.839900 0.000000 0.000000 
#    y 0.000000 1.981550 0.000000 
#    z 0.000000 0.000000 1.839570 
# 
# From -- ./inp_files/8830.got.cif
#   From: 2010.05.17/outbox.cif.g08.bks.cpg/sg24_5_cif.got.tgz:8830.got - 2010.06.04 00:33:39.
