data_PCOD9336642
_publ_section_title
;
Structure prediction by ZEFSAII (Michael W. Deem and Ramdas Pophale) SiO2 
 PCOD9336642
Probable space group: I 21 21 21
;
_chemical_formula_sum "Si O2"
_cell_formula_units_Z 48
_cell_length_a 7.403518
_cell_length_b 8.752208
_cell_length_c 30.704571
_cell_angle_alpha 90.000000
_cell_angle_beta 90.000000
_cell_angle_gamma 90.000000
_cell_volume 1989.568062
_symmetry_space_group_name_H-M "I 21 21 21"
_symmetry_group_IT_number 24
_symmetry_cell_setting 'orthorhombic'
loop_
_space_group_symop_operation_xyz
x,y,z
-x,1/2-y,z
x,-y,1/2-z
1/2-x,y,-z
1/2+x,1/2+y,1/2+z
1/2-x,-y,1/2+z
1/2+x,1/2-y,-z
-x,1/2+y,1/2-z
loop_
_atom_site_type_symbol
_atom_site_label
_atom_site_fract_x
_atom_site_fract_y
_atom_site_fract_z
Si Si1 0.250000 0.634772 0.500000
Si Si2 0.500000 0.250000 0.073093
Si Si3 0.842360 0.631516 0.214722
Si Si4 0.138417 0.975236 0.375034
Si Si5 0.370887 0.641306 0.275259
Si Si6 0.252938 0.379847 0.864891
Si Si7 0.415093 0.081232 0.533200
O O1 0.332131 0.737951 0.460975
O O2 0.419483 0.533469 0.518387
O O3 0.430613 0.384849 0.106570
O O4 0.893048 0.500000 0.250000
O O5 0.791857 0.556289 0.168836
O O6 0.705404 0.742034 0.240143
O O7 0.000000 0.750000 0.205219
O O8 0.189972 0.797614 0.370061
O O9 0.919566 0.981576 0.379820
O O10 0.185588 0.043558 0.421200
O O11 0.500000 0.750000 0.302765
O O12 0.452069 0.500000 0.250000
O O13 0.245998 0.581534 0.313339
O O14 0.500000 0.250000 0.535326
O O15 0.250000 0.078026 0.500000
#
# Coordination Sequence:
#
# PCOD9336642 Si02
#       7
#     4   4   8   8   8   8   8
#     4  12  28  48  74 116 150 190 262 316 406 472
#     4  12  26  44  78 106 148 194 248 332 392 464
#     4  12  23  42  68 100 138 190 242 306 374 450
#     4  11  24  43  71 103 144 191 253 308 379 464
#     4  12  26  44  69 102 147 193 245 312 383 463
#     4  11  23  45  69 105 147 192 245 315 383 452
#     4  12  26  49  75 108 156 205 251 320 396 476
#
# _framework density 24.125838000000002
#
# number of rings (size 3 to 8) (size 9 to 14) (size 15 to 20)
#    0.000    0.333    5.000    4.500    3.500    0.000 
#    0.000    0.833    0.000    0.000    0.000    0.000 
#    0.000    0.000    0.000    0.000    0.000    0.000 
#
# Total GULP energy -133917.879948 kJ/mol
# GULP energy per Si atom -5579.911665 kJ/mol
# Density = 2.407093 g / cm^3
# Si number density = 24.125838 Si / 1000 Ang^3
#
#
#
# Elastic Constant Matrix: (Units=GPa)
#
#
# Indices 1 2 3 4 5 6 
#
# 1 60.4381 4.8896 22.0625 0.0000 0.0000 0.0000
# 2 4.8896 78.0829 36.9383 0.0000 0.0000 0.0000
# 3 22.0625 36.9383 196.0246 0.0000 0.0000 0.0000
# 4 0.0000 0.0000 0.0000 12.5604 0.0000 0.0000
# 5 0.0000 0.0000 0.0000 0.0000 41.7026 0.0000
# 6 0.0000 0.0000 0.0000 0.0000 0.0000 46.7100
#
#
#
# Elastic Compliance Matrix: (Units=1/GPa)
#
#
# Indices 1 2 3 4 5 6 
#
# 1 0.017257 -0.000178 -0.001909 0.000000 0.000000 0.000000
# 2 -0.000178 0.014062 -0.002630 0.000000 0.000000 0.000000
# 3 -0.001909 -0.002630 0.005812 0.000000 0.000000 0.000000
# 4 0.000000 0.000000 0.000000 0.079615 0.000000 0.000000
# 5 0.000000 0.000000 0.000000 0.000000 0.023979 0.000000
# 6 0.000000 0.000000 0.000000 0.000000 0.000000 0.021409
#
#
# Mechanical properties :
#
#
# Convention : Reuss Voigt Hill
#
# Bulk Modulus (GPa) = 36.10325 51.36961 43.73643
# Shear Modulus (GPa) = 27.65491 38.23829 32.94660
#
# Velocity S-wave (km/s) = 3.38935 3.98546 3.69943
# Velocity P-wave (km/s) = 5.50581 6.52052 6.03453
#
# Compressibility (1/GPa) = 0.02769834
#
# Stress axis : x y z
#
# Youngs Moduli (GPa) = 57.94746 71.11309 172.06400
#
# Poissons Ratio (x) = 0.01263 0.32843
# Poissons Ratio (y) = 0.01030 0.45250
# Poissons Ratio (z) = 0.11061 0.18701
#
# Static dielectric constant tensor:
#      x y z
#    x 2.108760 0.000000 0.000000 
#    y 0.000000 1.898460 0.000000 
#    z 0.000000 0.000000 1.921910 
# 
# From -- ./inp_files/38325.got.cif
#   From: 2010.05.17/outbox.cif.g08.bks.cpg/sg24_20_cif.got.tgz:38325.got - 2010.06.04 00:33:39.
