data_PCOD9336366
_publ_section_title
;
Structure prediction by ZEFSAII (Michael W. Deem and Ramdas Pophale) SiO2 
 PCOD9336366
Probable space group: I 21 21 21
;
_chemical_formula_sum "Si O2"
_cell_formula_units_Z 52
_cell_length_a 12.924902
_cell_length_b 26.396347
_cell_length_c 8.989393
_cell_angle_alpha 90.000000
_cell_angle_beta 90.000000
_cell_angle_gamma 90.000000
_cell_volume 3066.912991
_symmetry_space_group_name_H-M "I 21 21 21"
_symmetry_group_IT_number 24
_symmetry_cell_setting 'orthorhombic'
loop_
_space_group_symop_operation_xyz
x,y,z
-x,1/2-y,z
x,-y,1/2-z
1/2-x,y,-z
1/2+x,1/2+y,1/2+z
1/2-x,-y,1/2+z
1/2+x,1/2-y,-z
-x,1/2+y,1/2-z
loop_
_atom_site_type_symbol
_atom_site_label
_atom_site_fract_x
_atom_site_fract_y
_atom_site_fract_z
Si Si1 0.052339 0.867089 0.368222
Si Si2 0.633458 0.187105 0.984332
Si Si3 0.785382 0.553638 0.328782
Si Si4 0.327451 0.222362 0.762791
Si Si5 0.141665 0.146529 0.798682
Si Si6 0.448898 0.695899 0.181672
Si Si7 0.750000 0.790697 0.000000
O O1 0.100920 0.920388 0.320883
O O2 0.090822 0.823107 0.257195
O O3 0.105977 0.857225 0.529555
O O4 0.933813 0.855359 0.400905
O O5 0.637596 0.238896 0.890367
O O6 0.750000 0.169067 0.000000
O O7 0.588495 0.199225 0.146661
O O8 0.780885 0.500000 0.250000
O O9 0.750000 0.547534 0.500000
O O10 0.707042 0.596141 0.263251
O O11 0.219105 0.194089 0.793102
O O12 0.308302 0.255325 0.618239
O O13 0.044007 0.156380 0.692081
O O14 0.500000 0.750000 0.138259
O O15 0.346230 0.682778 0.086115
#
# Coordination Sequence:
#
# PCOD9336366 Si02
#       7
#     8   8   8   8   8   8   4
#     4   9  19  31  55  76  95 137 180 225 245 299
#     4  11  18  32  53  72  97 141 195 218 235 292
#     4   9  18  36  57  82 105 124 166 219 276 324
#     4  11  19  32  45  73 103 141 181 210 250 300
#     4   9  18  35  56  69 100 145 179 208 256 315
#     4  11  20  34  48  68 104 149 181 212 252 302
#     4  12  24  28  42  72 114 148 170 218 258 316
#
# _framework density 16.955159999999999
#
# number of rings (size 3 to 8) (size 9 to 14) (size 15 to 20)
#    0.000    1.846    3.077    4.615    0.000    1.231 
#    5.538    0.000    0.000    0.000    0.000    9.692 
#    2.308    0.000    0.000    0.000    0.000    0.000 
#
# Total GULP energy -144940.552695 kJ/mol
# GULP energy per Si atom -5574.636642 kJ/mol
# Density = 1.691657 g / cm^3
# Si number density = 16.955160 Si / 1000 Ang^3
#
#
#
# Elastic Constant Matrix: (Units=GPa)
#
#
# Indices 1 2 3 4 5 6 
#
# 1 100.3703 48.4477 17.6738 -0.0002 0.0000 0.0001
# 2 48.4477 101.4488 30.1464 -0.0007 0.0003 0.0002
# 3 17.6738 30.1464 37.0734 -0.0027 0.0014 0.0007
# 4 -0.0002 -0.0007 -0.0027 20.1777 0.0005 0.0004
# 5 0.0000 0.0003 0.0014 0.0005 26.1641 -0.0003
# 6 0.0001 0.0002 0.0007 0.0004 -0.0003 13.6795
#
#
#
# Elastic Compliance Matrix: (Units=1/GPa)
#
#
# Indices 1 2 3 4 5 6 
#
# 1 0.013012 -0.005763 -0.001517 0.000000 0.000000 0.000000
# 2 -0.005763 0.015551 -0.009898 -0.000001 0.000000 0.000000
# 3 -0.001517 -0.009898 0.035745 0.000004 -0.000002 -0.000002
# 4 0.000000 -0.000001 0.000004 0.049560 -0.000001 -0.000001
# 5 0.000000 0.000000 -0.000002 -0.000001 0.038220 0.000001
# 6 0.000000 0.000000 -0.000002 -0.000001 0.000001 0.073102
#
#
# Mechanical properties :
#
#
# Convention : Reuss Voigt Hill
#
# Bulk Modulus (GPa) = 33.38631 47.93647 40.66139
# Shear Modulus (GPa) = 18.55088 21.51257 20.03172
#
# Velocity S-wave (km/s) = 3.31133 3.56587 3.44096
# Velocity P-wave (km/s) = 5.86119 6.72962 6.31036
#
# Compressibility (1/GPa) = 0.02995240
#
# Stress axis : x y z
#
# Youngs Moduli (GPa) = 76.85173 64.30588 27.97601
#
# Poissons Ratio (x) = 0.37062 0.04243
# Poissons Ratio (y) = 0.44292 0.27690
# Poissons Ratio (z) = 0.11656 0.63648
#
# Static dielectric constant tensor:
#      x y z
#    x 1.639260 0.000000 0.000000 
#    y 0.000000 1.544660 0.000000 
#    z 0.000000 0.000000 1.608650 
# 
# From -- ./inp_files/11471.got.cif
#   From: 2010.05.17/outbox.cif.g08.bks.cpg/sg24_6_cif.got.tgz:11471.got - 2010.06.04 00:33:39.
