data_PCOD9336052
_publ_section_title
;
Structure prediction by ZEFSAII (Michael W. Deem and Ramdas Pophale) SiO2 
 PCOD9336052
Probable space group: I 21 21 21
;
_chemical_formula_sum "Si O2"
_cell_formula_units_Z 28
_cell_length_a 15.781040
_cell_length_b 14.542763
_cell_length_c 5.128287
_cell_angle_alpha 90.000000
_cell_angle_beta 90.000000
_cell_angle_gamma 90.000000
_cell_volume 1176.941480
_symmetry_space_group_name_H-M "I 21 21 21"
_symmetry_group_IT_number 24
_symmetry_cell_setting 'orthorhombic'
loop_
_space_group_symop_operation_xyz
x,y,z
-x,1/2-y,z
x,-y,1/2-z
1/2-x,y,-z
1/2+x,1/2+y,1/2+z
1/2-x,-y,1/2+z
1/2+x,1/2-y,-z
-x,1/2+y,1/2-z
loop_
_atom_site_type_symbol
_atom_site_label
_atom_site_fract_x
_atom_site_fract_y
_atom_site_fract_z
Si Si1 0.750000 0.935770 0.500000
Si Si2 0.844319 0.401957 0.611302
Si Si3 0.474797 0.563486 0.987197
Si Si4 0.837187 0.199548 0.674328
O O1 0.823553 0.134310 0.922007
O O2 0.761187 0.000000 0.250000
O O3 0.846530 0.500000 0.750000
O O4 0.750000 0.397640 0.500000
O O5 0.928254 0.405200 0.433837
O O6 0.853380 0.304415 0.757762
O O7 0.447406 0.500000 0.750000
O O8 0.472621 0.500000 0.250000
O O9 0.414019 0.650852 0.024092
O O10 0.750000 0.196233 0.500000
#
# Coordination Sequence:
#
# PCOD9336052 Si02
#       4
#     4   8   8   8
#     4  12  26  44  70 110 152 194 244 304 380 456
#     4  10  23  48  74 106 144 198 254 313 372 445
#     4  11  26  45  72 108 146 191 241 303 370 443
#     4  11  26  43  73 110 148 197 242 306 379 451
#
# _framework density 23.790478
#
# number of rings (size 3 to 8) (size 9 to 14) (size 15 to 20)
#    0.000    1.143    1.429    2.571   10.000    0.000 
#    5.143    5.714    0.000    0.000    0.000    0.000 
#    0.000    0.000    0.000    0.000    0.000    0.000 
#
# Total GULP energy -78206.453379 kJ/mol
# GULP energy per Si atom -5586.175241 kJ/mol
# Density = 2.373633 g / cm^3
# Si number density = 23.790478 Si / 1000 Ang^3
#
#
#
# Elastic Constant Matrix: (Units=GPa)
#
#
# Indices 1 2 3 4 5 6 
#
# 1 168.4806 61.5186 11.4207 0.0000 0.0000 0.0000
# 2 61.5186 251.9003 63.5786 0.0000 0.0000 0.0000
# 3 11.4207 63.5786 104.8528 0.0000 0.0000 0.0000
# 4 0.0000 0.0000 0.0000 23.4383 0.0000 0.0000
# 5 0.0000 0.0000 0.0000 0.0000 13.6361 0.0000
# 6 0.0000 0.0000 0.0000 0.0000 0.0000 17.7527
#
#
#
# Elastic Compliance Matrix: (Units=1/GPa)
#
#
# Indices 1 2 3 4 5 6 
#
# 1 0.006525 -0.001670 0.000302 0.000000 0.000000 0.000000
# 2 -0.001670 0.005114 -0.002919 0.000000 0.000000 0.000000
# 3 0.000302 -0.002919 0.011274 0.000000 0.000000 0.000000
# 4 0.000000 0.000000 0.000000 0.042665 0.000000 0.000000
# 5 0.000000 0.000000 0.000000 0.000000 0.073335 0.000000
# 6 0.000000 0.000000 0.000000 0.000000 0.000000 0.056329
#
#
# Mechanical properties :
#
#
# Convention : Reuss Voigt Hill
#
# Bulk Modulus (GPa) = 69.73956 88.69663 79.21809
# Shear Modulus (GPa) = 23.96966 36.87981 30.42474
#
# Velocity S-wave (km/s) = 3.17761 3.94152 3.58000
# Velocity P-wave (km/s) = 6.54527 7.62086 7.10345
#
# Compressibility (1/GPa) = 0.01433906
#
# Stress axis : x y z
#
# Youngs Moduli (GPa) = 153.26679 195.52699 88.69599
#
# Poissons Ratio (x) = 0.32644 -0.02676
# Poissons Ratio (y) = 0.25589 0.25893
# Poissons Ratio (z) = -0.04624 0.57080
#
# Static dielectric constant tensor:
#      x y z
#    x 1.982160 0.000000 0.000000 
#    y 0.000000 1.902410 0.000000 
#    z 0.000000 0.000000 1.948860 
# 
# From -- ./inp_files/4238.got.cif
#   From: 2010.05.17/outbox.cif.g08.bks.cpg/sg24_3_cif.got.tgz:4238.got - 2010.06.04 00:33:39.
