data_PCOD9336951
_publ_section_title
;
Structure prediction by ZEFSAII (Michael W. Deem and Ramdas Pophale) SiO2 
 PCOD9336951
Probable space group: I 21 21 21
;
_chemical_formula_sum "Si O2"
_cell_formula_units_Z 32
_cell_length_a 31.525933
_cell_length_b 5.708168
_cell_length_c 7.494383
_cell_angle_alpha 90.000000
_cell_angle_beta 90.000000
_cell_angle_gamma 90.000000
_cell_volume 1348.654105
_symmetry_space_group_name_H-M "I 21 21 21"
_symmetry_group_IT_number 24
_symmetry_cell_setting 'orthorhombic'
loop_
_space_group_symop_operation_xyz
x,y,z
-x,1/2-y,z
x,-y,1/2-z
1/2-x,y,-z
1/2+x,1/2+y,1/2+z
1/2-x,-y,1/2+z
1/2+x,1/2-y,-z
-x,1/2+y,1/2-z
loop_
_atom_site_type_symbol
_atom_site_label
_atom_site_fract_x
_atom_site_fract_y
_atom_site_fract_z
Si Si1 0.357153 0.500000 0.250000
Si Si2 0.854567 0.500000 0.250000
Si Si3 0.702471 0.849886 0.567776
Si Si4 0.023958 0.000000 0.750000
Si Si5 0.917522 0.745100 0.993655
Si Si6 0.524783 0.000000 0.750000
O O1 0.326047 0.535567 0.415633
O O2 0.389687 0.304986 0.320331
O O3 0.823074 0.614977 0.390777
O O4 0.885575 0.677188 0.150541
O O5 0.750000 0.812287 0.500000
O O6 0.703438 0.000000 0.750000
O O7 0.000000 0.750000 0.736442
O O8 0.051813 0.038839 0.571439
O O9 0.945868 0.954162 0.075017
O O10 0.500000 0.750000 0.734385
#
# Coordination Sequence:
#
# PCOD9336951 Si02
#       6
#     4   4   8   4   8   4
#     4  12  25  48  81 110 158 208 258 330 403 482
#     4  12  27  48  77 116 154 206 270 328 403 480
#     4  12  26  49  79 116 160 204 259 331 405 481
#     4  12  29  50  75 114 158 214 278 336 405 488
#     4  12  27  48  78 113 159 212 272 335 407 482
#     4  12  29  52  81 118 170 222 276 350 417 484
#
# _framework density 23.727359
#
# number of rings (size 3 to 8) (size 9 to 14) (size 15 to 20)
#    0.000    0.000    3.750    5.250    0.000   15.000 
#    0.000    0.000    0.000    0.000    0.000    0.000 
#    0.000    0.000    0.000    0.000    0.000    0.000 
#
# Total GULP energy -89534.295785 kJ/mol
# GULP energy per Si atom -5595.893487 kJ/mol
# Density = 2.367335 g / cm^3
# Si number density = 23.727359 Si / 1000 Ang^3
#
#
#
# Elastic Constant Matrix: (Units=GPa)
#
#
# Indices 1 2 3 4 5 6 
#
# 1 169.7309 90.5606 61.5313 0.0000 0.0000 0.0000
# 2 90.5606 121.6007 42.8230 0.0000 0.0000 0.0000
# 3 61.5313 42.8230 121.1983 0.0000 0.0000 0.0000
# 4 0.0000 0.0000 0.0000 45.5720 0.0000 0.0000
# 5 0.0000 0.0000 0.0000 0.0000 49.2574 0.0000
# 6 0.0000 0.0000 0.0000 0.0000 0.0000 39.4085
#
#
#
# Elastic Compliance Matrix: (Units=1/GPa)
#
#
# Indices 1 2 3 4 5 6 
#
# 1 0.010637 -0.006876 -0.002971 0.000000 0.000000 0.000000
# 2 -0.006876 0.013837 -0.001398 0.000000 0.000000 0.000000
# 3 -0.002971 -0.001398 0.010253 0.000000 0.000000 0.000000
# 4 0.000000 0.000000 0.000000 0.021943 0.000000 0.000000
# 5 0.000000 0.000000 0.000000 0.000000 0.020302 0.000000
# 6 0.000000 0.000000 0.000000 0.000000 0.000000 0.025375
#
#
# Mechanical properties :
#
#
# Convention : Reuss Voigt Hill
#
# Bulk Modulus (GPa) = 81.71679 89.15108 85.43393
# Shear Modulus (GPa) = 38.78481 41.35523 40.07002
#
# Velocity S-wave (km/s) = 4.04741 4.17938 4.11392
# Velocity P-wave (km/s) = 7.50711 7.80668 7.65836
#
# Compressibility (1/GPa) = 0.01223739
#
# Stress axis : x y z
#
# Youngs Moduli (GPa) = 94.00850 72.27191 97.52915
#
# Poissons Ratio (x) = 0.49692 0.28977
# Poissons Ratio (y) = 0.64638 0.13636
# Poissons Ratio (z) = 0.27931 0.10105
#
# Static dielectric constant tensor:
#      x y z
#    x 1.878950 0.000000 0.000000 
#    y 0.000000 1.897190 0.000000 
#    z 0.000000 0.000000 1.910320 
# 
# From -- ./inp_files/16651.got.cif
#   From: 2010.05.17/outbox.cif.g08.bks.cpg/sg24_9_cif.got.tgz:16651.got - 2010.06.04 00:33:39.
