data_PCOD9336094
_publ_section_title
;
Structure prediction by ZEFSAII (Michael W. Deem and Ramdas Pophale) SiO2 
 PCOD9336094
Probable space group: I 21 21 21
;
_chemical_formula_sum "Si O2"
_cell_formula_units_Z 60
_cell_length_a 6.607356
_cell_length_b 21.145091
_cell_length_c 21.823089
_cell_angle_alpha 90.000000
_cell_angle_beta 90.000000
_cell_angle_gamma 90.000000
_cell_volume 3048.972374
_symmetry_space_group_name_H-M "I 21 21 21"
_symmetry_group_IT_number 24
_symmetry_cell_setting 'orthorhombic'
loop_
_space_group_symop_operation_xyz
x,y,z
-x,1/2-y,z
x,-y,1/2-z
1/2-x,y,-z
1/2+x,1/2+y,1/2+z
1/2-x,-y,1/2+z
1/2+x,1/2-y,-z
-x,1/2+y,1/2-z
loop_
_atom_site_type_symbol
_atom_site_label
_atom_site_fract_x
_atom_site_fract_y
_atom_site_fract_z
Si Si1 0.770848 0.923563 0.432797
Si Si2 0.138320 0.331347 0.278698
Si Si3 0.500000 0.750000 0.162833
Si Si4 0.477365 0.178799 0.859928
Si Si5 0.128491 0.984143 0.063789
Si Si6 0.233795 0.863633 0.135734
Si Si7 0.859070 0.412791 0.866187
Si Si8 0.479030 0.426858 0.265030
O O1 0.750000 0.895341 0.500000
O O2 0.552073 0.932568 0.404866
O O3 0.873321 0.872026 0.389476
O O4 0.901354 0.987887 0.440617
O O5 0.319878 0.282002 0.296065
O O6 0.260302 0.397217 0.276908
O O7 0.030506 0.321266 0.212994
O O8 0.963055 0.336159 0.329371
O O9 0.385902 0.804644 0.124128
O O10 0.500000 0.250000 0.881605
O O11 0.260905 0.151129 0.880653
O O12 0.159742 0.911234 0.082704
O O13 0.211765 0.028672 0.119032
O O14 0.250000 0.996322 0.000000
O O15 0.368072 0.907185 0.181506
O O16 0.925943 0.400594 0.797154
O O17 0.461812 0.500000 0.250000
#
# Coordination Sequence:
#
# PCOD9336094 Si02
#       8
#     8   8   4   8   8   8   8   8
#     4  11  24  43  62  87 127 172 211 271 324 376
#     4  11  23  38  62  95 128 168 205 258 326 382
#     4  10  24  42  64  86 136 168 202 260 326 394
#     4  11  24  38  62  91 126 174 222 262 310 379
#     4  11  24  42  69  92 122 164 216 265 322 391
#     4  11  23  40  64  95 125 163 210 261 323 393
#     4  11  22  41  60  91 130 163 209 266 322 369
#     4  11  22  35  60  95 130 161 201 262 321 386
#
# _framework density 19.678761999999999
#
# number of rings (size 3 to 8) (size 9 to 14) (size 15 to 20)
#    0.000    1.067    5.333    1.200    3.733    1.067 
#    2.400    0.000    2.933    0.000    0.000    0.000 
#    0.000    0.000    0.000    0.000    0.000    0.000 
#
# Total GULP energy -167202.327533 kJ/mol
# GULP energy per Si atom -5573.410918 kJ/mol
# Density = 1.963397 g / cm^3
# Si number density = 19.678762 Si / 1000 Ang^3
#
#
#
# Elastic Constant Matrix: (Units=GPa)
#
#
# Indices 1 2 3 4 5 6 
#
# 1 110.7422 54.6552 13.3707 0.0000 0.0000 0.0000
# 2 54.6552 123.6073 8.7095 0.0000 0.0000 0.0000
# 3 13.3707 8.7095 39.7268 0.0000 0.0000 0.0000
# 4 0.0000 0.0000 0.0000 5.0820 0.0000 0.0000
# 5 0.0000 0.0000 0.0000 0.0000 11.5752 0.0000
# 6 0.0000 0.0000 0.0000 0.0000 0.0000 61.2665
#
#
#
# Elastic Compliance Matrix: (Units=1/GPa)
#
#
# Indices 1 2 3 4 5 6 
#
# 1 0.011868 -0.005044 -0.002889 0.000000 0.000000 0.000000
# 2 -0.005044 0.010361 -0.000574 0.000000 0.000000 0.000000
# 3 -0.002889 -0.000574 0.026270 0.000000 0.000000 0.000000
# 4 0.000000 0.000000 0.000000 0.196773 0.000000 0.000000
# 5 0.000000 0.000000 0.000000 0.000000 0.086392 0.000000
# 6 0.000000 0.000000 0.000000 0.000000 0.000000 0.016322
#
#
# Mechanical properties :
#
#
# Convention : Reuss Voigt Hill
#
# Bulk Modulus (GPa) = 31.76016 47.50524 39.63270
# Shear Modulus (GPa) = 13.31579 28.74080 21.02829
#
# Velocity S-wave (km/s) = 2.60409 3.82579 3.27246
# Velocity P-wave (km/s) = 5.02156 6.61123 5.87045
#
# Compressibility (1/GPa) = 0.03148598
#
# Stress axis : x y z
#
# Youngs Moduli (GPa) = 84.25837 96.51612 38.06634
#
# Poissons Ratio (x) = 0.48685 0.10996
# Poissons Ratio (y) = 0.42502 0.02184
# Poissons Ratio (z) = 0.24339 0.05538
#
# Static dielectric constant tensor:
#      x y z
#    x 1.766980 0.000000 0.000000 
#    y 0.000000 1.806170 0.000000 
#    z 0.000000 0.000000 1.752510 
# 
# From -- ./inp_files/34805.got.cif
#   From: 2010.05.17/outbox.cif.g08.bks.cpg/sg24_18_cif.got.tgz:34805.got - 2010.06.04 00:33:39.
