data_PCOD9336966
_publ_section_title
;
Structure prediction by ZEFSAII (Michael W. Deem and Ramdas Pophale) SiO2 
 PCOD9336966
Probable space group: I 21 21 21
;
_chemical_formula_sum "Si O2"
_cell_formula_units_Z 32
_cell_length_a 12.014401
_cell_length_b 11.735085
_cell_length_c 10.128764
_cell_angle_alpha 90.000000
_cell_angle_beta 90.000000
_cell_angle_gamma 90.000000
_cell_volume 1428.054608
_symmetry_space_group_name_H-M "I 21 21 21"
_symmetry_group_IT_number 24
_symmetry_cell_setting 'orthorhombic'
loop_
_space_group_symop_operation_xyz
x,y,z
-x,1/2-y,z
x,-y,1/2-z
1/2-x,y,-z
1/2+x,1/2+y,1/2+z
1/2-x,-y,1/2+z
1/2+x,1/2-y,-z
-x,1/2+y,1/2-z
loop_
_atom_site_type_symbol
_atom_site_label
_atom_site_fract_x
_atom_site_fract_y
_atom_site_fract_z
Si Si1 0.220841 0.112226 0.868851
Si Si2 0.500000 0.250000 0.423833
Si Si3 0.615395 0.000000 0.750000
Si Si4 0.070503 0.984156 0.035810
Si Si5 0.724758 0.200021 0.344355
O O1 0.234136 0.185482 0.740091
O O2 0.317853 0.018516 0.885475
O O3 0.250000 0.188067 0.000000
O O4 0.102313 0.052616 0.900795
O O5 0.556338 0.350180 0.509537
O O6 0.591848 0.181862 0.340860
O O7 0.534578 0.978513 0.623945
O O8 0.694687 0.105926 0.716602
O O9 0.750000 0.205972 0.500000
#
# Coordination Sequence:
#
# PCOD9336966 Si02
#       5
#     8   4   4   8   8
#     4   8  24  49  74 111 149 201 263 302 390 465
#     4  12  26  48  72 110 156 192 258 326 394 468
#     4  12  26  46  78 112 154 202 266 322 398 460
#     4   9  24  46  78 109 146 203 254 325 378 464
#     4  12  28  48  77 116 153 203 261 324 401 462
#
# _framework density 22.408107999999999
#
# number of rings (size 3 to 8) (size 9 to 14) (size 15 to 20)
#    1.500    0.000    2.500    0.000    7.000    5.000 
#    4.500    0.000    0.000    0.000    0.000    0.000 
#    0.000    0.000    0.000    0.000    0.000    0.000 
#
# Total GULP energy -89081.960436 kJ/mol
# GULP energy per Si atom -5567.622527 kJ/mol
# Density = 2.235711 g / cm^3
# Si number density = 22.408108 Si / 1000 Ang^3
#
#
#
# Elastic Constant Matrix: (Units=GPa)
#
#
# Indices 1 2 3 4 5 6 
#
# 1 178.4053 79.3943 52.8067 0.0000 0.0000 0.0000
# 2 79.3943 135.5420 88.9097 0.0000 0.0000 0.0000
# 3 52.8067 88.9097 104.5755 0.0000 0.0000 0.0000
# 4 0.0000 0.0000 0.0000 33.1693 0.0000 0.0000
# 5 0.0000 0.0000 0.0000 0.0000 125.6870 0.0000
# 6 0.0000 0.0000 0.0000 0.0000 0.0000 43.7928
#
#
#
# Elastic Compliance Matrix: (Units=1/GPa)
#
#
# Indices 1 2 3 4 5 6 
#
# 1 0.007582 -0.004363 -0.000119 0.000000 0.000000 0.000000
# 2 -0.004363 0.019191 -0.014113 0.000000 0.000000 0.000000
# 3 -0.000119 -0.014113 0.021621 0.000000 0.000000 0.000000
# 4 0.000000 0.000000 0.000000 0.030148 0.000000 0.000000
# 5 0.000000 0.000000 0.000000 0.000000 0.007956 0.000000
# 6 0.000000 0.000000 0.000000 0.000000 0.000000 0.022835
#
#
# Mechanical properties :
#
#
# Convention : Reuss Voigt Hill
#
# Bulk Modulus (GPa) = 89.25284 95.63824 92.44554
# Shear Modulus (GPa) = 33.27592 53.69064 43.48328
#
# Velocity S-wave (km/s) = 3.85774 4.90024 4.40991
# Velocity P-wave (km/s) = 7.73046 8.64808 8.20211
#
# Compressibility (1/GPa) = 0.01120412
#
# Stress axis : x y z
#
# Youngs Moduli (GPa) = 131.88829 52.10811 46.25056
#
# Poissons Ratio (x) = 0.22735 0.00552
# Poissons Ratio (y) = 0.57544 0.65273
# Poissons Ratio (z) = 0.01573 0.73539
#
# Static dielectric constant tensor:
#      x y z
#    x 1.880210 0.000000 0.000000 
#    y 0.000000 1.806880 0.000000 
#    z 0.000000 0.000000 1.975190 
# 
# From -- ./inp_files/19165.got.cif
#   From: 2010.05.17/outbox.cif.g08.bks.cpg/sg24_10_cif.got.tgz:19165.got - 2010.06.04 00:33:39.
