data_PCOD9336373
_publ_section_title
;
Structure prediction by ZEFSAII (Michael W. Deem and Ramdas Pophale) SiO2 
 PCOD9336373
Probable space group: I 21 21 21
;
_chemical_formula_sum "Si O2"
_cell_formula_units_Z 40
_cell_length_a 9.521678
_cell_length_b 9.087764
_cell_length_c 27.435899
_cell_angle_alpha 90.000000
_cell_angle_beta 90.000000
_cell_angle_gamma 90.000000
_cell_volume 2374.049262
_symmetry_space_group_name_H-M "I 21 21 21"
_symmetry_group_IT_number 24
_symmetry_cell_setting 'orthorhombic'
loop_
_space_group_symop_operation_xyz
x,y,z
-x,1/2-y,z
x,-y,1/2-z
1/2-x,y,-z
1/2+x,1/2+y,1/2+z
1/2-x,-y,1/2+z
1/2+x,1/2-y,-z
-x,1/2+y,1/2-z
loop_
_atom_site_type_symbol
_atom_site_label
_atom_site_fract_x
_atom_site_fract_y
_atom_site_fract_z
Si Si1 0.147071 0.668301 0.454725
Si Si2 0.855108 0.667216 0.732169
Si Si3 0.040523 0.586765 0.109316
Si Si4 0.865708 0.141973 0.285266
Si Si5 0.852430 0.335180 0.140968
O O1 0.250000 0.666692 0.500000
O O2 0.109795 0.508147 0.433304
O O3 0.204795 0.756621 0.407570
O O4 0.000000 0.750000 0.466884
O O5 0.876577 0.500000 0.750000
O O6 0.770275 0.763702 0.771661
O O7 0.753659 0.666839 0.685194
O O8 0.000000 0.750000 0.721597
O O9 0.134057 0.593114 0.158384
O O10 0.000000 0.750000 0.094508
O O11 0.902297 0.498051 0.126800
O O12 0.000000 0.250000 0.279030
O O13 0.877870 0.000000 0.250000
O O14 0.000000 0.250000 0.152832
#
# Coordination Sequence:
#
# PCOD9336373 Si02
#       5
#     8   8   8   8   8
#     4   9  19  36  57  77  99 131 172 213 255 305
#     4  12  24  35  49  76 112 145 174 212 261 308
#     4   9  17  31  55  81 102 127 169 217 255 298
#     4  11  19  32  55  79 105 140 178 212 251 304
#     4   9  19  36  57  77  99 135 180 212 244 305
#
# _framework density 16.848849999999999
#
# number of rings (size 3 to 8) (size 9 to 14) (size 15 to 20)
#    0.000    2.400    0.000    7.800    0.000    1.600 
#    0.000    4.000    0.000    3.600    0.000    0.000 
#    0.000    0.000    0.000    0.000    0.000    0.000 
#
# Total GULP energy -111586.141542 kJ/mol
# GULP energy per Si atom -5579.307077 kJ/mol
# Density = 1.681050 g / cm^3
# Si number density = 16.848850 Si / 1000 Ang^3
#
#
#
# Elastic Constant Matrix: (Units=GPa)
#
#
# Indices 1 2 3 4 5 6 
#
# 1 80.4750 49.4021 61.8547 0.0000 0.0000 0.0000
# 2 49.4021 151.2486 63.0750 0.0000 0.0000 0.0000
# 3 61.8547 63.0750 135.3389 0.0000 0.0000 0.0000
# 4 0.0000 0.0000 0.0000 10.8190 0.0000 0.0000
# 5 0.0000 0.0000 0.0000 0.0000 24.4125 0.0000
# 6 0.0000 0.0000 0.0000 0.0000 0.0000 13.4854
#
#
#
# Elastic Compliance Matrix: (Units=1/GPa)
#
#
# Indices 1 2 3 4 5 6 
#
# 1 0.020521 -0.003465 -0.007764 0.000000 0.000000 0.000000
# 2 -0.003465 0.008792 -0.002514 0.000000 0.000000 0.000000
# 3 -0.007764 -0.002514 0.012109 0.000000 0.000000 0.000000
# 4 0.000000 0.000000 0.000000 0.092430 0.000000 0.000000
# 5 0.000000 0.000000 0.000000 0.000000 0.040963 0.000000
# 6 0.000000 0.000000 0.000000 0.000000 0.000000 0.074154
#
#
# Mechanical properties :
#
#
# Convention : Reuss Voigt Hill
#
# Bulk Modulus (GPa) = 71.75634 79.52512 75.64073
# Shear Modulus (GPa) = 17.78736 22.59210 20.18973
#
# Velocity S-wave (km/s) = 3.25268 3.66576 3.46538
# Velocity P-wave (km/s) = 7.53574 8.07581 7.81044
#
# Compressibility (1/GPa) = 0.01393605
#
# Stress axis : x y z
#
# Youngs Moduli (GPa) = 48.73118 113.74370 82.58459
#
# Poissons Ratio (x) = 0.39411 0.64118
# Poissons Ratio (y) = 0.16885 0.20760
# Poissons Ratio (z) = 0.37834 0.28593
#
# Static dielectric constant tensor:
#      x y z
#    x 1.556210 0.000000 0.000000 
#    y 0.000000 1.601590 0.000000 
#    z 0.000000 0.000000 1.564710 
# 
# From -- ./inp_files/9483.got.cif
#   From: 2010.05.17/outbox.cif.g08.bks.cpg/sg24_5_cif.got.tgz:9483.got - 2010.06.04 00:33:39.
