data_PCOD9336337
_publ_section_title
;
Structure prediction by ZEFSAII (Michael W. Deem and Ramdas Pophale) SiO2 
 PCOD9336337
Probable space group: I 21 21 21
;
_chemical_formula_sum "Si O2"
_cell_formula_units_Z 40
_cell_length_a 5.395425
_cell_length_b 15.236055
_cell_length_c 20.526884
_cell_angle_alpha 90.000000
_cell_angle_beta 90.000000
_cell_angle_gamma 90.000000
_cell_volume 1687.412336
_symmetry_space_group_name_H-M "I 21 21 21"
_symmetry_group_IT_number 24
_symmetry_cell_setting 'orthorhombic'
loop_
_space_group_symop_operation_xyz
x,y,z
-x,1/2-y,z
x,-y,1/2-z
1/2-x,y,-z
1/2+x,1/2+y,1/2+z
1/2-x,-y,1/2+z
1/2+x,1/2-y,-z
-x,1/2+y,1/2-z
loop_
_atom_site_type_symbol
_atom_site_label
_atom_site_fract_x
_atom_site_fract_y
_atom_site_fract_z
Si Si1 0.122972 0.344556 0.307969
Si Si2 0.500000 0.750000 0.112938
Si Si3 0.978316 0.438578 0.889644
Si Si4 0.000000 0.250000 0.954328
Si Si5 0.515059 0.966394 0.924510
Si Si6 0.867084 0.000000 0.750000
Si Si7 0.250000 0.838544 0.000000
O O1 0.387443 0.323038 0.341229
O O2 0.187949 0.414535 0.253338
O O3 0.000000 0.250000 0.292902
O O4 0.986912 0.401919 0.362285
O O5 0.292781 0.780950 0.062972
O O6 0.998078 0.335898 0.907620
O O7 0.228577 0.482632 0.918428
O O8 0.978520 0.474278 0.814666
O O9 0.721726 0.470490 0.921458
O O10 0.250000 0.250902 0.000000
O O11 0.478899 0.901830 0.985512
#
# Coordination Sequence:
#
# PCOD9336337 Si02
#       7
#     8   4   8   4   8   4   4
#     4  11  24  48  67 106 146 196 245 319 374 458
#     4  12  24  43  64 108 151 188 250 294 376 460
#     4  11  27  51  74 114 144 204 257 323 383 449
#     4  12  28  53  78 114 161 208 266 322 386 474
#     4  11  25  44  72 105 152 189 253 297 379 453
#     4  10  26  50  78 106 148 194 266 322 394 456
#     4  12  22  38  70 102 144 204 224 302 368 454
#
# _framework density 23.704937999999999
#
# number of rings (size 3 to 8) (size 9 to 14) (size 15 to 20)
#    0.000    0.800    2.000    4.800    4.200    5.600 
#    9.000    0.000    0.000    0.000    0.000    0.000 
#    0.000    0.000    0.000    0.000    0.000    0.000 
#
# Total GULP energy -111735.533628 kJ/mol
# GULP energy per Si atom -5586.776681 kJ/mol
# Density = 2.365098 g / cm^3
# Si number density = 23.704938 Si / 1000 Ang^3
#
#
#
# Elastic Constant Matrix: (Units=GPa)
#
#
# Indices 1 2 3 4 5 6 
#
# 1 130.1839 54.5590 10.7840 0.0000 0.0000 0.0000
# 2 54.5590 184.5905 29.7879 0.0000 0.0000 0.0000
# 3 10.7840 29.7879 51.6354 0.0000 0.0000 0.0000
# 4 0.0000 0.0000 0.0000 55.8565 0.0000 0.0000
# 5 0.0000 0.0000 0.0000 0.0000 23.6176 0.0000
# 6 0.0000 0.0000 0.0000 0.0000 0.0000 44.8941
#
#
#
# Elastic Compliance Matrix: (Units=1/GPa)
#
#
# Indices 1 2 3 4 5 6 
#
# 1 0.008774 -0.002533 -0.000371 0.000000 0.000000 0.000000
# 2 -0.002533 0.006705 -0.003339 0.000000 0.000000 0.000000
# 3 -0.000371 -0.003339 0.021370 0.000000 0.000000 0.000000
# 4 0.000000 0.000000 0.000000 0.017903 0.000000 0.000000
# 5 0.000000 0.000000 0.000000 0.000000 0.042341 0.000000
# 6 0.000000 0.000000 0.000000 0.000000 0.000000 0.022275
#
#
# Mechanical properties :
#
#
# Convention : Reuss Voigt Hill
#
# Bulk Modulus (GPa) = 41.04661 61.85241 51.44951
# Shear Modulus (GPa) = 35.72053 42.95890 39.33971
#
# Velocity S-wave (km/s) = 3.88607 4.26165 4.07819
# Velocity P-wave (km/s) = 6.12279 7.09682 6.62772
#
# Compressibility (1/GPa) = 0.02436255
#
# Stress axis : x y z
#
# Youngs Moduli (GPa) = 113.97430 149.14212 46.79411
#
# Poissons Ratio (x) = 0.37784 0.01736
# Poissons Ratio (y) = 0.28875 0.15624
# Poissons Ratio (z) = 0.04228 0.49798
#
# Static dielectric constant tensor:
#      x y z
#    x 1.944420 0.000000 0.000000 
#    y 0.000000 1.920430 0.000000 
#    z 0.000000 0.000000 1.936970 
# 
# From -- ./inp_files/34639.got.cif
#   From: 2010.05.17/outbox.cif.g08.bks.cpg/sg24_18_cif.got.tgz:34639.got - 2010.06.04 00:33:39.
