data_PCOD9336879
_publ_section_title
;
Structure prediction by ZEFSAII (Michael W. Deem and Ramdas Pophale) SiO2 
 PCOD9336879
Probable space group: I 21 21 21
;
_chemical_formula_sum "Si O2"
_cell_formula_units_Z 56
_cell_length_a 13.781847
_cell_length_b 15.291788
_cell_length_c 12.221328
_cell_angle_alpha 90.000000
_cell_angle_beta 90.000000
_cell_angle_gamma 90.000000
_cell_volume 2575.633664
_symmetry_space_group_name_H-M "I 21 21 21"
_symmetry_group_IT_number 24
_symmetry_cell_setting 'orthorhombic'
loop_
_space_group_symop_operation_xyz
x,y,z
-x,1/2-y,z
x,-y,1/2-z
1/2-x,y,-z
1/2+x,1/2+y,1/2+z
1/2-x,-y,1/2+z
1/2+x,1/2-y,-z
-x,1/2+y,1/2-z
loop_
_atom_site_type_symbol
_atom_site_label
_atom_site_fract_x
_atom_site_fract_y
_atom_site_fract_z
Si Si1 0.250000 0.626576 0.500000
Si Si2 0.176635 0.146583 0.682747
Si Si3 0.171399 0.000000 0.250000
Si Si4 0.109636 0.775034 0.589690
Si Si5 0.963872 0.416652 0.066906
Si Si6 0.286152 0.339890 0.381986
Si Si7 0.358799 0.590221 0.700172
Si Si8 0.982155 0.046956 0.631777
O O1 0.169449 0.691304 0.550728
O O2 0.286774 0.570310 0.600328
O O3 0.260709 0.075316 0.697921
O O4 0.155164 0.179628 0.805600
O O5 0.199717 0.235558 0.619600
O O6 0.081393 0.102470 0.631091
O O7 0.104012 0.033015 0.151436
O O8 0.100602 0.844711 0.493262
O O9 0.000000 0.750000 0.619581
O O10 0.047955 0.369942 0.139534
O O11 0.010833 0.479306 0.971634
O O12 0.250000 0.367709 0.500000
O O13 0.204658 0.360022 0.289847
O O14 0.387541 0.391025 0.365297
O O15 0.394142 0.500000 0.750000
O O16 0.982429 0.000000 0.750000
#
# Coordination Sequence:
#
# PCOD9336879 Si02
#       8
#     4   8   4   8   8   8   8   8
#     4  12  26  44  74 110 146 198 240 320 364 444
#     4  12  26  50  74 111 145 195 253 305 365 448
#     4  12  28  50  74 104 150 194 252 310 376 434
#     4  12  23  44  75 112 145 184 250 306 371 424
#     4  12  27  46  77 107 149 197 247 314 365 443
#     4  12  29  48  77 108 154 201 239 305 378 454
#     4  12  27  47  71 109 150 190 250 299 378 440
#     4  12  26  48  76 112 149 198 252 302 365 445
#
# _framework density 21.742222000000002
#
# number of rings (size 3 to 8) (size 9 to 14) (size 15 to 20)
#    0.000    0.000    5.714    3.429    7.000    1.143 
#    0.000    0.000    0.000    0.000    0.000    0.000 
#    0.000    0.000    0.000    0.000    0.000    0.000 
#
# Total GULP energy -156676.586696 kJ/mol
# GULP energy per Si atom -5595.592382 kJ/mol
# Density = 2.169274 g / cm^3
# Si number density = 21.742222 Si / 1000 Ang^3
#
#
#
# Elastic Constant Matrix: (Units=GPa)
#
#
# Indices 1 2 3 4 5 6 
#
# 1 101.2348 18.7033 28.6385 0.0000 0.0000 0.0000
# 2 18.7033 57.2919 4.0084 0.0000 0.0000 0.0000
# 3 28.6385 4.0084 102.4274 0.0000 0.0000 0.0000
# 4 0.0000 0.0000 0.0000 40.5588 0.0000 0.0000
# 5 0.0000 0.0000 0.0000 0.0000 36.3685 0.0000
# 6 0.0000 0.0000 0.0000 0.0000 0.0000 46.1059
#
#
#
# Elastic Compliance Matrix: (Units=1/GPa)
#
#
# Indices 1 2 3 4 5 6 
#
# 1 0.011387 -0.003504 -0.003047 0.000000 0.000000 0.000000
# 2 -0.003504 0.018581 0.000253 0.000000 0.000000 0.000000
# 3 -0.003047 0.000253 0.010605 0.000000 0.000000 0.000000
# 4 0.000000 0.000000 0.000000 0.024656 0.000000 0.000000
# 5 0.000000 0.000000 0.000000 0.000000 0.027496 0.000000
# 6 0.000000 0.000000 0.000000 0.000000 0.000000 0.021689
#
#
# Mechanical properties :
#
#
# Convention : Reuss Voigt Hill
#
# Bulk Modulus (GPa) = 35.74449 40.40607 38.07528
# Shear Modulus (GPa) = 36.67396 38.58022 37.62709
#
# Velocity S-wave (km/s) = 4.11148 4.21698 4.16456
# Velocity P-wave (km/s) = 6.24618 6.50654 6.37769
#
# Compressibility (1/GPa) = 0.02797634
#
# Stress axis : x y z
#
# Youngs Moduli (GPa) = 87.81678 53.81899 94.29524
#
# Poissons Ratio (x) = 0.18860 0.28729
# Poissons Ratio (y) = 0.30774 -0.02382
# Poissons Ratio (z) = 0.26755 -0.01360
#
# Static dielectric constant tensor:
#      x y z
#    x 1.795080 0.000000 0.000000 
#    y 0.000000 1.798350 0.000000 
#    z 0.000000 0.000000 1.737150 
# 
# From -- ./inp_files/20907.got.cif
#   From: 2010.05.17/outbox.cif.g08.bks.cpg/sg24_11_cif.got.tgz:20907.got - 2010.06.04 00:33:39.
