data_PCOD9336422
_publ_section_title
;
Structure prediction by ZEFSAII (Michael W. Deem and Ramdas Pophale) SiO2 
 PCOD9336422
Probable space group: I 21 21 21
;
_chemical_formula_sum "Si O2"
_cell_formula_units_Z 40
_cell_length_a 7.970904
_cell_length_b 12.779886
_cell_length_c 17.075710
_cell_angle_alpha 90.000000
_cell_angle_beta 90.000000
_cell_angle_gamma 90.000000
_cell_volume 1739.455525
_symmetry_space_group_name_H-M "I 21 21 21"
_symmetry_group_IT_number 24
_symmetry_cell_setting 'orthorhombic'
loop_
_space_group_symop_operation_xyz
x,y,z
-x,1/2-y,z
x,-y,1/2-z
1/2-x,y,-z
1/2+x,1/2+y,1/2+z
1/2-x,-y,1/2+z
1/2+x,1/2-y,-z
-x,1/2+y,1/2-z
loop_
_atom_site_type_symbol
_atom_site_label
_atom_site_fract_x
_atom_site_fract_y
_atom_site_fract_z
Si Si1 0.363800 0.173142 0.271663
Si Si2 0.491046 0.126848 0.884468
Si Si3 0.145028 0.976333 0.629430
Si Si4 0.887802 0.838376 0.218049
Si Si5 0.277692 0.470238 0.419146
O O1 0.500000 0.250000 0.309781
O O2 0.415905 0.101638 0.198947
O O3 0.240679 0.261036 0.238058
O O4 0.299493 0.088016 0.333480
O O5 0.500000 0.250000 0.901563
O O6 0.311463 0.076080 0.906408
O O7 0.512113 0.109441 0.789487
O O8 0.649682 0.068065 0.921502
O O9 0.972632 0.999499 0.585036
O O10 0.786519 0.909310 0.158149
O O11 0.000000 0.750000 0.174904
O O12 0.250000 0.408608 0.500000
#
# Coordination Sequence:
#
# PCOD9336422 Si02
#       5
#     8   8   8   8   8
#     4  11  20  37  67 108 135 172 232 306 359 407
#     4  11  24  45  73 104 135 184 250 311 357 414
#     4  11  24  41  72 104 141 181 240 302 363 418
#     4  11  21  44  73 105 140 178 250 307 361 419
#     4  12  28  47  66 106 154 195 232 288 371 461
#
# _framework density 22.995701
#
# number of rings (size 3 to 8) (size 9 to 14) (size 15 to 20)
#    0.000    0.800    6.000    3.000    5.600    0.800 
#    7.200    0.000    0.000    0.000    0.000    0.000 
#    0.000    0.000    0.000    0.000    0.000    0.000 
#
# Total GULP energy -111501.820658 kJ/mol
# GULP energy per Si atom -5575.091033 kJ/mol
# Density = 2.294336 g / cm^3
# Si number density = 22.995701 Si / 1000 Ang^3
#
#
#
# Elastic Constant Matrix: (Units=GPa)
#
#
# Indices 1 2 3 4 5 6 
#
# 1 142.7329 29.4073 23.2782 0.0000 0.0000 0.0000
# 2 29.4073 88.9286 3.3092 0.0000 0.0000 0.0000
# 3 23.2782 3.3092 69.3741 0.0000 0.0000 0.0000
# 4 0.0000 0.0000 0.0000 -8.2635 0.0000 0.0000
# 5 0.0000 0.0000 0.0000 0.0000 11.8330 0.0000
# 6 0.0000 0.0000 0.0000 0.0000 0.0000 47.4745
#
#
#
# Elastic Compliance Matrix: (Units=1/GPa)
#
#
# Indices 1 2 3 4 5 6 
#
# 1 0.007943 -0.002532 -0.002544 0.000000 0.000000 0.000000
# 2 -0.002532 0.012072 0.000274 0.000000 0.000000 0.000000
# 3 -0.002544 0.000274 0.015255 0.000000 0.000000 0.000000
# 4 0.000000 0.000000 0.000000 -0.121014 0.000000 0.000000
# 5 0.000000 0.000000 0.000000 0.000000 0.084510 0.000000
# 6 0.000000 0.000000 0.000000 0.000000 0.000000 0.021064
#
#
# Mechanical properties :
#
#
# Convention : Reuss Voigt Hill
#
# Bulk Modulus (GPa) = 38.96353 45.89165 42.42759
# Shear Modulus (GPa) = 131.61481 26.54485 79.07983
#
# Velocity S-wave (km/s) = 7.57356 3.40124 5.87057
# Velocity P-wave (km/s) = 9.66742 5.95185 8.02756
#
# Compressibility (1/GPa) = 0.02566503
#
# Stress axis : x y z
#
# Youngs Moduli (GPa) = 125.90200 82.83604 65.55101
#
# Poissons Ratio (x) = 0.20973 0.16679
# Poissons Ratio (y) = 0.31876 -0.01794
# Poissons Ratio (z) = 0.32034 -0.02267
#
# Static dielectric constant tensor:
#      x y z
#    x 2.047590 0.000000 0.000000 
#    y 0.000000 1.848380 0.000000 
#    z 0.000000 0.000000 1.847110 
# 
# From -- ./inp_files/29256.got.cif
#   From: 2010.05.17/outbox.cif.g08.bks.cpg/sg24_15_cif.got.tgz:29256.got - 2010.06.04 00:33:39.
