data_PCOD9336870
_publ_section_title
;
Structure prediction by ZEFSAII (Michael W. Deem and Ramdas Pophale) SiO2 
 PCOD9336870
Probable space group: I 21 21 21
;
_chemical_formula_sum "Si O2"
_cell_formula_units_Z 32
_cell_length_a 4.879730
_cell_length_b 9.997142
_cell_length_c 29.886917
_cell_angle_alpha 90.000000
_cell_angle_beta 90.000000
_cell_angle_gamma 90.000000
_cell_volume 1457.984044
_symmetry_space_group_name_H-M "I 21 21 21"
_symmetry_group_IT_number 24
_symmetry_cell_setting 'orthorhombic'
loop_
_space_group_symop_operation_xyz
x,y,z
-x,1/2-y,z
x,-y,1/2-z
1/2-x,y,-z
1/2+x,1/2+y,1/2+z
1/2-x,-y,1/2+z
1/2+x,1/2-y,-z
-x,1/2+y,1/2-z
loop_
_atom_site_type_symbol
_atom_site_label
_atom_site_fract_x
_atom_site_fract_y
_atom_site_fract_z
Si Si1 0.500000 0.250000 0.872047
Si Si2 0.829981 0.112929 0.658075
Si Si3 0.500000 0.250000 0.194146
Si Si4 0.533307 0.000000 0.250000
Si Si5 0.671829 0.466233 0.601978
Si Si6 0.000000 0.250000 0.470059
O O1 0.250735 0.285355 0.838473
O O2 0.578535 0.379931 0.900931
O O3 0.530582 0.102881 0.637813
O O4 0.000000 0.250000 0.659993
O O5 0.025904 0.033429 0.623176
O O6 0.806155 0.062082 0.708527
O O7 0.603740 0.372731 0.225359
O O8 0.630459 0.369878 0.559529
O O9 0.250000 0.303076 0.500000
#
# Coordination Sequence:
#
# PCOD9336870 Si02
#       6
#     4   8   4   4   8   4
#     4  12  24  44  63  99 128 186 212 266 340 414
#     4  12  23  40  64  95 132 184 229 269 327 387
#     4  12  26  38  61  89 140 178 236 268 324 374
#     4  12  24  40  58  98 134 182 230 288 304 378
#     4  12  24  44  70  95 135 174 215 277 342 412
#     4  12  26  46  74 106 128 168 228 286 348 432
#
# _framework density 21.948114
#
# number of rings (size 3 to 8) (size 9 to 14) (size 15 to 20)
#    0.000    0.000    8.750    1.500    0.000    4.000 
#    0.000    1.250    0.000    0.000    0.000    0.000 
#    0.000    0.000    0.000    0.000    0.000    0.000 
#
# Total GULP energy -89330.585436 kJ/mol
# GULP energy per Si atom -5583.161590 kJ/mol
# Density = 2.189816 g / cm^3
# Si number density = 21.948114 Si / 1000 Ang^3
#
#
#
# Elastic Constant Matrix: (Units=GPa)
#
#
# Indices 1 2 3 4 5 6 
#
# 1 93.7416 -8.6589 25.0473 0.0000 0.0000 0.0000
# 2 -8.6589 141.1333 23.6447 0.0000 0.0000 0.0000
# 3 25.0473 23.6447 96.1399 0.0000 0.0000 0.0000
# 4 0.0000 0.0000 0.0000 13.3723 0.0000 0.0000
# 5 0.0000 0.0000 0.0000 0.0000 5.3625 0.0000
# 6 0.0000 0.0000 0.0000 0.0000 0.0000 28.5374
#
#
#
# Elastic Compliance Matrix: (Units=1/GPa)
#
#
# Indices 1 2 3 4 5 6 
#
# 1 0.011683 0.001279 -0.003358 0.000000 0.000000 0.000000
# 2 0.001279 0.007530 -0.002185 0.000000 0.000000 0.000000
# 3 -0.003358 -0.002185 0.011814 0.000000 0.000000 0.000000
# 4 0.000000 0.000000 0.000000 0.074781 0.000000 0.000000
# 5 0.000000 0.000000 0.000000 0.000000 0.186482 0.000000
# 6 0.000000 0.000000 0.000000 0.000000 0.000000 0.035042
#
#
# Mechanical properties :
#
#
# Convention : Reuss Voigt Hill
#
# Bulk Modulus (GPa) = 44.44724 45.67566 45.06145
# Shear Modulus (GPa) = 14.56197 28.85321 21.70759
#
# Velocity S-wave (km/s) = 2.57859 3.62969 3.14831
# Velocity P-wave (km/s) = 5.40005 6.19856 5.81303
#
# Compressibility (1/GPa) = 0.02249858
#
# Stress axis : x y z
#
# Youngs Moduli (GPa) = 85.59317 132.80015 84.64568
#
# Poissons Ratio (x) = -0.16991 0.28428
# Poissons Ratio (y) = -0.10951 0.18498
# Poissons Ratio (z) = 0.28746 0.29021
#
# Static dielectric constant tensor:
#      x y z
#    x 1.763990 0.000000 0.000000 
#    y 0.000000 1.937390 0.000000 
#    z 0.000000 0.000000 1.764000 
# 
# From -- ./inp_files/34519.got.cif
#   From: 2010.05.17/outbox.cif.g08.bks.cpg/sg24_18_cif.got.tgz:34519.got - 2010.06.04 00:33:39.
