data_PCOD9336786
_publ_section_title
;
Structure prediction by ZEFSAII (Michael W. Deem and Ramdas Pophale) SiO2 
 PCOD9336786
Probable space group: I 21 21 21
;
_chemical_formula_sum "Si O2"
_cell_formula_units_Z 32
_cell_length_a 9.605030
_cell_length_b 10.143433
_cell_length_c 12.102784
_cell_angle_alpha 90.000000
_cell_angle_beta 90.000000
_cell_angle_gamma 90.000000
_cell_volume 1179.149777
_symmetry_space_group_name_H-M "I 21 21 21"
_symmetry_group_IT_number 24
_symmetry_cell_setting 'orthorhombic'
loop_
_space_group_symop_operation_xyz
x,y,z
-x,1/2-y,z
x,-y,1/2-z
1/2-x,y,-z
1/2+x,1/2+y,1/2+z
1/2-x,-y,1/2+z
1/2+x,1/2-y,-z
-x,1/2+y,1/2-z
loop_
_atom_site_type_symbol
_atom_site_label
_atom_site_fract_x
_atom_site_fract_y
_atom_site_fract_z
Si Si1 0.056223 0.089677 0.162476
Si Si2 0.772149 0.184152 0.206290
Si Si3 0.472410 0.408619 0.081795
Si Si4 0.869126 0.664773 0.908046
O O1 0.170986 0.197820 0.128088
O O2 0.924664 0.132824 0.239141
O O3 0.134508 0.000000 0.250000
O O4 0.983417 0.055798 0.047804
O O5 0.677328 0.082218 0.140217
O O6 0.690804 0.248942 0.307171
O O7 0.500000 0.250000 0.095764
O O8 0.573265 0.521731 0.127853
O O9 0.000000 0.750000 0.952324
O O10 0.750000 0.647298 0.000000
#
# Coordination Sequence:
#
# PCOD9336786 Si02
#       4
#     8   8   8   8
#     4  11  26  48  87 120 172 224 284 356 432 515
#     4  11  27  51  81 124 164 226 287 351 430 514
#     4  12  28  51  83 122 167 227 285 354 426 516
#     4  12  32  55  86 125 175 225 287 362 437 516
#
# _framework density 27.138197999999999
#
# number of rings (size 3 to 8) (size 9 to 14) (size 15 to 20)
#    0.000    0.500    2.500    3.000   17.500    2.000 
#    0.000    0.000    0.000    0.000    0.000    0.000 
#    0.000    0.000    0.000    0.000    0.000    0.000 
#
# Total GULP energy -89421.341470 kJ/mol
# GULP energy per Si atom -5588.833842 kJ/mol
# Density = 2.707643 g / cm^3
# Si number density = 27.138198 Si / 1000 Ang^3
#
#
#
# Elastic Constant Matrix: (Units=GPa)
#
#
# Indices 1 2 3 4 5 6 
#
# 1 194.1654 70.6815 60.4809 0.0000 0.0000 0.0000
# 2 70.6815 141.5343 45.6971 0.0000 0.0000 0.0000
# 3 60.4809 45.6971 143.2926 0.0000 0.0000 0.0000
# 4 0.0000 0.0000 0.0000 33.1743 0.0000 0.0000
# 5 0.0000 0.0000 0.0000 0.0000 50.5044 0.0000
# 6 0.0000 0.0000 0.0000 0.0000 0.0000 54.3006
#
#
#
# Elastic Compliance Matrix: (Units=1/GPa)
#
#
# Indices 1 2 3 4 5 6 
#
# 1 0.006764 -0.002738 -0.001982 0.000000 0.000000 0.000000
# 2 -0.002738 0.008985 -0.001710 0.000000 0.000000 0.000000
# 3 -0.001982 -0.001710 0.008360 0.000000 0.000000 0.000000
# 4 0.000000 0.000000 0.000000 0.030144 0.000000 0.000000
# 5 0.000000 0.000000 0.000000 0.000000 0.019800 0.000000
# 6 0.000000 0.000000 0.000000 0.000000 0.000000 0.018416
#
#
# Mechanical properties :
#
#
# Convention : Reuss Voigt Hill
#
# Bulk Modulus (GPa) = 88.88640 92.52348 90.70494
# Shear Modulus (GPa) = 45.83827 47.73804 46.78816
#
# Velocity S-wave (km/s) = 4.11429 4.19868 4.15670
# Velocity P-wave (km/s) = 7.44272 7.59425 7.51887
#
# Compressibility (1/GPa) = 0.01125032
#
# Stress axis : x y z
#
# Youngs Moduli (GPa) = 147.83355 111.29851 119.61096
#
# Poissons Ratio (x) = 0.30476 0.23705
# Poissons Ratio (y) = 0.40480 0.20449
# Poissons Ratio (z) = 0.29299 0.19028
#
# Static dielectric constant tensor:
#      x y z
#    x 2.109340 0.000000 0.000000 
#    y 0.000000 2.668730 0.000000 
#    z 0.000000 0.000000 2.046010 
# 
# From -- ./inp_files/24312.got.cif
#   From: 2010.05.17/outbox.cif.g08.bks.cpg/sg24_13_cif.got.tgz:24312.got - 2010.06.04 00:33:39.
