data_PCOD9336363
_publ_section_title
;
Structure prediction by ZEFSAII (Michael W. Deem and Ramdas Pophale) SiO2 
 PCOD9336363
Probable space group: I 21 21 21
;
_chemical_formula_sum "Si O2"
_cell_formula_units_Z 32
_cell_length_a 9.722068
_cell_length_b 15.128221
_cell_length_c 7.882284
_cell_angle_alpha 90.000000
_cell_angle_beta 90.000000
_cell_angle_gamma 90.000000
_cell_volume 1159.307360
_symmetry_space_group_name_H-M "I 21 21 21"
_symmetry_group_IT_number 24
_symmetry_cell_setting 'orthorhombic'
loop_
_space_group_symop_operation_xyz
x,y,z
-x,1/2-y,z
x,-y,1/2-z
1/2-x,y,-z
1/2+x,1/2+y,1/2+z
1/2-x,-y,1/2+z
1/2+x,1/2-y,-z
-x,1/2+y,1/2-z
loop_
_atom_site_type_symbol
_atom_site_label
_atom_site_fract_x
_atom_site_fract_y
_atom_site_fract_z
Si Si1 0.699744 0.684503 0.194345
Si Si2 0.390817 0.330751 0.705134
Si Si3 0.908633 0.569768 0.400589
Si Si4 0.036701 0.435069 0.625168
O O1 0.742373 0.786377 0.218942
O O2 0.789654 0.635706 0.337597
O O3 0.546795 0.647513 0.203371
O O4 0.750000 0.665179 0.000000
O O5 0.500000 0.250000 0.667002
O O6 0.449996 0.375839 0.873412
O O7 0.398816 0.397996 0.548151
O O8 0.903747 0.500000 0.250000
O O9 0.920000 0.506912 0.562619
O O10 0.121589 0.500000 0.750000
#
# Coordination Sequence:
#
# PCOD9336363 Si02
#       4
#     8   8   8   8
#     4  11  18  30  59  86 111 147 199 236 288 346
#     4   9  18  34  53  82 118 153 181 235 298 351
#     4   9  17  32  52  80 116 144 188 227 289 338
#     4  11  22  34  60  88 116 145 198 248 284 334
#
# _framework density 27.602689999999999
#
# number of rings (size 3 to 8) (size 9 to 14) (size 15 to 20)
#    0.000    2.000    7.500    0.750    0.000    0.000 
#    0.000    3.750    5.500    4.500    0.000    0.000 
#    0.000    0.000    0.000    0.000    0.000    0.000 
#
# Total GULP energy -89375.920523 kJ/mol
# GULP energy per Si atom -5585.995033 kJ/mol
# Density = 2.753986 g / cm^3
# Si number density = 27.602690 Si / 1000 Ang^3
#
#
#
# Elastic Constant Matrix: (Units=GPa)
#
#
# Indices 1 2 3 4 5 6 
#
# 1 131.1145 45.9880 21.9465 0.0001 0.0000 0.0000
# 2 45.9880 129.4208 45.7799 0.0002 0.0000 0.0000
# 3 21.9465 45.7799 99.4024 0.0007 -0.0003 -0.0002
# 4 0.0001 0.0002 0.0007 54.9225 -0.0001 0.0000
# 5 0.0000 0.0000 -0.0003 -0.0001 19.3601 0.0000
# 6 0.0000 0.0000 -0.0002 0.0000 0.0000 32.9582
#
#
#
# Elastic Compliance Matrix: (Units=1/GPa)
#
#
# Indices 1 2 3 4 5 6 
#
# 1 0.008742 -0.002895 -0.000597 0.000000 0.000000 0.000000
# 2 -0.002895 0.010189 -0.004053 0.000000 0.000000 0.000000
# 3 -0.000597 -0.004053 0.012059 0.000000 0.000000 0.000000
# 4 0.000000 0.000000 0.000000 0.018207 0.000000 0.000000
# 5 0.000000 0.000000 0.000000 0.000000 0.051653 0.000000
# 6 0.000000 0.000000 0.000000 0.000000 0.000000 0.030341
#
#
# Mechanical properties :
#
#
# Convention : Reuss Voigt Hill
#
# Bulk Modulus (GPa) = 62.89590 65.26294 64.07942
# Shear Modulus (GPa) = 32.98526 37.86306 35.42416
#
# Velocity S-wave (km/s) = 3.46063 3.70769 3.58629
# Velocity P-wave (km/s) = 6.22925 6.48261 6.35719
#
# Compressibility (1/GPa) = 0.01589929
#
# Stress axis : x y z
#
# Youngs Moduli (GPa) = 114.38571 98.14104 82.92765
#
# Poissons Ratio (x) = 0.28416 0.04948
# Poissons Ratio (y) = 0.33119 0.33615
# Poissons Ratio (z) = 0.06825 0.39781
#
# Static dielectric constant tensor:
#      x y z
#    x 2.275320 0.000000 0.000000 
#    y 0.000000 2.145720 0.000000 
#    z 0.000000 0.000000 2.225540 
# 
# From -- ./inp_files/10243.got.cif
#   From: 2010.05.17/outbox.cif.g08.bks.cpg/sg24_6_cif.got.tgz:10243.got - 2010.06.04 00:33:39.
