data_PCOD9336194
_publ_section_title
;
Structure prediction by ZEFSAII (Michael W. Deem and Ramdas Pophale) SiO2 
 PCOD9336194
Probable space group: I 21 21 21
;
_chemical_formula_sum "Si O2"
_cell_formula_units_Z 56
_cell_length_a 12.979290
_cell_length_b 13.343838
_cell_length_c 14.760979
_cell_angle_alpha 90.000000
_cell_angle_beta 90.000000
_cell_angle_gamma 90.000000
_cell_volume 2556.506253
_symmetry_space_group_name_H-M "I 21 21 21"
_symmetry_group_IT_number 24
_symmetry_cell_setting 'orthorhombic'
loop_
_space_group_symop_operation_xyz
x,y,z
-x,1/2-y,z
x,-y,1/2-z
1/2-x,y,-z
1/2+x,1/2+y,1/2+z
1/2-x,-y,1/2+z
1/2+x,1/2-y,-z
-x,1/2+y,1/2-z
loop_
_atom_site_type_symbol
_atom_site_label
_atom_site_fract_x
_atom_site_fract_y
_atom_site_fract_z
Si Si1 0.872639 0.839759 0.420095
Si Si2 0.762003 0.365109 0.107944
Si Si3 0.961138 0.095745 0.522707
Si Si4 0.341412 0.794924 0.064682
Si Si5 0.959194 0.474777 0.147514
Si Si6 0.662134 0.084243 0.107720
Si Si7 0.622385 0.252874 0.238681
O O1 0.825474 0.738986 0.381574
O O2 0.785450 0.925107 0.401632
O O3 0.873924 0.836703 0.529118
O O4 0.979974 0.874328 0.381558
O O5 0.837193 0.453688 0.140079
O O6 0.660593 0.338605 0.167214
O O7 0.750000 0.378849 0.000000
O O8 0.891879 0.195264 0.520125
O O9 0.068520 0.123466 0.569696
O O10 0.899672 0.013938 0.581234
O O11 0.996132 0.054003 0.424914
O O12 0.315952 0.769423 0.168234
O O13 0.250000 0.828220 0.000000
O O14 0.985299 0.500000 0.250000
O O15 0.643253 0.141778 0.200024
O O16 0.500000 0.250000 0.255948
#
# Coordination Sequence:
#
# PCOD9336194 Si02
#       7
#     8   8   8   8   8   8   8
#     4   9  18  41  67 100 135 167 218 289 357 409
#     4  11  23  42  69 103 138 177 224 299 367 407
#     4  10  24  46  67 101 139 184 235 300 351 422
#     4  11  26  48  70  95 145 197 243 284 362 430
#     4  11  26  42  64 105 137 181 237 276 363 429
#     4   9  19  37  71 102 127 163 230 293 347 400
#     4  11  23  44  70 101 132 184 238 286 354 441
#
# _framework density 21.904896000000001
#
# number of rings (size 3 to 8) (size 9 to 14) (size 15 to 20)
#    0.000    1.714    4.286    0.429   10.000    3.429 
#    2.571    0.000    0.000    0.000    0.000    0.000 
#    0.000    0.000    0.000    0.000    0.000    0.000 
#
# Total GULP energy -156276.981556 kJ/mol
# GULP energy per Si atom -5581.320770 kJ/mol
# Density = 2.185504 g / cm^3
# Si number density = 21.904896 Si / 1000 Ang^3
#
#
#
# Elastic Constant Matrix: (Units=GPa)
#
#
# Indices 1 2 3 4 5 6 
#
# 1 92.8264 9.0045 29.0697 0.0000 0.0000 0.0000
# 2 9.0045 35.7963 18.3142 0.0000 0.0000 0.0000
# 3 29.0697 18.3142 122.0301 0.0000 0.0000 0.0000
# 4 0.0000 0.0000 0.0000 15.9385 0.0000 0.0000
# 5 0.0000 0.0000 0.0000 0.0000 26.4580 0.0000
# 6 0.0000 0.0000 0.0000 0.0000 0.0000 23.0336
#
#
#
# Elastic Compliance Matrix: (Units=1/GPa)
#
#
# Indices 1 2 3 4 5 6 
#
# 1 0.011730 -0.001648 -0.002547 0.000000 0.000000 0.000000
# 2 -0.001648 0.030491 -0.004184 0.000000 0.000000 0.000000
# 3 -0.002547 -0.004184 0.009429 0.000000 0.000000 0.000000
# 4 0.000000 0.000000 0.000000 0.062741 0.000000 0.000000
# 5 0.000000 0.000000 0.000000 0.000000 0.037796 0.000000
# 6 0.000000 0.000000 0.000000 0.000000 0.000000 0.043415
#
#
# Mechanical properties :
#
#
# Convention : Reuss Voigt Hill
#
# Bulk Modulus (GPa) = 28.65831 40.38106 34.51968
# Shear Modulus (GPa) = 22.32243 26.03697 24.17970
#
# Velocity S-wave (km/s) = 3.19574 3.45140 3.32603
# Velocity P-wave (km/s) = 5.16996 5.86154 5.52658
#
# Compressibility (1/GPa) = 0.03489390
#
# Stress axis : x y z
#
# Youngs Moduli (GPa) = 85.24954 32.79685 106.05213
#
# Poissons Ratio (x) = 0.05404 0.27012
# Poissons Ratio (y) = 0.14046 0.44367
# Poissons Ratio (z) = 0.21714 0.13721
#
# Static dielectric constant tensor:
#      x y z
#    x 1.843030 0.000000 0.000000 
#    y 0.000000 1.858790 0.000000 
#    z 0.000000 0.000000 1.813650 
# 
# From -- ./inp_files/25821.got.cif
#   From: 2010.05.17/outbox.cif.g08.bks.cpg/sg24_13_cif.got.tgz:25821.got - 2010.06.04 00:33:39.
