data_PCOD9336245
_publ_section_title
;
Structure prediction by ZEFSAII (Michael W. Deem and Ramdas Pophale) SiO2 
 PCOD9336245
Probable space group: I 21 21 21
;
_chemical_formula_sum "Si O2"
_cell_formula_units_Z 24
_cell_length_a 8.716678
_cell_length_b 5.344585
_cell_length_c 20.531777
_cell_angle_alpha 90.000000
_cell_angle_beta 90.000000
_cell_angle_gamma 90.000000
_cell_volume 956.514439
_symmetry_space_group_name_H-M "I 21 21 21"
_symmetry_group_IT_number 24
_symmetry_cell_setting 'orthorhombic'
loop_
_space_group_symop_operation_xyz
x,y,z
-x,1/2-y,z
x,-y,1/2-z
1/2-x,y,-z
1/2+x,1/2+y,1/2+z
1/2-x,-y,1/2+z
1/2+x,1/2-y,-z
-x,1/2+y,1/2-z
loop_
_atom_site_type_symbol
_atom_site_label
_atom_site_fract_x
_atom_site_fract_y
_atom_site_fract_z
Si Si1 0.102092 0.999111 0.674608
Si Si2 0.896536 0.005527 0.181453
Si Si3 0.316224 0.236988 0.571531
O O1 0.000000 0.750000 0.666544
O O2 0.162187 0.000000 0.750000
O O3 0.232841 0.033854 0.618678
O O4 0.000000 0.250000 0.668524
O O5 0.795702 0.979612 0.117455
O O6 0.000000 0.750000 0.184700
O O7 0.809630 0.000000 0.250000
O O8 0.000000 0.250000 0.177980
O O9 0.500000 0.250000 0.560917
O O10 0.250000 0.234373 0.500000
#
# Coordination Sequence:
#
# PCOD9336245 Si02
#       3
#     8   8   8
#     4  10  24  49  79 110 148 197 254 316 382 455
#     4   9  20  40  68 103 141 186 245 308 368 438
#     4  11  25  47  74 111 155 201 253 314 381 453
#
# _framework density 25.091100000000001
#
# number of rings (size 3 to 8) (size 9 to 14) (size 15 to 20)
#    0.000    2.000    0.000    1.000    0.000   20.000 
#    0.000   26.667    0.000    0.000    0.000    0.000 
#    0.000    0.000    0.000    0.000    0.000    0.000 
#
# Total GULP energy -66938.816154 kJ/mol
# GULP energy per Si atom -5578.234680 kJ/mol
# Density = 2.503399 g / cm^3
# Si number density = 25.091100 Si / 1000 Ang^3
#
#
#
# Elastic Constant Matrix: (Units=GPa)
#
#
# Indices 1 2 3 4 5 6 
#
# 1 158.7337 82.7422 120.1113 0.0000 0.0000 0.0000
# 2 82.7422 226.7709 57.8957 0.0000 0.0000 0.0000
# 3 120.1113 57.8957 308.0942 0.0000 0.0000 0.0000
# 4 0.0000 0.0000 0.0000 15.2808 0.0000 0.0000
# 5 0.0000 0.0000 0.0000 0.0000 -102.5618 0.0000
# 6 0.0000 0.0000 0.0000 0.0000 0.0000 70.7148
#
#
#
# Elastic Compliance Matrix: (Units=1/GPa)
#
#
# Indices 1 2 3 4 5 6 
#
# 1 0.010511 -0.002930 -0.003547 0.000000 0.000000 0.000000
# 2 -0.002930 0.005448 0.000118 0.000000 0.000000 0.000000
# 3 -0.003547 0.000118 0.004606 0.000000 0.000000 0.000000
# 4 0.000000 0.000000 0.000000 0.065442 0.000000 0.000000
# 5 0.000000 0.000000 0.000000 0.000000 -0.009750 0.000000
# 6 0.000000 0.000000 0.000000 0.000000 0.000000 0.014141
#
#
# Mechanical properties :
#
#
# Convention : Reuss Voigt Hill
#
# Bulk Modulus (GPa) = 127.40733 135.01080 131.20907
# Shear Modulus (GPa) = 47.28927 25.54339 36.41633
#
# Velocity S-wave (km/s) = 4.34603 3.19411 3.81381
# Velocity P-wave (km/s) = 8.72193 8.21755 8.47350
#
# Compressibility (1/GPa) = 0.00784884
#
# Stress axis : x y z
#
# Youngs Moduli (GPa) = 95.13757 183.53805 217.08691
#
# Poissons Ratio (x) = 0.53769 0.77006
# Poissons Ratio (y) = 0.27871 -0.02567
# Poissons Ratio (z) = 0.33748 -0.02170
#
# Static dielectric constant tensor:
#      x y z
#    x 2.223740 0.000000 0.000000 
#    y 0.000000 2.042230 0.000000 
#    z 0.000000 0.000000 2.042600 
# 
# From -- ./inp_files/34911.got.cif
#   From: 2010.05.17/outbox.cif.g08.bks.cpg/sg24_18_cif.got.tgz:34911.got - 2010.06.04 00:33:39.
