data_PCOD9336127
_publ_section_title
;
Structure prediction by ZEFSAII (Michael W. Deem and Ramdas Pophale) SiO2 
 PCOD9336127
Probable space group: I 21 21 21
;
_chemical_formula_sum "Si O2"
_cell_formula_units_Z 48
_cell_length_a 17.700261
_cell_length_b 11.498669
_cell_length_c 11.097538
_cell_angle_alpha 90.000000
_cell_angle_beta 90.000000
_cell_angle_gamma 90.000000
_cell_volume 2258.675722
_symmetry_space_group_name_H-M "I 21 21 21"
_symmetry_group_IT_number 24
_symmetry_cell_setting 'orthorhombic'
loop_
_space_group_symop_operation_xyz
x,y,z
-x,1/2-y,z
x,-y,1/2-z
1/2-x,y,-z
1/2+x,1/2+y,1/2+z
1/2-x,-y,1/2+z
1/2+x,1/2-y,-z
-x,1/2+y,1/2-z
loop_
_atom_site_type_symbol
_atom_site_label
_atom_site_fract_x
_atom_site_fract_y
_atom_site_fract_z
Si Si1 0.318667 0.735165 0.706566
Si Si2 0.574860 0.825685 0.075647
Si Si3 0.168857 0.143384 0.465943
Si Si4 0.411332 0.565913 0.557468
Si Si5 0.660225 0.878544 0.302851
Si Si6 0.079031 0.063234 0.119416
O O1 0.331402 0.787645 0.839563
O O2 0.362480 0.616908 0.668171
O O3 0.229639 0.711511 0.693964
O O4 0.359081 0.835122 0.626646
O O5 0.500000 0.750000 0.057360
O O6 0.588436 0.863519 0.213181
O O7 0.645826 0.741200 0.059174
O O8 0.581178 0.928821 0.977456
O O9 0.250000 0.095313 0.500000
O O10 0.109563 0.039354 0.464659
O O11 0.370950 0.612386 0.437358
O O12 0.497177 0.605769 0.579138
O O13 0.693756 0.000000 0.250000
O O14 0.071046 0.000000 0.250000
#
# Coordination Sequence:
#
# PCOD9336127 Si02
#       6
#     8   8   8   8   8   8
#     4  11  24  41  67  98 136 173 219 281 334 393
#     4  11  23  42  70  98 133 176 222 274 331 399
#     4  11  23  42  70  98 133 176 222 274 331 399
#     4  11  24  41  67  98 136 173 219 281 334 393
#     4  10  24  43  65  99 134 174 226 269 335 400
#     4  10  24  43  65  99 134 174 226 269 335 400
#
# _framework density 21.251391000000002
#
# number of rings (size 3 to 8) (size 9 to 14) (size 15 to 20)
#    0.000    1.333    3.333    1.000    4.667    2.667 
#    0.000    0.000    0.000    0.000    0.000    0.000 
#    0.000    0.000    0.000    0.000    0.000    0.000 
#
# Total GULP energy -133834.008056 kJ/mol
# GULP energy per Si atom -5576.417002 kJ/mol
# Density = 2.120302 g / cm^3
# Si number density = 21.251391 Si / 1000 Ang^3
#
#
#
# Elastic Constant Matrix: (Units=GPa)
#
#
# Indices 1 2 3 4 5 6 
#
# 1 71.3012 43.9753 24.9783 0.0000 0.0000 0.0000
# 2 43.9753 90.4367 27.4119 0.0000 0.0000 0.0000
# 3 24.9783 27.4119 52.4438 0.0000 0.0000 0.0000
# 4 0.0000 0.0000 0.0000 16.3905 0.0000 0.0000
# 5 0.0000 0.0000 0.0000 0.0000 18.0685 0.0000
# 6 0.0000 0.0000 0.0000 0.0000 0.0000 45.2456
#
#
#
# Elastic Compliance Matrix: (Units=1/GPa)
#
#
# Indices 1 2 3 4 5 6 
#
# 1 0.021348 -0.008673 -0.005635 0.000000 0.000000 0.000000
# 2 -0.008673 0.016662 -0.004579 0.000000 0.000000 0.000000
# 3 -0.005635 -0.004579 0.024145 0.000000 0.000000 0.000000
# 4 0.000000 0.000000 0.000000 0.061011 0.000000 0.000000
# 5 0.000000 0.000000 0.000000 0.000000 0.055345 0.000000
# 6 0.000000 0.000000 0.000000 0.000000 0.000000 0.022102
#
#
# Mechanical properties :
#
#
# Convention : Reuss Voigt Hill
#
# Bulk Modulus (GPa) = 41.01143 45.21253 43.11198
# Shear Modulus (GPa) = 20.28299 23.79533 22.03916
#
# Velocity S-wave (km/s) = 3.09274 3.34983 3.22385
# Velocity P-wave (km/s) = 5.66511 6.02355 5.84708
#
# Compressibility (1/GPa) = 0.02438344
#
# Stress axis : x y z
#
# Youngs Moduli (GPa) = 46.84327 60.01555 41.41661
#
# Poissons Ratio (x) = 0.52049 0.23337
# Poissons Ratio (y) = 0.40625 0.18963
# Poissons Ratio (z) = 0.26394 0.27479
#
# Static dielectric constant tensor:
#      x y z
#    x 1.719500 0.000000 0.000000 
#    y 0.000000 1.810400 0.000000 
#    z 0.000000 0.000000 1.773420 
# 
# From -- ./inp_files/19709.got.cif
#   From: 2010.05.17/outbox.cif.g08.bks.cpg/sg24_10_cif.got.tgz:19709.got - 2010.06.04 00:33:39.
