data_PCOD9336827
_publ_section_title
;
Structure prediction by ZEFSAII (Michael W. Deem and Ramdas Pophale) SiO2 
 PCOD9336827
Probable space group: I 21 21 21
;
_chemical_formula_sum "Si O2"
_cell_formula_units_Z 36
_cell_length_a 7.591298
_cell_length_b 9.105139
_cell_length_c 19.507053
_cell_angle_alpha 90.000000
_cell_angle_beta 90.000000
_cell_angle_gamma 90.000000
_cell_volume 1348.324060
_symmetry_space_group_name_H-M "I 21 21 21"
_symmetry_group_IT_number 24
_symmetry_cell_setting 'orthorhombic'
loop_
_space_group_symop_operation_xyz
x,y,z
-x,1/2-y,z
x,-y,1/2-z
1/2-x,y,-z
1/2+x,1/2+y,1/2+z
1/2-x,-y,1/2+z
1/2+x,1/2-y,-z
-x,1/2+y,1/2-z
loop_
_atom_site_type_symbol
_atom_site_label
_atom_site_fract_x
_atom_site_fract_y
_atom_site_fract_z
Si Si1 0.767361 0.024400 0.917105
Si Si2 0.187931 0.715478 0.711143
Si Si3 0.000000 0.250000 0.553231
Si Si4 0.000000 0.250000 0.298488
Si Si5 0.626366 0.532174 0.635168
Si Si6 0.250000 0.021426 0.500000
O O1 0.861575 0.121779 0.857300
O O2 0.570476 0.058326 0.890309
O O3 0.855354 0.859866 0.911783
O O4 0.750000 0.057000 0.000000
O O5 0.347847 0.656719 0.758694
O O6 0.289514 0.865249 0.691273
O O7 0.000000 0.750000 0.745910
O O8 0.910623 0.368354 0.504339
O O9 0.884393 0.364731 0.341796
O O10 0.745807 0.564868 0.569204
#
# Coordination Sequence:
#
# PCOD9336827 Si02
#       6
#     8   8   4   4   8   4
#     4  12  25  46  80 118 170 217 282 358 432 504
#     4  12  29  52  80 122 163 230 291 348 434 511
#     4  12  21  40  66 118 158 207 276 340 422 503
#     4  12  27  58  82 114 176 229 280 352 416 525
#     4  12  26  51  81 114 173 213 280 358 427 509
#     4  12  22  42  72 116 154 208 270 348 418 490
#
# _framework density 26.699809999999999
#
# number of rings (size 3 to 8) (size 9 to 14) (size 15 to 20)
#    0.000    0.000    5.556    4.000    1.556    0.000 
#   16.000    0.000    0.000    0.000    0.000    0.000 
#    0.000    0.000    0.000    0.000    0.000    0.000 
#
# Total GULP energy -100400.001848 kJ/mol
# GULP energy per Si atom -5577.777880 kJ/mol
# Density = 2.663904 g / cm^3
# Si number density = 26.699810 Si / 1000 Ang^3
#
#
#
# Elastic Constant Matrix: (Units=GPa)
#
#
# Indices 1 2 3 4 5 6 
#
# 1 137.1692 6.2374 19.7454 0.0000 0.0000 0.0000
# 2 6.2374 78.7483 11.0295 0.0000 0.0000 0.0000
# 3 19.7454 11.0295 91.9618 0.0000 0.0000 0.0000
# 4 0.0000 0.0000 0.0000 38.4221 0.0000 0.0000
# 5 0.0000 0.0000 0.0000 0.0000 67.3558 0.0000
# 6 0.0000 0.0000 0.0000 0.0000 0.0000 47.6700
#
#
#
# Elastic Compliance Matrix: (Units=1/GPa)
#
#
# Indices 1 2 3 4 5 6 
#
# 1 0.007534 -0.000376 -0.001572 0.000000 0.000000 0.000000
# 2 -0.000376 0.012934 -0.001470 0.000000 0.000000 0.000000
# 3 -0.001572 -0.001470 0.011388 0.000000 0.000000 0.000000
# 4 0.000000 0.000000 0.000000 0.026027 0.000000 0.000000
# 5 0.000000 0.000000 0.000000 0.000000 0.014847 0.000000
# 6 0.000000 0.000000 0.000000 0.000000 0.000000 0.020978
#
#
# Mechanical properties :
#
#
# Convention : Reuss Voigt Hill
#
# Bulk Modulus (GPa) = 39.97208 42.43379 41.20293
# Shear Modulus (GPa) = 45.92003 48.74738 47.33370
#
# Velocity S-wave (km/s) = 4.15162 4.27752 4.21504
# Velocity P-wave (km/s) = 6.16317 6.35009 6.25733
#
# Compressibility (1/GPa) = 0.02501746
#
# Stress axis : x y z
#
# Youngs Moduli (GPa) = 132.73624 77.31284 87.81126
#
# Poissons Ratio (x) = 0.02911 0.13808
# Poissons Ratio (y) = 0.04997 0.12912
# Poissons Ratio (z) = 0.20872 0.11369
#
# Static dielectric constant tensor:
#      x y z
#    x 2.213890 0.000000 0.000000 
#    y 0.000000 2.095120 0.000000 
#    z 0.000000 0.000000 2.252740 
# 
# From -- ./inp_files/32525.got.cif
#   From: 2010.05.17/outbox.cif.g08.bks.cpg/sg24_17_cif.got.tgz:32525.got - 2010.06.04 00:33:39.
