data_PCOD9336248
_publ_section_title
;
Structure prediction by ZEFSAII (Michael W. Deem and Ramdas Pophale) SiO2 
 PCOD9336248
Probable space group: I 21 21 21
;
_chemical_formula_sum "Si O2"
_cell_formula_units_Z 24
_cell_length_a 7.032070
_cell_length_b 6.074184
_cell_length_c 20.802903
_cell_angle_alpha 90.000000
_cell_angle_beta 90.000000
_cell_angle_gamma 90.000000
_cell_volume 888.577010
_symmetry_space_group_name_H-M "I 21 21 21"
_symmetry_group_IT_number 24
_symmetry_cell_setting 'orthorhombic'
loop_
_space_group_symop_operation_xyz
x,y,z
-x,1/2-y,z
x,-y,1/2-z
1/2-x,y,-z
1/2+x,1/2+y,1/2+z
1/2-x,-y,1/2+z
1/2+x,1/2-y,-z
-x,1/2+y,1/2-z
loop_
_atom_site_type_symbol
_atom_site_label
_atom_site_fract_x
_atom_site_fract_y
_atom_site_fract_z
Si Si1 0.500000 0.250000 0.310431
Si Si2 0.750000 0.872352 0.500000
Si Si3 0.000000 0.250000 0.466195
Si Si4 0.310054 0.000000 0.750000
Si Si5 0.252857 0.035056 0.115391
O O1 0.318085 0.219644 0.264690
O O2 0.543542 0.463344 0.354259
O O3 0.743936 0.731760 0.565336
O O4 0.933255 0.030998 0.501489
O O5 0.822727 0.323547 0.423241
O O6 0.384606 0.044863 0.821426
#
# Coordination Sequence:
#
# PCOD9336248 Si02
#       5
#     4   4   4   4   8
#     4   8  20  45  76 114 149 198 250 302 368 461
#     4  12  28  52  74 110 156 204 254 326 386 442
#     4  12  28  49  70 120 149 202 260 316 380 467
#     4   8  20  48  74 118 146 192 246 306 368 456
#     4  10  24  50  76 116 154 196 252 316 382 448
#
# _framework density 27.009477
#
# number of rings (size 3 to 8) (size 9 to 14) (size 15 to 20)
#    2.000    0.000    0.000    2.000    0.000   10.667 
#   18.000    0.000    0.000    0.000    0.000    0.000 
#    0.000    0.000    0.000    0.000    0.000    0.000 
#
# Total GULP energy -66844.739286 kJ/mol
# GULP energy per Si atom -5570.394940 kJ/mol
# Density = 2.694800 g / cm^3
# Si number density = 27.009477 Si / 1000 Ang^3
#
#
#
# Elastic Constant Matrix: (Units=GPa)
#
#
# Indices 1 2 3 4 5 6 
#
# 1 39.4014 30.9051 -2.8023 0.0000 0.0000 0.0000
# 2 30.9051 136.5467 79.9600 0.0000 0.0000 0.0000
# 3 -2.8023 79.9600 196.9183 0.0000 0.0000 0.0000
# 4 0.0000 0.0000 0.0000 43.4512 0.0000 0.0000
# 5 0.0000 0.0000 0.0000 0.0000 22.2221 0.0000
# 6 0.0000 0.0000 0.0000 0.0000 0.0000 69.0276
#
#
#
# Elastic Compliance Matrix: (Units=1/GPa)
#
#
# Indices 1 2 3 4 5 6 
#
# 1 0.033902 -0.010438 0.004721 0.000000 0.000000 0.000000
# 2 -0.010438 0.012822 -0.005355 0.000000 0.000000 0.000000
# 3 0.004721 -0.005355 0.007320 0.000000 0.000000 0.000000
# 4 0.000000 0.000000 0.000000 0.023014 0.000000 0.000000
# 5 0.000000 0.000000 0.000000 0.000000 0.045000 0.000000
# 6 0.000000 0.000000 0.000000 0.000000 0.000000 0.014487
#
#
# Mechanical properties :
#
#
# Convention : Reuss Voigt Hill
#
# Bulk Modulus (GPa) = 31.34762 65.44357 48.39559
# Shear Modulus (GPa) = 29.52944 44.59374 37.06159
#
# Velocity S-wave (km/s) = 3.31009 4.06771 3.70830
# Velocity P-wave (km/s) = 5.12253 6.80765 6.02430
#
# Compressibility (1/GPa) = 0.03190035
#
# Stress axis : x y z
#
# Youngs Moduli (GPa) = 29.49636 77.99318 136.61571
#
# Poissons Ratio (x) = 0.81407 -0.64493
# Poissons Ratio (y) = 0.30787 0.73156
# Poissons Ratio (z) = -0.13924 0.41764
#
# Static dielectric constant tensor:
#      x y z
#    x 2.307570 0.000000 0.000000 
#    y 0.000000 2.126980 0.000000 
#    z 0.000000 0.000000 2.130220 
# 
# From -- ./inp_files/33078.got.cif
#   From: 2010.05.17/outbox.cif.g08.bks.cpg/sg24_17_cif.got.tgz:33078.got - 2010.06.04 00:33:39.
