data_PCOD9336072
_publ_section_title
;
Structure prediction by ZEFSAII (Michael W. Deem and Ramdas Pophale) SiO2 
 PCOD9336072
Probable space group: I 21 21 21
;
_chemical_formula_sum "Si O2"
_cell_formula_units_Z 44
_cell_length_a 8.498426
_cell_length_b 17.072935
_cell_length_c 14.004136
_cell_angle_alpha 90.000000
_cell_angle_beta 90.000000
_cell_angle_gamma 90.000000
_cell_volume 2031.903151
_symmetry_space_group_name_H-M "I 21 21 21"
_symmetry_group_IT_number 24
_symmetry_cell_setting 'orthorhombic'
loop_
_space_group_symop_operation_xyz
x,y,z
-x,1/2-y,z
x,-y,1/2-z
1/2-x,y,-z
1/2+x,1/2+y,1/2+z
1/2-x,-y,1/2+z
1/2+x,1/2-y,-z
-x,1/2+y,1/2-z
loop_
_atom_site_type_symbol
_atom_site_label
_atom_site_fract_x
_atom_site_fract_y
_atom_site_fract_z
Si Si1 0.553738 0.922350 0.685029
Si Si2 0.276709 0.995485 0.607227
Si Si3 0.250000 0.537942 0.500000
Si Si4 0.562978 0.053005 0.342497
Si Si5 0.301187 0.310158 0.664782
Si Si6 0.618787 0.661574 0.916360
O O1 0.643891 0.920964 0.582565
O O2 0.609726 0.848706 0.745994
O O3 0.588186 0.000000 0.750000
O O4 0.367134 0.929744 0.666023
O O5 0.250000 0.966363 0.500000
O O6 0.392319 0.069390 0.601796
O O7 0.121474 0.037543 0.646016
O O8 0.362799 0.485682 0.435685
O O9 0.640255 0.139817 0.339568
O O10 0.602255 0.000000 0.250000
O O11 0.429947 0.319733 0.577509
O O12 0.301376 0.216411 0.664871
O O13 0.750000 0.669754 0.000000
#
# Coordination Sequence:
#
# PCOD9336072 Si02
#       6
#     8   8   4   8   8   8
#     4  12  21  40  63  94 133 174 224 287 343 401
#     4  11  23  39  62  98 135 169 221 279 342 411
#     4  12  20  36  64  94 124 168 224 278 340 394
#     4  12  24  37  62  97 126 172 223 285 336 401
#     4  11  23  41  61  92 137 177 221 272 347 415
#     4  10  24  39  62  96 132 178 213 267 343 414
#
# _framework density 21.654575000000001
#
# number of rings (size 3 to 8) (size 9 to 14) (size 15 to 20)
#    0.000    0.727    7.273    0.545    3.818    3.636 
#    0.000    0.000    0.000    0.000   18.909    0.000 
#    0.000    0.000    0.000    0.000    0.000    0.000 
#
# Total GULP energy -122474.063081 kJ/mol
# GULP energy per Si atom -5567.002867 kJ/mol
# Density = 2.160529 g / cm^3
# Si number density = 21.654575 Si / 1000 Ang^3
#
#
#
# Elastic Constant Matrix: (Units=GPa)
#
#
# Indices 1 2 3 4 5 6 
#
# 1 123.7930 -2.7442 24.4194 0.0000 0.0000 0.0000
# 2 -2.7442 54.8749 42.5115 0.0000 0.0000 0.0000
# 3 24.4194 42.5115 128.1938 0.0000 0.0000 0.0000
# 4 0.0000 0.0000 0.0000 31.6236 0.0000 0.0000
# 5 0.0000 0.0000 0.0000 0.0000 42.1246 0.0000
# 6 0.0000 0.0000 0.0000 0.0000 0.0000 14.2065
#
#
#
# Elastic Compliance Matrix: (Units=1/GPa)
#
#
# Indices 1 2 3 4 5 6 
#
# 1 0.008602 0.002287 -0.002397 0.000000 0.000000 0.000000
# 2 0.002287 0.025132 -0.008770 0.000000 0.000000 0.000000
# 3 -0.002397 -0.008770 0.011165 0.000000 0.000000 0.000000
# 4 0.000000 0.000000 0.000000 0.031622 0.000000 0.000000
# 5 0.000000 0.000000 0.000000 0.000000 0.023739 0.000000
# 6 0.000000 0.000000 0.000000 0.000000 0.000000 0.070390
#
#
# Mechanical properties :
#
#
# Convention : Reuss Voigt Hill
#
# Bulk Modulus (GPa) = 36.84697 48.35946 42.60321
# Shear Modulus (GPa) = 25.32216 33.76928 29.54572
#
# Velocity S-wave (km/s) = 3.42331 3.95327 3.69780
# Velocity P-wave (km/s) = 5.71648 6.57408 6.16022
#
# Compressibility (1/GPa) = 0.02713928
#
# Stress axis : x y z
#
# Youngs Moduli (GPa) = 116.25860 39.79062 89.56167
#
# Poissons Ratio (x) = -0.09100 0.21467
# Poissons Ratio (y) = -0.26589 0.78543
# Poissons Ratio (z) = 0.27866 0.34895
#
# Static dielectric constant tensor:
#      x y z
#    x 1.974320 0.000000 0.000000 
#    y 0.000000 1.794710 0.000000 
#    z 0.000000 0.000000 1.973460 
# 
# From -- ./inp_files/24740.got.cif
#   From: 2010.05.17/outbox.cif.g08.bks.cpg/sg24_13_cif.got.tgz:24740.got - 2010.06.04 00:33:39.
