data_PCOD9336612
_publ_section_title
;
Structure prediction by ZEFSAII (Michael W. Deem and Ramdas Pophale) SiO2 
 PCOD9336612
Probable space group: I 21 21 21
;
_chemical_formula_sum "Si O2"
_cell_formula_units_Z 64
_cell_length_a 18.386774
_cell_length_b 14.084521
_cell_length_c 14.084525
_cell_angle_alpha 90.000000
_cell_angle_beta 90.000000
_cell_angle_gamma 90.000000
_cell_volume 3647.454010
_symmetry_space_group_name_H-M "I 21 21 21"
_symmetry_group_IT_number 24
_symmetry_cell_setting 'orthorhombic'
loop_
_space_group_symop_operation_xyz
x,y,z
-x,1/2-y,z
x,-y,1/2-z
1/2-x,y,-z
1/2+x,1/2+y,1/2+z
1/2-x,-y,1/2+z
1/2+x,1/2-y,-z
-x,1/2+y,1/2-z
loop_
_atom_site_type_symbol
_atom_site_label
_atom_site_fract_x
_atom_site_fract_y
_atom_site_fract_z
Si Si1 0.085910 0.229097 0.118764
Si Si2 0.664090 0.131236 0.020903
Si Si3 0.077123 0.009293 0.136357
Si Si4 0.168341 0.684717 0.200846
Si Si5 0.827123 0.886357 0.740707
Si Si6 0.171253 0.844727 0.039362
Si Si7 0.078747 0.710638 0.905273
Si Si8 0.581659 0.049154 0.565283
O O1 0.097630 0.116856 0.111755
O O2 0.120625 0.270062 0.215498
O O3 0.000000 0.250000 0.119066
O O4 0.125000 0.283744 0.033744
O O5 0.652370 0.138245 0.133144
O O6 0.750000 0.130934 0.000000
O O7 0.629375 0.034502 0.979938
O O8 0.081672 0.000000 0.250000
O O9 0.127805 0.932090 0.084959
O O10 0.994629 0.989785 0.103219
O O11 0.244629 0.646781 0.239785
O O12 0.181244 0.764512 0.120572
O O13 0.125000 0.599454 0.150546
O O14 0.877805 0.834959 0.817910
O O15 0.831672 0.000000 0.750000
O O16 0.250000 0.872724 0.000000
O O17 0.125000 0.793914 0.956086
O O18 0.000000 0.750000 0.877276
O O19 0.068756 0.629428 0.985488
#
# Coordination Sequence:
#
# PCOD9336612 Si02
#       8
#     8   8   8   8   8   8   8   8
#     4  12  25  41  64  95 132 168 209 265 330 384
#     4  12  25  41  64  95 132 168 209 265 330 384
#     4  12  24  42  67  93 128 171 217 262 322 385
#     4  11  24  39  66  98 129 162 209 263 327 385
#     4  12  24  42  67  93 128 171 217 262 322 385
#     4  11  23  42  67  94 126 167 213 265 317 380
#     4  11  23  42  67  94 126 167 213 265 317 380
#     4  11  24  39  66  98 129 162 209 263 327 385
#
# _framework density 17.546485000000001
#
# number of rings (size 3 to 8) (size 9 to 14) (size 15 to 20)
#    0.000    0.500    7.500    1.500    0.000    1.000 
#    0.000    0.000    0.000    0.000    0.000    0.000 
#    0.000    0.000    0.000    0.000    0.000    0.000 
#
# Total GULP energy -178987.714071 kJ/mol
# GULP energy per Si atom -5593.366065 kJ/mol
# Density = 1.750655 g / cm^3
# Si number density = 17.546485 Si / 1000 Ang^3
#
#
#
# Elastic Constant Matrix: (Units=GPa)
#
#
# Indices 1 2 3 4 5 6 
#
# 1 159.0823 75.6464 75.6466 0.0000 0.0000 0.0000
# 2 75.6464 131.5995 72.5643 0.0000 0.0000 0.0000
# 3 75.6466 72.5643 131.5997 0.0000 0.0000 0.0000
# 4 0.0000 0.0000 0.0000 -5.0468 0.0000 0.0000
# 5 0.0000 0.0000 0.0000 0.0000 31.2806 0.0000
# 6 0.0000 0.0000 0.0000 0.0000 0.0000 31.2805
#
#
#
# Elastic Compliance Matrix: (Units=1/GPa)
#
#
# Indices 1 2 3 4 5 6 
#
# 1 0.009706 -0.003596 -0.003596 0.000000 0.000000 0.000000
# 2 -0.003596 0.012251 -0.004688 0.000000 0.000000 0.000000
# 3 -0.003596 -0.004688 0.012251 0.000000 0.000000 0.000000
# 4 0.000000 0.000000 0.000000 -0.198143 0.000000 0.000000
# 5 0.000000 0.000000 0.000000 0.000000 0.031969 0.000000
# 6 0.000000 0.000000 0.000000 0.000000 0.000000 0.031969
#
#
# Mechanical properties :
#
#
# Convention : Reuss Voigt Hill
#
# Bulk Modulus (GPa) = 95.72146 96.66622 96.19384
# Shear Modulus (GPa) = -68.72496 24.73113 -21.99691
#
# Velocity S-wave (km/s) = -6.26517 3.75836 -3.54451
# Velocity P-wave (km/s) = 1.52806 8.60493 6.17979
#
# Compressibility (1/GPa) = 0.01044698
#
# Stress axis : x y z
#
# Youngs Moduli (GPa) = 103.02541 81.62565 81.62576
#
# Poissons Ratio (x) = 0.29356 0.29356
# Poissons Ratio (y) = 0.37052 0.38266
# Poissons Ratio (z) = 0.37052 0.38266
#
# Static dielectric constant tensor:
#      x y z
#    x 1.567690 0.000000 0.000000 
#    y 0.000000 1.578620 0.000000 
#    z 0.000000 0.000000 1.578620 
# 
# From -- ./inp_files/21730.got.cif
#   From: 2010.05.17/outbox.cif.g08.bks.cpg/sg24_11_cif.got.tgz:21730.got - 2010.06.04 00:33:39.
