data_PCOD9336536
_publ_section_title
;
Structure prediction by ZEFSAII (Michael W. Deem and Ramdas Pophale) SiO2 
 PCOD9336536
Probable space group: I 21 21 21
;
_chemical_formula_sum "Si O2"
_cell_formula_units_Z 32
_cell_length_a 17.525438
_cell_length_b 7.594848
_cell_length_c 11.438450
_cell_angle_alpha 90.000000
_cell_angle_beta 90.000000
_cell_angle_gamma 90.000000
_cell_volume 1522.492442
_symmetry_space_group_name_H-M "I 21 21 21"
_symmetry_group_IT_number 24
_symmetry_cell_setting 'orthorhombic'
loop_
_space_group_symop_operation_xyz
x,y,z
-x,1/2-y,z
x,-y,1/2-z
1/2-x,y,-z
1/2+x,1/2+y,1/2+z
1/2-x,-y,1/2+z
1/2+x,1/2-y,-z
-x,1/2+y,1/2-z
loop_
_atom_site_type_symbol
_atom_site_label
_atom_site_fract_x
_atom_site_fract_y
_atom_site_fract_z
Si Si1 0.395540 0.105867 0.068011
Si Si2 0.014747 0.544095 0.116438
Si Si3 0.663295 0.967223 0.485217
Si Si4 0.089026 0.249665 0.670936
O O1 0.339901 0.255002 0.020146
O O2 0.415255 0.193690 0.193566
O O3 0.369040 0.909951 0.102708
O O4 0.463638 0.068366 0.975528
O O5 0.996094 0.500000 0.250000
O O6 0.000000 0.750000 0.102995
O O7 0.103479 0.513281 0.087101
O O8 0.750000 0.024916 0.500000
O O9 0.627323 0.070667 0.373332
O O10 0.000000 0.250000 0.636786
#
# Coordination Sequence:
#
# PCOD9336536 Si02
#       4
#     8   8   8   8
#     4  11  23  41  70 104 130 179 237 284 337 402
#     4  12  24  46  71 101 139 183 234 287 345 419
#     4  12  25  42  66 101 149 181 225 278 353 410
#     4  11  22  40  72 102 134 173 236 295 334 398
#
# _framework density 21.018166999999998
#
# number of rings (size 3 to 8) (size 9 to 14) (size 15 to 20)
#    0.000    0.500    5.000    4.500    3.500    3.000 
#    0.000    0.000    0.000    0.000    0.000    0.000 
#    0.000    0.000    0.000    0.000    0.000    0.000 
#
# Total GULP energy -89208.522114 kJ/mol
# GULP energy per Si atom -5575.532632 kJ/mol
# Density = 2.097033 g / cm^3
# Si number density = 21.018167 Si / 1000 Ang^3
#
#
#
# Elastic Constant Matrix: (Units=GPa)
#
#
# Indices 1 2 3 4 5 6 
#
# 1 115.3882 35.3708 38.7728 0.0000 0.0000 0.0000
# 2 35.3708 147.1121 36.6703 0.0000 0.0000 0.0000
# 3 38.7728 36.6703 143.6434 0.0000 0.0000 0.0000
# 4 0.0000 0.0000 0.0000 25.6278 0.0000 0.0000
# 5 0.0000 0.0000 0.0000 0.0000 -2.1411 0.0000
# 6 0.0000 0.0000 0.0000 0.0000 0.0000 14.5389
#
#
#
# Elastic Compliance Matrix: (Units=1/GPa)
#
#
# Indices 1 2 3 4 5 6 
#
# 1 0.009979 -0.001845 -0.002222 0.000000 0.000000 0.000000
# 2 -0.001845 0.007601 -0.001442 0.000000 0.000000 0.000000
# 3 -0.002222 -0.001442 0.007930 0.000000 0.000000 0.000000
# 4 0.000000 0.000000 0.000000 0.039020 0.000000 0.000000
# 5 0.000000 0.000000 0.000000 0.000000 -0.467057 0.000000
# 6 0.000000 0.000000 0.000000 0.000000 0.000000 0.068781
#
#
# Mechanical properties :
#
#
# Convention : Reuss Voigt Hill
#
# Bulk Modulus (GPa) = 69.01638 69.75240 69.38439
# Shear Modulus (GPa) = -15.72835 27.29378 5.78271
#
# Velocity S-wave (km/s) = -2.73851 3.60749 1.66050
# Velocity P-wave (km/s) = 4.78629 7.11412 6.06297
#
# Compressibility (1/GPa) = 0.01448931
#
# Stress axis : x y z
#
# Youngs Moduli (GPa) = 100.21206 131.56649 126.10697
#
# Poissons Ratio (x) = 0.24278 0.28027
# Poissons Ratio (y) = 0.18492 0.18188
# Poissons Ratio (z) = 0.22272 0.18976
#
# Static dielectric constant tensor:
#      x y z
#    x 1.742840 0.000000 0.000000 
#    y 0.000000 1.789730 0.000000 
#    z 0.000000 0.000000 1.831440 
# 
# From -- ./inp_files/18020.got.cif
#   From: 2010.05.17/outbox.cif.g08.bks.cpg/sg24_10_cif.got.tgz:18020.got - 2010.06.04 00:33:39.
