data_PCOD9336013
_publ_section_title
;
Structure prediction by ZEFSAII (Michael W. Deem and Ramdas Pophale) SiO2 
 PCOD9336013
Probable space group: I 21 21 21
;
_chemical_formula_sum "Si O2"
_cell_formula_units_Z 32
_cell_length_a 25.719303
_cell_length_b 11.543482
_cell_length_c 5.379023
_cell_angle_alpha 90.000000
_cell_angle_beta 90.000000
_cell_angle_gamma 90.000000
_cell_volume 1596.979813
_symmetry_space_group_name_H-M "I 21 21 21"
_symmetry_group_IT_number 24
_symmetry_cell_setting 'orthorhombic'
loop_
_space_group_symop_operation_xyz
x,y,z
-x,1/2-y,z
x,-y,1/2-z
1/2-x,y,-z
1/2+x,1/2+y,1/2+z
1/2-x,-y,1/2+z
1/2+x,1/2-y,-z
-x,1/2+y,1/2-z
loop_
_atom_site_type_symbol
_atom_site_label
_atom_site_fract_x
_atom_site_fract_y
_atom_site_fract_z
Si Si1 0.416538 0.186483 0.999998
Si Si2 0.972548 0.374851 0.500002
Si Si3 0.690888 0.577240 0.500000
Si Si4 0.926831 0.041151 0.000000
O O1 0.438660 0.127331 0.750833
O O2 0.438660 0.127331 0.249161
O O3 0.354639 0.171541 1.000000
O O4 0.433632 0.321133 0.999999
O O5 0.000000 0.250000 0.500002
O O6 0.018879 0.468591 0.500000
O O7 0.684936 0.500000 0.250000
O O8 0.750000 0.623055 0.500000
O O9 0.684936 0.500000 0.750000
O O10 0.899289 0.000000 0.750000
O O11 0.899288 0.000000 0.250000
#
# Coordination Sequence:
#
# PCOD9336013 Si02
#       4
#     8   8   8   8
#     4  12  24  41  61  88 123 167 203 257 314 360
#     4  12  23  38  57  89 126 172 204 240 294 377
#     4  10  23  45  69  94 119 154 211 272 319 367
#     4  12  23  37  55  82 125 165 201 243 288 362
#
# _framework density 20.037821999999998
#
# number of rings (size 3 to 8) (size 9 to 14) (size 15 to 20)
#    0.000    0.500    5.000    3.750    0.000    6.000 
#    0.000    0.000    0.000    1.500    0.000    0.000 
#    0.000    0.000    0.000    0.000    0.000    0.000 
#
# Total GULP energy -89485.603221 kJ/mol
# GULP energy per Si atom -5592.850201 kJ/mol
# Density = 1.999222 g / cm^3
# Si number density = 20.037822 Si / 1000 Ang^3
#
#
#
# Elastic Constant Matrix: (Units=GPa)
#
#
# Indices 1 2 3 4 5 6 
#
# 1 124.8336 52.8133 27.3502 0.0000 0.0000 0.0000
# 2 52.8133 150.2883 31.0728 0.0000 0.0000 0.0000
# 3 27.3502 31.0728 201.7118 0.0000 0.0000 0.0000
# 4 0.0000 0.0000 0.0000 12.9741 0.0000 0.0000
# 5 0.0000 0.0000 0.0000 0.0000 10.7315 0.0000
# 6 0.0000 0.0000 0.0000 0.0000 0.0000 15.1050
#
#
#
# Elastic Compliance Matrix: (Units=1/GPa)
#
#
# Indices 1 2 3 4 5 6 
#
# 1 0.009534 -0.003184 -0.000802 0.000000 0.000000 0.000000
# 2 -0.003184 0.007936 -0.000791 0.000000 0.000000 0.000000
# 3 -0.000802 -0.000791 0.005188 0.000000 0.000000 0.000000
# 4 0.000000 0.000000 0.000000 0.077077 0.000000 0.000000
# 5 0.000000 0.000000 0.000000 0.000000 0.093184 0.000000
# 6 0.000000 0.000000 0.000000 0.000000 0.000000 0.066203
#
#
# Mechanical properties :
#
#
# Convention : Reuss Voigt Hill
#
# Bulk Modulus (GPa) = 76.31518 77.70069 77.00793
# Shear Modulus (GPa) = 18.31204 32.13528 25.22366
#
# Velocity S-wave (km/s) = 3.02631 4.00901 3.55181
# Velocity P-wave (km/s) = 7.09786 7.76471 7.43876
#
# Compressibility (1/GPa) = 0.01310355
#
# Stress axis : x y z
#
# Youngs Moduli (GPa) = 104.89192 126.00147 192.74705
#
# Poissons Ratio (x) = 0.40124 0.15461
# Poissons Ratio (y) = 0.33402 0.15242
# Poissons Ratio (z) = 0.08414 0.09964
#
# Static dielectric constant tensor:
#      x y z
#    x 1.677380 0.000000 0.000000 
#    y 0.000000 1.723640 0.000000 
#    z 0.000000 0.000000 1.837040 
# 
# From -- ./inp_files/6110.got.cif
#   From: 2010.05.17/outbox.cif.g08.bks.cpg/sg24_4_cif.got.tgz:6110.got - 2010.06.04 00:33:39.
