data_PCOD9336555
_publ_section_title
;
Structure prediction by ZEFSAII (Michael W. Deem and Ramdas Pophale) SiO2 
 PCOD9336555
Probable space group: I 21 21 21
;
_chemical_formula_sum "Si O2"
_cell_formula_units_Z 40
_cell_length_a 10.469705
_cell_length_b 12.569371
_cell_length_c 11.623190
_cell_angle_alpha 90.000000
_cell_angle_beta 90.000000
_cell_angle_gamma 90.000000
_cell_volume 1529.583983
_symmetry_space_group_name_H-M "I 21 21 21"
_symmetry_group_IT_number 24
_symmetry_cell_setting 'orthorhombic'
loop_
_space_group_symop_operation_xyz
x,y,z
-x,1/2-y,z
x,-y,1/2-z
1/2-x,y,-z
1/2+x,1/2+y,1/2+z
1/2-x,-y,1/2+z
1/2+x,1/2-y,-z
-x,1/2+y,1/2-z
loop_
_atom_site_type_symbol
_atom_site_label
_atom_site_fract_x
_atom_site_fract_y
_atom_site_fract_z
Si Si1 0.216885 0.463379 0.883447
Si Si2 0.061877 0.929291 0.519076
Si Si3 0.134706 0.252444 0.164603
Si Si4 0.099787 0.157647 0.503863
Si Si5 0.611729 0.668023 0.263372
O O1 0.216392 0.500000 0.750000
O O2 0.318788 0.366414 0.882365
O O3 0.250000 0.532236 0.000000
O O4 0.424373 0.427912 0.081613
O O5 0.103037 0.830446 0.438764
O O6 0.143829 0.914187 0.635352
O O7 0.079171 0.039933 0.451102
O O8 0.251565 0.224414 0.246740
O O9 0.000000 0.250000 0.228450
O O10 0.250000 0.185156 0.500000
O O11 0.068671 0.132410 0.638666
O O12 0.000000 0.250000 0.473601
O O13 0.500000 0.750000 0.300593
#
# Coordination Sequence:
#
# PCOD9336555 Si02
#       5
#     8   8   8   8   8
#     4  12  26  49  81 128 175 236 296 372 457 552
#     4  12  24  46  82 112 156 216 292 357 446 536
#     4  12  25  46  78 121 159 212 290 363 433 528
#     4  11  27  49  70 107 158 222 280 364 456 553
#     4  11  22  42  74 108 154 207 276 352 441 529
#
# _framework density 26.150901999999999
#
# number of rings (size 3 to 8) (size 9 to 14) (size 15 to 20)
#    0.000    0.400    4.000    5.400    2.800    1.600 
#    3.600    0.000    0.000    0.000    0.000    0.000 
#    0.000    0.000    0.000    0.000    0.000    0.000 
#
# Total GULP energy -111546.340400 kJ/mol
# GULP energy per Si atom -5577.317020 kJ/mol
# Density = 2.609138 g / cm^3
# Si number density = 26.150902 Si / 1000 Ang^3
#
#
#
# Elastic Constant Matrix: (Units=GPa)
#
#
# Indices 1 2 3 4 5 6 
#
# 1 201.5672 68.0495 15.0868 0.0000 0.0000 0.0000
# 2 68.0495 154.5740 52.4133 0.0000 0.0000 0.0000
# 3 15.0868 52.4133 170.9795 0.0001 0.0000 0.0000
# 4 0.0000 0.0000 0.0001 29.1331 0.0000 0.0000
# 5 0.0000 0.0000 0.0000 0.0000 -5.4525 0.0000
# 6 0.0000 0.0000 0.0000 0.0000 0.0000 32.6924
#
#
#
# Elastic Compliance Matrix: (Units=1/GPa)
#
#
# Indices 1 2 3 4 5 6 
#
# 1 0.005841 -0.002675 0.000305 0.000000 0.000000 0.000000
# 2 -0.002675 0.008445 -0.002353 0.000000 0.000000 0.000000
# 3 0.000305 -0.002353 0.006543 0.000000 0.000000 0.000000
# 4 0.000000 0.000000 0.000000 0.034325 0.000000 0.000000
# 5 0.000000 0.000000 0.000000 0.000000 -0.183403 0.000000
# 6 0.000000 0.000000 0.000000 0.000000 0.000000 0.030588
#
#
# Mechanical properties :
#
#
# Convention : Reuss Voigt Hill
#
# Bulk Modulus (GPa) = 87.84967 88.69107 88.27037
# Shear Modulus (GPa) = -59.22739 37.37934 -10.92402
#
# Velocity S-wave (km/s) = -4.76419 3.78480 -2.04606
# Velocity P-wave (km/s) = 1.84472 7.28618 5.31467
#
# Compressibility (1/GPa) = 0.01138308
#
# Stress axis : x y z
#
# Youngs Moduli (GPa) = 171.19274 118.41708 152.83529
#
# Poissons Ratio (x) = 0.31675 -0.04655
# Poissons Ratio (y) = 0.45792 0.35957
# Poissons Ratio (z) = -0.05214 0.27860
#
# Static dielectric constant tensor:
#      x y z
#    x 2.170740 0.000000 0.000000 
#    y 0.000000 2.201810 0.000000 
#    z 0.000000 0.000000 2.152430 
# 
# From -- ./inp_files/19437.got.cif
#   From: 2010.05.17/outbox.cif.g08.bks.cpg/sg24_10_cif.got.tgz:19437.got - 2010.06.04 00:33:39.
