data_PCOD9336393
_publ_section_title
;
Structure prediction by ZEFSAII (Michael W. Deem and Ramdas Pophale) SiO2 
 PCOD9336393
Probable space group: I 21 21 21
;
_chemical_formula_sum "Si O2"
_cell_formula_units_Z 40
_cell_length_a 17.891464
_cell_length_b 12.973848
_cell_length_c 8.103215
_cell_angle_alpha 90.000000
_cell_angle_beta 90.000000
_cell_angle_gamma 90.000000
_cell_volume 1880.927458
_symmetry_space_group_name_H-M "I 21 21 21"
_symmetry_group_IT_number 24
_symmetry_cell_setting 'orthorhombic'
loop_
_space_group_symop_operation_xyz
x,y,z
-x,1/2-y,z
x,-y,1/2-z
1/2-x,y,-z
1/2+x,1/2+y,1/2+z
1/2-x,-y,1/2+z
1/2+x,1/2-y,-z
-x,1/2+y,1/2-z
loop_
_atom_site_type_symbol
_atom_site_label
_atom_site_fract_x
_atom_site_fract_y
_atom_site_fract_z
Si Si1 0.750000 0.293106 0.000000
Si Si2 0.887261 0.580668 0.626355
Si Si3 0.802132 0.773560 0.145014
Si Si4 0.101265 0.916729 0.119523
Si Si5 0.000000 0.250000 0.923344
Si Si6 0.050700 0.377004 0.229567
O O1 0.676488 0.361910 0.025230
O O2 0.762049 0.235724 0.175751
O O3 0.848556 0.500000 0.750000
O O4 0.929764 0.492960 0.520777
O O5 0.945045 0.671848 0.674307
O O6 0.832925 0.662157 0.082412
O O7 0.877315 0.836686 0.175552
O O8 0.750000 0.815441 0.000000
O O9 0.968260 0.644783 0.195774
O O10 0.130167 0.000000 0.250000
O O11 0.952677 0.175388 0.047544
O O12 0.054708 0.500000 0.250000
#
# Coordination Sequence:
#
# PCOD9336393 Si02
#       6
#     4   8   8   8   4   8
#     4  12  24  44  68  98 148 174 210 296 366 402
#     4  12  26  41  68 106 134 176 228 290 353 414
#     4  12  25  41  66 103 138 181 227 279 345 424
#     4  11  19  40  72  94 122 175 228 278 340 404
#     4  12  20  48  68  96 140 180 232 288 352 408
#     4  11  20  43  74  90 129 186 233 278 341 417
#
# _framework density 21.266105
#
# number of rings (size 3 to 8) (size 9 to 14) (size 15 to 20)
#    0.000    0.400   10.000    1.200    4.200    0.000 
#    9.000    0.000    0.000    0.000    0.000    0.000 
#    0.000    0.000    0.000    0.000    0.000    0.000 
#
# Total GULP energy -111394.446766 kJ/mol
# GULP energy per Si atom -5569.722338 kJ/mol
# Density = 2.121770 g / cm^3
# Si number density = 21.266105 Si / 1000 Ang^3
#
#
#
# Elastic Constant Matrix: (Units=GPa)
#
#
# Indices 1 2 3 4 5 6 
#
# 1 93.1123 22.0346 19.3143 0.0000 0.0000 0.0000
# 2 22.0346 76.1756 12.7249 0.0000 0.0000 0.0000
# 3 19.3143 12.7249 56.4607 0.0000 0.0000 0.0000
# 4 0.0000 0.0000 0.0000 22.2226 0.0000 0.0000
# 5 0.0000 0.0000 0.0000 0.0000 27.2807 0.0000
# 6 0.0000 0.0000 0.0000 0.0000 0.0000 28.9241
#
#
#
# Elastic Compliance Matrix: (Units=1/GPa)
#
#
# Indices 1 2 3 4 5 6 
#
# 1 0.012159 -0.002933 -0.003499 0.000000 0.000000 0.000000
# 2 -0.002933 0.014349 -0.002231 0.000000 0.000000 0.000000
# 3 -0.003499 -0.002231 0.019411 0.000000 0.000000 0.000000
# 4 0.000000 0.000000 0.000000 0.044999 0.000000 0.000000
# 5 0.000000 0.000000 0.000000 0.000000 0.036656 0.000000
# 6 0.000000 0.000000 0.000000 0.000000 0.000000 0.034573
#
#
# Mechanical properties :
#
#
# Convention : Reuss Voigt Hill
#
# Bulk Modulus (GPa) = 34.97110 37.09960 36.03535
# Shear Modulus (GPa) = 26.45463 27.13047 26.79255
#
# Velocity S-wave (km/s) = 3.53084 3.57566 3.55332
# Velocity P-wave (km/s) = 5.75349 5.87625 5.81520
#
# Compressibility (1/GPa) = 0.02859504
#
# Stress axis : x y z
#
# Youngs Moduli (GPa) = 82.24034 69.69359 51.51731
#
# Poissons Ratio (x) = 0.20440 0.18024
# Poissons Ratio (y) = 0.24120 0.11491
# Poissons Ratio (z) = 0.28772 0.15545
#
# Static dielectric constant tensor:
#      x y z
#    x 1.738910 0.000000 0.000000 
#    y 0.000000 1.765860 0.000000 
#    z 0.000000 0.000000 2.045020 
# 
# From -- ./inp_files/15022.got.cif
#   From: 2010.05.17/outbox.cif.g08.bks.cpg/sg24_8_cif.got.tgz:15022.got - 2010.06.04 00:33:39.
