data_PCOD9336493
_publ_section_title
;
Structure prediction by ZEFSAII (Michael W. Deem and Ramdas Pophale) SiO2 
 PCOD9336493
Probable space group: I 21 21 21
;
_chemical_formula_sum "Si O2"
_cell_formula_units_Z 56
_cell_length_a 15.884395
_cell_length_b 11.466889
_cell_length_c 14.288001
_cell_angle_alpha 90.000000
_cell_angle_beta 90.000000
_cell_angle_gamma 90.000000
_cell_volume 2602.482145
_symmetry_space_group_name_H-M "I 21 21 21"
_symmetry_group_IT_number 24
_symmetry_cell_setting 'orthorhombic'
loop_
_space_group_symop_operation_xyz
x,y,z
-x,1/2-y,z
x,-y,1/2-z
1/2-x,y,-z
1/2+x,1/2+y,1/2+z
1/2-x,-y,1/2+z
1/2+x,1/2-y,-z
-x,1/2+y,1/2-z
loop_
_atom_site_type_symbol
_atom_site_label
_atom_site_fract_x
_atom_site_fract_y
_atom_site_fract_z
Si Si1 0.826922 0.000000 0.250000
Si Si2 0.377498 0.872295 0.221942
Si Si3 0.904426 0.242833 0.912314
Si Si4 0.410589 0.704473 0.865090
Si Si5 0.750000 0.604302 0.500000
Si Si6 0.201411 0.478085 0.902000
Si Si7 0.806640 0.434239 0.330835
Si Si8 0.659664 0.777783 0.053314
O O1 0.879217 0.096763 0.304804
O O2 0.766653 0.064022 0.175768
O O3 0.404953 0.788600 0.305256
O O4 0.276524 0.887564 0.222081
O O5 0.384689 0.821641 0.116204
O O6 0.412817 0.000000 0.250000
O O7 0.830144 0.317401 0.965234
O O8 0.875200 0.109255 0.910861
O O9 0.000000 0.250000 0.950405
O O10 0.500000 0.750000 0.835196
O O11 0.354437 0.820039 0.860840
O O12 0.402911 0.673343 0.974496
O O13 0.780695 0.519417 0.415649
O O14 0.179193 0.612254 0.879960
O O15 0.250000 0.481777 0.000000
O O16 0.857792 0.500000 0.250000
O O17 0.750000 0.750153 0.000000
#
# Coordination Sequence:
#
# PCOD9336493 Si02
#       8
#     4   8   8   8   4   8   8   8
#     4  12  24  48  72 102 148 198 258 300 382 472
#     4  11  22  43  73 102 137 186 244 312 375 454
#     4  12  27  45  69 112 147 195 251 315 391 456
#     4  12  27  42  71 109 147 193 252 319 375 452
#     4  12  24  46  74 104 156 196 252 316 380 470
#     4  11  22  44  75  96 137 199 250 302 376 452
#     4  11  22  42  71  98 135 194 243 298 386 441
#     4  11  21  44  71 103 136 192 255 301 371 460
#
# _framework density 21.51792
#
# number of rings (size 3 to 8) (size 9 to 14) (size 15 to 20)
#    0.000    0.571    7.857    2.571    1.000    1.714 
#    3.857    1.429    0.000    0.000    0.000    0.000 
#    0.000    0.000    0.000    0.000    0.000    0.000 
#
# Total GULP energy -156217.325987 kJ/mol
# GULP energy per Si atom -5579.190214 kJ/mol
# Density = 2.146894 g / cm^3
# Si number density = 21.517920 Si / 1000 Ang^3
#
#
#
# Elastic Constant Matrix: (Units=GPa)
#
#
# Indices 1 2 3 4 5 6 
#
# 1 104.1409 47.2646 26.5820 0.0000 0.0000 0.0000
# 2 47.2646 108.5080 48.7586 0.0000 0.0000 0.0000
# 3 26.5820 48.7586 110.0773 0.0000 0.0000 0.0000
# 4 0.0000 0.0000 0.0000 45.8825 0.0000 0.0000
# 5 0.0000 0.0000 0.0000 0.0000 13.8370 0.0000
# 6 0.0000 0.0000 0.0000 0.0000 0.0000 5.2440
#
#
#
# Elastic Compliance Matrix: (Units=1/GPa)
#
#
# Indices 1 2 3 4 5 6 
#
# 1 0.012015 -0.004906 -0.000728 0.000000 0.000000 0.000000
# 2 -0.004906 0.013510 -0.004799 0.000000 0.000000 0.000000
# 3 -0.000728 -0.004799 0.011386 0.000000 0.000000 0.000000
# 4 0.000000 0.000000 0.000000 0.021795 0.000000 0.000000
# 5 0.000000 0.000000 0.000000 0.000000 0.072270 0.000000
# 6 0.000000 0.000000 0.000000 0.000000 0.000000 0.190696
#
#
# Mechanical properties :
#
#
# Convention : Reuss Voigt Hill
#
# Bulk Modulus (GPa) = 62.33159 63.10407 62.71783
# Shear Modulus (GPa) = 14.37250 26.33410 20.35330
#
# Velocity S-wave (km/s) = 2.58724 3.50211 3.07885
# Velocity P-wave (km/s) = 6.16078 6.76336 6.46909
#
# Compressibility (1/GPa) = 0.01604323
#
# Stress axis : x y z
#
# Youngs Moduli (GPa) = 83.22924 74.02131 87.82572
#
# Poissons Ratio (x) = 0.36318 0.06395
# Poissons Ratio (y) = 0.40835 0.42150
# Poissons Ratio (z) = 0.06061 0.35525
#
# Static dielectric constant tensor:
#      x y z
#    x 1.820160 0.000000 0.000000 
#    y 0.000000 2.046850 0.000000 
#    z 0.000000 0.000000 1.950920 
# 
# From -- ./inp_files/26563.got.cif
#   From: 2010.05.17/outbox.cif.g08.bks.cpg/sg24_14_cif.got.tgz:26563.got - 2010.06.04 00:33:39.
