data_PCOD9336500
_publ_section_title
;
Structure prediction by ZEFSAII (Michael W. Deem and Ramdas Pophale) SiO2 
 PCOD9336500
Probable space group: I 21 21 21
;
_chemical_formula_sum "Si O2"
_cell_formula_units_Z 44
_cell_length_a 15.525634
_cell_length_b 15.629522
_cell_length_c 8.628012
_cell_angle_alpha 90.000000
_cell_angle_beta 90.000000
_cell_angle_gamma 90.000000
_cell_volume 2093.658191
_symmetry_space_group_name_H-M "I 21 21 21"
_symmetry_group_IT_number 24
_symmetry_cell_setting 'orthorhombic'
loop_
_space_group_symop_operation_xyz
x,y,z
-x,1/2-y,z
x,-y,1/2-z
1/2-x,y,-z
1/2+x,1/2+y,1/2+z
1/2-x,-y,1/2+z
1/2+x,1/2-y,-z
-x,1/2+y,1/2-z
loop_
_atom_site_type_symbol
_atom_site_label
_atom_site_fract_x
_atom_site_fract_y
_atom_site_fract_z
Si Si1 0.030043 0.000000 0.250000
Si Si2 0.264087 0.241757 0.179082
Si Si3 0.915654 0.695324 0.176751
Si Si4 0.494704 0.533578 0.080773
Si Si5 0.807237 0.575352 0.849285
Si Si6 0.416499 0.288602 0.357442
O O1 0.074522 0.905830 0.218696
O O2 0.982090 0.986332 0.416159
O O3 0.169519 0.233499 0.247819
O O4 0.310554 0.152859 0.227891
O O5 0.331477 0.305435 0.258889
O O6 0.250000 0.254607 0.000000
O O7 0.000000 0.750000 0.224003
O O8 0.901440 0.720166 0.995243
O O9 0.465639 0.500000 0.250000
O O10 0.598347 0.543211 0.101252
O O11 0.447878 0.624350 0.064275
O O12 0.763848 0.500000 0.750000
O O13 0.750000 0.594785 0.000000
O O14 0.500000 0.250000 0.267376
#
# Coordination Sequence:
#
# PCOD9336500 Si02
#       6
#     4   8   8   8   8   8
#     4  12  22  42  76 106 148 184 256 286 376 450
#     4  12  26  39  66 100 135 190 234 297 367 455
#     4  11  25  44  71 104 138 195 234 305 375 443
#     4  11  25  41  71 105 143 200 245 313 364 450
#     4  11  23  37  58  96 143 182 228 290 375 440
#     4  11  21  49  66  96 151 195 234 297 390 432
#
# _framework density 21.015846
#
# number of rings (size 3 to 8) (size 9 to 14) (size 15 to 20)
#    0.000    0.727    5.455    3.273   10.182    2.182 
#    0.000    0.000    2.000    0.000    0.000    0.000 
#    0.000    0.000    0.000    0.000    0.000    0.000 
#
# Total GULP energy -122590.156153 kJ/mol
# GULP energy per Si atom -5572.279825 kJ/mol
# Density = 2.096801 g / cm^3
# Si number density = 21.015846 Si / 1000 Ang^3
#
#
#
# Elastic Constant Matrix: (Units=GPa)
#
#
# Indices 1 2 3 4 5 6 
#
# 1 113.2316 27.7198 50.5494 0.0000 0.0000 0.0000
# 2 27.7198 70.6839 43.3227 0.0000 0.0000 0.0000
# 3 50.5494 43.3227 163.1569 0.0000 0.0000 0.0000
# 4 0.0000 0.0000 0.0000 31.1909 0.0000 0.0000
# 5 0.0000 0.0000 0.0000 0.0000 13.3036 0.0000
# 6 0.0000 0.0000 0.0000 0.0000 0.0000 25.3959
#
#
#
# Elastic Compliance Matrix: (Units=1/GPa)
#
#
# Indices 1 2 3 4 5 6 
#
# 1 0.010625 -0.002567 -0.002610 0.000000 0.000000 0.000000
# 2 -0.002567 0.017518 -0.003856 0.000000 0.000000 0.000000
# 3 -0.002610 -0.003856 0.007962 0.000000 0.000000 0.000000
# 4 0.000000 0.000000 0.000000 0.032061 0.000000 0.000000
# 5 0.000000 0.000000 0.000000 0.000000 0.075167 0.000000
# 6 0.000000 0.000000 0.000000 0.000000 0.000000 0.039376
#
#
# Mechanical properties :
#
#
# Convention : Reuss Voigt Hill
#
# Bulk Modulus (GPa) = 55.43937 65.58405 60.51171
# Shear Modulus (GPa) = 24.17932 29.01013 26.59473
#
# Velocity S-wave (km/s) = 3.39562 3.71939 3.56119
# Velocity P-wave (km/s) = 6.46612 7.05123 6.76501
#
# Compressibility (1/GPa) = 0.01803772
#
# Stress axis : x y z
#
# Youngs Moduli (GPa) = 94.11619 57.08544 125.60134
#
# Poissons Ratio (x) = 0.14654 0.32786
# Poissons Ratio (y) = 0.24159 0.48433
# Poissons Ratio (z) = 0.24567 0.22013
#
# Static dielectric constant tensor:
#      x y z
#    x 1.797660 0.000000 0.000000 
#    y 0.000000 1.859250 0.000000 
#    z 0.000000 0.000000 1.813090 
# 
# From -- ./inp_files/12687.got.cif
#   From: 2010.05.17/outbox.cif.g08.bks.cpg/sg24_7_cif.got.tgz:12687.got - 2010.06.04 00:33:39.
