data_PCOD9336009
_publ_section_title
;
Structure prediction by ZEFSAII (Michael W. Deem and Ramdas Pophale) SiO2 
 PCOD9336009
Probable space group: I 21 21 21
;
_chemical_formula_sum "Si O2"
_cell_formula_units_Z 24
_cell_length_a 15.136640
_cell_length_b 8.385047
_cell_length_c 7.382604
_cell_angle_alpha 90.000000
_cell_angle_beta 90.000000
_cell_angle_gamma 90.000000
_cell_volume 937.010715
_symmetry_space_group_name_H-M "I 21 21 21"
_symmetry_group_IT_number 24
_symmetry_cell_setting 'orthorhombic'
loop_
_space_group_symop_operation_xyz
x,y,z
-x,1/2-y,z
x,-y,1/2-z
1/2-x,y,-z
1/2+x,1/2+y,1/2+z
1/2-x,-y,1/2+z
1/2+x,1/2-y,-z
-x,1/2+y,1/2-z
loop_
_atom_site_type_symbol
_atom_site_label
_atom_site_fract_x
_atom_site_fract_y
_atom_site_fract_z
Si Si1 0.248159 0.671993 0.287190
Si Si2 0.298872 0.000000 0.750000
Si Si3 0.449985 0.925522 0.449115
Si Si4 0.578360 0.000000 0.750000
O O1 0.294698 0.500000 0.250000
O O2 0.250000 0.679564 0.500000
O O3 0.146721 0.643908 0.234109
O O4 0.264152 0.846570 0.211096
O O5 0.362279 0.948449 0.578914
O O6 0.500000 0.750000 0.436471
O O7 0.443035 0.000000 0.250000
O O8 0.520725 0.014521 0.573482
#
# Coordination Sequence:
#
# PCOD9336009 Si02
#       4
#     8   4   8   4
#     4  10  23  45  67  94 134 186 227 279 340 402
#     4  11  24  48  64 102 140 179 230 292 338 415
#     4  11  23  39  70 103 132 176 225 288 358 407
#     4   9  22  44  62  90 142 167 222 284 338 399
#
# _framework density 25.613368000000001
#
# number of rings (size 3 to 8) (size 9 to 14) (size 15 to 20)
#    1.000    0.667    3.333    0.000    4.667    2.667 
#    9.000    0.000    0.000    0.000    0.000    0.000 
#    0.000    0.000    0.000    0.000    0.000    0.000 
#
# Total GULP energy -66805.460835 kJ/mol
# GULP energy per Si atom -5567.121736 kJ/mol
# Density = 2.555507 g / cm^3
# Si number density = 25.613368 Si / 1000 Ang^3
#
#
#
# Elastic Constant Matrix: (Units=GPa)
#
#
# Indices 1 2 3 4 5 6 
#
# 1 45.1876 28.4667 16.5238 0.0000 0.0000 0.0000
# 2 28.4667 218.0612 55.1754 0.0000 0.0000 0.0000
# 3 16.5238 55.1754 164.5259 0.0000 0.0000 0.0000
# 4 0.0000 0.0000 0.0000 33.2757 0.0000 0.0000
# 5 0.0000 0.0000 0.0000 0.0000 12.7091 0.0000
# 6 0.0000 0.0000 0.0000 0.0000 0.0000 33.5141
#
#
#
# Elastic Compliance Matrix: (Units=1/GPa)
#
#
# Indices 1 2 3 4 5 6 
#
# 1 0.024453 -0.002809 -0.001514 0.000000 0.000000 0.000000
# 2 -0.002809 0.005334 -0.001507 0.000000 0.000000 0.000000
# 3 -0.001514 -0.001507 0.006735 0.000000 0.000000 0.000000
# 4 0.000000 0.000000 0.000000 0.030052 0.000000 0.000000
# 5 0.000000 0.000000 0.000000 0.000000 0.078684 0.000000
# 6 0.000000 0.000000 0.000000 0.000000 0.000000 0.029838
#
#
# Mechanical properties :
#
#
# Convention : Reuss Voigt Hill
#
# Bulk Modulus (GPa) = 40.22014 69.78961 55.00487
# Shear Modulus (GPa) = 25.63536 37.74038 31.68787
#
# Velocity S-wave (km/s) = 3.16707 3.84274 3.52115
# Velocity P-wave (km/s) = 5.39543 6.85531 6.16871
#
# Compressibility (1/GPa) = 0.02486317
#
# Stress axis : x y z
#
# Youngs Moduli (GPa) = 40.89438 187.48335 148.47014
#
# Poissons Ratio (x) = 0.52668 0.22476
# Poissons Ratio (y) = 0.11488 0.22369
# Poissons Ratio (z) = 0.06191 0.28246
#
# Static dielectric constant tensor:
#      x y z
#    x 2.048050 0.000000 0.000000 
#    y 0.000000 2.309110 0.000000 
#    z 0.000000 0.000000 1.958000 
# 
# From -- ./inp_files/6045.got.cif
#   From: 2010.05.17/outbox.cif.g08.bks.cpg/sg24_4_cif.got.tgz:6045.got - 2010.06.04 00:33:39.
