data_PCOD9336973
_publ_section_title
;
Structure prediction by ZEFSAII (Michael W. Deem and Ramdas Pophale) SiO2 
 PCOD9336973
Probable space group: I 21 21 21
;
_chemical_formula_sum "Si O2"
_cell_formula_units_Z 32
_cell_length_a 16.509310
_cell_length_b 4.960578
_cell_length_c 15.888734
_cell_angle_alpha 90.000000
_cell_angle_beta 90.000000
_cell_angle_gamma 90.000000
_cell_volume 1301.219311
_symmetry_space_group_name_H-M "I 21 21 21"
_symmetry_group_IT_number 24
_symmetry_cell_setting 'orthorhombic'
loop_
_space_group_symop_operation_xyz
x,y,z
-x,1/2-y,z
x,-y,1/2-z
1/2-x,y,-z
1/2+x,1/2+y,1/2+z
1/2-x,-y,1/2+z
1/2+x,1/2-y,-z
-x,1/2+y,1/2-z
loop_
_atom_site_type_symbol
_atom_site_label
_atom_site_fract_x
_atom_site_fract_y
_atom_site_fract_z
Si Si1 0.500000 0.750000 0.051002
Si Si2 0.294307 0.935213 0.921530
Si Si3 0.142877 0.235486 0.689516
Si Si4 0.396252 0.544303 0.575487
Si Si5 0.051072 0.500000 0.250000
O O1 0.576763 0.743499 0.114455
O O2 0.472725 0.515453 0.984840
O O3 0.229330 0.860637 0.849547
O O4 0.329185 0.659131 0.959612
O O5 0.363712 0.157877 0.904863
O O6 0.250000 0.074257 0.000000
O O7 0.150203 0.500000 0.750000
O O8 0.112883 0.000000 0.750000
O O9 0.403977 0.405603 0.667641
O O10 0.000000 0.750000 0.282167
#
# Coordination Sequence:
#
# PCOD9336973 Si02
#       5
#     4   8   8   8   4
#     4  12  28  54  82 116 164 220 280 338 416 508
#     4  12  27  51  75 115 152 208 268 325 410 485
#     4  12  29  51  80 118 163 215 277 345 411 490
#     4  12  28  47  80 112 156 205 263 338 404 490
#     4  12  26  48  70 112 146 192 258 324 406 466
#
# _framework density 24.592317999999999
#
# number of rings (size 3 to 8) (size 9 to 14) (size 15 to 20)
#    0.000    0.000    3.750    4.500    8.750    2.000 
#    0.000    0.000    0.000    0.000    0.000    0.000 
#    0.000    0.000    0.000    0.000    0.000    0.000 
#
# Total GULP energy -89221.767175 kJ/mol
# GULP energy per Si atom -5576.360448 kJ/mol
# Density = 2.453634 g / cm^3
# Si number density = 24.592318 Si / 1000 Ang^3
#
#
#
# Elastic Constant Matrix: (Units=GPa)
#
#
# Indices 1 2 3 4 5 6 
#
# 1 136.0518 62.0041 72.5817 0.0000 0.0000 0.0000
# 2 62.0041 175.7683 51.2051 0.0000 0.0000 0.0000
# 3 72.5817 51.2051 179.6498 0.0000 0.0000 0.0000
# 4 0.0000 0.0000 0.0000 28.2358 0.0000 0.0000
# 5 0.0000 0.0000 0.0000 0.0000 -45.5790 0.0000
# 6 0.0000 0.0000 0.0000 0.0000 0.0000 347.8547
#
#
#
# Elastic Compliance Matrix: (Units=1/GPa)
#
#
# Indices 1 2 3 4 5 6 
#
# 1 0.010402 -0.002666 -0.003443 0.000000 0.000000 0.000000
# 2 -0.002666 0.006888 -0.000886 0.000000 0.000000 0.000000
# 3 -0.003443 -0.000886 0.007210 0.000000 0.000000 0.000000
# 4 0.000000 0.000000 0.000000 0.035416 0.000000 0.000000
# 5 0.000000 0.000000 0.000000 0.000000 -0.021940 0.000000
# 6 0.000000 0.000000 0.000000 0.000000 0.000000 0.002875
#
#
# Mechanical properties :
#
#
# Convention : Reuss Voigt Hill
#
# Bulk Modulus (GPa) = 95.15008 95.89464 95.52236
# Shear Modulus (GPa) = 85.69891 86.48091 86.08991
#
# Velocity S-wave (km/s) = 5.90961 5.93651 5.92308
# Velocity P-wave (km/s) = 9.23794 9.27728 9.25763
#
# Compressibility (1/GPa) = 0.01050971
#
# Stress axis : x y z
#
# Youngs Moduli (GPa) = 96.13617 145.17910 138.70099
#
# Poissons Ratio (x) = 0.38712 0.47748
# Poissons Ratio (y) = 0.25635 0.12288
# Poissons Ratio (z) = 0.33095 0.12862
#
# Static dielectric constant tensor:
#      x y z
#    x 2.058720 0.000000 0.000000 
#    y 0.000000 1.880830 0.000000 
#    z 0.000000 0.000000 1.203530 
# 
# From -- ./inp_files/30542.got.cif
#   From: 2010.05.17/outbox.cif.g08.bks.cpg/sg24_16_cif.got.tgz:30542.got - 2010.06.04 00:33:39.
