data_PCOD9336824
_publ_section_title
;
Structure prediction by ZEFSAII (Michael W. Deem and Ramdas Pophale) SiO2 
 PCOD9336824
Probable space group: I 21 21 21
;
_chemical_formula_sum "Si O2"
_cell_formula_units_Z 40
_cell_length_a 19.289451
_cell_length_b 19.276192
_cell_length_c 4.911950
_cell_angle_alpha 90.000000
_cell_angle_beta 90.000000
_cell_angle_gamma 90.000000
_cell_volume 1826.396424
_symmetry_space_group_name_H-M "I 21 21 21"
_symmetry_group_IT_number 24
_symmetry_cell_setting 'orthorhombic'
loop_
_space_group_symop_operation_xyz
x,y,z
-x,1/2-y,z
x,-y,1/2-z
1/2-x,y,-z
1/2+x,1/2+y,1/2+z
1/2-x,-y,1/2+z
1/2+x,1/2-y,-z
-x,1/2+y,1/2-z
loop_
_atom_site_type_symbol
_atom_site_label
_atom_site_fract_x
_atom_site_fract_y
_atom_site_fract_z
Si Si1 0.893565 0.132142 0.898197
Si Si2 0.514975 0.832412 0.883276
Si Si3 0.750000 0.546213 0.000000
Si Si4 0.369331 0.153298 0.383211
Si Si5 0.173682 0.768213 0.395775
Si Si6 0.199434 0.500000 0.750000
O O1 0.928097 0.160119 0.621422
O O2 0.843288 0.189775 0.029953
O O3 0.850098 0.063197 0.840660
O O4 0.955101 0.128975 0.120045
O O5 0.500000 0.750000 0.829866
O O6 0.443948 0.864172 0.996529
O O7 0.774849 0.500000 0.250000
O O8 0.813737 0.592352 0.895556
O O9 0.376021 0.184117 0.081892
O O10 0.337528 0.212117 0.584319
O O11 0.250000 0.785930 0.500000
O O12 0.250000 0.480054 0.500000
#
# Coordination Sequence:
#
# PCOD9336824 Si02
#       6
#     8   8   4   8   8   4
#     4  12  25  44  72 103 147 189 229 298 359 432
#     4  12  23  44  71 106 142 177 233 296 366 419
#     4  12  26  48  66  96 138 182 238 282 342 418
#     4  12  24  42  69  97 137 177 223 301 343 410
#     4  12  21  38  68 102 130 172 236 290 353 397
#     4  12  28  52  74 104 154 198 244 294 362 448
#
# _framework density 21.901050000000001
#
# number of rings (size 3 to 8) (size 9 to 14) (size 15 to 20)
#    0.000    0.000    6.000    4.800    0.000    1.600 
#    5.400    0.000    0.000    0.000    0.000    0.000 
#    0.000    0.000    0.000    0.000    0.000    0.000 
#
# Total GULP energy -111990.611112 kJ/mol
# GULP energy per Si atom -5599.530556 kJ/mol
# Density = 2.185120 g / cm^3
# Si number density = 21.901050 Si / 1000 Ang^3
#
#
#
# Elastic Constant Matrix: (Units=GPa)
#
#
# Indices 1 2 3 4 5 6 
#
# 1 101.1257 27.2971 10.2628 0.0000 0.0000 0.0000
# 2 27.2971 101.0744 14.2590 0.0000 0.0000 0.0000
# 3 10.2628 14.2590 85.6172 0.0000 0.0000 0.0000
# 4 0.0000 0.0000 0.0000 16.4857 0.0000 0.0000
# 5 0.0000 0.0000 0.0000 0.0000 44.8105 0.0000
# 6 0.0000 0.0000 0.0000 0.0000 0.0000 94.4680
#
#
#
# Elastic Compliance Matrix: (Units=1/GPa)
#
#
# Indices 1 2 3 4 5 6 
#
# 1 0.010722 -0.002780 -0.000822 0.000000 0.000000 0.000000
# 2 -0.002780 0.010852 -0.001474 0.000000 0.000000 0.000000
# 3 -0.000822 -0.001474 0.012024 0.000000 0.000000 0.000000
# 4 0.000000 0.000000 0.000000 0.060659 0.000000 0.000000
# 5 0.000000 0.000000 0.000000 0.000000 0.022316 0.000000
# 6 0.000000 0.000000 0.000000 0.000000 0.000000 0.010586
#
#
# Mechanical properties :
#
#
# Convention : Reuss Voigt Hill
#
# Bulk Modulus (GPa) = 42.65076 43.49501 43.07289
# Shear Modulus (GPa) = 34.45247 46.88607 40.66927
#
# Velocity S-wave (km/s) = 3.97053 4.63191 4.31392
# Velocity P-wave (km/s) = 6.36685 6.96484 6.67255
#
# Compressibility (1/GPa) = 0.02344624
#
# Stress axis : x y z
#
# Youngs Moduli (GPa) = 93.26185 92.14545 83.16709
#
# Poissons Ratio (x) = 0.25615 0.06839
# Poissons Ratio (y) = 0.25925 0.12260
# Poissons Ratio (z) = 0.07669 0.13584
#
# Static dielectric constant tensor:
#      x y z
#    x 1.824700 0.000000 0.000000 
#    y 0.000000 1.778420 0.000000 
#    z 0.000000 0.000000 1.784410 
# 
# From -- ./inp_files/4562.got.cif
#   From: 2010.05.17/outbox.cif.g08.bks.cpg/sg24_3_cif.got.tgz:4562.got - 2010.06.04 00:33:39.
