data_PCOD9336693
_publ_section_title
;
Structure prediction by ZEFSAII (Michael W. Deem and Ramdas Pophale) SiO2 
 PCOD9336693
Probable space group: I 21 21 21
;
_chemical_formula_sum "Si O2"
_cell_formula_units_Z 44
_cell_length_a 13.242552
_cell_length_b 8.833298
_cell_length_c 16.490732
_cell_angle_alpha 90.000000
_cell_angle_beta 90.000000
_cell_angle_gamma 90.000000
_cell_volume 1929.010106
_symmetry_space_group_name_H-M "I 21 21 21"
_symmetry_group_IT_number 24
_symmetry_cell_setting 'orthorhombic'
loop_
_space_group_symop_operation_xyz
x,y,z
-x,1/2-y,z
x,-y,1/2-z
1/2-x,y,-z
1/2+x,1/2+y,1/2+z
1/2-x,-y,1/2+z
1/2+x,1/2-y,-z
-x,1/2+y,1/2-z
loop_
_atom_site_type_symbol
_atom_site_label
_atom_site_fract_x
_atom_site_fract_y
_atom_site_fract_z
Si Si1 0.115581 0.225305 0.695844
Si Si2 0.307268 0.226467 0.890265
Si Si3 0.308464 0.436872 0.661983
Si Si4 0.500000 0.750000 0.851866
Si Si5 0.390167 0.905484 0.375716
Si Si6 0.500000 0.250000 0.001669
Si Si7 0.118069 0.000000 0.250000
O O1 0.203995 0.345135 0.677718
O O2 0.105623 0.188987 0.791800
O O3 0.000000 0.250000 0.669246
O O4 0.140557 0.072206 0.649367
O O5 0.287605 0.405046 0.880859
O O6 0.203450 0.162188 0.923704
O O7 0.409157 0.222306 0.940456
O O8 0.324917 0.121126 0.809021
O O9 0.345235 0.500000 0.750000
O O10 0.396292 0.336887 0.617967
O O11 0.551835 0.611976 0.804222
O O12 0.488473 0.886976 0.432463
#
# Coordination Sequence:
#
# PCOD9336693 Si02
#       7
#     8   8   8   4   8   4   4
#     4  11  25  44  78 112 138 181 256 321 362 422
#     4  12  25  43  72 107 145 194 247 300 371 446
#     4  12  23  39  71 112 140 181 241 318 365 421
#     4  12  19  34  58 102 151 170 220 300 363 422
#     4  11  24  45  72 105 141 191 241 307 365 445
#     4  12  27  46  72 100 155 200 232 292 385 468
#     4  12  20  38  66 110 142 182 256 300 356 428
#
# _framework density 22.809626999999999
#
# number of rings (size 3 to 8) (size 9 to 14) (size 15 to 20)
#    0.000    0.364    5.455    4.364    5.091    0.000 
#    0.000    0.000   16.000    0.000    0.000    0.000 
#    0.000    0.000    0.000    0.000    0.000    0.000 
#
# Total GULP energy -122496.565961 kJ/mol
# GULP energy per Si atom -5568.025726 kJ/mol
# Density = 2.275771 g / cm^3
# Si number density = 22.809627 Si / 1000 Ang^3
#
#
#
# Elastic Constant Matrix: (Units=GPa)
#
#
# Indices 1 2 3 4 5 6 
#
# 1 129.0975 66.6912 23.2601 0.0000 0.0000 0.0000
# 2 66.6912 148.3917 35.6227 0.0000 0.0000 0.0000
# 3 23.2601 35.6227 48.6458 0.0000 0.0000 0.0000
# 4 0.0000 0.0000 0.0000 -12.2309 0.0000 0.0000
# 5 0.0000 0.0000 0.0000 0.0000 29.3267 0.0000
# 6 0.0000 0.0000 0.0000 0.0000 0.0000 35.9244
#
#
#
# Elastic Compliance Matrix: (Units=1/GPa)
#
#
# Indices 1 2 3 4 5 6 
#
# 1 0.010224 -0.004151 -0.001849 0.000000 0.000000 0.000000
# 2 -0.004151 0.009862 -0.005237 0.000000 0.000000 0.000000
# 3 -0.001849 -0.005237 0.025276 0.000000 0.000000 0.000000
# 4 0.000000 0.000000 0.000000 -0.081760 0.000000 0.000000
# 5 0.000000 0.000000 0.000000 0.000000 0.034099 0.000000
# 6 0.000000 0.000000 0.000000 0.000000 0.000000 0.027836
#
#
# Mechanical properties :
#
#
# Convention : Reuss Voigt Hill
#
# Bulk Modulus (GPa) = 43.69133 64.14256 53.91694
# Shear Modulus (GPa) = 89.86756 23.97477 56.92116
#
# Velocity S-wave (km/s) = 6.28367 3.24556 5.00091
# Velocity P-wave (km/s) = 8.47599 6.49821 7.55212
#
# Compressibility (1/GPa) = 0.02288784
#
# Stress axis : x y z
#
# Youngs Moduli (GPa) = 97.81358 101.40364 39.56398
#
# Poissons Ratio (x) = 0.42092 0.07314
# Poissons Ratio (y) = 0.40602 0.20719
# Poissons Ratio (z) = 0.18083 0.53102
#
# Static dielectric constant tensor:
#      x y z
#    x 2.000890 0.000000 0.000000 
#    y 0.000000 1.833990 0.000000 
#    z 0.000000 0.000000 1.909190 
# 
# From -- ./inp_files/12734.got.cif
#   From: 2010.05.17/outbox.cif.g08.bks.cpg/sg24_7_cif.got.tgz:12734.got - 2010.06.04 00:33:39.
