data_PCOD9336575
_publ_section_title
;
Structure prediction by ZEFSAII (Michael W. Deem and Ramdas Pophale) SiO2 
 PCOD9336575
Probable space group: I 21 21 21
;
_chemical_formula_sum "Si O2"
_cell_formula_units_Z 40
_cell_length_a 7.465104
_cell_length_b 14.483300
_cell_length_c 15.649092
_cell_angle_alpha 90.000000
_cell_angle_beta 90.000000
_cell_angle_gamma 90.000000
_cell_volume 1691.969511
_symmetry_space_group_name_H-M "I 21 21 21"
_symmetry_group_IT_number 24
_symmetry_cell_setting 'orthorhombic'
loop_
_space_group_symop_operation_xyz
x,y,z
-x,1/2-y,z
x,-y,1/2-z
1/2-x,y,-z
1/2+x,1/2+y,1/2+z
1/2-x,-y,1/2+z
1/2+x,1/2-y,-z
-x,1/2+y,1/2-z
loop_
_atom_site_type_symbol
_atom_site_label
_atom_site_fract_x
_atom_site_fract_y
_atom_site_fract_z
Si Si1 0.426609 0.526826 0.546846
Si Si2 0.436048 0.156404 0.636365
Si Si3 0.870632 0.331229 0.927745
Si Si4 0.624083 0.389082 0.248463
Si Si5 0.790436 0.894331 0.280618
O O1 0.250000 0.489912 0.500000
O O2 0.529739 0.439149 0.585885
O O3 0.538563 0.582426 0.475864
O O4 0.356482 0.596687 0.621480
O O5 0.500000 0.250000 0.589404
O O6 0.233912 0.152664 0.672887
O O7 0.569189 0.154088 0.718578
O O8 0.779867 0.362176 0.840508
O O9 0.000000 0.250000 0.903516
O O10 0.750000 0.287871 0.000000
O O11 0.632527 0.500000 0.250000
O O12 0.414264 0.363277 0.237333
O O13 0.791171 0.000000 0.250000
#
# Coordination Sequence:
#
# PCOD9336575 Si02
#       5
#     8   8   8   8   8
#     4  11  22  46  69  96 138 182 227 283 351 406
#     4  11  25  42  68  99 135 179 229 280 331 407
#     4  12  26  40  67 104 140 176 226 288 352 414
#     4  11  23  43  67  96 131 181 228 276 340 406
#     4   9  20  39  68  94 125 176 226 275 334 402
#
# _framework density 23.641089000000001
#
# number of rings (size 3 to 8) (size 9 to 14) (size 15 to 20)
#    0.000    1.200    2.000    4.800    2.800    1.600 
#    0.000    3.000    0.000    0.000    0.000    0.000 
#    0.000    0.000    0.000    0.000    0.000    0.000 
#
# Total GULP energy -111810.038568 kJ/mol
# GULP energy per Si atom -5590.501928 kJ/mol
# Density = 2.358728 g / cm^3
# Si number density = 23.641089 Si / 1000 Ang^3
#
#
#
# Elastic Constant Matrix: (Units=GPa)
#
#
# Indices 1 2 3 4 5 6 
#
# 1 86.6580 29.4567 6.5690 0.0000 0.0000 0.0000
# 2 29.4567 109.4401 23.0132 0.0000 0.0000 0.0000
# 3 6.5690 23.0132 63.2245 0.0000 0.0000 0.0000
# 4 0.0000 0.0000 0.0000 29.1101 0.0000 0.0000
# 5 0.0000 0.0000 0.0000 0.0000 23.1556 0.0000
# 6 0.0000 0.0000 0.0000 0.0000 0.0000 16.6354
#
#
#
# Elastic Compliance Matrix: (Units=1/GPa)
#
#
# Indices 1 2 3 4 5 6 
#
# 1 0.012702 -0.003402 -0.000082 0.000000 0.000000 0.000000
# 2 -0.003402 0.010806 -0.003580 0.000000 0.000000 0.000000
# 3 -0.000082 -0.003580 0.017128 0.000000 0.000000 0.000000
# 4 0.000000 0.000000 0.000000 0.034352 0.000000 0.000000
# 5 0.000000 0.000000 0.000000 0.000000 0.043186 0.000000
# 6 0.000000 0.000000 0.000000 0.000000 0.000000 0.060113
#
#
# Mechanical properties :
#
#
# Convention : Reuss Voigt Hill
#
# Bulk Modulus (GPa) = 37.72171 41.93338 39.82754
# Shear Modulus (GPa) = 24.84474 27.13248 25.98861
#
# Velocity S-wave (km/s) = 3.24530 3.39142 3.31916
# Velocity P-wave (km/s) = 5.48026 5.75427 5.61894
#
# Compressibility (1/GPa) = 0.02650994
#
# Stress axis : x y z
#
# Youngs Moduli (GPa) = 78.72705 92.54308 58.38344
#
# Poissons Ratio (x) = 0.31481 0.00476
# Poissons Ratio (y) = 0.26781 0.20900
# Poissons Ratio (z) = 0.00642 0.33128
#
# Static dielectric constant tensor:
#      x y z
#    x 2.145710 0.000000 0.000000 
#    y 0.000000 1.914060 0.000000 
#    z 0.000000 0.000000 1.877380 
# 
# From -- ./inp_files/24530.got.cif
#   From: 2010.05.17/outbox.cif.g08.bks.cpg/sg24_13_cif.got.tgz:24530.got - 2010.06.04 00:33:39.
