data_PCOD9336820
_publ_section_title
;
Structure prediction by ZEFSAII (Michael W. Deem and Ramdas Pophale) SiO2 
 PCOD9336820
Probable space group: I 21 21 21
;
_chemical_formula_sum "Si O2"
_cell_formula_units_Z 40
_cell_length_a 10.130596
_cell_length_b 17.952888
_cell_length_c 8.912414
_cell_angle_alpha 90.000000
_cell_angle_beta 90.000000
_cell_angle_gamma 90.000000
_cell_volume 1620.931530
_symmetry_space_group_name_H-M "I 21 21 21"
_symmetry_group_IT_number 24
_symmetry_cell_setting 'orthorhombic'
loop_
_space_group_symop_operation_xyz
x,y,z
-x,1/2-y,z
x,-y,1/2-z
1/2-x,y,-z
1/2+x,1/2+y,1/2+z
1/2-x,-y,1/2+z
1/2+x,1/2-y,-z
-x,1/2+y,1/2-z
loop_
_atom_site_type_symbol
_atom_site_label
_atom_site_fract_x
_atom_site_fract_y
_atom_site_fract_z
Si Si1 0.797987 0.500000 0.250000
Si Si2 0.415589 0.880187 0.224906
Si Si3 0.097140 0.361325 0.997858
Si Si4 0.409004 0.682898 0.820233
Si Si5 0.968274 0.968671 0.024598
Si Si6 0.750000 0.280065 0.500000
O O1 0.706174 0.570757 0.286901
O O2 0.892709 0.518696 0.110743
O O3 0.502009 0.844129 0.357286
O O4 0.353839 0.833664 0.086211
O O5 0.510965 0.937658 0.140541
O O6 0.041944 0.328724 0.152414
O O7 0.097826 0.451082 0.018245
O O8 0.250000 0.336085 0.000000
O O9 0.500000 0.750000 0.885916
O O10 0.403762 0.600301 0.887646
O O11 0.273575 0.722647 0.861459
#
# Coordination Sequence:
#
# PCOD9336820 Si02
#       6
#     4   8   8   8   8   4
#     4  12  20  44  82 120 148 192 270 340 396 462
#     4  12  25  47  84 116 155 205 271 341 406 481
#     4  12  30  49  75 117 159 207 260 335 408 484
#     4  12  27  49  73 108 157 205 265 326 401 486
#     4  12  24  47  80 114 154 203 266 336 404 480
#     4  12  28  48  84 112 156 222 278 322 412 498
#
# _framework density 24.677168999999999
#
# number of rings (size 3 to 8) (size 9 to 14) (size 15 to 20)
#    0.000    0.000    8.000    0.000    4.200    3.200 
#    0.000    0.000    0.000    0.000    0.000    0.000 
#    0.000    0.000    0.000    0.000    0.000    0.000 
#
# Total GULP energy -111616.216935 kJ/mol
# GULP energy per Si atom -5580.810847 kJ/mol
# Density = 2.462100 g / cm^3
# Si number density = 24.677169 Si / 1000 Ang^3
#
#
#
# Elastic Constant Matrix: (Units=GPa)
#
#
# Indices 1 2 3 4 5 6 
#
# 1 63.2084 17.4102 22.5900 0.0000 0.0000 0.0000
# 2 17.4102 124.2276 43.2728 0.0004 -0.0001 -0.0002
# 3 22.5900 43.2728 141.2897 0.0009 -0.0003 -0.0006
# 4 0.0000 0.0004 0.0009 43.5232 -0.0001 -0.0003
# 5 0.0000 -0.0001 -0.0003 -0.0001 41.7867 0.0000
# 6 0.0000 -0.0002 -0.0006 -0.0003 0.0000 -7.3978
#
#
#
# Elastic Compliance Matrix: (Units=1/GPa)
#
#
# Indices 1 2 3 4 5 6 
#
# 1 0.017063 -0.001613 -0.002234 0.000000 0.000000 0.000000
# 2 -0.001613 0.009164 -0.002549 0.000000 0.000000 0.000000
# 3 -0.002234 -0.002549 0.008215 0.000000 0.000000 -0.000001
# 4 0.000000 0.000000 0.000000 0.022976 0.000000 -0.000001
# 5 0.000000 0.000000 0.000000 0.000000 0.023931 0.000000
# 6 0.000000 0.000000 -0.000001 -0.000001 0.000000 -0.135175
#
#
# Mechanical properties :
#
#
# Convention : Reuss Voigt Hill
#
# Bulk Modulus (GPa) = 46.18794 55.03017 50.60906
# Shear Modulus (GPa) = -147.85707 31.94594 -57.95557
#
# Velocity S-wave (km/s) = -7.74898 3.60190 -4.85144
# Velocity P-wave (km/s) = 7.82973 6.29656 3.29075
#
# Compressibility (1/GPa) = 0.02165067
#
# Stress axis : x y z
#
# Youngs Moduli (GPa) = 58.60473 109.12749 121.72232
#
# Poissons Ratio (x) = 0.17604 0.27194
# Poissons Ratio (y) = 0.09454 0.31022
# Poissons Ratio (z) = 0.13093 0.27812
#
# Static dielectric constant tensor:
#      x y z
#    x 2.527220 0.000000 0.000000 
#    y 0.000000 1.936710 0.000000 
#    z 0.000000 0.000000 1.998630 
# 
# From -- ./inp_files/10789.got.cif
#   From: 2010.05.17/outbox.cif.g08.bks.cpg/sg24_6_cif.got.tgz:10789.got - 2010.06.04 00:33:39.
