data_PCOD9336058
_publ_section_title
;
Structure prediction by ZEFSAII (Michael W. Deem and Ramdas Pophale) SiO2 
 PCOD9336058
Probable space group: I 21 21 21
;
_chemical_formula_sum "Si O2"
_cell_formula_units_Z 20
_cell_length_a 5.289757
_cell_length_b 5.464312
_cell_length_c 29.194395
_cell_angle_alpha 90.000000
_cell_angle_beta 90.000000
_cell_angle_gamma 90.000000
_cell_volume 843.860562
_symmetry_space_group_name_H-M "I 21 21 21"
_symmetry_group_IT_number 24
_symmetry_cell_setting 'orthorhombic'
loop_
_space_group_symop_operation_xyz
x,y,z
-x,1/2-y,z
x,-y,1/2-z
1/2-x,y,-z
1/2+x,1/2+y,1/2+z
1/2-x,-y,1/2+z
1/2+x,1/2-y,-z
-x,1/2+y,1/2-z
loop_
_atom_site_type_symbol
_atom_site_label
_atom_site_fract_x
_atom_site_fract_y
_atom_site_fract_z
Si Si1 0.000000 0.750000 0.075770
Si Si2 0.250000 0.406450 0.000000
Si Si3 0.749848 0.612808 0.634138
Si Si4 0.000000 0.750000 0.276346
O O1 0.789000 0.645398 0.110657
O O2 0.148427 0.572109 0.041329
O O3 0.500000 0.250000 0.013110
O O4 0.500000 0.750000 0.616159
O O5 0.711180 0.638920 0.688840
O O6 0.000000 0.750000 0.621119
O O7 0.083856 0.500000 0.250000
#
# Coordination Sequence:
#
# PCOD9336058 Si02
#       4
#     4   4   8   4
#     4  12  27  52  78 110 162 216 266 340 403 470
#     4  12  30  50  74 114 150 212 278 336 396 482
#     4  10  26  46  74 116 154 202 262 323 402 476
#     4  10  23  50  80 120 160 208 266 332 407 496
#
# _framework density 23.700596000000001
#
# number of rings (size 3 to 8) (size 9 to 14) (size 15 to 20)
#    1.200    0.000    0.000    3.600    0.000   19.200 
#    0.000    0.000    0.000    0.000    0.000    0.000 
#    0.000    0.000    0.000    0.000    0.000    0.000 
#
# Total GULP energy -55769.659817 kJ/mol
# GULP energy per Si atom -5576.965982 kJ/mol
# Density = 2.364665 g / cm^3
# Si number density = 23.700596 Si / 1000 Ang^3
#
#
#
# Elastic Constant Matrix: (Units=GPa)
#
#
# Indices 1 2 3 4 5 6 
#
# 1 186.5659 62.4977 47.1273 0.0000 0.0000 0.0000
# 2 62.4977 133.2887 99.4154 0.0000 0.0000 0.0000
# 3 47.1273 99.4154 168.8638 0.0000 0.0000 0.0000
# 4 0.0000 0.0000 0.0000 24.8124 0.0000 0.0000
# 5 0.0000 0.0000 0.0000 0.0000 8.7770 0.0000
# 6 0.0000 0.0000 0.0000 0.0000 0.0000 51.4523
#
#
#
# Elastic Compliance Matrix: (Units=1/GPa)
#
#
# Indices 1 2 3 4 5 6 
#
# 1 0.006359 -0.002956 -0.000034 0.000000 0.000000 0.000000
# 2 -0.002956 0.014750 -0.007859 0.000000 0.000000 0.000000
# 3 -0.000034 -0.007859 0.010558 0.000000 0.000000 0.000000
# 4 0.000000 0.000000 0.000000 0.040302 0.000000 0.000000
# 5 0.000000 0.000000 0.000000 0.000000 0.113934 0.000000
# 6 0.000000 0.000000 0.000000 0.000000 0.000000 0.019435
#
#
# Mechanical properties :
#
#
# Convention : Reuss Voigt Hill
#
# Bulk Modulus (GPa) = 100.31245 100.75546 100.53396
# Shear Modulus (GPa) = 21.70503 35.65354 28.67928
#
# Velocity S-wave (km/s) = 3.02950 3.88278 3.48237
# Velocity P-wave (km/s) = 7.39283 7.91867 7.66026
#
# Compressibility (1/GPa) = 0.00996885
#
# Stress axis : x y z
#
# Youngs Moduli (GPa) = 157.25863 67.79529 94.71159
#
# Poissons Ratio (x) = 0.20040 0.00326
# Poissons Ratio (y) = 0.46485 0.74434
# Poissons Ratio (z) = 0.00541 0.53280
#
# Static dielectric constant tensor:
#      x y z
#    x 1.820890 0.000000 0.000000 
#    y 0.000000 2.169980 0.000000 
#    z 0.000000 0.000000 1.925750 
# 
# From -- ./inp_files/392.got.cif
#   From: 2010.05.17/outbox.cif.g08.bks.cpg/sg24_1_cif.got.tgz:392.got - 2010.06.04 00:33:39.
