data_PCOD9336721
_publ_section_title
;
Structure prediction by ZEFSAII (Michael W. Deem and Ramdas Pophale) SiO2 
 PCOD9336721
Probable space group: I 21 21 21
;
_chemical_formula_sum "Si O2"
_cell_formula_units_Z 20
_cell_length_a 5.345724
_cell_length_b 30.179561
_cell_length_c 4.969848
_cell_angle_alpha 90.000000
_cell_angle_beta 90.000000
_cell_angle_gamma 90.000000
_cell_volume 801.793547
_symmetry_space_group_name_H-M "I 21 21 21"
_symmetry_group_IT_number 24
_symmetry_cell_setting 'orthorhombic'
loop_
_space_group_symop_operation_xyz
x,y,z
-x,1/2-y,z
x,-y,1/2-z
1/2-x,y,-z
1/2+x,1/2+y,1/2+z
1/2-x,-y,1/2+z
1/2+x,1/2-y,-z
-x,1/2+y,1/2-z
loop_
_atom_site_type_symbol
_atom_site_label
_atom_site_fract_x
_atom_site_fract_y
_atom_site_fract_z
Si Si1 0.750000 0.175350 0.500000
Si Si2 0.073894 0.894367 0.756656
Si Si3 0.000000 0.250000 0.177961
Si Si4 0.250000 0.528024 0.000000
O O1 0.636555 0.143343 0.271572
O O2 0.951263 0.207697 0.365418
O O3 0.250000 0.897938 0.500000
O O4 0.250000 0.881337 0.000000
O O5 0.945228 0.940369 0.844838
O O6 0.750000 0.255684 0.000000
O O7 0.137645 0.500000 0.250000
#
# Coordination Sequence:
#
# PCOD9336721 Si02
#       4
#     4   8   4   4
#     4  11  30  48  74 120 160 220 280 348 414 495
#     4  11  27  48  79 117 163 215 270 339 418 496
#     4  12  30  50  80 116 166 220 290 354 418 494
#     4  11  24  48  78 118 164 208 274 340 410 499
#
# _framework density 24.944077
#
# number of rings (size 3 to 8) (size 9 to 14) (size 15 to 20)
#    0.000    0.800    0.000    3.600   14.000    6.400 
#    0.000    0.000    0.000    0.000    0.000    0.000 
#    0.000    0.000    0.000    0.000    0.000    0.000 
#
# Total GULP energy -56060.789056 kJ/mol
# GULP energy per Si atom -5606.078906 kJ/mol
# Density = 2.488730 g / cm^3
# Si number density = 24.944077 Si / 1000 Ang^3
#
#
#
# Elastic Constant Matrix: (Units=GPa)
#
#
# Indices 1 2 3 4 5 6 
#
# 1 138.7395 73.1483 93.4673 0.0001 0.0000 0.0019
# 2 73.1483 178.1897 96.6886 -0.0006 -0.0001 -0.0113
# 3 93.4673 96.6886 227.3448 -0.0099 -0.0007 -0.0197
# 4 0.0001 -0.0006 -0.0099 -10.8505 0.0005 0.0211
# 5 0.0000 -0.0001 -0.0007 0.0005 75.6050 0.0011
# 6 0.0019 -0.0113 -0.0197 0.0211 0.0011 92.8753
#
#
#
# Elastic Compliance Matrix: (Units=1/GPa)
#
#
# Indices 1 2 3 4 5 6 
#
# 1 0.010849 -0.002643 -0.003336 0.000003 0.000000 -0.000001
# 2 -0.002643 0.007940 -0.002290 0.000002 0.000000 0.000001
# 3 -0.003336 -0.002290 0.006744 -0.000006 0.000000 0.000001
# 4 0.000003 0.000002 -0.000006 -0.092162 0.000001 0.000021
# 5 0.000000 0.000000 0.000000 0.000001 0.013227 0.000000
# 6 -0.000001 0.000001 0.000001 0.000021 0.000000 0.010767
#
#
# Mechanical properties :
#
#
# Convention : Reuss Voigt Hill
#
# Bulk Modulus (GPa) = 111.18662 118.98694 115.08678
# Shear Modulus (GPa) = -216.46345 50.25726 -83.10310
#
# Velocity S-wave (km/s) = -9.32566 4.49352 -5.77824
# Velocity P-wave (km/s) = 8.44311 8.64450 1.31173
#
# Compressibility (1/GPa) = 0.00899389
#
# Stress axis : x y z
#
# Youngs Moduli (GPa) = 92.17535 125.94955 148.27889
#
# Poissons Ratio (x) = 0.33293 0.49467
# Poissons Ratio (y) = 0.24365 0.33955
# Poissons Ratio (z) = 0.30750 0.28842
#
# Static dielectric constant tensor:
#      x y z
#    x 1.944350 0.000000 0.000000 
#    y 0.000000 2.001300 0.000000 
#    z 0.000000 0.000000 1.933680 
# 
# From -- ./inp_files/335.got.cif
#   From: 2010.05.17/outbox.cif.g08.bks.cpg/sg24_1_cif.got.tgz:335.got - 2010.06.04 00:33:39.
