data_PCOD9336219
_publ_section_title
;
Structure prediction by ZEFSAII (Michael W. Deem and Ramdas Pophale) SiO2 
 PCOD9336219
Probable space group: I 21 21 21
;
_chemical_formula_sum "Si O2"
_cell_formula_units_Z 60
_cell_length_a 12.168321
_cell_length_b 26.562228
_cell_length_c 8.357148
_cell_angle_alpha 90.000000
_cell_angle_beta 90.000000
_cell_angle_gamma 90.000000
_cell_volume 2701.178295
_symmetry_space_group_name_H-M "I 21 21 21"
_symmetry_group_IT_number 24
_symmetry_cell_setting 'orthorhombic'
loop_
_space_group_symop_operation_xyz
x,y,z
-x,1/2-y,z
x,-y,1/2-z
1/2-x,y,-z
1/2+x,1/2+y,1/2+z
1/2-x,-y,1/2+z
1/2+x,1/2-y,-z
-x,1/2+y,1/2-z
loop_
_atom_site_type_symbol
_atom_site_label
_atom_site_fract_x
_atom_site_fract_y
_atom_site_fract_z
Si Si1 0.960902 0.803318 0.831680
Si Si2 0.943055 0.654578 0.530002
Si Si3 0.762672 0.210313 0.196341
Si Si4 0.750000 0.403915 0.500000
Si Si5 0.226451 0.827993 0.279553
Si Si6 0.984720 0.592775 0.971611
Si Si7 0.299010 0.444425 0.319788
Si Si8 0.100956 0.383211 0.202358
O O1 0.831716 0.812323 0.812758
O O2 0.019867 0.848528 0.921466
O O3 0.000000 0.750000 0.897125
O O4 0.996360 0.807047 0.645525
O O5 0.888652 0.675362 0.370736
O O6 0.829404 0.645810 0.627222
O O7 0.031025 0.614486 0.462371
O O8 0.750136 0.269081 0.243308
O O9 0.869077 0.175966 0.229297
O O10 0.750000 0.208019 0.000000
O O11 0.711910 0.365709 0.636465
O O12 0.636185 0.431492 0.457827
O O13 0.074681 0.571385 0.847791
O O14 0.032691 0.592565 0.151537
O O15 0.293516 0.500000 0.250000
O O16 0.250000 0.442081 0.500000
O O17 0.219782 0.410237 0.208547
#
# Coordination Sequence:
#
# PCOD9336219 Si02
#       8
#     8   8   8   4   8   8   8   8
#     4  12  21  35  54  83 128 173 221 269 306 372
#     4  11  21  36  55  84 129 167 229 264 309 376
#     4  12  21  33  56  85 127 172 228 270 315 369
#     4  12  22  42  62  90 130 178 216 264 322 378
#     4  11  23  36  54  86 127 185 231 263 307 373
#     4  11  24  42  63  95 129 170 219 266 328 395
#     4  10  24  47  72 101 130 159 208 273 344 413
#     4  11  24  39  64  94 128 169 212 275 339 389
#
# _framework density 22.212529
#
# number of rings (size 3 to 8) (size 9 to 14) (size 15 to 20)
#    0.000    0.800    8.000    0.000    0.000    3.733 
#    0.000    0.000    0.000    3.200    0.000    0.000 
#    0.000    0.000    0.000    0.000    0.000    0.000 
#
# Total GULP energy -167127.523787 kJ/mol
# GULP energy per Si atom -5570.917460 kJ/mol
# Density = 2.216197 g / cm^3
# Si number density = 22.212529 Si / 1000 Ang^3
#
#
#
# Elastic Constant Matrix: (Units=GPa)
#
#
# Indices 1 2 3 4 5 6 
#
# 1 157.8957 20.6571 18.2171 -0.0010 0.0012 0.0000
# 2 20.6571 47.3877 4.1013 -0.0009 0.0009 -0.0001
# 3 18.2171 4.1013 25.3132 -0.0050 0.0070 -0.0002
# 4 -0.0010 -0.0009 -0.0050 30.7490 0.0006 -0.0003
# 5 0.0012 0.0009 0.0070 0.0006 26.7830 -0.0003
# 6 0.0000 -0.0001 -0.0002 -0.0003 -0.0003 11.9731
#
#
#
# Elastic Compliance Matrix: (Units=1/GPa)
#
#
# Indices 1 2 3 4 5 6 
#
# 1 0.007242 -0.002744 -0.004767 -0.000001 0.000001 0.000000
# 2 -0.002744 0.022443 -0.001661 0.000000 0.000000 0.000000
# 3 -0.004767 -0.001661 0.043205 0.000007 -0.000011 0.000001
# 4 -0.000001 0.000000 0.000007 0.032521 -0.000001 0.000001
# 5 0.000001 0.000000 -0.000011 -0.000001 0.037337 0.000001
# 6 0.000000 0.000000 0.000001 0.000001 0.000001 0.083521
#
#
# Mechanical properties :
#
#
# Convention : Reuss Voigt Hill
#
# Bulk Modulus (GPa) = 18.33377 35.17196 26.75287
# Shear Modulus (GPa) = 19.02611 26.40910 22.71761
#
# Velocity S-wave (km/s) = 2.92986 3.45182 3.20150
# Velocity P-wave (km/s) = 4.44040 5.63520 5.07310
#
# Compressibility (1/GPa) = 0.05454415
#
# Stress axis : x y z
#
# Youngs Moduli (GPa) = 138.07606 44.55802 23.14536
#
# Poissons Ratio (x) = 0.12229 0.11034
# Poissons Ratio (y) = 0.37894 0.03845
# Poissons Ratio (z) = 0.65827 0.07402
#
# Static dielectric constant tensor:
#      x y z
#    x 1.997230 0.000000 0.000000 
#    y 0.000000 1.775860 0.000000 
#    z 0.000000 0.000000 1.885630 
# 
# From -- ./inp_files/11518.got.cif
#   From: 2010.05.17/outbox.cif.g08.bks.cpg/sg24_6_cif.got.tgz:11518.got - 2010.06.04 00:33:39.
