data_PCOD9336527
_publ_section_title
;
Structure prediction by ZEFSAII (Michael W. Deem and Ramdas Pophale) SiO2 
 PCOD9336527
Probable space group: I 21 21 21
;
_chemical_formula_sum "Si O2"
_cell_formula_units_Z 60
_cell_length_a 5.502267
_cell_length_b 17.377730
_cell_length_c 28.919337
_cell_angle_alpha 90.000000
_cell_angle_beta 90.000000
_cell_angle_gamma 90.000000
_cell_volume 2765.177652
_symmetry_space_group_name_H-M "I 21 21 21"
_symmetry_group_IT_number 24
_symmetry_cell_setting 'orthorhombic'
loop_
_space_group_symop_operation_xyz
x,y,z
-x,1/2-y,z
x,-y,1/2-z
1/2-x,y,-z
1/2+x,1/2+y,1/2+z
1/2-x,-y,1/2+z
1/2+x,1/2-y,-z
-x,1/2+y,1/2-z
loop_
_atom_site_type_symbol
_atom_site_label
_atom_site_fract_x
_atom_site_fract_y
_atom_site_fract_z
Si Si1 0.112386 0.172002 0.452977
Si Si2 0.588963 0.546281 0.794723
Si Si3 0.989698 0.989192 0.026183
Si Si4 0.053880 0.901255 0.874751
Si Si5 0.000000 0.750000 0.830404
Si Si6 0.260266 0.703898 0.348337
Si Si7 0.671965 0.964535 0.621363
Si Si8 0.812293 0.808632 0.247453
O O1 0.250000 0.195206 0.500000
O O2 0.281807 0.128169 0.416502
O O3 0.000000 0.250000 0.433343
O O4 0.938272 0.102073 0.466511
O O5 0.682579 0.500000 0.750000
O O6 0.795488 0.581100 0.827853
O O7 0.446942 0.490601 0.830010
O O8 0.414903 0.613569 0.774809
O O9 0.003269 0.024337 0.077490
O O10 0.750000 0.020742 0.000000
O O11 0.250000 0.996318 0.000000
O O12 0.923929 0.821865 0.861386
O O13 0.889251 0.973950 0.885972
O O14 0.213215 0.746948 0.792791
O O15 0.500000 0.750000 0.363613
O O16 0.243560 0.623365 0.374949
O O17 0.332375 0.676462 0.294789
O O18 0.000000 0.750000 0.356263
O O19 0.000000 0.750000 0.269385
#
# Coordination Sequence:
#
# PCOD9336527 Si02
#       8
#     8   8   8   8   4   8   8   8
#     4  11  25  42  64 100 148 195 253 308 369 438
#     4  12  25  42  64 101 142 197 255 315 369 447
#     4  11  25  47  75 106 141 189 244 302 375 445
#     4  12  28  40  69 103 144 203 258 316 368 450
#     4  12  24  36  60  90 144 194 250 292 358 426
#     4  11  27  46  75 107 145 190 244 311 390 471
#     4  12  26  46  73 104 147 190 255 312 395 455
#     4  11  22  40  59  92 140 198 242 297 362 436
#
# _framework density 21.698423999999999
#
# number of rings (size 3 to 8) (size 9 to 14) (size 15 to 20)
#    0.000    0.533    6.000    2.000    6.533    1.600 
#    0.000    0.000    0.000    1.600    0.000    0.000 
#    0.000    0.000    0.000    0.000    0.000    0.000 
#
# Total GULP energy -167174.612221 kJ/mol
# GULP energy per Si atom -5572.487074 kJ/mol
# Density = 2.164904 g / cm^3
# Si number density = 21.698424 Si / 1000 Ang^3
#
#
#
# Elastic Constant Matrix: (Units=GPa)
#
#
# Indices 1 2 3 4 5 6 
#
# 1 73.1223 49.2727 47.4044 0.0000 0.0000 0.0000
# 2 49.2727 142.6276 51.3933 0.0000 0.0000 0.0000
# 3 47.4044 51.3933 122.6781 0.0000 0.0000 0.0000
# 4 0.0000 0.0000 0.0000 12.4349 0.0000 0.0000
# 5 0.0000 0.0000 0.0000 0.0000 3.6726 0.0000
# 6 0.0000 0.0000 0.0000 0.0000 0.0000 26.8866
#
#
#
# Elastic Compliance Matrix: (Units=1/GPa)
#
#
# Indices 1 2 3 4 5 6 
#
# 1 0.020982 -0.005096 -0.005973 0.000000 0.000000 0.000000
# 2 -0.005096 0.009496 -0.002009 0.000000 0.000000 0.000000
# 3 -0.005973 -0.002009 0.011301 0.000000 0.000000 0.000000
# 4 0.000000 0.000000 0.000000 0.080419 0.000000 0.000000
# 5 0.000000 0.000000 0.000000 0.000000 0.272287 0.000000
# 6 0.000000 0.000000 0.000000 0.000000 0.000000 0.037193
#
#
# Mechanical properties :
#
#
# Convention : Reuss Voigt Hill
#
# Bulk Modulus (GPa) = 64.00847 70.50766 67.25806
# Shear Modulus (GPa) = 10.79818 21.28932 16.04375
#
# Velocity S-wave (km/s) = 2.23322 3.13572 2.72214
# Velocity P-wave (km/s) = 6.01771 6.75835 6.39876
#
# Compressibility (1/GPa) = 0.01562293
#
# Stress axis : x y z
#
# Youngs Moduli (GPa) = 47.66032 105.31121 88.48907
#
# Poissons Ratio (x) = 0.53670 0.52851
# Poissons Ratio (y) = 0.24289 0.17775
# Poissons Ratio (z) = 0.28466 0.21154
#
# Static dielectric constant tensor:
#      x y z
#    x 2.092000 0.000000 0.000000 
#    y 0.000000 1.807170 0.000000 
#    z 0.000000 0.000000 1.957440 
# 
# From -- ./inp_files/7291.got.cif
#   From: 2010.05.17/outbox.cif.g08.bks.cpg/sg24_4_cif.got.tgz:7291.got - 2010.06.04 00:33:39.
