data_PCOD9336142
_publ_section_title
;
Structure prediction by ZEFSAII (Michael W. Deem and Ramdas Pophale) SiO2 
 PCOD9336142
Probable space group: I 21 21 21
;
_chemical_formula_sum "Si O2"
_cell_formula_units_Z 56
_cell_length_a 19.335904
_cell_length_b 9.791423
_cell_length_c 13.980949
_cell_angle_alpha 90.000000
_cell_angle_beta 90.000000
_cell_angle_gamma 90.000000
_cell_volume 2646.957362
_symmetry_space_group_name_H-M "I 21 21 21"
_symmetry_group_IT_number 24
_symmetry_cell_setting 'orthorhombic'
loop_
_space_group_symop_operation_xyz
x,y,z
-x,1/2-y,z
x,-y,1/2-z
1/2-x,y,-z
1/2+x,1/2+y,1/2+z
1/2-x,-y,1/2+z
1/2+x,1/2-y,-z
-x,1/2+y,1/2-z
loop_
_atom_site_type_symbol
_atom_site_label
_atom_site_fract_x
_atom_site_fract_y
_atom_site_fract_z
Si Si1 0.029510 0.605154 0.669898
Si Si2 0.652430 0.043656 0.050609
Si Si3 0.452493 0.879600 0.827756
Si Si4 0.297673 0.592661 0.653095
Si Si5 0.200116 0.842695 0.227096
Si Si6 0.811233 0.740441 0.921429
Si Si7 0.954606 0.388327 0.545773
O O1 0.056831 0.500000 0.750000
O O2 0.090462 0.628923 0.594382
O O3 0.000000 0.750000 0.704508
O O4 0.974421 0.511687 0.614761
O O5 0.650067 0.884778 0.077734
O O6 0.722388 0.088564 0.104205
O O7 0.655019 0.047380 0.935585
O O8 0.500000 0.750000 0.802401
O O9 0.371759 0.834801 0.831025
O O10 0.459169 0.000000 0.750000
O O11 0.470855 0.923864 0.935362
O O12 0.302194 0.500000 0.750000
O O13 0.313037 0.747118 0.682321
O O14 0.267656 0.785251 0.174261
O O15 0.211720 0.000000 0.250000
O O16 0.872929 0.636848 0.941077
O O17 0.750000 0.742386 0.000000
O O18 0.000000 0.250000 0.565505
#
# Coordination Sequence:
#
# PCOD9336142 Si02
#       7
#     8   8   8   8   8   8   8
#     4  12  29  49  72 101 139 184 238 293 350 421
#     4  11  24  43  73 103 138 180 238 295 342 411
#     4  10  24  44  65  99 139 183 227 281 344 419
#     4  11  22  41  72 106 133 180 237 282 346 416
#     4  11  25  42  65 102 143 177 223 286 353 417
#     4  12  21  44  73 101 136 184 229 289 353 410
#     4  11  24  43  73 102 136 182 236 284 349 423
#
# _framework density 21.156365999999998
#
# number of rings (size 3 to 8) (size 9 to 14) (size 15 to 20)
#    0.000    0.857    5.714    0.857    0.000    6.286 
#    2.571    0.000    0.000    0.000    0.000    0.000 
#    0.000    0.000    0.000    0.000    0.000    0.000 
#
# Total GULP energy -156388.360409 kJ/mol
# GULP energy per Si atom -5585.298586 kJ/mol
# Density = 2.110821 g / cm^3
# Si number density = 21.156366 Si / 1000 Ang^3
#
#
#
# Elastic Constant Matrix: (Units=GPa)
#
#
# Indices 1 2 3 4 5 6 
#
# 1 59.3543 6.9237 21.2232 0.0000 0.0000 0.0000
# 2 6.9237 94.5634 39.5435 0.0000 0.0000 0.0000
# 3 21.2232 39.5435 104.5520 0.0000 0.0000 0.0000
# 4 0.0000 0.0000 0.0000 20.0375 0.0000 0.0000
# 5 0.0000 0.0000 0.0000 0.0000 65.3252 0.0000
# 6 0.0000 0.0000 0.0000 0.0000 0.0000 -47.6345
#
#
#
# Elastic Compliance Matrix: (Units=1/GPa)
#
#
# Indices 1 2 3 4 5 6 
#
# 1 0.018172 0.000252 -0.003784 0.000000 0.000000 0.000000
# 2 0.000252 0.012565 -0.004804 0.000000 0.000000 0.000000
# 3 -0.003784 -0.004804 0.012150 0.000000 0.000000 0.000000
# 4 0.000000 0.000000 0.000000 0.049906 0.000000 0.000000
# 5 0.000000 0.000000 0.000000 0.000000 0.015308 0.000000
# 6 0.000000 0.000000 0.000000 0.000000 0.000000 -0.020993
#
#
# Mechanical properties :
#
#
# Convention : Reuss Voigt Hill
#
# Bulk Modulus (GPa) = 38.14598 43.76119 40.95358
# Shear Modulus (GPa) = 44.43771 20.26426 32.35098
#
# Velocity S-wave (km/s) = 4.58803 3.09824 3.91466
# Velocity P-wave (km/s) = 6.79237 5.79037 6.31129
#
# Compressibility (1/GPa) = 0.02621508
#
# Stress axis : x y z
#
# Youngs Moduli (GPa) = 55.03081 79.58514 82.30788
#
# Poissons Ratio (x) = -0.02004 0.31145
# Poissons Ratio (y) = -0.01386 0.39537
# Poissons Ratio (z) = 0.20823 0.38229
#
# Static dielectric constant tensor:
#      x y z
#    x 1.833060 0.000000 0.000000 
#    y 0.000000 1.755970 0.000000 
#    z 0.000000 0.000000 1.835040 
# 
# From -- ./inp_files/27537.got.cif
#   From: 2010.05.17/outbox.cif.g08.bks.cpg/sg24_14_cif.got.tgz:27537.got - 2010.06.04 00:33:39.
