data_PCOD9336961
_publ_section_title
;
Structure prediction by ZEFSAII (Michael W. Deem and Ramdas Pophale) SiO2 
 PCOD9336961
Probable space group: I 21 21 21
;
_chemical_formula_sum "Si O2"
_cell_formula_units_Z 28
_cell_length_a 4.965864
_cell_length_b 8.424841
_cell_length_c 27.952783
_cell_angle_alpha 90.000000
_cell_angle_beta 90.000000
_cell_angle_gamma 90.000000
_cell_volume 1169.449810
_symmetry_space_group_name_H-M "I 21 21 21"
_symmetry_group_IT_number 24
_symmetry_cell_setting 'orthorhombic'
loop_
_space_group_symop_operation_xyz
x,y,z
-x,1/2-y,z
x,-y,1/2-z
1/2-x,y,-z
1/2+x,1/2+y,1/2+z
1/2-x,-y,1/2+z
1/2+x,1/2-y,-z
-x,1/2+y,1/2-z
loop_
_atom_site_type_symbol
_atom_site_label
_atom_site_fract_x
_atom_site_fract_y
_atom_site_fract_z
Si Si1 0.902080 0.924845 0.551522
Si Si2 0.250000 0.857340 0.000000
Si Si3 0.393740 0.430483 0.352611
Si Si4 0.397978 0.932998 0.698869
O O1 0.750000 0.922983 0.500000
O O2 0.000000 0.750000 0.562046
O O3 0.771438 0.006244 0.597127
O O4 0.163308 0.032199 0.542906
O O5 0.500000 0.750000 0.987296
O O6 0.500000 0.250000 0.355444
O O7 0.648980 0.538452 0.337165
O O8 0.152877 0.458215 0.315610
O O9 0.500000 0.750000 0.699770
O O10 0.302461 0.000000 0.750000
#
# Coordination Sequence:
#
# PCOD9336961 Si02
#       4
#     8   4   8   8
#     4  12  27  47  74 105 148 198 249 301 365 432
#     4  12  26  44  70 100 138 188 242 298 356 418
#     4  12  28  48  76 110 148 192 248 301 364 436
#     4  12  26  50  79 111 149 190 240 301 370 437
#
# _framework density 23.942881
#
# number of rings (size 3 to 8) (size 9 to 14) (size 15 to 20)
#    0.000    0.000    2.857    6.857    4.000    1.143 
#    0.000    0.000    0.000    0.000    0.000    0.000 
#    0.000    0.000    0.000    0.000    0.000    0.000 
#
# Total GULP energy -78395.650099 kJ/mol
# GULP energy per Si atom -5599.689293 kJ/mol
# Density = 2.388839 g / cm^3
# Si number density = 23.942881 Si / 1000 Ang^3
#
#
#
# Elastic Constant Matrix: (Units=GPa)
#
#
# Indices 1 2 3 4 5 6 
#
# 1 103.7757 20.9255 17.5490 0.0000 0.0000 0.0000
# 2 20.9255 150.0309 35.7772 0.0000 0.0000 0.0000
# 3 17.5490 35.7772 113.7095 0.0000 0.0000 0.0000
# 4 0.0000 0.0000 0.0000 40.9272 0.0000 0.0000
# 5 0.0000 0.0000 0.0000 0.0000 41.2847 0.0000
# 6 0.0000 0.0000 0.0000 0.0000 0.0000 -4.3501
#
#
#
# Elastic Compliance Matrix: (Units=1/GPa)
#
#
# Indices 1 2 3 4 5 6 
#
# 1 0.010065 -0.001117 -0.001202 0.000000 0.000000 0.000000
# 2 -0.001117 0.007330 -0.002134 0.000000 0.000000 0.000000
# 3 -0.001202 -0.002134 0.009651 0.000000 0.000000 0.000000
# 4 0.000000 0.000000 0.000000 0.024434 0.000000 0.000000
# 5 0.000000 0.000000 0.000000 0.000000 0.024222 0.000000
# 6 0.000000 0.000000 0.000000 0.000000 0.000000 -0.229878
#
#
# Mechanical properties :
#
#
# Convention : Reuss Voigt Hill
#
# Bulk Modulus (GPa) = 55.12627 57.33550 56.23088
# Shear Modulus (GPa) = -35.91324 35.12332 -0.39496
#
# Velocity S-wave (km/s) = -3.87713 3.83425 -0.40659
# Velocity P-wave (km/s) = 1.74105 6.60309 4.82866
#
# Compressibility (1/GPa) = 0.01814017
#
# Stress axis : x y z
#
# Youngs Moduli (GPa) = 99.35753 136.42629 103.61405
#
# Poissons Ratio (x) = 0.15241 0.12452
# Poissons Ratio (y) = 0.11100 0.22110
# Poissons Ratio (z) = 0.11941 0.29111
#
# Static dielectric constant tensor:
#      x y z
#    x 1.825510 0.000000 0.000000 
#    y 0.000000 1.897640 0.000000 
#    z 0.000000 0.000000 1.958300 
# 
# From -- ./inp_files/36261.got.cif
#   From: 2010.05.17/outbox.cif.g08.bks.cpg/sg24_19_cif.got.tgz:36261.got - 2010.06.04 00:33:39.
