data_PCOD9336104
_publ_section_title
;
Structure prediction by ZEFSAII (Michael W. Deem and Ramdas Pophale) SiO2 
 PCOD9336104
Probable space group: I 21 21 21
;
_chemical_formula_sum "Si O2"
_cell_formula_units_Z 48
_cell_length_a 5.498290
_cell_length_b 26.465584
_cell_length_c 15.132072
_cell_angle_alpha 90.000000
_cell_angle_beta 90.000000
_cell_angle_gamma 90.000000
_cell_volume 2201.950355
_symmetry_space_group_name_H-M "I 21 21 21"
_symmetry_group_IT_number 24
_symmetry_cell_setting 'orthorhombic'
loop_
_space_group_symop_operation_xyz
x,y,z
-x,1/2-y,z
x,-y,1/2-z
1/2-x,y,-z
1/2+x,1/2+y,1/2+z
1/2-x,-y,1/2+z
1/2+x,1/2-y,-z
-x,1/2+y,1/2-z
loop_
_atom_site_type_symbol
_atom_site_label
_atom_site_fract_x
_atom_site_fract_y
_atom_site_fract_z
Si Si1 0.878467 0.200294 0.410073
Si Si2 0.803968 0.598338 0.817654
Si Si3 0.012083 0.690156 0.753931
Si Si4 0.250000 0.123797 0.500000
Si Si5 0.318463 0.646273 0.602246
Si Si6 0.812465 0.939780 0.259395
Si Si7 0.500000 0.750000 0.555867
O O1 0.750000 0.220193 0.500000
O O2 0.699596 0.179584 0.335191
O O3 0.000000 0.250000 0.370169
O O4 0.054601 0.158658 0.450950
O O5 0.867252 0.593250 0.920762
O O6 0.541345 0.575072 0.801595
O O7 0.786046 0.656839 0.785317
O O8 0.037427 0.576613 0.766224
O O9 0.099416 0.669002 0.660647
O O10 0.000000 0.750000 0.748667
O O11 0.250000 0.637398 0.500000
O O12 0.375620 0.593144 0.651440
O O13 0.499980 0.695304 0.604981
O O14 0.809181 0.000000 0.250000
O O15 0.750000 0.751158 0.500000
#
# Coordination Sequence:
#
# PCOD9336104 Si02
#       7
#     8   8   8   4   8   8   4
#     4  12  22  37  56  94 141 200 244 287 350 433
#     4  11  25  44  71 106 137 187 238 304 365 439
#     4  11  24  40  65 104 147 196 241 297 368 444
#     4  12  22  38  64  96 140 176 238 302 362 424
#     4  10  25  44  72 108 144 193 243 305 368 447
#     4  11  26  51  75 100 145 188 246 308 373 441
#     4  10  24  42  68 108 150 188 236 298 362 440
#
# _framework density 21.798855
#
# number of rings (size 3 to 8) (size 9 to 14) (size 15 to 20)
#    0.000    1.000    2.500    4.000    8.167    2.667 
#    3.000    0.000    0.000    0.000    0.000    0.000 
#    0.000    0.000    0.000    0.000    0.000    0.000 
#
# Total GULP energy -133859.655669 kJ/mol
# GULP energy per Si atom -5577.485653 kJ/mol
# Density = 2.174924 g / cm^3
# Si number density = 21.798855 Si / 1000 Ang^3
#
#
#
# Elastic Constant Matrix: (Units=GPa)
#
#
# Indices 1 2 3 4 5 6 
#
# 1 65.0639 26.0424 14.6892 0.0000 0.0000 0.0000
# 2 26.0424 160.5525 42.0438 0.0000 0.0000 0.0000
# 3 14.6892 42.0438 136.8917 -0.0001 0.0000 0.0000
# 4 0.0000 0.0000 -0.0001 -28.3399 0.0000 0.0000
# 5 0.0000 0.0000 0.0000 0.0000 27.2136 0.0000
# 6 0.0000 0.0000 0.0000 0.0000 0.0000 37.1118
#
#
#
# Elastic Compliance Matrix: (Units=1/GPa)
#
#
# Indices 1 2 3 4 5 6 
#
# 1 0.016571 -0.002417 -0.001036 0.000000 0.000000 0.000000
# 2 -0.002417 0.007126 -0.001929 0.000000 0.000000 0.000000
# 3 -0.001036 -0.001929 0.008009 0.000000 0.000000 0.000000
# 4 0.000000 0.000000 0.000000 -0.035286 0.000000 0.000000
# 5 0.000000 0.000000 0.000000 0.000000 0.036746 0.000000
# 6 0.000000 0.000000 0.000000 0.000000 0.000000 0.026946
#
#
# Mechanical properties :
#
#
# Convention : Reuss Voigt Hill
#
# Bulk Modulus (GPa) = 47.75172 58.67322 53.21247
# Shear Modulus (GPa) = 64.22193 25.84593 45.03393
#
# Velocity S-wave (km/s) = 5.43370 3.44707 4.55013
# Velocity P-wave (km/s) = 7.83071 6.54349 7.21586
#
# Compressibility (1/GPa) = 0.02094165
#
# Stress axis : x y z
#
# Youngs Moduli (GPa) = 60.34769 140.33760 124.86384
#
# Poissons Ratio (x) = 0.33914 0.12935
# Poissons Ratio (y) = 0.14583 0.24089
# Poissons Ratio (z) = 0.06252 0.27074
#
# Static dielectric constant tensor:
#      x y z
#    x 2.125470 0.000000 0.000000 
#    y 0.000000 1.852380 0.000000 
#    z 0.000000 0.000000 1.843480 
# 
# From -- ./inp_files/23929.got.cif
#   From: 2010.05.17/outbox.cif.g08.bks.cpg/sg24_12_cif.got.tgz:23929.got - 2010.06.04 00:33:39.
