data_PCOD9336117
_publ_section_title
;
Structure prediction by ZEFSAII (Michael W. Deem and Ramdas Pophale) SiO2 
 PCOD9336117
Probable space group: I 21 21 21
;
_chemical_formula_sum "Si O2"
_cell_formula_units_Z 48
_cell_length_a 12.853307
_cell_length_b 14.513294
_cell_length_c 12.344437
_cell_angle_alpha 90.000000
_cell_angle_beta 90.000000
_cell_angle_gamma 90.000000
_cell_volume 2302.778475
_symmetry_space_group_name_H-M "I 21 21 21"
_symmetry_group_IT_number 24
_symmetry_cell_setting 'orthorhombic'
loop_
_space_group_symop_operation_xyz
x,y,z
-x,1/2-y,z
x,-y,1/2-z
1/2-x,y,-z
1/2+x,1/2+y,1/2+z
1/2-x,-y,1/2+z
1/2+x,1/2-y,-z
-x,1/2+y,1/2-z
loop_
_atom_site_type_symbol
_atom_site_label
_atom_site_fract_x
_atom_site_fract_y
_atom_site_fract_z
Si Si1 0.416914 0.486628 0.874368
Si Si2 0.927644 0.407707 0.811136
Si Si3 0.733482 0.735404 0.309923
Si Si4 0.750000 0.134911 0.000000
Si Si5 0.634130 0.000000 0.250000
Si Si6 0.715824 0.863479 0.884571
Si Si7 0.073899 0.156750 0.058791
O O1 0.389718 0.500000 0.750000
O O2 0.336735 0.424593 0.941543
O O3 0.395476 0.589719 0.913008
O O4 0.520173 0.428747 0.881034
O O5 0.885537 0.500000 0.750000
O O6 0.863053 0.322245 0.763146
O O7 0.051389 0.424813 0.796341
O O8 0.909867 0.384934 0.938223
O O9 0.698999 0.803496 0.406582
O O10 0.786074 0.792162 0.213112
O O11 0.822375 0.679258 0.374172
O O12 0.703413 0.943951 0.161355
O O13 0.750000 0.824955 0.000000
O O14 0.000000 0.250000 0.057451
#
# Coordination Sequence:
#
# PCOD9336117 Si02
#       7
#     8   8   8   4   4   8   8
#     4  12  23  38  64 102 134 171 225 275 346 403
#     4  10  25  42  64 102 130 174 230 282 346 401
#     4  12  24  45  71 100 137 180 231 285 342 400
#     4  12  20  38  66  98 130 168 222 286 326 390
#     4  10  24  42  74  98 134 182 232 280 350 404
#     4  12  24  42  69 102 141 176 223 293 345 406
#     4  12  23  40  70 102 132 178 230 289 335 409
#
# _framework density 20.844384000000002
#
# number of rings (size 3 to 8) (size 9 to 14) (size 15 to 20)
#    0.500    0.000    6.667    1.000    4.667    0.667 
#    0.000    3.333    7.333    0.000    0.000    0.000 
#    0.000    0.000    0.000    0.000    0.000    0.000 
#
# Total GULP energy -133604.065998 kJ/mol
# GULP energy per Si atom -5566.836083 kJ/mol
# Density = 2.079694 g / cm^3
# Si number density = 20.844384 Si / 1000 Ang^3
#
#
#
# Elastic Constant Matrix: (Units=GPa)
#
#
# Indices 1 2 3 4 5 6 
#
# 1 88.8503 42.1443 29.0353 0.0000 0.0000 0.0000
# 2 42.1443 88.9413 49.8514 0.0000 0.0000 0.0000
# 3 29.0353 49.8514 123.1304 0.0000 0.0000 0.0000
# 4 0.0000 0.0000 0.0000 38.8313 0.0000 0.0000
# 5 0.0000 0.0000 0.0000 0.0000 18.3160 0.0000
# 6 0.0000 0.0000 0.0000 0.0000 0.0000 -11.0917
#
#
#
# Elastic Compliance Matrix: (Units=1/GPa)
#
#
# Indices 1 2 3 4 5 6 
#
# 1 0.014583 -0.006445 -0.000829 0.000000 0.000000 0.000000
# 2 -0.006445 0.017392 -0.005522 0.000000 0.000000 0.000000
# 3 -0.000829 -0.005522 0.010553 0.000000 0.000000 0.000000
# 4 0.000000 0.000000 0.000000 0.025752 0.000000 0.000000
# 5 0.000000 0.000000 0.000000 0.000000 0.054597 0.000000
# 6 0.000000 0.000000 0.000000 0.000000 0.000000 -0.090157
#
#
# Mechanical properties :
#
#
# Convention : Reuss Voigt Hill
#
# Bulk Modulus (GPa) = 59.04810 60.33156 59.68983
# Shear Modulus (GPa) = 78.17653 21.20386 49.69020
#
# Velocity S-wave (km/s) = 6.13076 3.19289 4.88778
# Velocity P-wave (km/s) = 8.86028 6.52682 7.78151
#
# Compressibility (1/GPa) = 0.01693535
#
# Stress axis : x y z
#
# Youngs Moduli (GPa) = 68.57254 57.49656 94.76335
#
# Poissons Ratio (x) = 0.37058 0.07859
# Poissons Ratio (y) = 0.44197 0.52326
# Poissons Ratio (z) = 0.05687 0.31748
#
# Static dielectric constant tensor:
#      x y z
#    x 1.858630 0.000000 0.000000 
#    y 0.000000 1.856520 0.000000 
#    z 0.000000 0.000000 2.004400 
# 
# From -- ./inp_files/20776.got.cif
#   From: 2010.05.17/outbox.cif.g08.bks.cpg/sg24_11_cif.got.tgz:20776.got - 2010.06.04 00:33:39.
