data_PCOD9336730
_publ_section_title
;
Structure prediction by ZEFSAII (Michael W. Deem and Ramdas Pophale) SiO2 
 PCOD9336730
Probable space group: I 21 21 21
;
_chemical_formula_sum "Si O2"
_cell_formula_units_Z 32
_cell_length_a 14.866078
_cell_length_b 9.323362
_cell_length_c 9.288695
_cell_angle_alpha 90.000000
_cell_angle_beta 90.000000
_cell_angle_gamma 90.000000
_cell_volume 1287.430095
_symmetry_space_group_name_H-M "I 21 21 21"
_symmetry_group_IT_number 24
_symmetry_cell_setting 'orthorhombic'
loop_
_space_group_symop_operation_xyz
x,y,z
-x,1/2-y,z
x,-y,1/2-z
1/2-x,y,-z
1/2+x,1/2+y,1/2+z
1/2-x,-y,1/2+z
1/2+x,1/2-y,-z
-x,1/2+y,1/2-z
loop_
_atom_site_type_symbol
_atom_site_label
_atom_site_fract_x
_atom_site_fract_y
_atom_site_fract_z
Si Si1 0.344502 0.627605 0.578201
Si Si2 0.978263 0.113236 0.849492
Si Si3 0.335428 0.968290 0.083401
Si Si4 0.394363 0.708341 0.886347
O O1 0.427125 0.500000 0.250000
O O2 0.250000 0.627444 0.500000
O O3 0.416138 0.685976 0.466318
O O4 0.377701 0.461048 0.587380
O O5 0.000000 0.250000 0.749735
O O6 0.850283 0.215588 0.226176
O O7 0.062917 0.030707 0.915962
O O8 0.311974 0.000000 0.250000
O O9 0.250000 0.034272 0.000000
O O10 0.349191 0.813218 0.004370
O O11 0.500000 0.750000 0.874758
#
# Coordination Sequence:
#
# PCOD9336730 Si02
#       4
#     8   8   8   8
#     4  11  26  45  80 123 167 222 282 351 418 513
#     4  11  27  46  75 111 158 215 272 344 419 502
#     4  11  27  48  80 116 160 216 276 350 425 515
#     4  11  24  50  83 117 170 225 280 353 431 507
#
# _framework density 24.855720000000002
#
# number of rings (size 3 to 8) (size 9 to 14) (size 15 to 20)
#    0.000    1.000    2.500    1.500   10.500    9.000 
#    0.000    0.000    0.000    0.000    0.000    0.000 
#    0.000    0.000    0.000    0.000    0.000    0.000 
#
# Total GULP energy -89259.861067 kJ/mol
# GULP energy per Si atom -5578.741317 kJ/mol
# Density = 2.479915 g / cm^3
# Si number density = 24.855720 Si / 1000 Ang^3
#
#
#
# Elastic Constant Matrix: (Units=GPa)
#
#
# Indices 1 2 3 4 5 6 
#
# 1 174.1217 4.6398 64.9243 0.0000 0.0000 0.0000
# 2 4.6398 150.8487 59.2022 0.0000 0.0000 0.0000
# 3 64.9243 59.2022 180.6006 0.0000 0.0000 0.0000
# 4 0.0000 0.0000 0.0000 41.8153 0.0000 0.0000
# 5 0.0000 0.0000 0.0000 0.0000 1572.6828 0.0000
# 6 0.0000 0.0000 0.0000 0.0000 0.0000 12.6231
#
#
#
# Elastic Compliance Matrix: (Units=1/GPa)
#
#
# Indices 1 2 3 4 5 6 
#
# 1 0.006726 0.000852 -0.002697 0.000000 0.000000 0.000000
# 2 0.000852 0.007716 -0.002835 0.000000 0.000000 0.000000
# 3 -0.002697 -0.002835 0.007436 0.000000 0.000000 0.000000
# 4 0.000000 0.000000 0.000000 0.023915 0.000000 0.000000
# 5 0.000000 0.000000 0.000000 0.000000 0.000636 0.000000
# 6 0.000000 0.000000 0.000000 0.000000 0.000000 0.079220
#
#
# Mechanical properties :
#
#
# Convention : Reuss Voigt Hill
#
# Bulk Modulus (GPa) = 79.89689 84.78926 82.34308
# Shear Modulus (GPa) = 35.92411 350.54455 193.23433
#
# Velocity S-wave (km/s) = 3.80584 11.88856 8.82673
# Velocity P-wave (km/s) = 7.17821 14.92103 11.70820
#
# Compressibility (1/GPa) = 0.01251613
#
# Stress axis : x y z
#
# Youngs Moduli (GPa) = 148.67470 129.60476 134.47802
#
# Poissons Ratio (x) = -0.11038 0.36271
# Poissons Ratio (y) = -0.12662 0.38130
# Poissons Ratio (z) = 0.40100 0.36749
#
# Static dielectric constant tensor:
#      x y z
#    x 2.015180 0.000000 0.000000 
#    y 0.000000 -16.096670 0.000000 
#    z 0.000000 0.000000 2.361890 
# 
# From -- ./inp_files/11890.got.cif
#   From: 2010.05.17/outbox.cif.g08.bks.cpg/sg24_6_cif.got.tgz:11890.got - 2010.06.04 00:33:39.
