data_PCOD9336446
_publ_section_title
;
Structure prediction by ZEFSAII (Michael W. Deem and Ramdas Pophale) SiO2 
 PCOD9336446
Probable space group: I 21 21 21
;
_chemical_formula_sum "Si O2"
_cell_formula_units_Z 56
_cell_length_a 8.375852
_cell_length_b 15.098906
_cell_length_c 22.692714
_cell_angle_alpha 90.000000
_cell_angle_beta 90.000000
_cell_angle_gamma 90.000000
_cell_volume 2869.861353
_symmetry_space_group_name_H-M "I 21 21 21"
_symmetry_group_IT_number 24
_symmetry_cell_setting 'orthorhombic'
loop_
_space_group_symop_operation_xyz
x,y,z
-x,1/2-y,z
x,-y,1/2-z
1/2-x,y,-z
1/2+x,1/2+y,1/2+z
1/2-x,-y,1/2+z
1/2+x,1/2-y,-z
-x,1/2+y,1/2-z
loop_
_atom_site_type_symbol
_atom_site_label
_atom_site_fract_x
_atom_site_fract_y
_atom_site_fract_z
Si Si1 0.480706 0.145630 0.473010
Si Si2 0.523006 0.433471 0.194106
Si Si3 0.250000 0.480796 0.500000
Si Si4 0.808479 0.357685 0.405353
Si Si5 0.330482 0.297086 0.669076
Si Si6 0.500000 0.750000 0.238124
Si Si7 0.300629 0.493588 0.869352
Si Si8 0.371517 0.011974 0.819646
O O1 0.500000 0.250000 0.473562
O O2 0.631268 0.086291 0.468739
O O3 0.373579 0.122379 0.417652
O O4 0.400025 0.120572 0.535048
O O5 0.516904 0.500000 0.250000
O O6 0.513705 0.336332 0.221628
O O7 0.368570 0.456034 0.154094
O O8 0.700593 0.443376 0.166152
O O9 0.316999 0.524650 0.559803
O O10 0.824003 0.253973 0.393274
O O11 0.861671 0.416928 0.351679
O O12 0.500000 0.250000 0.693643
O O13 0.167404 0.264689 0.701847
O O14 0.313612 0.402450 0.654543
O O15 0.459153 0.448817 0.840697
O O16 0.379868 0.000000 0.750000
#
# Coordination Sequence:
#
# PCOD9336446 Si02
#       8
#     8   8   4   8   8   4   8   8
#     4  11  21  34  53  84 133 177 218 262 311 399
#     4  11  24  45  65  95 132 170 217 278 336 394
#     4  12  22  36  56  90 124 168 226 264 328 400
#     4  11  22  37  54  87 131 180 217 260 320 388
#     4  12  23  37  60  94 137 178 219 258 322 401
#     4  12  28  42  66  98 126 174 224 270 338 402
#     4  12  24  40  64  94 130 176 221 274 329 400
#     4  11  23  40  62  87 129 173 221 274 317 384
#
# _framework density 19.513137
#
# number of rings (size 3 to 8) (size 9 to 14) (size 15 to 20)
#    0.000    0.571    4.286    6.000    3.000    0.000 
#    0.000    0.000    0.000    0.000    3.714    0.000 
#    0.000    0.000    0.000    0.000    0.000    0.000 
#
# Total GULP energy -155906.797681 kJ/mol
# GULP energy per Si atom -5568.099917 kJ/mol
# Density = 1.946872 g / cm^3
# Si number density = 19.513137 Si / 1000 Ang^3
#
#
#
# Elastic Constant Matrix: (Units=GPa)
#
#
# Indices 1 2 3 4 5 6 
#
# 1 169.1766 19.8517 42.7931 0.0000 0.0000 0.0000
# 2 19.8517 72.3247 17.8385 0.0000 0.0000 0.0000
# 3 42.7931 17.8385 80.2804 0.0000 0.0000 0.0000
# 4 0.0000 0.0000 0.0000 20.6532 0.0000 0.0000
# 5 0.0000 0.0000 0.0000 0.0000 6.2968 0.0000
# 6 0.0000 0.0000 0.0000 0.0000 0.0000 25.0203
#
#
#
# Elastic Compliance Matrix: (Units=1/GPa)
#
#
# Indices 1 2 3 4 5 6 
#
# 1 0.006906 -0.001045 -0.003449 0.000000 0.000000 0.000000
# 2 -0.001045 0.014786 -0.002729 0.000000 0.000000 0.000000
# 3 -0.003449 -0.002729 0.014901 0.000000 0.000000 0.000000
# 4 0.000000 0.000000 0.000000 0.048419 0.000000 0.000000
# 5 0.000000 0.000000 0.000000 0.000000 0.158810 0.000000
# 6 0.000000 0.000000 0.000000 0.000000 0.000000 0.039968
#
#
# Mechanical properties :
#
#
# Convention : Reuss Voigt Hill
#
# Bulk Modulus (GPa) = 45.14987 53.63870 49.39428
# Shear Modulus (GPa) = 16.36034 26.48063 21.42048
#
# Velocity S-wave (km/s) = 2.89870 3.68784 3.31682
# Velocity P-wave (km/s) = 5.86444 6.75882 6.32746
#
# Compressibility (1/GPa) = 0.02214846
#
# Stress axis : x y z
#
# Youngs Moduli (GPa) = 144.80101 67.63010 67.10893
#
# Poissons Ratio (x) = 0.07067 0.23146
# Poissons Ratio (y) = 0.15130 0.18311
# Poissons Ratio (z) = 0.49943 0.18453
#
# Static dielectric constant tensor:
#      x y z
#    x 1.851110 0.000000 0.000000 
#    y 0.000000 1.849370 0.000000 
#    z 0.000000 0.000000 1.700230 
# 
# From -- ./inp_files/32877.got.cif
#   From: 2010.05.17/outbox.cif.g08.bks.cpg/sg24_17_cif.got.tgz:32877.got - 2010.06.04 00:33:39.
