data_PCOD9336301
_publ_section_title
;
Structure prediction by ZEFSAII (Michael W. Deem and Ramdas Pophale) SiO2 
 PCOD9336301
Probable space group: I 21 21 21
;
_chemical_formula_sum "Si O2"
_cell_formula_units_Z 36
_cell_length_a 23.756360
_cell_length_b 5.201945
_cell_length_c 12.770414
_cell_angle_alpha 90.000000
_cell_angle_beta 90.000000
_cell_angle_gamma 90.000000
_cell_volume 1578.158543
_symmetry_space_group_name_H-M "I 21 21 21"
_symmetry_group_IT_number 24
_symmetry_cell_setting 'orthorhombic'
loop_
_space_group_symop_operation_xyz
x,y,z
-x,1/2-y,z
x,-y,1/2-z
1/2-x,y,-z
1/2+x,1/2+y,1/2+z
1/2-x,-y,1/2+z
1/2+x,1/2-y,-z
-x,1/2+y,1/2-z
loop_
_atom_site_type_symbol
_atom_site_label
_atom_site_fract_x
_atom_site_fract_y
_atom_site_fract_z
Si Si1 0.095370 0.473236 0.968365
Si Si2 0.417799 0.000000 0.750000
Si Si3 0.750000 0.462689 0.000000
Si Si4 0.673192 0.873309 0.648983
Si Si5 0.856369 0.554851 0.871108
Si Si6 0.500000 0.250000 0.581370
O O1 0.111793 0.189110 0.926721
O O2 0.107205 0.688395 0.881866
O O3 0.139223 0.537361 0.063337
O O4 0.033934 0.538943 0.013792
O O5 0.376794 0.208257 0.800085
O O6 0.456360 0.110405 0.658260
O O7 0.782787 0.290838 0.084286
O O8 0.702249 0.601964 0.067425
O O9 0.701505 0.000000 0.750000
O O10 0.845695 0.500000 0.750000
#
# Coordination Sequence:
#
# PCOD9336301 Si02
#       6
#     8   4   4   8   8   4
#     4  11  25  45  70 105 142 182 240 289 356 420
#     4  12  24  42  68 106 148 180 240 290 366 414
#     4  10  26  40  72 100 138 192 236 284 360 412
#     4  11  24  44  64 105 145 182 231 296 347 433
#     4  11  26  48  71 103 143 189 239 297 341 424
#     4  12  22  42  74 102 142 194 226 300 362 412
#
# _framework density 22.811395000000001
#
# number of rings (size 3 to 8) (size 9 to 14) (size 15 to 20)
#    0.000    0.889    2.222    4.667    1.556    9.778 
#    0.000    2.222    0.000    0.000    0.000    0.000 
#    0.000    0.000    0.000    0.000    0.000    0.000 
#
# Total GULP energy -100696.491130 kJ/mol
# GULP energy per Si atom -5594.249507 kJ/mol
# Density = 2.275948 g / cm^3
# Si number density = 22.811395 Si / 1000 Ang^3
#
#
#
# Elastic Constant Matrix: (Units=GPa)
#
#
# Indices 1 2 3 4 5 6 
#
# 1 102.8522 22.5627 27.4554 0.0000 0.0000 0.0000
# 2 22.5627 59.9584 10.5203 0.0000 0.0000 0.0000
# 3 27.4554 10.5203 113.1799 0.0000 0.0000 0.0000
# 4 0.0000 0.0000 0.0000 26.6341 0.0000 0.0000
# 5 0.0000 0.0000 0.0000 0.0000 56.5987 0.0000
# 6 0.0000 0.0000 0.0000 0.0000 0.0000 22.6120
#
#
#
# Elastic Compliance Matrix: (Units=1/GPa)
#
#
# Indices 1 2 3 4 5 6 
#
# 1 0.011185 -0.003795 -0.002361 0.000000 0.000000 0.000000
# 2 -0.003795 0.018242 -0.000775 0.000000 0.000000 0.000000
# 3 -0.002361 -0.000775 0.009480 0.000000 0.000000 0.000000
# 4 0.000000 0.000000 0.000000 0.037546 0.000000 0.000000
# 5 0.000000 0.000000 0.000000 0.000000 0.017668 0.000000
# 6 0.000000 0.000000 0.000000 0.000000 0.000000 0.044224
#
#
# Mechanical properties :
#
#
# Convention : Reuss Voigt Hill
#
# Bulk Modulus (GPa) = 39.92563 44.11858 42.02211
# Shear Modulus (GPa) = 31.14175 35.53244 33.33709
#
# Velocity S-wave (km/s) = 3.69885 3.95100 3.82700
# Velocity P-wave (km/s) = 5.98184 6.34007 6.16356
#
# Compressibility (1/GPa) = 0.02504657
#
# Stress axis : x y z
#
# Youngs Moduli (GPa) = 89.40288 54.81779 105.48325
#
# Poissons Ratio (x) = 0.20803 0.24901
# Poissons Ratio (y) = 0.33928 0.08176
# Poissons Ratio (z) = 0.21105 0.04249
#
# Static dielectric constant tensor:
#      x y z
#    x 1.962500 0.000000 0.000000 
#    y 0.000000 1.937110 0.000000 
#    z 0.000000 0.000000 1.835890 
# 
# From -- ./inp_files/22478.got.cif
#   From: 2010.05.17/outbox.cif.g08.bks.cpg/sg24_12_cif.got.tgz:22478.got - 2010.06.04 00:33:39.
