data_PCOD9336779
_publ_section_title
;
Structure prediction by ZEFSAII (Michael W. Deem and Ramdas Pophale) SiO2 
 PCOD9336779
Probable space group: I 21 21 21
;
_chemical_formula_sum "Si O2"
_cell_formula_units_Z 36
_cell_length_a 10.199426
_cell_length_b 11.573648
_cell_length_c 12.601943
_cell_angle_alpha 90.000000
_cell_angle_beta 90.000000
_cell_angle_gamma 90.000000
_cell_volume 1487.590896
_symmetry_space_group_name_H-M "I 21 21 21"
_symmetry_group_IT_number 24
_symmetry_cell_setting 'orthorhombic'
loop_
_space_group_symop_operation_xyz
x,y,z
-x,1/2-y,z
x,-y,1/2-z
1/2-x,y,-z
1/2+x,1/2+y,1/2+z
1/2-x,-y,1/2+z
1/2+x,1/2-y,-z
-x,1/2+y,1/2-z
loop_
_atom_site_type_symbol
_atom_site_label
_atom_site_fract_x
_atom_site_fract_y
_atom_site_fract_z
Si Si1 0.873556 0.057839 0.107546
Si Si2 0.613006 0.333457 0.316775
Si Si3 0.559624 0.432196 0.086725
Si Si4 0.877757 0.814374 0.194540
Si Si5 0.250000 0.747529 0.500000
O O1 0.950128 0.123503 0.202556
O O2 0.826219 0.932038 0.140127
O O3 0.766596 0.158621 0.095575
O O4 0.942898 0.042925 0.994830
O O5 0.500000 0.250000 0.361913
O O6 0.550448 0.378291 0.204670
O O7 0.630998 0.446384 0.390194
O O8 0.752909 0.270891 0.299402
O O9 0.632645 0.332643 0.021240
O O10 0.000000 0.750000 0.139909
#
# Coordination Sequence:
#
# PCOD9336779 Si02
#       5
#     8   8   8   8   4
#     4  11  26  44  76 107 147 201 249 310 371 451
#     4  11  26  49  73 109 154 196 250 315 379 446
#     4  11  26  44  76 107 147 201 249 310 371 451
#     4  11  26  49  73 109 154 196 250 315 379 446
#     4  12  22  44  70 106 140 194 258 290 366 464
#
# _framework density 24.200202000000001
#
# number of rings (size 3 to 8) (size 9 to 14) (size 15 to 20)
#    0.000    0.889    2.222    3.333    6.222    4.444 
#    0.000    0.000    0.000    0.000    0.000    0.000 
#    0.000    0.000    0.000    0.000    0.000    0.000 
#
# Total GULP energy -100233.888870 kJ/mol
# GULP energy per Si atom -5568.549382 kJ/mol
# Density = 2.414512 g / cm^3
# Si number density = 24.200202 Si / 1000 Ang^3
#
#
#
# Elastic Constant Matrix: (Units=GPa)
#
#
# Indices 1 2 3 4 5 6 
#
# 1 72.9295 53.6905 34.1961 0.0000 0.0000 0.0000
# 2 53.6905 202.6983 49.9112 0.0000 0.0000 0.0000
# 3 34.1961 49.9112 74.9213 0.0000 0.0000 0.0000
# 4 0.0000 0.0000 0.0000 37.5295 0.0000 0.0000
# 5 0.0000 0.0000 0.0000 0.0000 14.0288 0.0000
# 6 0.0000 0.0000 0.0000 0.0000 0.0000 44.8180
#
#
#
# Elastic Compliance Matrix: (Units=1/GPa)
#
#
# Indices 1 2 3 4 5 6 
#
# 1 0.019349 -0.003529 -0.006480 0.000000 0.000000 0.000000
# 2 -0.003529 0.006545 -0.002749 0.000000 0.000000 0.000000
# 3 -0.006480 -0.002749 0.018137 0.000000 0.000000 0.000000
# 4 0.000000 0.000000 0.000000 0.026646 0.000000 0.000000
# 5 0.000000 0.000000 0.000000 0.000000 0.071282 0.000000
# 6 0.000000 0.000000 0.000000 0.000000 0.000000 0.022312
#
#
# Mechanical properties :
#
#
# Convention : Reuss Voigt Hill
#
# Bulk Modulus (GPa) = 54.01661 69.57164 61.79413
# Shear Modulus (GPa) = 25.51550 33.45869 29.48710
#
# Velocity S-wave (km/s) = 3.25060 3.72234 3.49444
# Velocity P-wave (km/s) = 6.03802 6.87642 6.47082
#
# Compressibility (1/GPa) = 0.01851282
#
# Stress axis : x y z
#
# Youngs Moduli (GPa) = 51.68316 152.78084 55.13709
#
# Poissons Ratio (x) = 0.53923 0.35729
# Poissons Ratio (y) = 0.18241 0.15160
# Poissons Ratio (z) = 0.33491 0.42006
#
# Static dielectric constant tensor:
#      x y z
#    x 1.992640 0.000000 0.000000 
#    y 0.000000 1.909800 0.000000 
#    z 0.000000 0.000000 2.143000 
# 
# From -- ./inp_files/19201.got.cif
#   From: 2010.05.17/outbox.cif.g08.bks.cpg/sg24_10_cif.got.tgz:19201.got - 2010.06.04 00:33:39.
