data_PCOD9336917
_publ_section_title
;
Structure prediction by ZEFSAII (Michael W. Deem and Ramdas Pophale) SiO2 
 PCOD9336917
Probable space group: I 21 21 21
;
_chemical_formula_sum "Si O2"
_cell_formula_units_Z 24
_cell_length_a 5.121874
_cell_length_b 10.811134
_cell_length_c 18.807096
_cell_angle_alpha 90.000000
_cell_angle_beta 90.000000
_cell_angle_gamma 90.000000
_cell_volume 1041.410332
_symmetry_space_group_name_H-M "I 21 21 21"
_symmetry_group_IT_number 24
_symmetry_cell_setting 'orthorhombic'
loop_
_space_group_symop_operation_xyz
x,y,z
-x,1/2-y,z
x,-y,1/2-z
1/2-x,y,-z
1/2+x,1/2+y,1/2+z
1/2-x,-y,1/2+z
1/2+x,1/2-y,-z
-x,1/2+y,1/2-z
loop_
_atom_site_type_symbol
_atom_site_label
_atom_site_fract_x
_atom_site_fract_y
_atom_site_fract_z
Si Si1 0.119673 0.114627 0.796654
Si Si2 0.005195 0.020120 0.953823
Si Si3 0.500000 0.250000 0.391770
Si Si4 0.000000 0.250000 0.287693
O O1 0.412912 0.139669 0.765914
O O2 0.000000 0.250000 0.786399
O O3 0.017768 0.000000 0.750000
O O4 0.054135 0.079911 0.877010
O O5 0.011880 0.872966 0.938715
O O6 0.750000 0.050941 0.000000
O O7 0.250000 0.057808 0.000000
O O8 0.243596 0.262661 0.341917
#
# Coordination Sequence:
#
# PCOD9336917 Si02
#       4
#     8   8   4   4
#     4  12  28  51  85 118 161 213 276 344 407 492
#     4  12  28  48  78 117 163 214 263 332 416 489
#     4  12  24  49  80 115 160 208 276 336 394 481
#     4  12  24  45  82 115 154 202 276 334 400 461
#
# _framework density 23.045672
#
# number of rings (size 3 to 8) (size 9 to 14) (size 15 to 20)
#    0.000    0.000    5.000    3.000    4.667    2.667 
#    0.000    0.000    0.000    0.000    0.000    0.000 
#    0.000    0.000    0.000    0.000    0.000    0.000 
#
# Total GULP energy -67026.772477 kJ/mol
# GULP energy per Si atom -5585.564373 kJ/mol
# Density = 2.299322 g / cm^3
# Si number density = 23.045672 Si / 1000 Ang^3
#
#
#
# Elastic Constant Matrix: (Units=GPa)
#
#
# Indices 1 2 3 4 5 6 
#
# 1 186.7583 31.9015 90.0268 0.0000 0.0000 0.0000
# 2 31.9015 130.6360 45.4400 0.0000 0.0000 0.0000
# 3 90.0268 45.4400 203.8274 0.0000 0.0000 0.0000
# 4 0.0000 0.0000 0.0000 0.9963 0.0000 0.0000
# 5 0.0000 0.0000 0.0000 0.0000 32.1109 0.0000
# 6 0.0000 0.0000 0.0000 0.0000 0.0000 40.9831
#
#
#
# Elastic Compliance Matrix: (Units=1/GPa)
#
#
# Indices 1 2 3 4 5 6 
#
# 1 0.006857 -0.000673 -0.002879 0.000000 0.000000 0.000000
# 2 -0.000673 0.008364 -0.001567 0.000000 0.000000 0.000000
# 3 -0.002879 -0.001567 0.006527 0.000000 0.000000 0.000000
# 4 0.000000 0.000000 0.000000 1.003717 0.000000 0.000000
# 5 0.000000 0.000000 0.000000 0.000000 0.031142 0.000000
# 6 0.000000 0.000000 0.000000 0.000000 0.000000 0.024400
#
#
# Mechanical properties :
#
#
# Convention : Reuss Voigt Hill
#
# Bulk Modulus (GPa) = 86.87975 95.10647 90.99311
# Shear Modulus (GPa) = 4.56586 38.40827 21.48707
#
# Velocity S-wave (km/s) = 1.40909 4.08685 3.05678
# Velocity P-wave (km/s) = 6.35831 7.97672 7.21305
#
# Compressibility (1/GPa) = 0.01151016
#
# Stress axis : x y z
#
# Youngs Moduli (GPa) = 145.83349 119.55360 153.21104
#
# Poissons Ratio (x) = 0.08049 0.44103
# Poissons Ratio (y) = 0.09818 0.24014
# Poissons Ratio (z) = 0.41979 0.18738
#
# Static dielectric constant tensor:
#      x y z
#    x 2.008940 0.000000 0.000000 
#    y 0.000000 1.861130 0.000000 
#    z 0.000000 0.000000 1.789220 
# 
# From -- ./inp_files/28441.got.cif
#   From: 2010.05.17/outbox.cif.g08.bks.cpg/sg24_15_cif.got.tgz:28441.got - 2010.06.04 00:33:39.
