data_PCOD9336991
_publ_section_title
;
Structure prediction by ZEFSAII (Michael W. Deem and Ramdas Pophale) SiO2 
 PCOD9336991
Probable space group: I 21 21 21
;
_chemical_formula_sum "Si O2"
_cell_formula_units_Z 24
_cell_length_a 20.386715
_cell_length_b 4.992641
_cell_length_c 10.957042
_cell_angle_alpha 90.000000
_cell_angle_beta 90.000000
_cell_angle_gamma 90.000000
_cell_volume 1115.246623
_symmetry_space_group_name_H-M "I 21 21 21"
_symmetry_group_IT_number 24
_symmetry_cell_setting 'orthorhombic'
loop_
_space_group_symop_operation_xyz
x,y,z
-x,1/2-y,z
x,-y,1/2-z
1/2-x,y,-z
1/2+x,1/2+y,1/2+z
1/2-x,-y,1/2+z
1/2+x,1/2-y,-z
-x,1/2+y,1/2-z
loop_
_atom_site_type_symbol
_atom_site_label
_atom_site_fract_x
_atom_site_fract_y
_atom_site_fract_z
Si Si1 0.500000 0.750000 0.659795
Si Si2 0.272928 0.000000 0.750000
Si Si3 0.635345 0.656372 0.524480
Si Si4 0.340469 0.649078 0.138419
O O1 0.494319 0.500000 0.750000
O O2 0.564278 0.726428 0.576984
O O3 0.318463 0.080844 0.862519
O O4 0.225274 0.231645 0.699215
O O5 0.630259 0.407096 0.430696
O O6 0.666709 0.913488 0.459121
O O7 0.377946 0.500000 0.250000
#
# Coordination Sequence:
#
# PCOD9336991 Si02
#       4
#     4   4   8   8
#     4  12  26  54  76 108 144 188 252 308 352 430
#     4  12  28  44  78 112 150 186 242 310 362 440
#     4  12  28  47  78 108 147 193 246 299 368 424
#     4  12  27  46  72 112 152 193 233 299 370 439
#
# _framework density 21.519905000000001
#
# number of rings (size 3 to 8) (size 9 to 14) (size 15 to 20)
#    0.000    0.000    5.000    3.000    9.333    0.000 
#    0.000    3.333    3.667    0.000    0.000    0.000 
#    0.000    0.000    0.000    0.000    0.000    0.000 
#
# Total GULP energy -67166.333740 kJ/mol
# GULP energy per Si atom -5597.194478 kJ/mol
# Density = 2.147092 g / cm^3
# Si number density = 21.519905 Si / 1000 Ang^3
#
#
#
# Elastic Constant Matrix: (Units=GPa)
#
#
# Indices 1 2 3 4 5 6 
#
# 1 116.0923 61.6467 80.8990 0.0000 0.0000 0.0000
# 2 61.6467 195.7538 86.0885 0.0000 0.0000 0.0000
# 3 80.8990 86.0885 137.1734 0.0000 0.0000 0.0000
# 4 0.0000 0.0000 0.0000 69.9010 0.0000 0.0000
# 5 0.0000 0.0000 0.0000 0.0000 -5.4218 0.0000
# 6 0.0000 0.0000 0.0000 0.0000 0.0000 25.9270
#
#
#
# Elastic Compliance Matrix: (Units=1/GPa)
#
#
# Indices 1 2 3 4 5 6 
#
# 1 0.014805 -0.001136 -0.008018 0.000000 0.000000 0.000000
# 2 -0.001136 0.007143 -0.003813 0.000000 0.000000 0.000000
# 3 -0.008018 -0.003813 0.014412 0.000000 0.000000 0.000000
# 4 0.000000 0.000000 0.000000 0.014306 0.000000 0.000000
# 5 0.000000 0.000000 0.000000 0.000000 -0.184440 0.000000
# 6 0.000000 0.000000 0.000000 0.000000 0.000000 0.038570
#
#
# Mechanical properties :
#
#
# Convention : Reuss Voigt Hill
#
# Bulk Modulus (GPa) = 95.92162 100.69866 98.31014
# Shear Modulus (GPa) = -75.99233 32.77359 -21.60937
#
# Velocity S-wave (km/s) = -5.94889 3.90672 -3.17228
# Velocity P-wave (km/s) = 1.58602 8.20030 5.68900
#
# Compressibility (1/GPa) = 0.01042518
#
# Stress axis : x y z
#
# Youngs Moduli (GPa) = 67.54697 139.99600 69.38793
#
# Poissons Ratio (x) = 0.15904 0.55636
# Poissons Ratio (y) = 0.07674 0.26457
# Poissons Ratio (z) = 0.54160 0.53379
#
# Static dielectric constant tensor:
#      x y z
#    x 1.735580 0.000000 0.000000 
#    y 0.000000 1.804030 0.000000 
#    z 0.000000 0.000000 1.796750 
# 
# From -- ./inp_files/21828.got.cif
#   From: 2010.05.17/outbox.cif.g08.bks.cpg/sg24_11_cif.got.tgz:21828.got - 2010.06.04 00:33:39.
