data_PCOD9336323
_publ_section_title
;
Structure prediction by ZEFSAII (Michael W. Deem and Ramdas Pophale) SiO2 
 PCOD9336323
Probable space group: I 21 21 21
;
_chemical_formula_sum "Si O2"
_cell_formula_units_Z 32
_cell_length_a 4.939366
_cell_length_b 20.429362
_cell_length_c 13.553702
_cell_angle_alpha 90.000000
_cell_angle_beta 90.000000
_cell_angle_gamma 90.000000
_cell_volume 1367.678263
_symmetry_space_group_name_H-M "I 21 21 21"
_symmetry_group_IT_number 24
_symmetry_cell_setting 'orthorhombic'
loop_
_space_group_symop_operation_xyz
x,y,z
-x,1/2-y,z
x,-y,1/2-z
1/2-x,y,-z
1/2+x,1/2+y,1/2+z
1/2-x,-y,1/2+z
1/2+x,1/2-y,-z
-x,1/2+y,1/2-z
loop_
_atom_site_type_symbol
_atom_site_label
_atom_site_fract_x
_atom_site_fract_y
_atom_site_fract_z
Si Si1 0.698867 0.000000 0.250000
Si Si2 0.750000 0.796547 0.500000
Si Si3 0.036340 0.638910 0.697417
Si Si4 0.947061 0.679063 0.179038
Si Si5 0.485314 0.053634 0.564860
O O1 0.516017 0.061160 0.215704
O O2 0.896453 0.015383 0.341578
O O3 0.500000 0.750000 0.531797
O O4 0.865452 0.840497 0.589213
O O5 0.271602 0.658573 0.772680
O O6 0.771791 0.677480 0.732963
O O7 0.000000 0.750000 0.134338
O O8 0.865196 0.622039 0.104493
O O9 0.750000 0.067116 0.500000
O O10 0.250000 0.020490 0.500000
#
# Coordination Sequence:
#
# PCOD9336323 Si02
#       5
#     4   4   8   8   8
#     4  10  26  48  68 104 148 192 250 292 374 432
#     4  12  24  42  66 106 140 180 250 304 370 442
#     4  11  24  42  68  99 137 192 229 302 358 427
#     4  11  23  43  68  98 137 182 230 290 362 423
#     4  11  25  44  69 102 140 188 239 300 353 432
#
# _framework density 23.397317999999999
#
# number of rings (size 3 to 8) (size 9 to 14) (size 15 to 20)
#    0.000    1.000    0.000    7.500    1.750   10.000 
#    2.250    0.000    0.000    0.000    0.000    0.000 
#    0.000    0.000    0.000    0.000    0.000    0.000 
#
# Total GULP energy -89571.163638 kJ/mol
# GULP energy per Si atom -5598.197727 kJ/mol
# Density = 2.334407 g / cm^3
# Si number density = 23.397318 Si / 1000 Ang^3
#
#
#
# Elastic Constant Matrix: (Units=GPa)
#
#
# Indices 1 2 3 4 5 6 
#
# 1 89.2697 28.1542 6.3508 0.0000 0.0000 0.0000
# 2 28.1542 50.8643 33.0481 0.0000 0.0000 0.0000
# 3 6.3508 33.0481 109.9731 -0.0001 0.0000 0.0001
# 4 0.0000 0.0000 -0.0001 -14.1306 0.0000 0.0016
# 5 0.0000 0.0000 0.0000 0.0000 33.4745 -0.0001
# 6 0.0000 0.0000 0.0001 0.0016 -0.0001-1284.8282
#
#
#
# Elastic Compliance Matrix: (Units=1/GPa)
#
#
# Indices 1 2 3 4 5 6 
#
# 1 0.013875 -0.008896 0.001872 0.000000 0.000000 0.000000
# 2 -0.008896 0.030134 -0.008542 0.000000 0.000000 0.000000
# 3 0.001872 -0.008542 0.011552 0.000000 0.000000 0.000000
# 4 0.000000 0.000000 0.000000 -0.070768 0.000000 0.000000
# 5 0.000000 0.000000 0.000000 0.000000 0.029873 0.000000
# 6 0.000000 0.000000 0.000000 0.000000 0.000000 -0.000778
#
#
# Mechanical properties :
#
#
# Convention : Reuss Voigt Hill
#
# Bulk Modulus (GPa) = 40.93514 42.80146 41.86830
# Shear Modulus (GPa) = 94.05118 -240.92661 -73.43772
#
# Velocity S-wave (km/s) = 6.34702 -10.15852 -5.60851
# Velocity P-wave (km/s) = 8.44077 10.92066 4.89971
#
# Compressibility (1/GPa) = 0.02442889
#
# Stress axis : x y z
#
# Youngs Moduli (GPa) = 72.07453 33.18479 86.56540
#
# Poissons Ratio (x) = 0.29522 -0.16206
# Poissons Ratio (y) = 0.64119 0.73944
# Poissons Ratio (z) = -0.13493 0.28346
#
# Static dielectric constant tensor:
#      x y z
#    x 1.824850 0.000000 0.000000 
#    y 0.000000 1.979500 0.000000 
#    z 0.000000 0.000000 2.765630 
# 
# From -- ./inp_files/17389.got.cif
#   From: 2010.05.17/outbox.cif.g08.bks.cpg/sg24_9_cif.got.tgz:17389.got - 2010.06.04 00:33:39.
