data_PCOD9336099
_publ_section_title
;
Structure prediction by ZEFSAII (Michael W. Deem and Ramdas Pophale) SiO2 
 PCOD9336099
Probable space group: I 21 21 21
;
_chemical_formula_sum "Si O2"
_cell_formula_units_Z 40
_cell_length_a 20.714805
_cell_length_b 16.315740
_cell_length_c 4.995653
_cell_angle_alpha 90.000000
_cell_angle_beta 90.000000
_cell_angle_gamma 90.000000
_cell_volume 1688.417675
_symmetry_space_group_name_H-M "I 21 21 21"
_symmetry_group_IT_number 24
_symmetry_cell_setting 'orthorhombic'
loop_
_space_group_symop_operation_xyz
x,y,z
-x,1/2-y,z
x,-y,1/2-z
1/2-x,y,-z
1/2+x,1/2+y,1/2+z
1/2-x,-y,1/2+z
1/2+x,1/2-y,-z
-x,1/2+y,1/2-z
loop_
_atom_site_type_symbol
_atom_site_label
_atom_site_fract_x
_atom_site_fract_y
_atom_site_fract_z
Si Si1 0.584948 0.420396 0.851983
Si Si2 0.184081 0.196961 0.868719
Si Si3 0.250000 0.442394 0.500000
Si Si4 0.654485 0.800394 0.849133
Si Si5 0.982174 0.834801 0.979485
Si Si6 0.516229 0.000000 0.250000
O O1 0.624580 0.500000 0.750000
O O2 0.546126 0.367019 0.632159
O O3 0.627057 0.364164 0.045576
O O4 0.529334 0.465583 0.017885
O O5 0.176452 0.229013 0.563683
O O6 0.250000 0.160854 0.000000
O O7 0.175988 0.276910 0.053110
O O8 0.235406 0.500000 0.750000
O O9 0.190590 0.382374 0.434519
O O10 0.577516 0.808409 0.838105
O O11 0.000000 0.750000 0.825811
O O12 0.952257 0.914940 0.836411
#
# Coordination Sequence:
#
# PCOD9336099 Si02
#       6
#     8   8   4   8   8   4
#     4  10  24  44  66 104 144 183 237 301 363 425
#     4  12  24  48  73 102 141 188 241 293 351 434
#     4  12  26  46  70 102 148 186 234 296 362 422
#     4  12  26  45  73 105 140 188 242 289 357 431
#     4  11  23  42  71 103 138 191 233 297 364 428
#     4  10  24  42  66 104 144 178 238 302 356 440
#
# _framework density 23.690819999999999
#
# number of rings (size 3 to 8) (size 9 to 14) (size 15 to 20)
#    0.000    0.800    4.000    2.400    7.000    3.200 
#    1.800    0.000    0.000    0.000    0.000    0.000 
#    0.000    0.000    0.000    0.000    0.000    0.000 
#
# Total GULP energy -111587.956598 kJ/mol
# GULP energy per Si atom -5579.397830 kJ/mol
# Density = 2.363690 g / cm^3
# Si number density = 23.690820 Si / 1000 Ang^3
#
#
#
# Elastic Constant Matrix: (Units=GPa)
#
#
# Indices 1 2 3 4 5 6 
#
# 1 67.5720 19.2869 -15.5437 0.0000 0.0000 0.0000
# 2 19.2869 153.9940 6.5080 0.0000 0.0000 0.0000
# 3 -15.5437 6.5080 46.6522 0.0000 0.0000 0.0000
# 4 0.0000 0.0000 0.0000 33.8570 0.0000 0.0000
# 5 0.0000 0.0000 0.0000 0.0000 19.2935 0.0000
# 6 0.0000 0.0000 0.0000 0.0000 0.0000 -43.1356
#
#
#
# Elastic Compliance Matrix: (Units=1/GPa)
#
#
# Indices 1 2 3 4 5 6 
#
# 1 0.016839 -0.002360 0.005940 0.000000 0.000000 0.000000
# 2 -0.002360 0.006863 -0.001744 0.000000 0.000000 0.000000
# 3 0.005940 -0.001744 0.023657 0.000000 0.000000 0.000000
# 4 0.000000 0.000000 0.000000 0.029536 0.000000 0.000000
# 5 0.000000 0.000000 0.000000 0.000000 0.051831 0.000000
# 6 0.000000 0.000000 0.000000 0.000000 0.000000 -0.023183
#
#
# Mechanical properties :
#
#
# Convention : Reuss Voigt Hill
#
# Bulk Modulus (GPa) = 19.59579 32.08006 25.83792
# Shear Modulus (GPa) = 42.05841 19.20077 30.62959
#
# Velocity S-wave (km/s) = 4.21801 2.84997 3.59958
# Velocity P-wave (km/s) = 5.65787 4.93967 5.31092
#
# Compressibility (1/GPa) = 0.05103138
#
# Stress axis : x y z
#
# Youngs Moduli (GPa) = 59.38612 145.70829 42.26993
#
# Poissons Ratio (x) = 0.34387 -0.25107
# Poissons Ratio (y) = 0.14015 0.07371
# Poissons Ratio (z) = -0.35273 0.25407
#
# Static dielectric constant tensor:
#      x y z
#    x 1.964860 0.000000 0.000000 
#    y 0.000000 2.050980 0.000000 
#    z 0.000000 0.000000 1.957120 
# 
# From -- ./inp_files/3551.got.cif
#   From: 2010.05.17/outbox.cif.g08.bks.cpg/sg24_2_cif.got.tgz:3551.got - 2010.06.04 00:33:39.
