data_PCOD9336660
_publ_section_title
;
Structure prediction by ZEFSAII (Michael W. Deem and Ramdas Pophale) SiO2 
 PCOD9336660
Probable space group: I 21 21 21
;
_chemical_formula_sum "Si O2"
_cell_formula_units_Z 48
_cell_length_a 28.252757
_cell_length_b 9.234433
_cell_length_c 6.650454
_cell_angle_alpha 90.000000
_cell_angle_beta 90.000000
_cell_angle_gamma 90.000000
_cell_volume 1735.091422
_symmetry_space_group_name_H-M "I 21 21 21"
_symmetry_group_IT_number 24
_symmetry_cell_setting 'orthorhombic'
loop_
_space_group_symop_operation_xyz
x,y,z
-x,1/2-y,z
x,-y,1/2-z
1/2-x,y,-z
1/2+x,1/2+y,1/2+z
1/2-x,-y,1/2+z
1/2+x,1/2-y,-z
-x,1/2+y,1/2-z
loop_
_atom_site_type_symbol
_atom_site_label
_atom_site_fract_x
_atom_site_fract_y
_atom_site_fract_z
Si Si1 0.111867 0.869629 0.135362
Si Si2 0.461928 0.619673 0.871174
Si Si3 0.205862 0.175125 0.108698
Si Si4 0.796440 0.093416 0.418881
Si Si5 0.360305 0.740543 0.245326
Si Si6 0.538549 0.881398 0.374349
O O1 0.086331 0.715206 0.139502
O O2 0.160011 0.867526 0.260264
O O3 0.083636 0.000000 0.250000
O O4 0.124703 0.877036 0.898640
O O5 0.500000 0.750000 0.871856
O O6 0.463898 0.571769 0.623090
O O7 0.466638 0.574228 0.122972
O O8 0.226633 0.277706 0.284820
O O9 0.250000 0.092397 0.000000
O O10 0.177876 0.232916 0.916277
O O11 0.750000 0.012421 0.500000
O O12 0.832770 0.136385 0.589500
O O13 0.822377 0.000000 0.250000
O O14 0.407267 0.678395 0.350278
O O15 0.500000 0.750000 0.378783
#
# Coordination Sequence:
#
# PCOD9336660 Si02
#       6
#     8   8   8   8   8   8
#     4  11  27  49  75 119 163 215 281 339 418 504
#     4  12  26  50  81 118 163 214 275 353 420 510
#     4  11  24  47  73 109 158 214 274 340 417 491
#     4  11  24  39  70 114 162 211 272 339 415 498
#     4  11  26  47  77 112 165 212 277 343 411 490
#     4  12  27  50  79 119 161 218 276 342 422 502
#
# _framework density 27.664249999999999
#
# number of rings (size 3 to 8) (size 9 to 14) (size 15 to 20)
#    0.000    0.667    3.333    3.000    2.333    4.667 
#    3.000    0.000    0.000    1.000    0.000    0.000 
#    0.000    0.000    0.000    0.000    0.000    0.000 
#
# Total GULP energy -133867.126787 kJ/mol
# GULP energy per Si atom -5577.796949 kJ/mol
# Density = 2.760128 g / cm^3
# Si number density = 27.664250 Si / 1000 Ang^3
#
#
#
# Elastic Constant Matrix: (Units=GPa)
#
#
# Indices 1 2 3 4 5 6 
#
# 1 198.4762 89.1277 81.1384 0.0000 -0.0001 0.0000
# 2 89.1277 144.6996 115.6421 0.0000 -0.0002 0.0000
# 3 81.1384 115.6421 282.8149 -0.0001 -0.0006 0.0000
# 4 0.0000 0.0000 -0.0001 33.2239 -0.0005 0.0000
# 5 -0.0001 -0.0002 -0.0006 -0.0005 -224.3307 0.0000
# 6 0.0000 0.0000 0.0000 0.0000 0.0000 18.3619
#
#
#
# Elastic Compliance Matrix: (Units=1/GPa)
#
#
# Indices 1 2 3 4 5 6 
#
# 1 0.006990 -0.004015 -0.000364 0.000000 0.000000 0.000000
# 2 -0.004015 0.012571 -0.003989 0.000000 0.000000 0.000000
# 3 -0.000364 -0.003989 0.005271 0.000000 0.000000 0.000000
# 4 0.000000 0.000000 0.000000 0.030099 0.000000 0.000000
# 5 0.000000 0.000000 0.000000 0.000000 -0.004458 0.000000
# 6 0.000000 0.000000 0.000000 0.000000 0.000000 0.054460
#
#
# Mechanical properties :
#
#
# Convention : Reuss Voigt Hill
#
# Bulk Modulus (GPa) = 123.48269 133.08971 128.28620
# Shear Modulus (GPa) = 40.20335 -11.87681 14.16327
#
# Velocity S-wave (km/s) = 3.81630 -2.07425 2.26513
# Velocity P-wave (km/s) = 8.00949 6.51741 7.30167
#
# Compressibility (1/GPa) = 0.00809830
#
# Stress axis : x y z
#
# Youngs Moduli (GPa) = 143.06232 79.54577 189.71133
#
# Poissons Ratio (x) = 0.31936 0.06901
# Poissons Ratio (y) = 0.57436 0.75668
# Poissons Ratio (z) = 0.05204 0.31728
#
# Static dielectric constant tensor:
#      x y z
#    x 2.273040 0.000000 0.000000 
#    y 0.000000 3.364370 0.000000 
#    z 0.000000 0.000000 2.189630 
# 
# From -- ./inp_files/7697.got.cif
#   From: 2010.05.17/outbox.cif.g08.bks.cpg/sg24_4_cif.got.tgz:7697.got - 2010.06.04 00:33:39.
