data_PCOD9336451
_publ_section_title
;
Structure prediction by ZEFSAII (Michael W. Deem and Ramdas Pophale) SiO2 
 PCOD9336451
Probable space group: I 21 21 21
;
_chemical_formula_sum "Si O2"
_cell_formula_units_Z 36
_cell_length_a 5.246743
_cell_length_b 26.236476
_cell_length_c 11.733955
_cell_angle_alpha 90.000000
_cell_angle_beta 90.000000
_cell_angle_gamma 90.000000
_cell_volume 1615.249859
_symmetry_space_group_name_H-M "I 21 21 21"
_symmetry_group_IT_number 24
_symmetry_cell_setting 'orthorhombic'
loop_
_space_group_symop_operation_xyz
x,y,z
-x,1/2-y,z
x,-y,1/2-z
1/2-x,y,-z
1/2+x,1/2+y,1/2+z
1/2-x,-y,1/2+z
1/2+x,1/2-y,-z
-x,1/2+y,1/2-z
loop_
_atom_site_type_symbol
_atom_site_label
_atom_site_fract_x
_atom_site_fract_y
_atom_site_fract_z
Si Si1 0.282752 0.939524 0.763947
Si Si2 0.069373 0.304218 0.587097
Si Si3 0.250000 0.112619 0.500000
Si Si4 0.723349 0.901027 0.370660
Si Si5 0.754760 0.217903 0.838297
O O1 0.533422 0.919493 0.700095
O O2 0.032480 0.915869 0.699689
O O3 0.259946 0.000000 0.750000
O O4 0.322594 0.926341 0.898079
O O5 0.250000 0.334098 0.500000
O O6 0.205910 0.289794 0.702604
O O7 0.000000 0.250000 0.532997
O O8 0.841567 0.343303 0.593079
O O9 0.750000 0.921685 0.500000
O O10 0.739961 0.839674 0.380031
O O11 0.500000 0.250000 0.858566
O O12 0.000000 0.250000 0.878489
#
# Coordination Sequence:
#
# PCOD9336451 Si02
#       5
#     8   8   4   8   8
#     4  12  29  52  76 111 146 199 259 320 386 442
#     4  11  21  35  62 101 148 191 227 293 369 448
#     4  12  26  44  76 108 150 194 250 312 380 462
#     4  12  27  50  77 107 153 197 254 313 372 450
#     4  11  24  41  68 105 152 194 243 295 366 456
#
# _framework density 22.287575
#
# number of rings (size 3 to 8) (size 9 to 14) (size 15 to 20)
#    0.000    0.444    3.333    4.667    9.333    0.889 
#    0.000    0.000    0.000    0.000    0.000    0.000 
#    0.000    0.000    0.000    0.000    0.000    0.000 
#
# Total GULP energy -100250.142601 kJ/mol
# GULP energy per Si atom -5569.452367 kJ/mol
# Density = 2.223685 g / cm^3
# Si number density = 22.287575 Si / 1000 Ang^3
#
#
#
# Elastic Constant Matrix: (Units=GPa)
#
#
# Indices 1 2 3 4 5 6 
#
# 1 162.1097 53.2654 66.7498 0.0000 0.0000 0.0000
# 2 53.2654 164.3738 35.1847 0.0000 0.0000 0.0000
# 3 66.7498 35.1847 190.8872 0.0000 0.0000 0.0000
# 4 0.0000 0.0000 0.0000 30.5753 0.0000 0.0000
# 5 0.0000 0.0000 0.0000 0.0000 -46.6443 0.0000
# 6 0.0000 0.0000 0.0000 0.0000 0.0000 27.2588
#
#
#
# Elastic Compliance Matrix: (Units=1/GPa)
#
#
# Indices 1 2 3 4 5 6 
#
# 1 0.007804 -0.002025 -0.002356 0.000000 0.000000 0.000000
# 2 -0.002025 0.006859 -0.000556 0.000000 0.000000 0.000000
# 3 -0.002356 -0.000556 0.006165 0.000000 0.000000 0.000000
# 4 0.000000 0.000000 0.000000 0.032706 0.000000 0.000000
# 5 0.000000 0.000000 0.000000 0.000000 -0.021439 0.000000
# 6 0.000000 0.000000 0.000000 0.000000 0.000000 0.036685
#
#
# Mechanical properties :
#
#
# Convention : Reuss Voigt Hill
#
# Bulk Modulus (GPa) = 91.28627 91.97452 91.63039
# Shear Modulus (GPa) = 60.74964 26.38268 43.56616
#
# Velocity S-wave (km/s) = 5.22650 3.44428 4.42603
# Velocity P-wave (km/s) = 8.80165 7.56136 8.20498
#
# Compressibility (1/GPa) = 0.01095455
#
# Stress axis : x y z
#
# Youngs Moduli (GPa) = 128.14144 145.79724 162.20674
#
# Poissons Ratio (x) = 0.29518 0.38211
# Poissons Ratio (y) = 0.25944 0.09023
# Poissons Ratio (z) = 0.30186 0.08110
#
# Static dielectric constant tensor:
#      x y z
#    x 1.849050 0.000000 0.000000 
#    y 0.000000 1.787730 0.000000 
#    z 0.000000 0.000000 1.990520 
# 
# From -- ./inp_files/17525.got.cif
#   From: 2010.05.17/outbox.cif.g08.bks.cpg/sg24_9_cif.got.tgz:17525.got - 2010.06.04 00:33:39.
