data_PCOD9336798
_publ_section_title
;
Structure prediction by ZEFSAII (Michael W. Deem and Ramdas Pophale) SiO2 
 PCOD9336798
Probable space group: I 21 21 21
;
_chemical_formula_sum "Si O2"
_cell_formula_units_Z 32
_cell_length_a 11.991301
_cell_length_b 13.773569
_cell_length_c 7.520742
_cell_angle_alpha 90.000000
_cell_angle_beta 90.000000
_cell_angle_gamma 90.000000
_cell_volume 1242.148399
_symmetry_space_group_name_H-M "I 21 21 21"
_symmetry_group_IT_number 24
_symmetry_cell_setting 'orthorhombic'
loop_
_space_group_symop_operation_xyz
x,y,z
-x,1/2-y,z
x,-y,1/2-z
1/2-x,y,-z
1/2+x,1/2+y,1/2+z
1/2-x,-y,1/2+z
1/2+x,1/2-y,-z
-x,1/2+y,1/2-z
loop_
_atom_site_type_symbol
_atom_site_label
_atom_site_fract_x
_atom_site_fract_y
_atom_site_fract_z
Si Si1 0.702225 0.113795 0.696732
Si Si2 0.365284 0.054294 0.977124
Si Si3 0.124511 0.222647 0.747261
Si Si4 0.451538 0.868900 0.884905
O O1 0.750000 0.113054 0.500000
O O2 0.787295 0.191493 0.785691
O O3 0.574737 0.152854 0.691714
O O4 0.703555 0.000000 0.750000
O O5 0.379292 0.110162 0.790539
O O6 0.462653 0.975038 0.979918
O O7 0.250000 0.995815 0.000000
O O8 0.355561 0.128331 0.136188
O O9 0.107107 0.194672 0.538269
O O10 0.000000 0.250000 0.805222
#
# Coordination Sequence:
#
# PCOD9336798 Si02
#       4
#     8   8   8   8
#     4  12  28  53  82 117 169 219 273 351 420 490
#     4  11  28  48  82 115 160 214 276 337 415 496
#     4  12  29  47  82 120 159 211 280 341 412 494
#     4  11  27  54  80 121 164 217 275 344 418 498
#
# _framework density 25.761817000000001
#
# number of rings (size 3 to 8) (size 9 to 14) (size 15 to 20)
#    0.000    0.500    5.000    0.750   14.000    4.000 
#    0.000    0.000    0.000    0.000    0.000    0.000 
#    0.000    0.000    0.000    0.000    0.000    0.000 
#
# Total GULP energy -89439.312087 kJ/mol
# GULP energy per Si atom -5589.957005 kJ/mol
# Density = 2.570318 g / cm^3
# Si number density = 25.761817 Si / 1000 Ang^3
#
#
#
# Elastic Constant Matrix: (Units=GPa)
#
#
# Indices 1 2 3 4 5 6 
#
# 1 189.1529 46.5005 36.2223 0.0000 0.0000 0.0000
# 2 46.5005 140.4109 30.1848 0.0000 0.0000 0.0000
# 3 36.2223 30.1848 79.1684 0.0000 0.0000 0.0000
# 4 0.0000 0.0000 0.0000 48.7586 0.0000 0.0000
# 5 0.0000 0.0000 0.0000 0.0000 28.0697 0.0000
# 6 0.0000 0.0000 0.0000 0.0000 0.0000 52.8724
#
#
#
# Elastic Compliance Matrix: (Units=1/GPa)
#
#
# Indices 1 2 3 4 5 6 
#
# 1 0.006087 -0.001544 -0.002196 0.000000 0.000000 0.000000
# 2 -0.001544 0.008149 -0.002401 0.000000 0.000000 0.000000
# 3 -0.002196 -0.002401 0.014552 0.000000 0.000000 0.000000
# 4 0.000000 0.000000 0.000000 0.020509 0.000000 0.000000
# 5 0.000000 0.000000 0.000000 0.000000 0.035626 0.000000
# 6 0.000000 0.000000 0.000000 0.000000 0.000000 0.018913
#
#
# Mechanical properties :
#
#
# Convention : Reuss Voigt Hill
#
# Bulk Modulus (GPa) = 60.58406 70.50526 65.54466
# Shear Modulus (GPa) = 41.11179 45.66178 43.38678
#
# Velocity S-wave (km/s) = 3.99913 4.21463 4.10829
# Velocity P-wave (km/s) = 6.70016 7.14924 6.92834
#
# Compressibility (1/GPa) = 0.01650599
#
# Stress axis : x y z
#
# Youngs Moduli (GPa) = 164.28976 122.71010 68.72098
#
# Poissons Ratio (x) = 0.18942 0.15094
# Poissons Ratio (y) = 0.25360 0.16499
# Poissons Ratio (z) = 0.36084 0.29461
#
# Static dielectric constant tensor:
#      x y z
#    x 2.193940 0.000000 0.000000 
#    y 0.000000 2.157770 0.000000 
#    z 0.000000 0.000000 2.120940 
# 
# From -- ./inp_files/10249.got.cif
#   From: 2010.05.17/outbox.cif.g08.bks.cpg/sg24_6_cif.got.tgz:10249.got - 2010.06.04 00:33:39.
