data_PCOD9336165
_publ_section_title
;
Structure prediction by ZEFSAII (Michael W. Deem and Ramdas Pophale) SiO2 
 PCOD9336165
Probable space group: I 21 21 21
;
_chemical_formula_sum "Si O2"
_cell_formula_units_Z 40
_cell_length_a 17.648677
_cell_length_b 5.168087
_cell_length_c 21.039437
_cell_angle_alpha 90.000000
_cell_angle_beta 90.000000
_cell_angle_gamma 90.000000
_cell_volume 1919.004906
_symmetry_space_group_name_H-M "I 21 21 21"
_symmetry_group_IT_number 24
_symmetry_cell_setting 'orthorhombic'
loop_
_space_group_symop_operation_xyz
x,y,z
-x,1/2-y,z
x,-y,1/2-z
1/2-x,y,-z
1/2+x,1/2+y,1/2+z
1/2-x,-y,1/2+z
1/2+x,1/2-y,-z
-x,1/2+y,1/2-z
loop_
_atom_site_type_symbol
_atom_site_label
_atom_site_fract_x
_atom_site_fract_y
_atom_site_fract_z
Si Si1 0.000000 0.250000 0.059287
Si Si2 0.147925 0.005723 0.073904
Si Si3 0.380134 0.342407 0.037426
Si Si4 0.685188 0.000000 0.250000
Si Si5 0.739682 0.006741 0.611921
Si Si6 0.500000 0.750000 0.355976
Si Si7 0.420788 0.000000 0.250000
O O1 0.944481 0.074718 0.014123
O O2 0.939152 0.431660 0.093758
O O3 0.352201 0.080457 0.001602
O O4 0.199785 0.229388 0.104147
O O5 0.181600 0.732280 0.092783
O O6 0.309011 0.505524 0.061193
O O7 0.428440 0.298971 0.100051
O O8 0.732010 0.028142 0.315575
O O9 0.632411 0.251477 0.246646
O O10 0.475022 0.980699 0.310493
#
# Coordination Sequence:
#
# PCOD9336165 Si02
#       7
#     4   8   8   4   8   4   4
#     4   7  20  46  64 104 128 180 223 286 362 425
#     4  10  24  44  70  99 139 179 234 299 370 419
#     4   9  21  44  66 105 141 184 231 297 355 433
#     4  12  27  46  68  98 143 196 250 292 353 430
#     4  12  24  45  68 100 142 184 238 291 358 434
#     4  11  22  44  68 102 150 194 249 280 356 443
#     4  12  25  46  66 100 145 206 236 290 341 436
#
# _framework density 20.844135999999999
#
# number of rings (size 3 to 8) (size 9 to 14) (size 15 to 20)
#    1.200    0.400    2.000    2.400    0.000    4.000 
#    0.000    2.000    0.000    2.400    0.000    0.000 
#    0.000    0.000    0.000    0.000    0.000    0.000 
#
# Total GULP energy -111526.695665 kJ/mol
# GULP energy per Si atom -5576.334783 kJ/mol
# Density = 2.079669 g / cm^3
# Si number density = 20.844136 Si / 1000 Ang^3
#
#
#
# Elastic Constant Matrix: (Units=GPa)
#
#
# Indices 1 2 3 4 5 6 
#
# 1 118.4265 41.2076 53.3829 0.0000 0.0000 0.0000
# 2 41.2076 92.1325 28.4415 0.0000 0.0000 0.0000
# 3 53.3829 28.4415 100.6126 0.0000 0.0000 0.0000
# 4 0.0000 0.0000 0.0000 -15.6001 0.0000 0.0000
# 5 0.0000 0.0000 0.0000 0.0000 50.6506 0.0000
# 6 0.0000 0.0000 0.0000 0.0000 0.0000 32.8214
#
#
#
# Elastic Compliance Matrix: (Units=1/GPa)
#
#
# Indices 1 2 3 4 5 6 
#
# 1 0.012196 -0.003788 -0.005400 0.000000 0.000000 0.000000
# 2 -0.003788 0.013068 -0.001684 0.000000 0.000000 0.000000
# 3 -0.005400 -0.001684 0.013281 0.000000 0.000000 0.000000
# 4 0.000000 0.000000 0.000000 -0.064102 0.000000 0.000000
# 5 0.000000 0.000000 0.000000 0.000000 0.019743 0.000000
# 6 0.000000 0.000000 0.000000 0.000000 0.000000 0.030468
#
#
# Mechanical properties :
#
#
# Convention : Reuss Voigt Hill
#
# Bulk Modulus (GPa) = 59.52449 61.91507 60.71978
# Shear Modulus (GPa) = 96.15524 26.11702 61.13613
#
# Velocity S-wave (km/s) = 6.79932 3.54357 5.42161
# Velocity P-wave (km/s) = 9.50052 6.81988 8.26954
#
# Compressibility (1/GPa) = 0.01679981
#
# Stress axis : x y z
#
# Youngs Moduli (GPa) = 81.99129 76.52230 75.29791
#
# Poissons Ratio (x) = 0.28986 0.40664
# Poissons Ratio (y) = 0.31058 0.12683
# Poissons Ratio (z) = 0.44278 0.12889
#
# Static dielectric constant tensor:
#      x y z
#    x 1.793180 0.000000 0.000000 
#    y 0.000000 1.766990 0.000000 
#    z 0.000000 0.000000 1.762570 
# 
# From -- ./inp_files/35765.got.cif
#   From: 2010.05.17/outbox.cif.g08.bks.cpg/sg24_18_cif.got.tgz:35765.got - 2010.06.04 00:33:39.
