data_PCOD9336520
_publ_section_title
;
Structure prediction by ZEFSAII (Michael W. Deem and Ramdas Pophale) SiO2 
 PCOD9336520
Probable space group: I 21 21 21
;
_chemical_formula_sum "Si O2"
_cell_formula_units_Z 40
_cell_length_a 7.578235
_cell_length_b 19.815938
_cell_length_c 12.768187
_cell_angle_alpha 90.000000
_cell_angle_beta 90.000000
_cell_angle_gamma 90.000000
_cell_volume 1917.396534
_symmetry_space_group_name_H-M "I 21 21 21"
_symmetry_group_IT_number 24
_symmetry_cell_setting 'orthorhombic'
loop_
_space_group_symop_operation_xyz
x,y,z
-x,1/2-y,z
x,-y,1/2-z
1/2-x,y,-z
1/2+x,1/2+y,1/2+z
1/2-x,-y,1/2+z
1/2+x,1/2-y,-z
-x,1/2+y,1/2-z
loop_
_atom_site_type_symbol
_atom_site_label
_atom_site_fract_x
_atom_site_fract_y
_atom_site_fract_z
Si Si1 0.056186 0.170950 0.748111
Si Si2 0.750000 0.494986 0.500000
Si Si3 0.952813 0.828428 0.521756
Si Si4 0.123664 0.096098 0.170775
Si Si5 0.322801 0.500000 0.750000
Si Si6 0.101481 0.427380 0.579171
O O1 0.259614 0.144684 0.754856
O O2 0.000000 0.250000 0.740619
O O3 0.991947 0.146421 0.862224
O O4 0.962879 0.130519 0.656768
O O5 0.727599 0.536271 0.609504
O O6 0.568241 0.454911 0.483090
O O7 0.750000 0.838987 0.500000
O O8 0.000000 0.750000 0.521906
O O9 0.061532 0.861007 0.428904
O O10 0.955006 0.062477 0.226684
O O11 0.198554 0.483741 0.650973
O O12 0.250000 0.402438 0.500000
#
# Coordination Sequence:
#
# PCOD9336520 Si02
#       6
#     8   4   8   8   4   8
#     4  11  24  46  69 101 143 187 245 298 360 437
#     4  12  24  46  70 100 140 182 226 294 358 432
#     4  11  22  38  65  98 137 178 227 290 357 427
#     4  12  23  42  69 107 137 189 229 291 372 424
#     4  12  26  42  72 104 144 186 238 308 366 446
#     4  12  27  47  70 103 140 188 243 296 367 433
#
# _framework density 20.861619999999998
#
# number of rings (size 3 to 8) (size 9 to 14) (size 15 to 20)
#    0.000    0.400    4.000    6.000    2.800    0.000 
#    1.800    0.000    0.000    0.000    0.000    0.000 
#    0.000    0.000    0.000    0.000    0.000    0.000 
#
# Total GULP energy -111792.067315 kJ/mol
# GULP energy per Si atom -5589.603366 kJ/mol
# Density = 2.081414 g / cm^3
# Si number density = 20.861620 Si / 1000 Ang^3
#
#
#
# Elastic Constant Matrix: (Units=GPa)
#
#
# Indices 1 2 3 4 5 6 
#
# 1 153.5162 65.2528 59.0153 0.0000 0.0000 0.0000
# 2 65.2528 99.2384 49.5652 0.0000 0.0000 0.0000
# 3 59.0153 49.5652 97.1196 0.0000 0.0000 0.0000
# 4 0.0000 0.0000 0.0000 31.5189 0.0000 0.0000
# 5 0.0000 0.0000 0.0000 0.0000 -2.5179 0.0000
# 6 0.0000 0.0000 0.0000 0.0000 0.0000 26.6378
#
#
#
# Elastic Compliance Matrix: (Units=1/GPa)
#
#
# Indices 1 2 3 4 5 6 
#
# 1 0.009905 -0.004706 -0.003617 0.000000 0.000000 0.000000
# 2 -0.004706 0.015760 -0.005183 0.000000 0.000000 0.000000
# 3 -0.003617 -0.005183 0.015140 0.000000 0.000000 0.000000
# 4 0.000000 0.000000 0.000000 0.031727 0.000000 0.000000
# 5 0.000000 0.000000 0.000000 0.000000 -0.397155 0.000000
# 6 0.000000 0.000000 0.000000 0.000000 0.000000 0.037541
#
#
# Mechanical properties :
#
#
# Convention : Reuss Voigt Hill
#
# Bulk Modulus (GPa) = 72.50794 77.50454 75.00624
# Shear Modulus (GPa) = -19.57163 22.86381 1.64609
#
# Velocity S-wave (km/s) = -3.06627 3.31414 0.88925
# Velocity P-wave (km/s) = 4.72187 7.20258 6.08988
#
# Compressibility (1/GPa) = 0.01379159
#
# Stress axis : x y z
#
# Youngs Moduli (GPa) = 100.96108 63.45091 66.05125
#
# Poissons Ratio (x) = 0.29862 0.23890
# Poissons Ratio (y) = 0.47515 0.34237
# Poissons Ratio (z) = 0.36516 0.32889
#
# Static dielectric constant tensor:
#      x y z
#    x 1.784330 0.000000 0.000000 
#    y 0.000000 1.785400 0.000000 
#    z 0.000000 0.000000 1.724760 
# 
# From -- ./inp_files/18245.got.cif
#   From: 2010.05.17/outbox.cif.g08.bks.cpg/sg24_10_cif.got.tgz:18245.got - 2010.06.04 00:33:39.
