data_PCOD9336889
_publ_section_title
;
Structure prediction by ZEFSAII (Michael W. Deem and Ramdas Pophale) SiO2 
 PCOD9336889
Probable space group: I 21 21 21
;
_chemical_formula_sum "Si O2"
_cell_formula_units_Z 24
_cell_length_a 17.745996
_cell_length_b 6.791878
_cell_length_c 8.231014
_cell_angle_alpha 90.000000
_cell_angle_beta 90.000000
_cell_angle_gamma 90.000000
_cell_volume 992.072922
_symmetry_space_group_name_H-M "I 21 21 21"
_symmetry_group_IT_number 24
_symmetry_cell_setting 'orthorhombic'
loop_
_space_group_symop_operation_xyz
x,y,z
-x,1/2-y,z
x,-y,1/2-z
1/2-x,y,-z
1/2+x,1/2+y,1/2+z
1/2-x,-y,1/2+z
1/2+x,1/2-y,-z
-x,1/2+y,1/2-z
loop_
_atom_site_type_symbol
_atom_site_label
_atom_site_fract_x
_atom_site_fract_y
_atom_site_fract_z
Si Si1 0.163481 0.990605 0.051426
Si Si2 0.075177 0.671300 0.645203
Si Si3 0.071020 0.370910 0.386279
O O1 0.156473 0.000000 0.250000
O O2 0.122814 0.783090 0.020021
O O3 0.250000 0.984838 0.000000
O O4 0.125445 0.162369 0.941511
O O5 0.115906 0.500000 0.750000
O O6 0.040020 0.539617 0.501645
O O7 0.000000 0.750000 0.734205
O O8 0.113205 0.500000 0.250000
O O9 0.000000 0.250000 0.318820
#
# Coordination Sequence:
#
# PCOD9336889 Si02
#       3
#     8   8   8
#     4  12  29  51  75 113 160 209 263 327 390 466
#     4  12  27  47  80 117 154 202 261 325 391 466
#     4  12  23  46  81 110 148 201 265 319 388 467
#
# _framework density 24.191769000000001
#
# number of rings (size 3 to 8) (size 9 to 14) (size 15 to 20)
#    0.000    0.000    6.667    3.000    4.667    1.333 
#    0.000    0.000    0.000    0.000    0.000    0.000 
#    0.000    0.000    0.000    0.000    0.000    0.000 
#
# Total GULP energy -66979.034596 kJ/mol
# GULP energy per Si atom -5581.586216 kJ/mol
# Density = 2.413671 g / cm^3
# Si number density = 24.191769 Si / 1000 Ang^3
#
#
#
# Elastic Constant Matrix: (Units=GPa)
#
#
# Indices 1 2 3 4 5 6 
#
# 1 160.3339 96.2823 30.0496 0.0000 0.0000 0.0000
# 2 96.2823 208.8091 64.8452 0.0000 0.0000 0.0000
# 3 30.0496 64.8452 75.8315 0.0000 0.0000 0.0000
# 4 0.0000 0.0000 0.0000 80.5183 0.0000 0.0000
# 5 0.0000 0.0000 0.0000 0.0000 33.0490 0.0000
# 6 0.0000 0.0000 0.0000 0.0000 0.0000 26.4659
#
#
#
# Elastic Compliance Matrix: (Units=1/GPa)
#
#
# Indices 1 2 3 4 5 6 
#
# 1 0.008625 -0.003970 -0.000023 0.000000 0.000000 0.000000
# 2 -0.003970 0.008348 -0.005565 0.000000 0.000000 0.000000
# 3 -0.000023 -0.005565 0.017955 0.000000 0.000000 0.000000
# 4 0.000000 0.000000 0.000000 0.012420 0.000000 0.000000
# 5 0.000000 0.000000 0.000000 0.000000 0.030258 0.000000
# 6 0.000000 0.000000 0.000000 0.000000 0.000000 0.037784
#
#
# Mechanical properties :
#
#
# Convention : Reuss Voigt Hill
#
# Bulk Modulus (GPa) = 63.24421 91.92542 77.58482
# Shear Modulus (GPa) = 35.77098 44.92645 40.34871
#
# Velocity S-wave (km/s) = 3.84948 4.31408 4.08839
# Velocity P-wave (km/s) = 6.77921 7.93071 7.37746
#
# Compressibility (1/GPa) = 0.01581172
#
# Stress axis : x y z
#
# Youngs Moduli (GPa) = 115.93750 119.79024 55.69382
#
# Poissons Ratio (x) = 0.47556 0.00129
# Poissons Ratio (y) = 0.46027 0.30995
# Poissons Ratio (z) = 0.00268 0.66667
#
# Static dielectric constant tensor:
#      x y z
#    x 1.808400 0.000000 0.000000 
#    y 0.000000 1.959390 0.000000 
#    z 0.000000 0.000000 2.142600 
# 
# From -- ./inp_files/15535.got.cif
#   From: 2010.05.17/outbox.cif.g08.bks.cpg/sg24_8_cif.got.tgz:15535.got - 2010.06.04 00:33:39.
