data_PCOD9336157
_publ_section_title
;
Structure prediction by ZEFSAII (Michael W. Deem and Ramdas Pophale) SiO2 
 PCOD9336157
Probable space group: I 21 21 21
;
_chemical_formula_sum "Si O2"
_cell_formula_units_Z 60
_cell_length_a 9.141837
_cell_length_b 10.926173
_cell_length_c 28.555574
_cell_angle_alpha 90.000000
_cell_angle_beta 90.000000
_cell_angle_gamma 90.000000
_cell_volume 2852.281864
_symmetry_space_group_name_H-M "I 21 21 21"
_symmetry_group_IT_number 24
_symmetry_cell_setting 'orthorhombic'
loop_
_space_group_symop_operation_xyz
x,y,z
-x,1/2-y,z
x,-y,1/2-z
1/2-x,y,-z
1/2+x,1/2+y,1/2+z
1/2-x,-y,1/2+z
1/2+x,1/2-y,-z
-x,1/2+y,1/2-z
loop_
_atom_site_type_symbol
_atom_site_label
_atom_site_fract_x
_atom_site_fract_y
_atom_site_fract_z
Si Si1 0.331301 0.710411 0.454992
Si Si2 0.035507 0.115129 0.715515
Si Si3 0.593613 0.368827 0.907016
Si Si4 0.766749 0.417287 0.366109
Si Si5 0.500000 0.750000 0.824890
Si Si6 0.324508 0.752121 0.050825
Si Si7 0.307282 0.500784 0.904719
Si Si8 0.217087 0.439628 0.300611
O O1 0.500000 0.750000 0.461277
O O2 0.250000 0.654173 0.500000
O O3 0.219153 0.820317 0.441986
O O4 0.310819 0.604599 0.416515
O O5 0.160189 0.114724 0.676500
O O6 0.000000 0.250000 0.737534
O O7 0.884713 0.088940 0.688974
O O8 0.061392 0.000000 0.750000
O O9 0.500000 0.250000 0.891907
O O10 0.686266 0.441854 0.868515
O O11 0.465852 0.459846 0.925892
O O12 0.706653 0.367083 0.415076
O O13 0.913363 0.342288 0.357122
O O14 0.617918 0.820852 0.795011
O O15 0.500000 0.750000 0.045778
O O16 0.255185 0.630441 0.076466
O O17 0.250000 0.762956 0.000000
O O18 0.333194 0.497530 0.848611
O O19 0.212423 0.500000 0.250000
#
# Coordination Sequence:
#
# PCOD9336157 Si02
#       8
#     8   8   8   8   4   8   8   8
#     4  11  25  45  71 101 140 192 239 290 360 426
#     4  11  24  47  72 105 145 196 247 304 365 443
#     4  10  24  44  69 100 140 193 232 298 355 431
#     4  12  23  46  73 100 145 190 240 300 371 429
#     4  12  22  44  76  96 142 186 226 302 356 422
#     4  12  28  42  73 110 141 189 246 303 369 441
#     4  11  22  48  69  98 149 183 236 302 354 427
#     4  11  24  44  69 103 141 183 231 292 359 424
#
# _framework density 21.035789999999999
#
# number of rings (size 3 to 8) (size 9 to 14) (size 15 to 20)
#    0.000    0.800    4.000    2.800    6.533    1.067 
#   13.200    0.000    0.000    0.000    0.000    0.000 
#    0.000    0.000    0.000    0.000    0.000    0.000 
#
# Total GULP energy -167249.466807 kJ/mol
# GULP energy per Si atom -5574.982227 kJ/mol
# Density = 2.098791 g / cm^3
# Si number density = 21.035790 Si / 1000 Ang^3
#
#
#
# Elastic Constant Matrix: (Units=GPa)
#
#
# Indices 1 2 3 4 5 6 
#
# 1 146.1096 47.6187 53.4125 0.0000 0.0000 0.0000
# 2 47.6187 99.8016 45.9122 0.0000 0.0000 0.0000
# 3 53.4125 45.9122 76.5265 0.0000 0.0000 0.0000
# 4 0.0000 0.0000 0.0000 18.5021 0.0000 0.0000
# 5 0.0000 0.0000 0.0000 0.0000 23.3147 0.0000
# 6 0.0000 0.0000 0.0000 0.0000 0.0000 27.2197
#
#
#
# Elastic Compliance Matrix: (Units=1/GPa)
#
#
# Indices 1 2 3 4 5 6 
#
# 1 0.009481 -0.002044 -0.005391 0.000000 0.000000 0.000000
# 2 -0.002044 0.014280 -0.007141 0.000000 0.000000 0.000000
# 3 -0.005391 -0.007141 0.021115 0.000000 0.000000 0.000000
# 4 0.000000 0.000000 0.000000 0.054048 0.000000 0.000000
# 5 0.000000 0.000000 0.000000 0.000000 0.042891 0.000000
# 6 0.000000 0.000000 0.000000 0.000000 0.000000 0.036738
#
#
# Mechanical properties :
#
#
# Convention : Reuss Voigt Hill
#
# Bulk Modulus (GPa) = 63.59772 68.48050 66.03911
# Shear Modulus (GPa) = 23.48007 25.50691 24.49349
#
# Velocity S-wave (km/s) = 3.34458 3.48594 3.41599
# Velocity P-wave (km/s) = 6.72411 6.98766 6.85715
#
# Compressibility (1/GPa) = 0.01572383
#
# Stress axis : x y z
#
# Youngs Moduli (GPa) = 105.47311 70.02787 47.36046
#
# Poissons Ratio (x) = 0.14310 0.25534
# Poissons Ratio (y) = 0.21554 0.33820
# Poissons Ratio (z) = 0.56865 0.50007
#
# Static dielectric constant tensor:
#      x y z
#    x 1.776160 0.000000 0.000000 
#    y 0.000000 1.848630 0.000000 
#    z 0.000000 0.000000 1.772190 
# 
# From -- ./inp_files/38409.got.cif
#   From: 2010.05.17/outbox.cif.g08.bks.cpg/sg24_20_cif.got.tgz:38409.got - 2010.06.04 00:33:39.
