data_PCOD9336458
_publ_section_title
;
Structure prediction by ZEFSAII (Michael W. Deem and Ramdas Pophale) SiO2 
 PCOD9336458
Probable space group: I 21 21 21
;
_chemical_formula_sum "Si O2"
_cell_formula_units_Z 40
_cell_length_a 9.046361
_cell_length_b 14.601782
_cell_length_c 15.037419
_cell_angle_alpha 90.000000
_cell_angle_beta 90.000000
_cell_angle_gamma 90.000000
_cell_volume 1986.337656
_symmetry_space_group_name_H-M "I 21 21 21"
_symmetry_group_IT_number 24
_symmetry_cell_setting 'orthorhombic'
loop_
_space_group_symop_operation_xyz
x,y,z
-x,1/2-y,z
x,-y,1/2-z
1/2-x,y,-z
1/2+x,1/2+y,1/2+z
1/2-x,-y,1/2+z
1/2+x,1/2-y,-z
-x,1/2+y,1/2-z
loop_
_atom_site_type_symbol
_atom_site_label
_atom_site_fract_x
_atom_site_fract_y
_atom_site_fract_z
Si Si1 0.670705 0.227790 0.757848
Si Si2 0.920164 0.650823 0.971082
Si Si3 0.879236 0.597875 0.767234
Si Si4 0.826798 0.101236 0.416922
Si Si5 0.689474 0.936203 0.330172
O O1 0.500000 0.250000 0.768511
O O2 0.774478 0.316548 0.753063
O O3 0.685316 0.169520 0.666327
O O4 0.725061 0.158665 0.833944
O O5 0.929946 0.610186 0.870343
O O6 0.000000 0.750000 0.968979
O O7 0.750000 0.652982 0.000000
O O8 0.005588 0.593081 0.048170
O O9 0.802002 0.500000 0.750000
O O10 0.023741 0.590139 0.702509
O O11 0.750000 0.148380 0.500000
O O12 0.733261 0.007566 0.405721
O O13 0.749885 0.000000 0.250000
#
# Coordination Sequence:
#
# PCOD9336458 Si02
#       5
#     8   8   8   8   8
#     4  11  22  35  56  85 118 152 189 243 298 354
#     4  12  23  36  59  92 129 161 196 252 314 368
#     4  11  22  37  59  86 117 162 207 242 296 367
#     4  11  21  37  60  88 117 149 196 251 308 356
#     4   9  20  37  56  79 112 154 196 238 289 357
#
# _framework density 20.137561999999999
#
# number of rings (size 3 to 8) (size 9 to 14) (size 15 to 20)
#    0.000    1.200    0.000   10.200    0.000    4.000 
#    0.000    0.000    0.000    6.000    0.000    0.000 
#    0.000    0.000    0.000    0.000    0.000    0.000 
#
# Total GULP energy -111413.234243 kJ/mol
# GULP energy per Si atom -5570.661712 kJ/mol
# Density = 2.009173 g / cm^3
# Si number density = 20.137562 Si / 1000 Ang^3
#
#
#
# Elastic Constant Matrix: (Units=GPa)
#
#
# Indices 1 2 3 4 5 6 
#
# 1 148.5481 94.2673 41.9601 0.0000 0.0000 0.0000
# 2 94.2673 169.4528 37.9641 0.0000 0.0000 0.0000
# 3 41.9601 37.9641 58.0592 0.0000 0.0000 0.0000
# 4 0.0000 0.0000 0.0000 6.7051 0.0000 0.0000
# 5 0.0000 0.0000 0.0000 0.0000 26.6054 0.0000
# 6 0.0000 0.0000 0.0000 0.0000 0.0000 -59.6995
#
#
#
# Elastic Compliance Matrix: (Units=1/GPa)
#
#
# Indices 1 2 3 4 5 6 
#
# 1 0.011449 -0.005290 -0.004815 0.000000 0.000000 0.000000
# 2 -0.005290 0.009359 -0.002296 0.000000 0.000000 0.000000
# 3 -0.004815 -0.002296 0.022205 0.000000 0.000000 0.000000
# 4 0.000000 0.000000 0.000000 0.149139 0.000000 0.000000
# 5 0.000000 0.000000 0.000000 0.000000 0.037586 0.000000
# 6 0.000000 0.000000 0.000000 0.000000 0.000000 -0.016751
#
#
# Mechanical properties :
#
#
# Convention : Reuss Voigt Hill
#
# Bulk Modulus (GPa) = 54.91553 80.49365 67.70459
# Shear Modulus (GPa) = 20.50340 8.18012 14.34176
#
# Velocity S-wave (km/s) = 3.19433 2.01766 2.67158
# Velocity P-wave (km/s) = 6.39800 6.74437 6.57347
#
# Compressibility (1/GPa) = 0.01820979
#
# Stress axis : x y z
#
# Youngs Moduli (GPa) = 87.34209 106.85033 45.03452
#
# Poissons Ratio (x) = 0.56529 0.21685
# Poissons Ratio (y) = 0.46208 0.10341
# Poissons Ratio (z) = 0.42056 0.24534
#
# Static dielectric constant tensor:
#      x y z
#    x 1.878560 0.000000 0.000000 
#    y 0.000000 1.774690 0.000000 
#    z 0.000000 0.000000 1.811190 
# 
# From -- ./inp_files/24508.got.cif
#   From: 2010.05.17/outbox.cif.g08.bks.cpg/sg24_13_cif.got.tgz:24508.got - 2010.06.04 00:33:39.
