data_PCOD9336822
_publ_section_title
;
Structure prediction by ZEFSAII (Michael W. Deem and Ramdas Pophale) SiO2 
 PCOD9336822
Probable space group: I 21 21 21
;
_chemical_formula_sum "Si O2"
_cell_formula_units_Z 44
_cell_length_a 10.784688
_cell_length_b 26.882188
_cell_length_c 8.046466
_cell_angle_alpha 90.000000
_cell_angle_beta 90.000000
_cell_angle_gamma 90.000000
_cell_volume 2332.799320
_symmetry_space_group_name_H-M "I 21 21 21"
_symmetry_group_IT_number 24
_symmetry_cell_setting 'orthorhombic'
loop_
_space_group_symop_operation_xyz
x,y,z
-x,1/2-y,z
x,-y,1/2-z
1/2-x,y,-z
1/2+x,1/2+y,1/2+z
1/2-x,-y,1/2+z
1/2+x,1/2-y,-z
-x,1/2+y,1/2-z
loop_
_atom_site_type_symbol
_atom_site_label
_atom_site_fract_x
_atom_site_fract_y
_atom_site_fract_z
Si Si1 0.250000 0.906364 0.500000
Si Si2 0.309972 0.779791 0.776870
Si Si3 0.250000 0.309075 0.500000
Si Si4 0.075772 0.842752 0.666924
Si Si5 0.835897 0.549427 0.166133
Si Si6 0.000000 0.750000 0.501732
Si Si7 0.014372 0.142324 0.468266
O O1 0.120088 0.876480 0.514487
O O2 0.247305 0.933481 0.323100
O O3 0.243896 0.731418 0.852066
O O4 0.204494 0.817137 0.720650
O O5 0.387279 0.762054 0.619499
O O6 0.401698 0.810509 0.902259
O O7 0.371262 0.341251 0.543469
O O8 0.984555 0.799195 0.610655
O O9 0.031216 0.867416 0.835457
O O10 0.894968 0.500000 0.250000
O O11 0.932436 0.593445 0.122495
O O12 0.750000 0.541604 0.000000
#
# Coordination Sequence:
#
# PCOD9336822 Si02
#       7
#     4   8   4   8   8   4   8
#     4  12  22  38  63  96 128 155 198 272 340 382
#     4  12  21  37  57  86 127 179 225 260 308 385
#     4  12  24  36  59  88 130 187 226 244 324 396
#     4  12  22  36  59  89 131 174 212 266 320 381
#     4  12  24  43  71 100 126 158 212 282 350 392
#     4  12  22  32  52  90 132 176 216 256 310 388
#     4  12  23  41  62  89 133 178 220 274 321 390
#
# _framework density 18.861459
#
# number of rings (size 3 to 8) (size 9 to 14) (size 15 to 20)
#    0.000    0.000   10.000    1.091    0.000    0.000 
#    0.000    0.000    0.000    3.273    0.000    0.000 
#    0.000    0.000    0.000    0.000    0.000    0.000 
#
# Total GULP energy -122616.246283 kJ/mol
# GULP energy per Si atom -5573.465740 kJ/mol
# Density = 1.881853 g / cm^3
# Si number density = 18.861459 Si / 1000 Ang^3
#
#
#
# Elastic Constant Matrix: (Units=GPa)
#
#
# Indices 1 2 3 4 5 6 
#
# 1 54.7782 19.9983 10.1940 0.0001 -0.0003 0.0000
# 2 19.9983 88.9680 35.4640 0.0004 -0.0001 -0.0001
# 3 10.1940 35.4640 115.3731 0.0013 -0.0008 -0.0002
# 4 0.0001 0.0004 0.0013 37.9549 -0.0001 -0.0001
# 5 -0.0003 -0.0001 -0.0008 -0.0001 28.9998 0.0000
# 6 0.0000 -0.0001 -0.0002 -0.0001 0.0000 16.6281
#
#
#
# Elastic Compliance Matrix: (Units=1/GPa)
#
#
# Indices 1 2 3 4 5 6 
#
# 1 0.019907 -0.004300 -0.000437 0.000000 0.000000 0.000000
# 2 -0.004300 0.013739 -0.003843 0.000000 0.000000 0.000000
# 3 -0.000437 -0.003843 0.009887 0.000000 0.000000 0.000000
# 4 0.000000 0.000000 0.000000 0.026347 0.000000 0.000000
# 5 0.000000 0.000000 0.000000 0.000000 0.034483 0.000000
# 6 0.000000 0.000000 0.000000 0.000000 0.000000 0.060139
#
#
# Mechanical properties :
#
#
# Convention : Reuss Voigt Hill
#
# Bulk Modulus (GPa) = 37.91940 43.38134 40.65037
# Shear Modulus (GPa) = 26.25309 29.61408 27.93358
#
# Velocity S-wave (km/s) = 3.73485 3.96673 3.85253
# Velocity P-wave (km/s) = 6.22468 6.63550 6.43337
#
# Compressibility (1/GPa) = 0.02637173
#
# Stress axis : x y z
#
# Youngs Moduli (GPa) = 50.23415 72.78784 101.13838
#
# Poissons Ratio (x) = 0.31302 0.04420
# Poissons Ratio (y) = 0.21603 0.38868
# Poissons Ratio (z) = 0.02195 0.27973
#
# Static dielectric constant tensor:
#      x y z
#    x 1.657960 0.000000 0.000000 
#    y 0.000000 1.779730 0.000000 
#    z 0.000000 0.000000 1.729130 
# 
# From -- ./inp_files/11218.got.cif
#   From: 2010.05.17/outbox.cif.g08.bks.cpg/sg24_6_cif.got.tgz:11218.got - 2010.06.04 00:33:39.
