data_PCOD9336409
_publ_section_title
;
Structure prediction by ZEFSAII (Michael W. Deem and Ramdas Pophale) SiO2 
 PCOD9336409
Probable space group: I 21 21 21
;
_chemical_formula_sum "Si O2"
_cell_formula_units_Z 28
_cell_length_a 18.412474
_cell_length_b 5.010729
_cell_length_c 12.876776
_cell_angle_alpha 90.000000
_cell_angle_beta 90.000000
_cell_angle_gamma 90.000000
_cell_volume 1188.010291
_symmetry_space_group_name_H-M "I 21 21 21"
_symmetry_group_IT_number 24
_symmetry_cell_setting 'orthorhombic'
loop_
_space_group_symop_operation_xyz
x,y,z
-x,1/2-y,z
x,-y,1/2-z
1/2-x,y,-z
1/2+x,1/2+y,1/2+z
1/2-x,-y,1/2+z
1/2+x,1/2-y,-z
-x,1/2+y,1/2-z
loop_
_atom_site_type_symbol
_atom_site_label
_atom_site_fract_x
_atom_site_fract_y
_atom_site_fract_z
Si Si1 0.646608 0.164436 0.574003
Si Si2 0.415228 0.177553 0.034475
Si Si3 0.262406 0.500000 0.250000
Si Si4 0.631693 0.500000 0.250000
Si Si5 0.539920 0.000000 0.750000
O O1 0.632611 0.464625 0.533780
O O2 0.584275 0.130643 0.658755
O O3 0.628894 0.954063 0.482795
O O4 0.714774 0.071596 0.645865
O O5 0.500000 0.250000 0.013313
O O6 0.415424 0.036394 0.146823
O O7 0.314141 0.751880 0.259165
O O8 0.500000 0.250000 0.797450
#
# Coordination Sequence:
#
# PCOD9336409 Si02
#       5
#     8   8   4   4   4
#     4  11  24  42  69  99 137 176 226 292 349 424
#     4  12  26  45  69 101 136 184 235 286 350 410
#     4  11  26  47  70 107 138 181 236 286 370 429
#     4  12  28  46  70  98 142 190 238 294 338 428
#     4  11  20  35  60  95 132 169 214 276 348 413
#
# _framework density 23.568816999999999
#
# number of rings (size 3 to 8) (size 9 to 14) (size 15 to 20)
#    0.000    0.571    0.000    8.571    0.000   14.857 
#    0.000    0.000    0.000    0.000    0.000    0.000 
#    0.000    0.000    0.000    0.000    0.000    0.000 
#
# Total GULP energy -78086.460356 kJ/mol
# GULP energy per Si atom -5577.604311 kJ/mol
# Density = 2.351517 g / cm^3
# Si number density = 23.568817 Si / 1000 Ang^3
#
#
#
# Elastic Constant Matrix: (Units=GPa)
#
#
# Indices 1 2 3 4 5 6 
#
# 1 84.2013 43.9478 30.0408 0.0000 0.0000 0.0000
# 2 43.9478 168.6203 8.6510 0.0000 0.0000 0.0000
# 3 30.0408 8.6510 124.0284 0.0000 0.0000 0.0000
# 4 0.0000 0.0000 0.0000 37.9817 0.0000 0.0000
# 5 0.0000 0.0000 0.0000 0.0000 37.2047 0.0000
# 6 0.0000 0.0000 0.0000 0.0000 0.0000 28.1743
#
#
#
# Elastic Compliance Matrix: (Units=1/GPa)
#
#
# Indices 1 2 3 4 5 6 
#
# 1 0.015038 -0.003746 -0.003381 0.000000 0.000000 0.000000
# 2 -0.003746 0.006885 0.000427 0.000000 0.000000 0.000000
# 3 -0.003381 0.000427 0.008852 0.000000 0.000000 0.000000
# 4 0.000000 0.000000 0.000000 0.026328 0.000000 0.000000
# 5 0.000000 0.000000 0.000000 0.000000 0.026878 0.000000
# 6 0.000000 0.000000 0.000000 0.000000 0.000000 0.035493
#
#
# Mechanical properties :
#
#
# Convention : Reuss Voigt Hill
#
# Bulk Modulus (GPa) = 57.55471 60.23657 58.89564
# Shear Modulus (GPa) = 36.05800 40.28617 38.17209
#
# Velocity S-wave (km/s) = 3.91564 4.13885 4.02879
# Velocity P-wave (km/s) = 6.70193 6.96084 6.83261
#
# Compressibility (1/GPa) = 0.01737477
#
# Stress axis : x y z
#
# Youngs Moduli (GPa) = 66.49990 145.24634 112.97158
#
# Poissons Ratio (x) = 0.54407 0.38195
# Poissons Ratio (y) = 0.24910 -0.04824
# Poissons Ratio (z) = 0.22483 -0.06203
#
# Static dielectric constant tensor:
#      x y z
#    x 2.007800 0.000000 0.000000 
#    y 0.000000 2.046040 0.000000 
#    z 0.000000 0.000000 1.945420 
# 
# From -- ./inp_files/21879.got.cif
#   From: 2010.05.17/outbox.cif.g08.bks.cpg/sg24_11_cif.got.tgz:21879.got - 2010.06.04 00:33:39.
