data_PCOD9336344
_publ_section_title
;
Structure prediction by ZEFSAII (Michael W. Deem and Ramdas Pophale) SiO2 
 PCOD9336344
Probable space group: I 21 21 21
;
_chemical_formula_sum "Si O2"
_cell_formula_units_Z 60
_cell_length_a 8.345229
_cell_length_b 11.994676
_cell_length_c 25.739067
_cell_angle_alpha 90.000000
_cell_angle_beta 90.000000
_cell_angle_gamma 90.000000
_cell_volume 2576.437314
_symmetry_space_group_name_H-M "I 21 21 21"
_symmetry_group_IT_number 24
_symmetry_cell_setting 'orthorhombic'
loop_
_space_group_symop_operation_xyz
x,y,z
-x,1/2-y,z
x,-y,1/2-z
1/2-x,y,-z
1/2+x,1/2+y,1/2+z
1/2-x,-y,1/2+z
1/2+x,1/2-y,-z
-x,1/2+y,1/2-z
loop_
_atom_site_type_symbol
_atom_site_label
_atom_site_fract_x
_atom_site_fract_y
_atom_site_fract_z
Si Si1 0.676552 0.202196 0.743016
Si Si2 0.321682 0.738441 0.135498
Si Si3 0.326384 0.023294 0.646721
Si Si4 0.355149 0.450819 0.447631
Si Si5 0.490707 0.500000 0.750000
Si Si6 0.617025 0.116459 0.901979
Si Si7 0.176510 0.205201 0.841002
Si Si8 0.939279 0.363135 0.989046
O O1 0.500000 0.250000 0.741545
O O2 0.728166 0.183599 0.683829
O O3 0.635782 0.088143 0.772619
O O4 0.786198 0.275838 0.779842
O O5 0.500000 0.750000 0.157269
O O6 0.346978 0.663854 0.084294
O O7 0.238397 0.858801 0.125853
O O8 0.477662 0.963402 0.620046
O O9 0.194555 0.925455 0.646727
O O10 0.392431 0.042048 0.704913
O O11 0.250000 0.437291 0.500000
O O12 0.269904 0.539038 0.410095
O O13 0.516623 0.517086 0.463646
O O14 0.683651 0.226011 0.872115
O O15 0.549372 0.141943 0.959352
O O16 0.000000 0.250000 0.850325
O O17 0.000000 0.250000 0.960306
O O18 0.750000 0.357279 0.000000
#
# Coordination Sequence:
#
# PCOD9336344 Si02
#       8
#     8   8   8   8   4   8   8   8
#     4  12  23  45  71 106 145 196 251 302 374 454
#     4  12  29  47  70 104 153 202 255 309 378 459
#     4  12  24  44  71 106 145 196 250 303 371 458
#     4  10  26  52  72 106 148 192 254 315 378 462
#     4  12  22  40  76 102 144 194 248 304 364 456
#     4  11  24  44  76 113 145 187 245 311 389 461
#     4  12  26  42  74 114 153 190 245 319 385 454
#     4  11  24  45  79 113 149 192 247 327 400 460
#
# _framework density 23.287972
#
# number of rings (size 3 to 8) (size 9 to 14) (size 15 to 20)
#    0.000    0.533    4.000    3.600    3.733    1.600 
#    4.800    0.000    0.000    0.000    0.000    0.000 
#    0.000    0.000    0.000    0.000    0.000    0.000 
#
# Total GULP energy -167539.222769 kJ/mol
# GULP energy per Si atom -5584.640759 kJ/mol
# Density = 2.323497 g / cm^3
# Si number density = 23.287972 Si / 1000 Ang^3
#
#
#
# Elastic Constant Matrix: (Units=GPa)
#
#
# Indices 1 2 3 4 5 6 
#
# 1 125.6380 52.9210 23.6895 0.0000 0.0000 0.0000
# 2 52.9210 167.1656 50.6618 0.0000 0.0000 0.0000
# 3 23.6895 50.6618 96.8714 0.0000 0.0000 0.0000
# 4 0.0000 0.0000 0.0000 40.3492 0.0000 0.0000
# 5 0.0000 0.0000 0.0000 0.0000 25.9064 0.0000
# 6 0.0000 0.0000 0.0000 0.0000 0.0000 56.3884
#
#
#
# Elastic Compliance Matrix: (Units=1/GPa)
#
#
# Indices 1 2 3 4 5 6 
#
# 1 0.009245 -0.002664 -0.000868 0.000000 0.000000 0.000000
# 2 -0.002664 0.007876 -0.003468 0.000000 0.000000 0.000000
# 3 -0.000868 -0.003468 0.012349 0.000000 0.000000 0.000000
# 4 0.000000 0.000000 0.000000 0.024784 0.000000 0.000000
# 5 0.000000 0.000000 0.000000 0.000000 0.038601 0.000000
# 6 0.000000 0.000000 0.000000 0.000000 0.000000 0.017734
#
#
# Mechanical properties :
#
#
# Convention : Reuss Voigt Hill
#
# Bulk Modulus (GPa) = 64.63472 71.57995 68.10734
# Shear Modulus (GPa) = 38.53739 42.02230 40.27984
#
# Velocity S-wave (km/s) = 4.07236 4.25251 4.16341
# Velocity P-wave (km/s) = 7.06590 7.41049 7.24025
#
# Compressibility (1/GPa) = 0.01547156
#
# Stress axis : x y z
#
# Youngs Moduli (GPa) = 108.16625 126.96250 80.98002
#
# Poissons Ratio (x) = 0.33820 0.07027
# Poissons Ratio (y) = 0.28813 0.28082
# Poissons Ratio (z) = 0.09386 0.44027
#
# Static dielectric constant tensor:
#      x y z
#    x 1.826720 0.000000 0.000000 
#    y 0.000000 2.089790 0.000000 
#    z 0.000000 0.000000 1.937420 
# 
# From -- ./inp_files/36921.got.cif
#   From: 2010.05.17/outbox.cif.g08.bks.cpg/sg24_19_cif.got.tgz:36921.got - 2010.06.04 00:33:39.
