data_PCOD9336486
_publ_section_title
;
Structure prediction by ZEFSAII (Michael W. Deem and Ramdas Pophale) SiO2 
 PCOD9336486
Probable space group: I 21 21 21
;
_chemical_formula_sum "Si O2"
_cell_formula_units_Z 40
_cell_length_a 10.963358
_cell_length_b 19.090403
_cell_length_c 8.465336
_cell_angle_alpha 90.000000
_cell_angle_beta 90.000000
_cell_angle_gamma 90.000000
_cell_volume 1771.751842
_symmetry_space_group_name_H-M "I 21 21 21"
_symmetry_group_IT_number 24
_symmetry_cell_setting 'orthorhombic'
loop_
_space_group_symop_operation_xyz
x,y,z
-x,1/2-y,z
x,-y,1/2-z
1/2-x,y,-z
1/2+x,1/2+y,1/2+z
1/2-x,-y,1/2+z
1/2+x,1/2-y,-z
-x,1/2+y,1/2-z
loop_
_atom_site_type_symbol
_atom_site_label
_atom_site_fract_x
_atom_site_fract_y
_atom_site_fract_z
Si Si1 0.358960 0.324998 0.610037
Si Si2 0.985555 0.576502 0.323843
Si Si3 0.003605 0.672414 0.789766
Si Si4 0.269674 0.834428 0.816870
Si Si5 0.135864 0.440497 0.882641
O O1 0.250000 0.352797 0.500000
O O2 0.405102 0.377322 0.744732
O O3 0.467931 0.323039 0.478313
O O4 0.314598 0.248080 0.672825
O O5 0.977623 0.500000 0.250000
O O6 0.018405 0.559961 0.503692
O O7 0.867161 0.621727 0.281343
O O8 0.866162 0.649386 0.754845
O O9 0.000000 0.750000 0.725018
O O10 0.113556 0.631277 0.710045
O O11 0.250000 0.854914 0.000000
O O12 0.138417 0.500000 0.750000
O O13 0.250000 0.446210 0.000000
#
# Coordination Sequence:
#
# PCOD9336486 Si02
#       5
#     8   8   8   8   8
#     4  11  21  42  80 113 150 205 256 310 385 466
#     4  12  26  46  73 108 152 205 255 326 389 460
#     4  12  23  45  74 114 153 203 255 318 387 466
#     4  11  23  43  78 116 154 202 256 312 386 477
#     4  12  30  52  75 110 151 206 265 331 396 463
#
# _framework density 22.576523999999999
#
# number of rings (size 3 to 8) (size 9 to 14) (size 15 to 20)
#    0.000    0.400    6.000    3.600    0.000    4.800 
#    0.000    0.000    0.000    0.000    0.000    0.000 
#    0.000    0.000    0.000    0.000    0.000    0.000 
#
# Total GULP energy -111646.620818 kJ/mol
# GULP energy per Si atom -5582.331041 kJ/mol
# Density = 2.252514 g / cm^3
# Si number density = 22.576524 Si / 1000 Ang^3
#
#
#
# Elastic Constant Matrix: (Units=GPa)
#
#
# Indices 1 2 3 4 5 6 
#
# 1 160.4833 49.8518 59.1223 0.0000 0.0000 0.0000
# 2 49.8518 107.9707 61.5082 -0.0002 0.0000 0.0000
# 3 59.1223 61.5082 112.9513 -0.0012 -0.0001 0.0002
# 4 0.0000 -0.0002 -0.0012 39.6019 -0.0001 0.0001
# 5 0.0000 0.0000 -0.0001 -0.0001 46.0944 0.0000
# 6 0.0000 0.0000 0.0002 0.0001 0.0000 16.4020
#
#
#
# Elastic Compliance Matrix: (Units=1/GPa)
#
#
# Indices 1 2 3 4 5 6 
#
# 1 0.007978 -0.001891 -0.003146 0.000000 0.000000 0.000000
# 2 -0.001891 0.013876 -0.006566 0.000000 0.000000 0.000000
# 3 -0.003146 -0.006566 0.014076 0.000000 0.000000 0.000000
# 4 0.000000 0.000000 0.000000 0.025251 0.000000 0.000000
# 5 0.000000 0.000000 0.000000 0.000000 0.021695 0.000000
# 6 0.000000 0.000000 0.000000 0.000000 0.000000 0.060968
#
#
# Mechanical properties :
#
#
# Convention : Reuss Voigt Hill
#
# Bulk Modulus (GPa) = 78.60147 80.26333 79.43240
# Shear Modulus (GPa) = 29.19030 34.48119 31.83574
#
# Velocity S-wave (km/s) = 3.59966 3.91231 3.75924
# Velocity P-wave (km/s) = 7.22274 7.48579 7.35544
#
# Compressibility (1/GPa) = 0.01272241
#
# Stress axis : x y z
#
# Youngs Moduli (GPa) = 125.35094 72.06944 71.04515
#
# Poissons Ratio (x) = 0.13630 0.22350
# Poissons Ratio (y) = 0.23707 0.46648
# Poissons Ratio (z) = 0.39433 0.47321
#
# Static dielectric constant tensor:
#      x y z
#    x 2.000940 0.000000 0.000000 
#    y 0.000000 1.857420 0.000000 
#    z 0.000000 0.000000 1.954280 
# 
# From -- ./inp_files/10715.got.cif
#   From: 2010.05.17/outbox.cif.g08.bks.cpg/sg24_6_cif.got.tgz:10715.got - 2010.06.04 00:33:39.
