data_PCOD9336769
_publ_section_title
;
Structure prediction by ZEFSAII (Michael W. Deem and Ramdas Pophale) SiO2 
 PCOD9336769
Probable space group: I 21 21 21
;
_chemical_formula_sum "Si O2"
_cell_formula_units_Z 24
_cell_length_a 5.139153
_cell_length_b 27.640355
_cell_length_c 7.682449
_cell_angle_alpha 90.000000
_cell_angle_beta 90.000000
_cell_angle_gamma 90.000000
_cell_volume 1091.276618
_symmetry_space_group_name_H-M "I 21 21 21"
_symmetry_group_IT_number 24
_symmetry_cell_setting 'orthorhombic'
loop_
_space_group_symop_operation_xyz
x,y,z
-x,1/2-y,z
x,-y,1/2-z
1/2-x,y,-z
1/2+x,1/2+y,1/2+z
1/2-x,-y,1/2+z
1/2+x,1/2-y,-z
-x,1/2+y,1/2-z
loop_
_atom_site_type_symbol
_atom_site_label
_atom_site_fract_x
_atom_site_fract_y
_atom_site_fract_z
Si Si1 0.250000 0.283446 0.000000
Si Si2 0.750000 0.715525 0.000000
Si Si3 0.897224 0.349078 0.186782
Si Si4 0.500198 0.455110 0.877376
O O1 0.500000 0.250000 0.036137
O O2 0.660857 0.181258 0.845994
O O3 0.500000 0.750000 0.993976
O O4 0.748060 0.680338 0.166637
O O5 0.952305 0.404937 0.225445
O O6 0.750000 0.348974 0.000000
O O7 0.461224 0.500000 0.750000
O O8 0.750000 0.463870 0.000000
O O9 0.250000 0.448119 0.000000
#
# Coordination Sequence:
#
# PCOD9336769 Si02
#       4
#     4   4   8   8
#     4  12  24  40  78 100 138 198 240 286 354 428
#     4  12  32  44  70 116 148 190 250 298 358 428
#     4  11  27  49  74 106 146 198 239 302 361 442
#     4  11  25  48  77 108 142 188 240 300 373 431
#
# _framework density 21.992591999999998
#
# number of rings (size 3 to 8) (size 9 to 14) (size 15 to 20)
#    0.000    0.667    3.333    2.000   11.667    0.000 
#    3.000    0.000    0.000    0.000    0.000    0.000 
#    0.000    0.000    0.000    0.000    0.000    0.000 
#
# Total GULP energy -67192.956736 kJ/mol
# GULP energy per Si atom -5599.413061 kJ/mol
# Density = 2.194254 g / cm^3
# Si number density = 21.992592 Si / 1000 Ang^3
#
#
#
# Elastic Constant Matrix: (Units=GPa)
#
#
# Indices 1 2 3 4 5 6 
#
# 1 125.8833 37.0800 21.8761 0.0000 0.0000 0.0000
# 2 37.0800 216.9112 66.3072 0.0003 0.0000 -0.0004
# 3 21.8761 66.3072 96.9498 0.0002 0.0000 -0.0009
# 4 0.0000 0.0003 0.0002 -2.4281 0.0000 -0.0002
# 5 0.0000 0.0000 0.0000 0.0000 22.4317 0.0000
# 6 0.0000 -0.0004 -0.0009 -0.0002 0.0000 45.7880
#
#
#
# Elastic Compliance Matrix: (Units=1/GPa)
#
#
# Indices 1 2 3 4 5 6 
#
# 1 0.008468 -0.001092 -0.001164 0.000000 0.000000 0.000000
# 2 -0.001092 0.005970 -0.003836 0.000000 0.000000 0.000000
# 3 -0.001164 -0.003836 0.013201 0.000001 0.000000 0.000000
# 4 0.000000 0.000000 0.000001 -0.411849 0.000001 -0.000002
# 5 0.000000 0.000000 0.000000 0.000001 0.044580 0.000000
# 6 0.000000 0.000000 0.000000 -0.000002 0.000000 0.021840
#
#
# Mechanical properties :
#
#
# Convention : Reuss Voigt Hill
#
# Bulk Modulus (GPa) = 64.70789 76.69679 70.70234
# Shear Modulus (GPa) = -16.64143 34.12372 8.74115
#
# Velocity S-wave (km/s) = -2.75377 3.94331 1.99580
# Velocity P-wave (km/s) = 4.40175 7.46207 6.12609
#
# Compressibility (1/GPa) = 0.01545406
#
# Stress axis : x y z
#
# Youngs Moduli (GPa) = 118.09556 167.51667 75.75097
#
# Poissons Ratio (x) = 0.18288 0.08818
# Poissons Ratio (y) = 0.12892 0.29061
# Poissons Ratio (z) = 0.13747 0.64267
#
# Static dielectric constant tensor:
#      x y z
#    x 1.836280 0.000000 0.000000 
#    y 0.000000 1.800330 0.000000 
#    z 0.000000 0.000000 1.786770 
# 
# From -- ./inp_files/8100.got.cif
#   From: 2010.05.17/outbox.cif.g08.bks.cpg/sg24_5_cif.got.tgz:8100.got - 2010.06.04 00:33:39.
