data_PCOD9336784
_publ_section_title
;
Structure prediction by ZEFSAII (Michael W. Deem and Ramdas Pophale) SiO2 
 PCOD9336784
Probable space group: I 21 21 21
;
_chemical_formula_sum "Si O2"
_cell_formula_units_Z 60
_cell_length_a 9.050043
_cell_length_b 18.614053
_cell_length_c 16.516984
_cell_angle_alpha 90.000000
_cell_angle_beta 90.000000
_cell_angle_gamma 90.000000
_cell_volume 2782.417761
_symmetry_space_group_name_H-M "I 21 21 21"
_symmetry_group_IT_number 24
_symmetry_cell_setting 'orthorhombic'
loop_
_space_group_symop_operation_xyz
x,y,z
-x,1/2-y,z
x,-y,1/2-z
1/2-x,y,-z
1/2+x,1/2+y,1/2+z
1/2-x,-y,1/2+z
1/2+x,1/2-y,-z
-x,1/2+y,1/2-z
loop_
_atom_site_type_symbol
_atom_site_label
_atom_site_fract_x
_atom_site_fract_y
_atom_site_fract_z
Si Si1 0.080864 0.676453 0.972712
Si Si2 0.311131 0.336455 0.839409
Si Si3 0.277857 0.075310 0.290163
Si Si4 0.750000 0.423422 0.000000
Si Si5 0.223361 0.514614 0.406724
Si Si6 0.384755 0.395624 0.306517
Si Si7 0.426472 0.045444 0.563563
Si Si8 0.167613 0.827961 0.346787
O O1 0.086990 0.661410 0.877565
O O2 0.000000 0.750000 0.991948
O O3 0.250000 0.677650 0.000000
O O4 0.992160 0.612691 0.016393
O O5 0.258869 0.400278 0.898243
O O6 0.234667 0.363117 0.755815
O O7 0.489423 0.334207 0.846932
O O8 0.273345 0.253375 0.855732
O O9 0.452091 0.085601 0.276439
O O10 0.211017 0.069794 0.380647
O O11 0.208557 0.140353 0.240285
O O12 0.233780 0.000000 0.250000
O O13 0.615153 0.479855 0.996070
O O14 0.735247 0.375850 0.919503
O O15 0.250000 0.494184 0.500000
O O16 0.325789 0.468260 0.348489
O O17 0.058278 0.488751 0.383598
#
# Coordination Sequence:
#
# PCOD9336784 Si02
#       8
#     8   8   8   4   8   8   8   8
#     4  12  29  49  73 112 147 194 244 309 379 443
#     4  11  26  48  71 103 148 200 235 309 370 445
#     4  12  25  44  72 108 141 192 246 308 367 440
#     4  12  24  46  78 106 142 186 256 306 352 452
#     4  12  23  46  73 105 138 193 249 297 364 442
#     4  12  26  47  73 105 148 186 250 303 371 445
#     4  12  24  47  78 104 145 192 246 306 363 444
#     4  11  27  47  72 109 145 193 250 296 378 438
#
# _framework density 21.563977999999999
#
# number of rings (size 3 to 8) (size 9 to 14) (size 15 to 20)
#    0.000    0.267    5.333    2.800    5.600    1.067 
#    0.000    0.000    0.000    0.000    0.000    0.000 
#    0.000    0.000    0.000    0.000    0.000    0.000 
#
# Total GULP energy -167651.630277 kJ/mol
# GULP energy per Si atom -5588.387676 kJ/mol
# Density = 2.151490 g / cm^3
# Si number density = 21.563978 Si / 1000 Ang^3
#
#
#
# Elastic Constant Matrix: (Units=GPa)
#
#
# Indices 1 2 3 4 5 6 
#
# 1 71.3047 44.1312 26.9874 0.0000 0.0000 0.0000
# 2 44.1312 187.6793 51.8198 0.0000 0.0000 0.0000
# 3 26.9874 51.8198 91.1236 0.0000 0.0000 0.0000
# 4 0.0000 0.0000 0.0000 29.5617 0.0000 0.0000
# 5 0.0000 0.0000 0.0000 0.0000 28.2459 0.0000
# 6 0.0000 0.0000 0.0000 0.0000 0.0000 38.2563
#
#
#
# Elastic Compliance Matrix: (Units=1/GPa)
#
#
# Indices 1 2 3 4 5 6 
#
# 1 0.017219 -0.003133 -0.003318 0.000000 0.000000 0.000000
# 2 -0.003133 0.006891 -0.002991 0.000000 0.000000 0.000000
# 3 -0.003318 -0.002991 0.013658 0.000000 0.000000 0.000000
# 4 0.000000 0.000000 0.000000 0.033828 0.000000 0.000000
# 5 0.000000 0.000000 0.000000 0.000000 0.035403 0.000000
# 6 0.000000 0.000000 0.000000 0.000000 0.000000 0.026139
#
#
# Mechanical properties :
#
#
# Convention : Reuss Voigt Hill
#
# Bulk Modulus (GPa) = 52.95475 66.22051 59.58763
# Shear Modulus (GPa) = 31.58248 34.35739 32.96993
#
# Velocity S-wave (km/s) = 3.83115 3.99592 3.91440
# Velocity P-wave (km/s) = 6.64685 7.21563 6.93707
#
# Compressibility (1/GPa) = 0.01888405
#
# Stress axis : x y z
#
# Youngs Moduli (GPa) = 58.07519 145.12424 73.21945
#
# Poissons Ratio (x) = 0.45464 0.24295
# Poissons Ratio (y) = 0.18194 0.21898
# Poissons Ratio (z) = 0.19270 0.43403
#
# Static dielectric constant tensor:
#      x y z
#    x 1.745120 0.000000 0.000000 
#    y 0.000000 1.774450 0.000000 
#    z 0.000000 0.000000 1.791760 
# 
# From -- ./inp_files/29709.got.cif
#   From: 2010.05.17/outbox.cif.g08.bks.cpg/sg24_15_cif.got.tgz:29709.got - 2010.06.04 00:33:39.
