data_PCOD9336054
_publ_section_title
;
Structure prediction by ZEFSAII (Michael W. Deem and Ramdas Pophale) SiO2 
 PCOD9336054
Probable space group: I 21 21 21
;
_chemical_formula_sum "Si O2"
_cell_formula_units_Z 44
_cell_length_a 9.108278
_cell_length_b 14.288036
_cell_length_c 12.457175
_cell_angle_alpha 90.000000
_cell_angle_beta 90.000000
_cell_angle_gamma 90.000000
_cell_volume 1621.169330
_symmetry_space_group_name_H-M "I 21 21 21"
_symmetry_group_IT_number 24
_symmetry_cell_setting 'orthorhombic'
loop_
_space_group_symop_operation_xyz
x,y,z
-x,1/2-y,z
x,-y,1/2-z
1/2-x,y,-z
1/2+x,1/2+y,1/2+z
1/2-x,-y,1/2+z
1/2+x,1/2-y,-z
-x,1/2+y,1/2-z
loop_
_atom_site_type_symbol
_atom_site_label
_atom_site_fract_x
_atom_site_fract_y
_atom_site_fract_z
Si Si1 0.099772 0.976985 0.875550
Si Si2 0.250000 0.340334 0.000000
Si Si3 0.327307 0.351319 0.394718
Si Si4 0.101098 0.816655 0.631925
Si Si5 0.677434 0.339192 0.679859
Si Si6 0.386717 0.401327 0.777814
O O1 0.263394 0.933483 0.878497
O O2 0.992001 0.891556 0.907275
O O3 0.070118 0.000000 0.750000
O O4 0.070359 0.081601 0.920675
O O5 0.362825 0.268068 0.052871
O O6 0.163247 0.387884 0.099174
O O7 0.250000 0.391954 0.500000
O O8 0.255811 0.247052 0.382611
O O9 0.265060 0.396162 0.286678
O O10 0.244279 0.836796 0.703400
O O11 0.000000 0.750000 0.710549
O O12 0.493048 0.159990 0.712939
O O13 0.453916 0.500000 0.750000
#
# Coordination Sequence:
#
# PCOD9336054 Si02
#       6
#     8   4   8   8   8   8
#     4  10  23  48  79 111 159 214 276 342 413 501
#     4  12  30  50  82 116 176 216 274 370 436 502
#     4  12  27  48  79 116 163 221 276 341 417 502
#     4  11  25  45  76 114 157 211 268 338 426 491
#     4  11  24  51  79 114 161 213 279 345 409 510
#     4  12  29  51  81 119 165 214 283 351 436 519
#
# _framework density 27.140903999999999
#
# number of rings (size 3 to 8) (size 9 to 14) (size 15 to 20)
#    0.000    0.727    1.818    5.455    6.364    2.909 
#    4.909    1.818    0.000    0.000    0.000    0.000 
#    0.000    0.000    0.000    0.000    0.000    0.000 
#
# Total GULP energy -122556.920385 kJ/mol
# GULP energy per Si atom -5570.769108 kJ/mol
# Density = 2.707913 g / cm^3
# Si number density = 27.140904 Si / 1000 Ang^3
#
#
#
# Elastic Constant Matrix: (Units=GPa)
#
#
# Indices 1 2 3 4 5 6 
#
# 1 140.4435 36.5725 17.7040 0.0000 0.0000 0.0000
# 2 36.5725 208.6916 31.8466 0.0000 0.0000 0.0000
# 3 17.7040 31.8466 134.9079 0.0000 0.0000 0.0000
# 4 0.0000 0.0000 0.0000 32.1584 0.0000 0.0000
# 5 0.0000 0.0000 0.0000 0.0000 30.0829 0.0000
# 6 0.0000 0.0000 0.0000 0.0000 0.0000 36.8550
#
#
#
# Elastic Compliance Matrix: (Units=1/GPa)
#
#
# Indices 1 2 3 4 5 6 
#
# 1 0.007524 -0.001212 -0.000701 0.000000 0.000000 0.000000
# 2 -0.001212 0.005166 -0.001060 0.000000 0.000000 0.000000
# 3 -0.000701 -0.001060 0.007755 0.000000 0.000000 0.000000
# 4 0.000000 0.000000 0.000000 0.031096 0.000000 0.000000
# 5 0.000000 0.000000 0.000000 0.000000 0.033241 0.000000
# 6 0.000000 0.000000 0.000000 0.000000 0.000000 0.027133
#
#
# Mechanical properties :
#
#
# Convention : Reuss Voigt Hill
#
# Bulk Modulus (GPa) = 68.97457 72.92101 70.94779
# Shear Modulus (GPa) = 40.75129 46.34725 43.54927
#
# Velocity S-wave (km/s) = 3.87909 4.13686 4.01004
# Velocity P-wave (km/s) = 6.74772 7.05295 6.90202
#
# Compressibility (1/GPa) = 0.01449810
#
# Stress axis : x y z
#
# Youngs Moduli (GPa) = 132.90420 193.57672 128.95157
#
# Poissons Ratio (x) = 0.23453 0.09045
# Poissons Ratio (y) = 0.16102 0.13675
# Poissons Ratio (z) = 0.09322 0.20528
#
# Static dielectric constant tensor:
#      x y z
#    x 1.527540 0.000000 0.000000 
#    y 0.000000 2.368620 0.000000 
#    z 0.000000 0.000000 1.639370 
# 
# From -- ./inp_files/26383.got.cif
#   From: 2010.05.17/outbox.cif.g08.bks.cpg/sg24_14_cif.got.tgz:26383.got - 2010.06.04 00:33:39.
