data_PCOD9336041
_publ_section_title
;
Structure prediction by ZEFSAII (Michael W. Deem and Ramdas Pophale) SiO2 
 PCOD9336041
Probable space group: I 21 21 21
;
_chemical_formula_sum "Si O2"
_cell_formula_units_Z 40
_cell_length_a 7.925910
_cell_length_b 11.995099
_cell_length_c 17.361967
_cell_angle_alpha 90.000000
_cell_angle_beta 90.000000
_cell_angle_gamma 90.000000
_cell_volume 1650.638231
_symmetry_space_group_name_H-M "I 21 21 21"
_symmetry_group_IT_number 24
_symmetry_cell_setting 'orthorhombic'
loop_
_space_group_symop_operation_xyz
x,y,z
-x,1/2-y,z
x,-y,1/2-z
1/2-x,y,-z
1/2+x,1/2+y,1/2+z
1/2-x,-y,1/2+z
1/2+x,1/2-y,-z
-x,1/2+y,1/2-z
loop_
_atom_site_type_symbol
_atom_site_label
_atom_site_fract_x
_atom_site_fract_y
_atom_site_fract_z
Si Si1 0.754883 0.109353 0.205533
Si Si2 0.834387 0.491077 0.657002
Si Si3 0.811415 0.245585 0.359922
Si Si4 0.200161 0.474484 0.583761
Si Si5 0.805192 0.287671 0.088891
O O1 0.819027 0.186950 0.274849
O O2 0.696783 0.205393 0.145171
O O3 0.674348 0.000000 0.250000
O O4 0.839690 0.028975 0.141288
O O5 0.833729 0.500000 0.750000
O O6 0.769494 0.366466 0.641670
O O7 0.721821 0.588922 0.621691
O O8 0.015161 0.507168 0.614242
O O9 0.706736 0.157969 0.409374
O O10 0.000000 0.250000 0.390454
O O11 0.250000 0.512737 0.500000
O O12 0.000000 0.250000 0.096833
O O13 0.750000 0.281385 0.000000
#
# Coordination Sequence:
#
# PCOD9336041 Si02
#       5
#     8   8   8   8   8
#     4  10  23  46  78 105 151 203 260 315 394 459
#     4  12  27  49  82 117 153 208 267 320 396 476
#     4  11  25  46  78 111 152 202 259 322 385 472
#     4  11  27  47  76 109 160 200 255 326 388 467
#     4  12  30  48  78 115 161 205 261 331 397 470
#
# _framework density 24.233049999999999
#
# number of rings (size 3 to 8) (size 9 to 14) (size 15 to 20)
#    0.000    0.800    2.000    3.600   11.200    2.400 
#    0.000    0.000    0.000    0.000    0.000    0.000 
#    0.000    0.000    0.000    0.000    0.000    0.000 
#
# Total GULP energy -111356.041334 kJ/mol
# GULP energy per Si atom -5567.802067 kJ/mol
# Density = 2.417789 g / cm^3
# Si number density = 24.233050 Si / 1000 Ang^3
#
#
#
# Elastic Constant Matrix: (Units=GPa)
#
#
# Indices 1 2 3 4 5 6 
#
# 1 140.2414 62.7260 38.5883 0.0000 0.0000 0.0000
# 2 62.7260 204.7404 40.1751 0.0000 0.0000 0.0000
# 3 38.5883 40.1751 152.1200 0.0000 0.0000 0.0000
# 4 0.0000 0.0000 0.0000 17.5222 0.0000 0.0000
# 5 0.0000 0.0000 0.0000 0.0000 6.0864 0.0000
# 6 0.0000 0.0000 0.0000 0.0000 0.0000 25.6861
#
#
#
# Elastic Compliance Matrix: (Units=1/GPa)
#
#
# Indices 1 2 3 4 5 6 
#
# 1 0.008603 -0.002328 -0.001568 0.000000 0.000000 0.000000
# 2 -0.002328 0.005781 -0.000936 0.000000 0.000000 0.000000
# 3 -0.001568 -0.000936 0.007219 0.000000 0.000000 0.000000
# 4 0.000000 0.000000 0.000000 0.057070 0.000000 0.000000
# 5 0.000000 0.000000 0.000000 0.000000 0.164300 0.000000
# 6 0.000000 0.000000 0.000000 0.000000 0.000000 0.038931
#
#
# Mechanical properties :
#
#
# Convention : Reuss Voigt Hill
#
# Bulk Modulus (GPa) = 83.75739 86.67563 85.21651
# Shear Modulus (GPa) = 16.91771 33.56645 25.24208
#
# Velocity S-wave (km/s) = 2.64507 3.72580 3.23094
# Velocity P-wave (km/s) = 6.63075 7.37251 7.01145
#
# Compressibility (1/GPa) = 0.01193925
#
# Stress axis : x y z
#
# Youngs Moduli (GPa) = 116.23590 172.97377 138.53007
#
# Poissons Ratio (x) = 0.40271 0.21715
# Poissons Ratio (y) = 0.27062 0.12970
# Poissons Ratio (z) = 0.18220 0.16195
#
# Static dielectric constant tensor:
#      x y z
#    x 2.029240 0.000000 0.000000 
#    y 0.000000 1.981990 0.000000 
#    z 0.000000 0.000000 2.002150 
# 
# From -- ./inp_files/29268.got.cif
#   From: 2010.05.17/outbox.cif.g08.bks.cpg/sg24_15_cif.got.tgz:29268.got - 2010.06.04 00:33:39.
