data_PCOD9336556
_publ_section_title
;
Structure prediction by ZEFSAII (Michael W. Deem and Ramdas Pophale) SiO2 
 PCOD9336556
Probable space group: I 21 21 21
;
_chemical_formula_sum "Si O2"
_cell_formula_units_Z 40
_cell_length_a 8.735476
_cell_length_b 9.539457
_cell_length_c 23.443120
_cell_angle_alpha 90.000000
_cell_angle_beta 90.000000
_cell_angle_gamma 90.000000
_cell_volume 1953.554988
_symmetry_space_group_name_H-M "I 21 21 21"
_symmetry_group_IT_number 24
_symmetry_cell_setting 'orthorhombic'
loop_
_space_group_symop_operation_xyz
x,y,z
-x,1/2-y,z
x,-y,1/2-z
1/2-x,y,-z
1/2+x,1/2+y,1/2+z
1/2-x,-y,1/2+z
1/2+x,1/2-y,-z
-x,1/2+y,1/2-z
loop_
_atom_site_type_symbol
_atom_site_label
_atom_site_fract_x
_atom_site_fract_y
_atom_site_fract_z
Si Si1 0.926944 0.602831 0.594702
Si Si2 0.058040 0.899115 0.404773
Si Si3 0.882863 0.645495 0.720371
Si Si4 0.567375 0.096011 0.498957
Si Si5 0.390504 0.640426 0.716114
O O1 0.742151 0.597503 0.592036
O O2 0.962267 0.593357 0.662043
O O3 0.000000 0.750000 0.575469
O O4 0.002316 0.485865 0.555798
O O5 0.000000 0.750000 0.428216
O O6 0.982595 0.903935 0.341309
O O7 0.992544 0.019141 0.444506
O O8 0.832647 0.500000 0.750000
O O9 0.750333 0.755826 0.703624
O O10 0.000000 0.750000 0.753191
O O11 0.500000 0.250000 0.497665
O O12 0.750000 0.096076 0.500000
O O13 0.500000 0.750000 0.749862
O O14 0.350512 0.500000 0.750000
#
# Coordination Sequence:
#
# PCOD9336556 Si02
#       5
#     8   8   8   8   8
#     4  11  23  43  71  96 134 180 235 283 339 421
#     4  11  22  43  68 100 132 183 233 280 341 418
#     4  11  24  44  69 104 142 187 237 292 353 420
#     4  12  27  46  68  99 137 177 227 293 356 415
#     4  11  23  42  69 103 144 188 239 287 349 419
#
# _framework density 20.475493
#
# number of rings (size 3 to 8) (size 9 to 14) (size 15 to 20)
#    0.000    0.800    4.000    4.800    2.800    1.600 
#    3.600    0.000    0.000    0.000    0.000    0.000 
#    0.000    0.000    0.000    0.000    0.000    0.000 
#
# Total GULP energy -111596.173022 kJ/mol
# GULP energy per Si atom -5579.808651 kJ/mol
# Density = 2.042889 g / cm^3
# Si number density = 20.475493 Si / 1000 Ang^3
#
#
#
# Elastic Constant Matrix: (Units=GPa)
#
#
# Indices 1 2 3 4 5 6 
#
# 1 164.4950 68.5623 45.7403 0.0000 0.0000 0.0000
# 2 68.5623 201.6637 86.7147 0.0000 0.0000 0.0000
# 3 45.7403 86.7147 91.1718 0.0000 0.0000 0.0000
# 4 0.0000 0.0000 0.0000 25.9386 0.0000 0.0000
# 5 0.0000 0.0000 0.0000 0.0000 22.0226 0.0000
# 6 0.0000 0.0000 0.0000 0.0000 0.0000 39.7093
#
#
#
# Elastic Compliance Matrix: (Units=1/GPa)
#
#
# Indices 1 2 3 4 5 6 
#
# 1 0.007338 -0.001543 -0.002214 0.000000 0.000000 0.000000
# 2 -0.001543 0.008714 -0.007514 0.000000 0.000000 0.000000
# 3 -0.002214 -0.007514 0.019226 0.000000 0.000000 0.000000
# 4 0.000000 0.000000 0.000000 0.038553 0.000000 0.000000
# 5 0.000000 0.000000 0.000000 0.000000 0.045408 0.000000
# 6 0.000000 0.000000 0.000000 0.000000 0.000000 0.025183
#
#
# Mechanical properties :
#
#
# Convention : Reuss Voigt Hill
#
# Bulk Modulus (GPa) = 78.51743 95.48503 87.00123
# Shear Modulus (GPa) = 29.20394 34.62164 31.91279
#
# Velocity S-wave (km/s) = 3.78072 4.11649 3.95217
# Velocity P-wave (km/s) = 7.58213 8.32641 7.96297
#
# Compressibility (1/GPa) = 0.01273603
#
# Stress axis : x y z
#
# Youngs Moduli (GPa) = 136.27911 114.75218 52.01245
#
# Poissons Ratio (x) = 0.17703 0.11516
# Poissons Ratio (y) = 0.21024 0.39084
# Poissons Ratio (z) = 0.30173 0.86230
#
# Static dielectric constant tensor:
#      x y z
#    x 1.804960 0.000000 0.000000 
#    y 0.000000 1.668760 0.000000 
#    z 0.000000 0.000000 1.741330 
# 
# From -- ./inp_files/9253.got.cif
#   From: 2010.05.17/outbox.cif.g08.bks.cpg/sg24_5_cif.got.tgz:9253.got - 2010.06.04 00:33:39.
