data_PCOD9336733
_publ_section_title
;
Structure prediction by ZEFSAII (Michael W. Deem and Ramdas Pophale) SiO2 
 PCOD9336733
Probable space group: I 21 21 21
;
_chemical_formula_sum "Si O2"
_cell_formula_units_Z 40
_cell_length_a 21.963222
_cell_length_b 9.532211
_cell_length_c 8.723331
_cell_angle_alpha 90.000000
_cell_angle_beta 90.000000
_cell_angle_gamma 90.000000
_cell_volume 1826.299710
_symmetry_space_group_name_H-M "I 21 21 21"
_symmetry_group_IT_number 24
_symmetry_cell_setting 'orthorhombic'
loop_
_space_group_symop_operation_xyz
x,y,z
-x,1/2-y,z
x,-y,1/2-z
1/2-x,y,-z
1/2+x,1/2+y,1/2+z
1/2-x,-y,1/2+z
1/2+x,1/2-y,-z
-x,1/2+y,1/2-z
loop_
_atom_site_type_symbol
_atom_site_label
_atom_site_fract_x
_atom_site_fract_y
_atom_site_fract_z
Si Si1 0.879130 0.026991 0.399559
Si Si2 0.774905 0.766134 0.165697
Si Si3 0.163592 0.262383 0.903580
Si Si4 0.428700 0.759018 0.125796
Si Si5 0.637560 0.481280 0.586254
O O1 0.829645 0.126472 0.314929
O O2 0.911292 0.125573 0.522794
O O3 0.921294 0.000000 0.250000
O O4 0.849888 0.900347 0.496595
O O5 0.725110 0.769598 0.300211
O O6 0.804509 0.615144 0.132020
O O7 0.750000 0.811618 0.000000
O O8 0.109579 0.247181 0.781017
O O9 0.160332 0.125581 0.011422
O O10 0.500000 0.750000 0.154867
O O11 0.404070 0.894551 0.032148
O O12 0.604857 0.500000 0.750000
#
# Coordination Sequence:
#
# PCOD9336733 Si02
#       5
#     8   8   8   8   8
#     4  11  26  45  68 102 139 180 224 277 338 404
#     4  11  25  40  65 103 142 174 219 274 334 400
#     4  12  25  44  73  99 136 181 230 275 332 405
#     4  11  26  47  70  97 132 176 232 287 343 403
#     4  11  26  45  68 102 139 180 224 277 338 404
#
# _framework density 21.902211000000001
#
# number of rings (size 3 to 8) (size 9 to 14) (size 15 to 20)
#    0.000    0.800    4.000    3.600    5.600    5.600 
#    0.000    2.000    0.000    0.000    0.000    0.000 
#    0.000    0.000    0.000    0.000    0.000    0.000 
#
# Total GULP energy -111802.271646 kJ/mol
# GULP energy per Si atom -5590.113582 kJ/mol
# Density = 2.185236 g / cm^3
# Si number density = 21.902211 Si / 1000 Ang^3
#
#
#
# Elastic Constant Matrix: (Units=GPa)
#
#
# Indices 1 2 3 4 5 6 
#
# 1 120.0058 36.8200 49.5032 0.0000 0.0000 0.0000
# 2 36.8200 122.4783 42.5094 0.0000 0.0000 0.0000
# 3 49.5032 42.5094 160.4925 0.0000 0.0000 0.0000
# 4 0.0000 0.0000 0.0000 51.1671 0.0000 0.0000
# 5 0.0000 0.0000 0.0000 0.0000 -18.5945 0.0000
# 6 0.0000 0.0000 0.0000 0.0000 0.0000 -5.6310
#
#
#
# Elastic Compliance Matrix: (Units=1/GPa)
#
#
# Indices 1 2 3 4 5 6 
#
# 1 0.010032 -0.002138 -0.002528 0.000000 0.000000 0.000000
# 2 -0.002138 0.009447 -0.001843 0.000000 0.000000 0.000000
# 3 -0.002528 -0.001843 0.007499 0.000000 0.000000 0.000000
# 4 0.000000 0.000000 0.000000 0.019544 0.000000 0.000000
# 5 0.000000 0.000000 0.000000 0.000000 -0.053779 0.000000
# 6 0.000000 0.000000 0.000000 0.000000 0.000000 -0.177588
#
#
# Mechanical properties :
#
#
# Convention : Reuss Voigt Hill
#
# Bulk Modulus (GPa) = 71.63528 73.40465 72.51996
# Shear Modulus (GPa) = -29.90874 23.66458 -3.12208
#
# Velocity S-wave (km/s) = -3.69935 3.29061 -1.19522
# Velocity P-wave (km/s) = 3.81194 6.93000 5.59267
#
# Compressibility (1/GPa) = 0.01395960
#
# Stress axis : x y z
#
# Youngs Moduli (GPa) = 99.68289 105.85230 133.35845
#
# Poissons Ratio (x) = 0.22636 0.33711
# Poissons Ratio (y) = 0.21317 0.24573
# Poissons Ratio (z) = 0.25198 0.19505
#
# Static dielectric constant tensor:
#      x y z
#    x 1.820620 0.000000 0.000000 
#    y 0.000000 1.881700 0.000000 
#    z 0.000000 0.000000 1.983610 
# 
# From -- ./inp_files/15631.got.cif
#   From: 2010.05.17/outbox.cif.g08.bks.cpg/sg24_8_cif.got.tgz:15631.got - 2010.06.04 00:33:39.
