data_PCOD9336691
_publ_section_title
;
Structure prediction by ZEFSAII (Michael W. Deem and Ramdas Pophale) SiO2 
 PCOD9336691
Probable space group: I 21 21 21
;
_chemical_formula_sum "Si O2"
_cell_formula_units_Z 24
_cell_length_a 15.021836
_cell_length_b 6.888727
_cell_length_c 10.333304
_cell_angle_alpha 90.000000
_cell_angle_beta 90.000000
_cell_angle_gamma 90.000000
_cell_volume 1069.304013
_symmetry_space_group_name_H-M "I 21 21 21"
_symmetry_group_IT_number 24
_symmetry_cell_setting 'orthorhombic'
loop_
_space_group_symop_operation_xyz
x,y,z
-x,1/2-y,z
x,-y,1/2-z
1/2-x,y,-z
1/2+x,1/2+y,1/2+z
1/2-x,-y,1/2+z
1/2+x,1/2-y,-z
-x,1/2+y,1/2-z
loop_
_atom_site_type_symbol
_atom_site_label
_atom_site_fract_x
_atom_site_fract_y
_atom_site_fract_z
Si Si1 0.249787 0.658531 0.851125
Si Si2 0.368945 0.000000 0.250000
Si Si3 0.500000 0.250000 0.070485
Si Si4 0.052577 0.575098 0.119586
O O1 0.213767 0.500000 0.750000
O O2 0.194693 0.854115 0.830247
O O3 0.355612 0.668022 0.828752
O O4 0.250000 0.594094 0.000000
O O5 0.432220 0.873558 0.342591
O O6 0.444661 0.397631 0.979338
O O7 0.005023 0.500000 0.250000
O O8 0.000000 0.750000 0.053881
#
# Coordination Sequence:
#
# PCOD9336691 Si02
#       4
#     8   4   4   8
#     4  11  26  46  74 111 152 193 256 314 388 455
#     4  12  30  46  78 104 158 206 252 320 386 466
#     4  12  28  48  76 110 152 210 258 308 396 462
#     4  11  24  44  77 108 146 189 248 315 381 451
#
# _framework density 22.444504999999999
#
# number of rings (size 3 to 8) (size 9 to 14) (size 15 to 20)
#    0.000    0.667    1.667    4.000   11.667    6.667 
#    0.000    0.000    0.000    0.000    0.000    0.000 
#    0.000    0.000    0.000    0.000    0.000    0.000 
#
# Total GULP energy -67059.417854 kJ/mol
# GULP energy per Si atom -5588.284821 kJ/mol
# Density = 2.239342 g / cm^3
# Si number density = 22.444505 Si / 1000 Ang^3
#
#
#
# Elastic Constant Matrix: (Units=GPa)
#
#
# Indices 1 2 3 4 5 6 
#
# 1 104.0159 75.9556 29.1780 0.0000 0.0000 0.0000
# 2 75.9556 157.1173 78.8065 0.0000 0.0000 0.0000
# 3 29.1780 78.8065 150.8771 0.0000 0.0000 0.0000
# 4 0.0000 0.0000 0.0000 37.9163 0.0000 0.0000
# 5 0.0000 0.0000 0.0000 0.0000 26.7149 0.0000
# 6 0.0000 0.0000 0.0000 0.0000 0.0000 48.2273
#
#
#
# Elastic Compliance Matrix: (Units=1/GPa)
#
#
# Indices 1 2 3 4 5 6 
#
# 1 0.015019 -0.007864 0.001203 0.000000 0.000000 0.000000
# 2 -0.007864 0.012742 -0.005134 0.000000 0.000000 0.000000
# 3 0.001203 -0.005134 0.009077 0.000000 0.000000 0.000000
# 4 0.000000 0.000000 0.000000 0.026374 0.000000 0.000000
# 5 0.000000 0.000000 0.000000 0.000000 0.037432 0.000000
# 6 0.000000 0.000000 0.000000 0.000000 0.000000 0.020735
#
#
# Mechanical properties :
#
#
# Convention : Reuss Voigt Hill
#
# Bulk Modulus (GPa) = 75.48938 86.65450 81.07194
# Shear Modulus (GPa) = 33.47032 37.77637 35.62335
#
# Velocity S-wave (km/s) = 3.86586 4.10701 3.98826
# Velocity P-wave (km/s) = 7.32347 7.82191 7.57679
#
# Compressibility (1/GPa) = 0.01324690
#
# Stress axis : x y z
#
# Youngs Moduli (GPa) = 66.58197 78.48182 110.16725
#
# Poissons Ratio (x) = 0.61719 -0.13254
# Poissons Ratio (y) = 0.52361 0.56565
# Poissons Ratio (z) = -0.08010 0.40296
#
# Static dielectric constant tensor:
#      x y z
#    x 1.952920 0.000000 0.000000 
#    y 0.000000 2.618900 0.000000 
#    z 0.000000 0.000000 1.879290 
# 
# From -- ./inp_files/1727.got.cif
#   From: 2010.05.17/outbox.cif.g08.bks.cpg/sg24_1_cif.got.tgz:1727.got - 2010.06.04 00:33:39.
