data_PCOD9336967
_publ_section_title
;
Structure prediction by ZEFSAII (Michael W. Deem and Ramdas Pophale) SiO2 
 PCOD9336967
Probable space group: I 21 21 21
;
_chemical_formula_sum "Si O2"
_cell_formula_units_Z 24
_cell_length_a 5.268458
_cell_length_b 9.383208
_cell_length_c 18.344847
_cell_angle_alpha 90.000000
_cell_angle_beta 90.000000
_cell_angle_gamma 90.000000
_cell_volume 906.878195
_symmetry_space_group_name_H-M "I 21 21 21"
_symmetry_group_IT_number 24
_symmetry_cell_setting 'orthorhombic'
loop_
_space_group_symop_operation_xyz
x,y,z
-x,1/2-y,z
x,-y,1/2-z
1/2-x,y,-z
1/2+x,1/2+y,1/2+z
1/2-x,-y,1/2+z
1/2+x,1/2-y,-z
-x,1/2+y,1/2-z
loop_
_atom_site_type_symbol
_atom_site_label
_atom_site_fract_x
_atom_site_fract_y
_atom_site_fract_z
Si Si1 0.000000 0.250000 0.640043
Si Si2 0.500000 0.250000 0.820557
Si Si3 0.500000 0.750000 0.388471
Si Si4 0.171870 0.500000 0.750000
Si Si5 0.250000 0.857631 0.000000
Si Si6 0.750000 0.040128 0.000000
O O1 0.034665 0.391884 0.690705
O O2 0.215011 0.221563 0.578171
O O3 0.762594 0.326045 0.849983
O O4 0.833081 0.142233 0.935310
O O5 0.144564 0.617134 0.285412
O O6 0.498022 0.951646 0.988087
#
# Coordination Sequence:
#
# PCOD9336967 Si02
#       6
#     4   4   4   4   4   4
#     4  12  31  61  94 135 185 242 312 384 463 551
#     4  12  29  53  82 121 175 234 302 372 452 537
#     4  12  26  46  78 122 174 228 292 374 453 536
#     4  12  32  58  90 132 182 248 310 380 460 560
#     4  12  28  52  88 130 177 234 303 380 457 544
#     4  12  26  46  80 126 173 226 291 364 455 538
#
# _framework density 26.464411999999999
#
# number of rings (size 3 to 8) (size 9 to 14) (size 15 to 20)
#    0.000    0.000    0.000    8.000    0.000   20.000 
#    0.000    0.000    0.000    4.000    0.000    0.000 
#    0.000    0.000    0.000    0.000    0.000    0.000 
#
# Total GULP energy -66835.655176 kJ/mol
# GULP energy per Si atom -5569.637931 kJ/mol
# Density = 2.640418 g / cm^3
# Si number density = 26.464412 Si / 1000 Ang^3
#
#
#
# Elastic Constant Matrix: (Units=GPa)
#
#
# Indices 1 2 3 4 5 6 
#
# 1 199.0090 61.9991 62.3938 0.0000 0.0000 0.0000
# 2 61.9991 190.8540 95.0582 0.0000 0.0000 0.0000
# 3 62.3938 95.0582 163.7958 0.0000 0.0000 0.0000
# 4 0.0000 0.0000 0.0000 -59.0914 0.0000 0.0000
# 5 0.0000 0.0000 0.0000 0.0000 87.0039 0.0000
# 6 0.0000 0.0000 0.0000 0.0000 0.0000 72.6765
#
#
#
# Elastic Compliance Matrix: (Units=1/GPa)
#
#
# Indices 1 2 3 4 5 6 
#
# 1 0.005871 -0.001116 -0.001589 0.000000 0.000000 0.000000
# 2 -0.001116 0.007582 -0.003975 0.000000 0.000000 0.000000
# 3 -0.001589 -0.003975 0.009017 0.000000 0.000000 0.000000
# 4 0.000000 0.000000 0.000000 -0.016923 0.000000 0.000000
# 5 0.000000 0.000000 0.000000 0.000000 0.011494 0.000000
# 6 0.000000 0.000000 0.000000 0.000000 0.000000 0.013760
#
#
# Mechanical properties :
#
#
# Convention : Reuss Voigt Hill
#
# Bulk Modulus (GPa) = 109.76227 110.28457 110.02342
# Shear Modulus (GPa) = 105.94037 42.39832 74.16934
#
# Velocity S-wave (km/s) = 6.33389 4.00695 5.29971
# Velocity P-wave (km/s) = 9.74968 7.94801 8.89458
#
# Compressibility (1/GPa) = 0.00911060
#
# Stress axis : x y z
#
# Youngs Moduli (GPa) = 170.34016 131.89217 110.89808
#
# Poissons Ratio (x) = 0.14716 0.17619
# Poissons Ratio (y) = 0.19006 0.44083
# Poissons Ratio (z) = 0.27062 0.52429
#
# Static dielectric constant tensor:
#      x y z
#    x 2.067220 0.000000 0.000000 
#    y 0.000000 2.186780 0.000000 
#    z 0.000000 0.000000 2.302770 
# 
# From -- ./inp_files/1671.got.cif
#   From: 2010.05.17/outbox.cif.g08.bks.cpg/sg24_1_cif.got.tgz:1671.got - 2010.06.04 00:33:39.
