data_PCOD9336454
_publ_section_title
;
Structure prediction by ZEFSAII (Michael W. Deem and Ramdas Pophale) SiO2 
 PCOD9336454
Probable space group: I 21 21 21
;
_chemical_formula_sum "Si O2"
_cell_formula_units_Z 48
_cell_length_a 16.605982
_cell_length_b 10.425915
_cell_length_c 12.885655
_cell_angle_alpha 90.000000
_cell_angle_beta 90.000000
_cell_angle_gamma 90.000000
_cell_volume 2230.926396
_symmetry_space_group_name_H-M "I 21 21 21"
_symmetry_group_IT_number 24
_symmetry_cell_setting 'orthorhombic'
loop_
_space_group_symop_operation_xyz
x,y,z
-x,1/2-y,z
x,-y,1/2-z
1/2-x,y,-z
1/2+x,1/2+y,1/2+z
1/2-x,-y,1/2+z
1/2+x,1/2-y,-z
-x,1/2+y,1/2-z
loop_
_atom_site_type_symbol
_atom_site_label
_atom_site_fract_x
_atom_site_fract_y
_atom_site_fract_z
Si Si1 0.395919 0.120656 0.318848
Si Si2 0.283849 0.739894 0.617999
Si Si3 0.048825 0.877563 0.058407
Si Si4 0.220168 0.963427 0.118488
Si Si5 0.379769 0.369050 0.189657
Si Si6 0.556154 0.873137 0.546109
O O1 0.431899 0.122727 0.434274
O O2 0.299201 0.100278 0.331304
O O3 0.412292 0.249435 0.255571
O O4 0.424191 0.000000 0.250000
O O5 0.250000 0.747880 0.500000
O O6 0.214507 0.665774 0.678306
O O7 0.365129 0.658817 0.613078
O O8 0.295635 0.888416 0.651280
O O9 0.000000 0.750000 0.085336
O O10 0.134840 0.890793 0.116018
O O11 0.993175 0.001294 0.077238
O O12 0.250000 0.972243 0.000000
O O13 0.390408 0.500000 0.250000
O O14 0.416847 0.380613 0.074794
O O15 0.500000 0.750000 0.554874
#
# Coordination Sequence:
#
# PCOD9336454 Si02
#       6
#     8   8   8   8   8   8
#     4  11  21  36  60  83 112 153 189 227 278 339
#     4   9  18  36  58  78 106 153 201 223 256 335
#     4  11  23  36  55  87 119 146 182 235 288 329
#     4   9  18  36  58  78 106 153 201 223 256 335
#     4  11  23  36  55  87 119 146 182 235 288 329
#     4  11  21  36  60  83 112 153 189 227 278 339
#
# _framework density 21.515725
#
# number of rings (size 3 to 8) (size 9 to 14) (size 15 to 20)
#    0.000    1.667    3.333    2.000    0.000    5.333 
#    0.000    5.000    0.000    6.000    0.000    0.000 
#    0.000    0.000    0.000    0.000    0.000    0.000 
#
# Total GULP energy -134191.670462 kJ/mol
# GULP energy per Si atom -5591.319603 kJ/mol
# Density = 2.146675 g / cm^3
# Si number density = 21.515725 Si / 1000 Ang^3
#
#
#
# Elastic Constant Matrix: (Units=GPa)
#
#
# Indices 1 2 3 4 5 6 
#
# 1 182.6848 74.8539 13.8410 0.0000 0.0000 0.0000
# 2 74.8539 177.1046 6.1769 0.0000 0.0000 0.0000
# 3 13.8410 6.1769 29.3041 0.0000 0.0000 0.0000
# 4 0.0000 0.0000 0.0000 9.8569 0.0000 0.0000
# 5 0.0000 0.0000 0.0000 0.0000 36.0972 0.0000
# 6 0.0000 0.0000 0.0000 0.0000 0.0000 31.8668
#
#
#
# Elastic Compliance Matrix: (Units=1/GPa)
#
#
# Indices 1 2 3 4 5 6 
#
# 1 0.006816 -0.002789 -0.002631 0.000000 0.000000 0.000000
# 2 -0.002789 0.006829 -0.000122 0.000000 0.000000 0.000000
# 3 -0.002631 -0.000122 0.035394 0.000000 0.000000 0.000000
# 4 0.000000 0.000000 0.000000 0.101451 0.000000 0.000000
# 5 0.000000 0.000000 0.000000 0.000000 0.027703 0.000000
# 6 0.000000 0.000000 0.000000 0.000000 0.000000 0.031381
#
#
# Mechanical properties :
#
#
# Convention : Reuss Voigt Hill
#
# Bulk Modulus (GPa) = 26.34795 64.31522 45.33159
# Shear Modulus (GPa) = 21.43064 35.17897 28.30480
#
# Velocity S-wave (km/s) = 3.15944 4.04794 3.63097
# Velocity P-wave (km/s) = 5.05786 7.19756 6.22040
#
# Compressibility (1/GPa) = 0.03795362
#
# Stress axis : x y z
#
# Youngs Moduli (GPa) = 146.71178 146.42463 28.25367
#
# Poissons Ratio (x) = 0.40839 0.07435
# Poissons Ratio (y) = 0.40919 0.00345
# Poissons Ratio (z) = 0.38607 0.01790
#
# Static dielectric constant tensor:
#      x y z
#    x 1.766060 0.000000 0.000000 
#    y 0.000000 1.721000 0.000000 
#    z 0.000000 0.000000 1.824270 
# 
# From -- ./inp_files/12784.got.cif
#   From: 2010.05.17/outbox.cif.g08.bks.cpg/sg24_7_cif.got.tgz:12784.got - 2010.06.04 00:33:39.
