data_PCOD9336619
_publ_section_title
;
Structure prediction by ZEFSAII (Michael W. Deem and Ramdas Pophale) SiO2 
 PCOD9336619
Probable space group: I 21 21 21
;
_chemical_formula_sum "Si O2"
_cell_formula_units_Z 32
_cell_length_a 4.940244
_cell_length_b 9.899392
_cell_length_c 30.958443
_cell_angle_alpha 90.000000
_cell_angle_beta 90.000000
_cell_angle_gamma 90.000000
_cell_volume 1514.035408
_symmetry_space_group_name_H-M "I 21 21 21"
_symmetry_group_IT_number 24
_symmetry_cell_setting 'orthorhombic'
loop_
_space_group_symop_operation_xyz
x,y,z
-x,1/2-y,z
x,-y,1/2-z
1/2-x,y,-z
1/2+x,1/2+y,1/2+z
1/2-x,-y,1/2+z
1/2+x,1/2-y,-z
-x,1/2+y,1/2-z
loop_
_atom_site_type_symbol
_atom_site_label
_atom_site_fract_x
_atom_site_fract_y
_atom_site_fract_z
Si Si1 0.000000 0.250000 0.531542
Si Si2 0.162857 0.386138 0.128684
Si Si3 0.697888 0.504994 0.416218
Si Si4 0.750000 0.660000 0.500000
Si Si5 0.747400 0.152502 0.769311
O O1 0.750000 0.213215 0.500000
O O2 0.913716 0.368935 0.563336
O O3 0.440981 0.415632 0.103690
O O4 0.228001 0.370186 0.178996
O O5 0.000000 0.250000 0.115398
O O6 0.939543 0.501117 0.118412
O O7 0.828351 0.574215 0.458510
O O8 0.500000 0.750000 0.486675
O O9 0.500000 0.250000 0.755888
O O10 0.000000 0.250000 0.759772
O O11 0.754122 0.000000 0.750000
#
# Coordination Sequence:
#
# PCOD9336619 Si02
#       5
#     4   8   8   4   8
#     4  12  26  46  62  84 134 184 218 274 338 396
#     4  11  23  43  68  96 131 168 215 275 339 387
#     4  12  24  42  63  91 127 172 222 266 331 398
#     4  12  24  36  60  90 118 156 212 272 310 378
#     4  11  24  46  75 105 144 183 226 285 354 425
#
# _framework density 21.135567000000002
#
# number of rings (size 3 to 8) (size 9 to 14) (size 15 to 20)
#    0.000    0.500    1.250    9.750    1.750    0.000 
#    6.750    0.000    0.000    0.000    0.000    0.000 
#    0.000    0.000    0.000    0.000    0.000    0.000 
#
# Total GULP energy -89411.872073 kJ/mol
# GULP energy per Si atom -5588.242005 kJ/mol
# Density = 2.108746 g / cm^3
# Si number density = 21.135567 Si / 1000 Ang^3
#
#
#
# Elastic Constant Matrix: (Units=GPa)
#
#
# Indices 1 2 3 4 5 6 
#
# 1 146.1514 35.9622 22.6771 0.0000 0.0000 0.0000
# 2 35.9622 127.4895 47.7719 0.0000 0.0000 0.0000
# 3 22.6771 47.7719 66.6084 0.0000 0.0000 0.0000
# 4 0.0000 0.0000 0.0000 22.7641 0.0000 0.0000
# 5 0.0000 0.0000 0.0000 0.0000 20.4970 0.0000
# 6 0.0000 0.0000 0.0000 0.0000 0.0000 26.6100
#
#
#
# Elastic Compliance Matrix: (Units=1/GPa)
#
#
# Indices 1 2 3 4 5 6 
#
# 1 0.007448 -0.001574 -0.001407 0.000000 0.000000 0.000000
# 2 -0.001574 0.011059 -0.007396 0.000000 0.000000 0.000000
# 3 -0.001407 -0.007396 0.020796 0.000000 0.000000 0.000000
# 4 0.000000 0.000000 0.000000 0.043929 0.000000 0.000000
# 5 0.000000 0.000000 0.000000 0.000000 0.048788 0.000000
# 6 0.000000 0.000000 0.000000 0.000000 0.000000 0.037580
#
#
# Mechanical properties :
#
#
# Convention : Reuss Voigt Hill
#
# Bulk Modulus (GPa) = 53.90749 61.45241 57.67995
# Shear Modulus (GPa) = 25.44065 29.56342 27.50203
#
# Velocity S-wave (km/s) = 3.47319 3.74405 3.61116
# Velocity P-wave (km/s) = 6.45329 6.91585 6.68857
#
# Compressibility (1/GPa) = 0.01855030
#
# Stress axis : x y z
#
# Youngs Moduli (GPa) = 134.26882 90.42432 48.08511
#
# Poissons Ratio (x) = 0.14230 0.06766
# Poissons Ratio (y) = 0.21129 0.35563
# Poissons Ratio (z) = 0.18892 0.66876
#
# Static dielectric constant tensor:
#      x y z
#    x 1.817490 0.000000 0.000000 
#    y 0.000000 2.080090 0.000000 
#    z 0.000000 0.000000 1.716070 
# 
# From -- ./inp_files/16582.got.cif
#   From: 2010.05.17/outbox.cif.g08.bks.cpg/sg24_9_cif.got.tgz:16582.got - 2010.06.04 00:33:39.
