data_PCOD9336057
_publ_section_title
;
Structure prediction by ZEFSAII (Michael W. Deem and Ramdas Pophale) SiO2 
 PCOD9336057
Probable space group: I 21 21 21
;
_chemical_formula_sum "Si O2"
_cell_formula_units_Z 28
_cell_length_a 5.218383
_cell_length_b 21.739852
_cell_length_c 10.132436
_cell_angle_alpha 90.000000
_cell_angle_beta 90.000000
_cell_angle_gamma 90.000000
_cell_volume 1149.493191
_symmetry_space_group_name_H-M "I 21 21 21"
_symmetry_group_IT_number 24
_symmetry_cell_setting 'orthorhombic'
loop_
_space_group_symop_operation_xyz
x,y,z
-x,1/2-y,z
x,-y,1/2-z
1/2-x,y,-z
1/2+x,1/2+y,1/2+z
1/2-x,-y,1/2+z
1/2+x,1/2-y,-z
-x,1/2+y,1/2-z
loop_
_atom_site_type_symbol
_atom_site_label
_atom_site_fract_x
_atom_site_fract_y
_atom_site_fract_z
Si Si1 0.000000 0.250000 0.908703
Si Si2 0.794684 0.638636 0.747730
Si Si3 0.750000 0.570931 0.500000
Si Si4 0.250000 0.210880 0.500000
Si Si5 0.118332 0.529758 0.874299
O O1 0.020183 0.189233 0.818654
O O2 0.250000 0.252854 0.000000
O O3 0.644599 0.612366 0.620399
O O4 0.935863 0.580512 0.811522
O O5 0.665092 0.671757 0.871513
O O6 0.535858 0.526234 0.441179
O O7 0.500000 0.250000 0.463329
O O8 0.270898 0.500000 0.750000
O O9 0.250000 0.559965 0.000000
#
# Coordination Sequence:
#
# PCOD9336057 Si02
#       5
#     4   8   4   4   8
#     4  12  28  52  76 114 148 202 260 308 376 454
#     4  11  25  46  75 107 149 200 246 320 375 456
#     4  10  23  50  70 106 144 195 256 304 372 454
#     4  12  29  48  70 114 156 195 248 310 388 448
#     4  10  24  44  69 108 141 192 243 311 382 442
#
# _framework density 24.358559
#
# number of rings (size 3 to 8) (size 9 to 14) (size 15 to 20)
#    0.000    1.143    2.857    0.857    4.000   10.286 
#   10.286    0.000    0.000    0.000    0.000    0.000 
#    0.000    0.000    0.000    0.000    0.000    0.000 
#
# Total GULP energy -78256.633270 kJ/mol
# GULP energy per Si atom -5589.759519 kJ/mol
# Density = 2.430312 g / cm^3
# Si number density = 24.358559 Si / 1000 Ang^3
#
#
#
# Elastic Constant Matrix: (Units=GPa)
#
#
# Indices 1 2 3 4 5 6 
#
# 1 55.3233 17.9916 38.2697 0.0000 0.0000 0.0000
# 2 17.9916 114.4984 70.8789 0.0000 0.0000 0.0000
# 3 38.2697 70.8789 219.3376 0.0000 0.0000 -0.0002
# 4 0.0000 0.0000 0.0000 -27.7970 0.0000 0.0001
# 5 0.0000 0.0000 0.0000 0.0000 35.8155 0.0000
# 6 0.0000 0.0000 -0.0002 0.0001 0.0000 -1.7053
#
#
#
# Elastic Compliance Matrix: (Units=1/GPa)
#
#
# Indices 1 2 3 4 5 6 
#
# 1 0.020704 -0.001271 -0.003201 0.000000 0.000000 0.000000
# 2 -0.001271 0.010996 -0.003331 0.000000 0.000000 0.000000
# 3 -0.003201 -0.003331 0.006194 0.000000 0.000000 -0.000001
# 4 0.000000 0.000000 0.000000 -0.035975 0.000000 -0.000002
# 5 0.000000 0.000000 0.000000 0.000000 0.027921 0.000000
# 6 0.000000 0.000000 -0.000001 -0.000002 0.000000 -0.586400
#
#
# Mechanical properties :
#
#
# Convention : Reuss Voigt Hill
#
# Bulk Modulus (GPa) = 44.87304 71.49329 58.18316
# Shear Modulus (GPa) = -9.37166 18.73057 4.67946
#
# Velocity S-wave (km/s) = -1.96360 2.77601 1.38753
# Velocity P-wave (km/s) = 3.64978 6.29992 5.14830
#
# Compressibility (1/GPa) = 0.02228510
#
# Stress axis : x y z
#
# Youngs Moduli (GPa) = 48.30067 90.94348 161.43783
#
# Poissons Ratio (x) = 0.11563 0.51684
# Poissons Ratio (y) = 0.06141 0.53783
# Poissons Ratio (z) = 0.15463 0.30298
#
# Static dielectric constant tensor:
#      x y z
#    x 2.341390 0.000000 0.000000 
#    y 0.000000 1.953160 0.000000 
#    z 0.000000 0.000000 2.071040 
# 
# From -- ./inp_files/17349.got.cif
#   From: 2010.05.17/outbox.cif.g08.bks.cpg/sg24_9_cif.got.tgz:17349.got - 2010.06.04 00:33:39.
