data_PCOD9336205
_publ_section_title
;
Structure prediction by ZEFSAII (Michael W. Deem and Ramdas Pophale) SiO2 
 PCOD9336205
Probable space group: I 21 21 21
;
_chemical_formula_sum "Si O2"
_cell_formula_units_Z 32
_cell_length_a 6.198079
_cell_length_b 7.218880
_cell_length_c 29.608051
_cell_angle_alpha 90.000000
_cell_angle_beta 90.000000
_cell_angle_gamma 90.000000
_cell_volume 1324.758608
_symmetry_space_group_name_H-M "I 21 21 21"
_symmetry_group_IT_number 24
_symmetry_cell_setting 'orthorhombic'
loop_
_space_group_symop_operation_xyz
x,y,z
-x,1/2-y,z
x,-y,1/2-z
1/2-x,y,-z
1/2+x,1/2+y,1/2+z
1/2-x,-y,1/2+z
1/2+x,1/2-y,-z
-x,1/2+y,1/2-z
loop_
_atom_site_type_symbol
_atom_site_label
_atom_site_fract_x
_atom_site_fract_y
_atom_site_fract_z
Si Si1 0.498694 0.036475 0.487764
Si Si2 0.401147 0.062734 0.703774
Si Si3 0.500000 0.750000 0.634597
Si Si4 0.606626 0.945802 0.388112
Si Si5 0.500000 0.750000 0.185621
O O1 0.500000 0.250000 0.503779
O O2 0.750000 0.967494 0.500000
O O3 0.250000 0.965537 0.500000
O O4 0.501641 0.021163 0.433432
O O5 0.500000 0.250000 0.683079
O O6 0.169031 0.143058 0.715858
O O7 0.514951 0.000000 0.750000
O O8 0.390265 0.896684 0.668714
O O9 0.648249 0.881129 0.604591
O O10 0.500000 0.750000 0.375625
O O11 0.592225 0.092848 0.348102
#
# Coordination Sequence:
#
# PCOD9336205 Si02
#       5
#     8   8   4   8   4
#     4  10  24  46  73 108 149 197 249 309 383 454
#     4  12  26  45  73 103 148 191 244 310 375 441
#     4  12  26  44  72 110 140 194 252 304 372 454
#     4  12  26  44  74 107 143 191 246 308 371 449
#     4  12  26  46  70 110 144 188 244 316 372 438
#
# _framework density 24.155342000000001
#
# number of rings (size 3 to 8) (size 9 to 14) (size 15 to 20)
#    0.000    0.500    7.500    0.000    3.500    4.000 
#    4.500    0.000    0.000    0.000    0.000    0.000 
#    0.000    0.000    0.000    0.000    0.000    0.000 
#
# Total GULP energy -89078.367921 kJ/mol
# GULP energy per Si atom -5567.397995 kJ/mol
# Density = 2.410036 g / cm^3
# Si number density = 24.155342 Si / 1000 Ang^3
#
#
#
# Elastic Constant Matrix: (Units=GPa)
#
#
# Indices 1 2 3 4 5 6 
#
# 1 108.7302 22.2920 -0.3667 0.0000 0.0000 0.0000
# 2 22.2920 119.3767 8.8080 0.0000 0.0000 0.0000
# 3 -0.3667 8.8080 37.0049 0.0000 0.0000 0.0000
# 4 0.0000 0.0000 0.0000 -38.9901 0.0000 0.0000
# 5 0.0000 0.0000 0.0000 0.0000 22.8741 0.0000
# 6 0.0000 0.0000 0.0000 0.0000 0.0000 18.9832
#
#
#
# Elastic Compliance Matrix: (Units=1/GPa)
#
#
# Indices 1 2 3 4 5 6 
#
# 1 0.009573 -0.001827 0.000530 0.000000 0.000000 0.000000
# 2 -0.001827 0.008875 -0.002131 0.000000 0.000000 0.000000
# 3 0.000530 -0.002131 0.027536 0.000000 0.000000 0.000000
# 4 0.000000 0.000000 0.000000 -0.025648 0.000000 0.000000
# 5 0.000000 0.000000 0.000000 0.000000 0.043718 0.000000
# 6 0.000000 0.000000 0.000000 0.000000 0.000000 0.052678
#
#
# Mechanical properties :
#
#
# Convention : Reuss Voigt Hill
#
# Bulk Modulus (GPa) = 25.55650 36.28648 30.92149
# Shear Modulus (GPa) = 36.59492 16.19867 26.39679
#
# Velocity S-wave (km/s) = 3.89650 2.59241 3.30933
# Velocity P-wave (km/s) = 5.55398 4.90057 5.23747
#
# Compressibility (1/GPa) = 0.03912899
#
# Stress axis : x y z
#
# Youngs Moduli (GPa) = 104.45617 112.67385 36.31636
#
# Poissons Ratio (x) = 0.20583 -0.01924
# Poissons Ratio (y) = 0.19082 0.07738
# Poissons Ratio (z) = -0.05533 0.24006
#
# Static dielectric constant tensor:
#      x y z
#    x 2.287720 0.000000 0.000000 
#    y 0.000000 1.869370 0.000000 
#    z 0.000000 0.000000 1.836620 
# 
# From -- ./inp_files/1202.got.cif
#   From: 2010.05.17/outbox.cif.g08.bks.cpg/sg24_1_cif.got.tgz:1202.got - 2010.06.04 00:33:39.
