data_PCOD9336155
_publ_section_title
;
Structure prediction by ZEFSAII (Michael W. Deem and Ramdas Pophale) SiO2 
 PCOD9336155
Probable space group: I 21 21 21
;
_chemical_formula_sum "Si O2"
_cell_formula_units_Z 28
_cell_length_a 7.172899
_cell_length_b 7.708661
_cell_length_c 20.516550
_cell_angle_alpha 90.000000
_cell_angle_beta 90.000000
_cell_angle_gamma 90.000000
_cell_volume 1134.430765
_symmetry_space_group_name_H-M "I 21 21 21"
_symmetry_group_IT_number 24
_symmetry_cell_setting 'orthorhombic'
loop_
_space_group_symop_operation_xyz
x,y,z
-x,1/2-y,z
x,-y,1/2-z
1/2-x,y,-z
1/2+x,1/2+y,1/2+z
1/2-x,-y,1/2+z
1/2+x,1/2-y,-z
-x,1/2+y,1/2-z
loop_
_atom_site_type_symbol
_atom_site_label
_atom_site_fract_x
_atom_site_fract_y
_atom_site_fract_z
Si Si1 0.250907 0.129538 0.351061
Si Si2 0.750000 0.470228 0.500000
Si Si3 0.500000 0.750000 0.451224
Si Si4 0.646171 0.033906 0.158645
Si Si5 0.056704 0.500000 0.250000
O O1 0.424756 0.003361 0.330583
O O2 0.290775 0.334097 0.345317
O O3 0.231477 0.116624 0.429709
O O4 0.078982 0.072620 0.306183
O O5 0.574821 0.595580 0.493752
O O6 0.350023 0.657458 0.403984
O O7 0.788857 0.116120 0.210789
#
# Coordination Sequence:
#
# PCOD9336155 Si02
#       5
#     8   4   4   8   4
#     4  10  24  47  69 103 149 198 245 303 371 437
#     4  10  24  44  68 104 146 192 250 304 366 436
#     4  10  24  44  70 104 144 192 242 316 362 426
#     4  10  24  45  68 106 146 190 242 310 363 433
#     4  12  24  42  76 110 142 196 250 290 366 450
#
# _framework density 24.681981
#
# number of rings (size 3 to 8) (size 9 to 14) (size 15 to 20)
#    0.000    1.714    0.000    1.714    4.000   12.571 
#   15.429    0.000    0.000    0.000    0.000    0.000 
#    0.000    0.000    0.000    0.000    0.000    0.000 
#
# Total GULP energy -78047.415339 kJ/mol
# GULP energy per Si atom -5574.815381 kJ/mol
# Density = 2.462580 g / cm^3
# Si number density = 24.681981 Si / 1000 Ang^3
#
#
#
# Elastic Constant Matrix: (Units=GPa)
#
#
# Indices 1 2 3 4 5 6 
#
# 1 152.3256 22.5963 76.3747 0.0000 0.0000 0.0000
# 2 22.5963 76.8834 38.1554 0.0000 0.0000 0.0000
# 3 76.3747 38.1554 172.9283 0.0000 0.0000 0.0000
# 4 0.0000 0.0000 0.0000 118.3783 0.0000 0.0000
# 5 0.0000 0.0000 0.0000 0.0000 47.9617 0.0000
# 6 0.0000 0.0000 0.0000 0.0000 0.0000 12.7211
#
#
#
# Elastic Compliance Matrix: (Units=1/GPa)
#
#
# Indices 1 2 3 4 5 6 
#
# 1 0.008467 -0.000710 -0.003583 0.000000 0.000000 0.000000
# 2 -0.000710 0.014666 -0.002922 0.000000 0.000000 0.000000
# 3 -0.003583 -0.002922 0.008010 0.000000 0.000000 0.000000
# 4 0.000000 0.000000 0.000000 0.008447 0.000000 0.000000
# 5 0.000000 0.000000 0.000000 0.000000 0.020850 0.000000
# 6 0.000000 0.000000 0.000000 0.000000 0.000000 0.078610
#
#
# Mechanical properties :
#
#
# Convention : Reuss Voigt Hill
#
# Bulk Modulus (GPa) = 59.83798 75.15445 67.49621
# Shear Modulus (GPa) = 31.43669 53.47960 42.45815
#
# Velocity S-wave (km/s) = 3.57272 4.65988 4.15204
# Velocity P-wave (km/s) = 6.42770 7.71154 7.09871
#
# Compressibility (1/GPa) = 0.01671179
#
# Stress axis : x y z
#
# Youngs Moduli (GPa) = 118.11224 68.18645 124.84808
#
# Poissons Ratio (x) = 0.04844 0.44727
# Poissons Ratio (y) = 0.08391 0.36482
# Poissons Ratio (z) = 0.42314 0.19925
#
# Static dielectric constant tensor:
#      x y z
#    x 1.477440 0.000000 0.000000 
#    y 0.000000 2.036430 0.000000 
#    z 0.000000 0.000000 2.085590 
# 
# From -- ./inp_files/29155.got.cif
#   From: 2010.05.17/outbox.cif.g08.bks.cpg/sg24_15_cif.got.tgz:29155.got - 2010.06.04 00:33:39.
