data_PCOD9336560
_publ_section_title
;
Structure prediction by ZEFSAII (Michael W. Deem and Ramdas Pophale) SiO2 
 PCOD9336560
Probable space group: I 21 21 21
;
_chemical_formula_sum "Si O2"
_cell_formula_units_Z 56
_cell_length_a 9.353256
_cell_length_b 14.619777
_cell_length_c 21.246905
_cell_angle_alpha 90.000000
_cell_angle_beta 90.000000
_cell_angle_gamma 90.000000
_cell_volume 2905.355267
_symmetry_space_group_name_H-M "I 21 21 21"
_symmetry_group_IT_number 24
_symmetry_cell_setting 'orthorhombic'
loop_
_space_group_symop_operation_xyz
x,y,z
-x,1/2-y,z
x,-y,1/2-z
1/2-x,y,-z
1/2+x,1/2+y,1/2+z
1/2-x,-y,1/2+z
1/2+x,1/2-y,-z
-x,1/2+y,1/2-z
loop_
_atom_site_type_symbol
_atom_site_label
_atom_site_fract_x
_atom_site_fract_y
_atom_site_fract_z
Si Si1 0.748725 0.887802 0.927145
Si Si2 0.006140 0.465755 0.106105
Si Si3 0.753510 0.547401 0.185139
Si Si4 0.172162 0.257111 0.315756
Si Si5 0.025247 0.469326 0.875042
Si Si6 0.582341 0.345103 0.012008
Si Si7 0.280743 0.406580 0.790646
O O1 0.733741 0.804910 0.878427
O O2 0.613477 0.953693 0.914223
O O3 0.884348 0.951208 0.909861
O O4 0.750000 0.860053 0.000000
O O5 0.862421 0.511166 0.132253
O O6 0.085903 0.410473 0.161640
O O7 0.977055 0.400925 0.047532
O O8 0.797884 0.500000 0.250000
O O9 0.766656 0.655868 0.191460
O O10 0.594912 0.515727 0.167653
O O11 0.210635 0.322351 0.256997
O O12 0.000000 0.250000 0.320329
O O13 0.137712 0.412818 0.832563
O O14 0.949907 0.404923 0.926170
O O15 0.500000 0.250000 0.017604
O O16 0.750000 0.330182 0.000000
O O17 0.286180 0.500000 0.750000
#
# Coordination Sequence:
#
# PCOD9336560 Si02
#       7
#     8   8   8   8   8   8   8
#     4  11  23  44  73 100 135 185 227 283 348 415
#     4  11  22  44  73  95 138 186 224 280 352 414
#     4  12  26  44  68 101 142 182 226 292 353 412
#     4  12  24  45  73 107 135 181 246 283 341 434
#     4  11  25  46  69  99 140 185 221 286 363 404
#     4  12  28  46  71 103 139 181 241 286 343 423
#     4  11  22  43  74 101 137 180 232 287 350 408
#
# _framework density 19.274750999999998
#
# number of rings (size 3 to 8) (size 9 to 14) (size 15 to 20)
#    0.000    0.571    7.143    1.714    4.000    3.429 
#    5.143    0.000    0.000    0.000    0.000    0.000 
#    0.000    0.000    0.000    0.000    0.000    0.000 
#
# Total GULP energy -156663.726192 kJ/mol
# GULP energy per Si atom -5595.133078 kJ/mol
# Density = 1.923088 g / cm^3
# Si number density = 19.274751 Si / 1000 Ang^3
#
#
#
# Elastic Constant Matrix: (Units=GPa)
#
#
# Indices 1 2 3 4 5 6 
#
# 1 74.8381 25.3589 5.5868 0.0000 0.0000 0.0000
# 2 25.3589 147.1093 58.2419 0.0000 0.0000 0.0000
# 3 5.5868 58.2419 114.7485 0.0000 0.0000 0.0000
# 4 0.0000 0.0000 0.0000 31.7238 0.0000 0.0000
# 5 0.0000 0.0000 0.0000 0.0000 21.8453 0.0000
# 6 0.0000 0.0000 0.0000 0.0000 0.0000 7.9837
#
#
#
# Elastic Compliance Matrix: (Units=1/GPa)
#
#
# Indices 1 2 3 4 5 6 
#
# 1 0.014235 -0.002728 0.000691 0.000000 0.000000 0.000000
# 2 -0.002728 0.009030 -0.004450 0.000000 0.000000 0.000000
# 3 0.000691 -0.004450 0.010940 0.000000 0.000000 0.000000
# 4 0.000000 0.000000 0.000000 0.031522 0.000000 0.000000
# 5 0.000000 0.000000 0.000000 0.000000 0.045776 0.000000
# 6 0.000000 0.000000 0.000000 0.000000 0.000000 0.125256
#
#
# Mechanical properties :
#
#
# Convention : Reuss Voigt Hill
#
# Bulk Modulus (GPa) = 47.10019 57.23011 52.16515
# Shear Modulus (GPa) = 19.46973 28.81110 24.14041
#
# Velocity S-wave (km/s) = 3.18168 3.87041 3.54282
# Velocity P-wave (km/s) = 6.16334 7.05192 6.62255
#
# Compressibility (1/GPa) = 0.02123134
#
# Stress axis : x y z
#
# Youngs Moduli (GPa) = 70.25048 110.74470 91.40859
#
# Poissons Ratio (x) = 0.30206 -0.06319
# Poissons Ratio (y) = 0.19161 0.40680
# Poissons Ratio (z) = -0.04857 0.49285
#
# Static dielectric constant tensor:
#      x y z
#    x 1.669180 0.000000 0.000000 
#    y 0.000000 1.632100 0.000000 
#    z 0.000000 0.000000 1.665860 
# 
# From -- ./inp_files/32824.got.cif
#   From: 2010.05.17/outbox.cif.g08.bks.cpg/sg24_17_cif.got.tgz:32824.got - 2010.06.04 00:33:39.
