data_PCOD9336897
_publ_section_title
;
Structure prediction by ZEFSAII (Michael W. Deem and Ramdas Pophale) SiO2 
 PCOD9336897
Probable space group: I 21 21 21
;
_chemical_formula_sum "Si O2"
_cell_formula_units_Z 48
_cell_length_a 9.423369
_cell_length_b 16.616979
_cell_length_c 14.041142
_cell_angle_alpha 90.000000
_cell_angle_beta 90.000000
_cell_angle_gamma 90.000000
_cell_volume 2198.673287
_symmetry_space_group_name_H-M "I 21 21 21"
_symmetry_group_IT_number 24
_symmetry_cell_setting 'orthorhombic'
loop_
_space_group_symop_operation_xyz
x,y,z
-x,1/2-y,z
x,-y,1/2-z
1/2-x,y,-z
1/2+x,1/2+y,1/2+z
1/2-x,-y,1/2+z
1/2+x,1/2-y,-z
-x,1/2+y,1/2-z
loop_
_atom_site_type_symbol
_atom_site_label
_atom_site_fract_x
_atom_site_fract_y
_atom_site_fract_z
Si Si1 0.250000 0.002793 0.500000
Si Si2 0.548798 0.390939 0.383066
Si Si3 0.654861 0.137503 0.764778
Si Si4 0.615305 0.814752 0.944015
Si Si5 0.147202 0.500000 0.750000
Si Si6 0.643410 0.573779 0.673075
Si Si7 0.645572 0.711673 0.285009
O O1 0.363019 0.954251 0.563233
O O2 0.321357 0.057704 0.420711
O O3 0.461719 0.366037 0.475505
O O4 0.452330 0.446007 0.316030
O O5 0.603713 0.315263 0.322299
O O6 0.657241 0.135563 0.649140
O O7 0.494666 0.125571 0.798913
O O8 0.734589 0.220073 0.789087
O O9 0.749361 0.063313 0.801763
O O10 0.500000 0.750000 0.910439
O O11 0.750000 0.778213 0.000000
O O12 0.648593 0.500000 0.750000
O O13 0.784671 0.629447 0.676497
O O14 0.500000 0.750000 0.326427
#
# Coordination Sequence:
#
# PCOD9336897 Si02
#       7
#     4   8   8   8   4   8   8
#     4  12  28  44  78 108 146 190 252 306 374 446
#     4  12  25  42  70 107 143 189 239 301 370 439
#     4  12  26  44  72 106 150 197 245 300 372 439
#     4  12  24  40  65 108 148 180 233 303 371 436
#     4  12  24  46  70 100 148 200 240 292 370 448
#     4  12  25  49  74 105 148 195 247 304 368 444
#     4  12  24  46  73 106 143 196 242 297 371 439
#
# _framework density 21.831347000000001
#
# number of rings (size 3 to 8) (size 9 to 14) (size 15 to 20)
#    0.000    0.000    5.833    5.000    3.500    0.000 
#    0.000    1.667    0.000    0.000    0.000    0.000 
#    0.000    0.000    0.000    0.000    0.000    0.000 
#
# Total GULP energy -134179.858186 kJ/mol
# GULP energy per Si atom -5590.827424 kJ/mol
# Density = 2.178166 g / cm^3
# Si number density = 21.831347 Si / 1000 Ang^3
#
#
#
# Elastic Constant Matrix: (Units=GPa)
#
#
# Indices 1 2 3 4 5 6 
#
# 1 117.9875 38.3901 11.0272 0.0000 0.0000 0.0000
# 2 38.3901 102.0133 8.9607 0.0000 0.0000 0.0000
# 3 11.0272 8.9607 37.7039 0.0000 0.0000 0.0000
# 4 0.0000 0.0000 0.0000 13.5429 0.0000 0.0000
# 5 0.0000 0.0000 0.0000 0.0000 -30.2570 0.0000
# 6 0.0000 0.0000 0.0000 0.0000 0.0000 38.0262
#
#
#
# Elastic Compliance Matrix: (Units=1/GPa)
#
#
# Indices 1 2 3 4 5 6 
#
# 1 0.009808 -0.003512 -0.002034 0.000000 0.000000 0.000000
# 2 -0.003512 0.011269 -0.001651 0.000000 0.000000 0.000000
# 3 -0.002034 -0.001651 0.027510 0.000000 0.000000 0.000000
# 4 0.000000 0.000000 0.000000 0.073840 0.000000 0.000000
# 5 0.000000 0.000000 0.000000 0.000000 -0.033050 0.000000
# 6 0.000000 0.000000 0.000000 0.000000 0.000000 0.026298
#
#
# Mechanical properties :
#
#
# Convention : Reuss Voigt Hill
#
# Bulk Modulus (GPa) = 29.24590 41.60675 35.42633
# Shear Modulus (GPa) = 35.34393 17.55087 26.44740
#
# Velocity S-wave (km/s) = 4.02799 2.83844 3.48435
# Velocity P-wave (km/s) = 5.92100 5.46278 5.69650
#
# Compressibility (1/GPa) = 0.03419283
#
# Stress axis : x y z
#
# Youngs Moduli (GPa) = 101.95301 88.73510 36.35083
#
# Poissons Ratio (x) = 0.31168 0.07393
# Poissons Ratio (y) = 0.35811 0.06002
# Poissons Ratio (z) = 0.20736 0.14650
#
# Static dielectric constant tensor:
#      x y z
#    x 1.855880 0.000000 0.000000 
#    y 0.000000 1.875170 0.000000 
#    z 0.000000 0.000000 1.764530 
# 
# From -- ./inp_files/24825.got.cif
#   From: 2010.05.17/outbox.cif.g08.bks.cpg/sg24_13_cif.got.tgz:24825.got - 2010.06.04 00:33:39.
