data_PCOD9336865
_publ_section_title
;
Structure prediction by ZEFSAII (Michael W. Deem and Ramdas Pophale) SiO2 
 PCOD9336865
Probable space group: I 21 21 21
;
_chemical_formula_sum "Si O2"
_cell_formula_units_Z 40
_cell_length_a 15.021114
_cell_length_b 21.331801
_cell_length_c 5.041755
_cell_angle_alpha 90.000000
_cell_angle_beta 90.000000
_cell_angle_gamma 90.000000
_cell_volume 1615.516520
_symmetry_space_group_name_H-M "I 21 21 21"
_symmetry_group_IT_number 24
_symmetry_cell_setting 'orthorhombic'
loop_
_space_group_symop_operation_xyz
x,y,z
-x,1/2-y,z
x,-y,1/2-z
1/2-x,y,-z
1/2+x,1/2+y,1/2+z
1/2-x,-y,1/2+z
1/2+x,1/2-y,-z
-x,1/2+y,1/2-z
loop_
_atom_site_type_symbol
_atom_site_label
_atom_site_fract_x
_atom_site_fract_y
_atom_site_fract_z
Si Si1 0.944367 0.395865 0.710049
Si Si2 0.306672 0.000000 0.250000
Si Si3 0.344700 0.327163 0.101614
Si Si4 0.939298 0.927422 0.295712
Si Si5 0.648924 0.279306 0.459445
Si Si6 0.000000 0.250000 0.140397
O O1 0.868100 0.444937 0.631910
O O2 0.022849 0.399958 0.484969
O O3 0.895944 0.328627 0.742110
O O4 0.983099 0.421330 0.985855
O O5 0.250000 0.975752 0.500000
O O6 0.356946 0.393157 0.949132
O O7 0.438594 0.297737 0.014129
O O8 0.250000 0.301055 0.000000
O O9 0.345487 0.295341 0.392779
O O10 0.917926 0.000000 0.250000
O O11 0.750000 0.299877 0.500000
O O12 0.575761 0.283638 0.687117
#
# Coordination Sequence:
#
# PCOD9336865 Si02
#       6
#     8   4   8   8   8   4
#     4  12  25  47  76 110 162 214 269 332 417 492
#     4  12  24  42  68 110 156 206 268 330 390 484
#     4  12  27  47  79 115 155 207 268 340 413 489
#     4  12  25  50  79 110 154 216 278 339 408 487
#     4  12  26  45  76 119 160 217 269 339 422 506
#     4  12  22  48  72 106 162 198 256 330 406 472
#
# _framework density 24.759885000000001
#
# number of rings (size 3 to 8) (size 9 to 14) (size 15 to 20)
#    0.000    0.000    6.000    4.800    0.000    0.800 
#    0.000    2.000    0.000    0.000    0.000    0.000 
#    0.000    0.000    0.000    0.000    0.000    0.000 
#
# Total GULP energy -111478.124145 kJ/mol
# GULP energy per Si atom -5573.906207 kJ/mol
# Density = 2.470353 g / cm^3
# Si number density = 24.759885 Si / 1000 Ang^3
#
#
#
# Elastic Constant Matrix: (Units=GPa)
#
#
# Indices 1 2 3 4 5 6 
#
# 1 172.5921 18.6939 26.8953 0.0000 0.0000 0.0000
# 2 18.6939 125.6497 16.7001 0.0000 0.0000 0.0000
# 3 26.8953 16.7001 93.1605 0.0000 0.0000 0.0000
# 4 0.0000 0.0000 0.0000 -12.2631 0.0000 0.0000
# 5 0.0000 0.0000 0.0000 0.0000 43.4419 0.0000
# 6 0.0000 0.0000 0.0000 0.0000 0.0000 32.9072
#
#
#
# Elastic Compliance Matrix: (Units=1/GPa)
#
#
# Indices 1 2 3 4 5 6 
#
# 1 0.006125 -0.000693 -0.001644 0.000000 0.000000 0.000000
# 2 -0.000693 0.008231 -0.001276 0.000000 0.000000 0.000000
# 3 -0.001644 -0.001276 0.011437 0.000000 0.000000 0.000000
# 4 0.000000 0.000000 0.000000 -0.081545 0.000000 0.000000
# 5 0.000000 0.000000 0.000000 0.000000 0.023019 0.000000
# 6 0.000000 0.000000 0.000000 0.000000 0.000000 0.030388
#
#
# Mechanical properties :
#
#
# Convention : Reuss Voigt Hill
#
# Bulk Modulus (GPa) = 53.85315 57.33121 55.59218
# Shear Modulus (GPa) = 451.62562 34.75806 243.19184
#
# Velocity S-wave (km/s) = 13.52029 3.75080 9.92136
# Velocity P-wave (km/s) = 16.29504 6.47790 12.39942
#
# Compressibility (1/GPa) = 0.01856901
#
# Stress axis : x y z
#
# Youngs Moduli (GPa) = 163.25839 121.48837 87.43175
#
# Poissons Ratio (x) = 0.08416 0.14375
# Poissons Ratio (y) = 0.11310 0.11152
# Poissons Ratio (z) = 0.26842 0.15496
#
# Static dielectric constant tensor:
#      x y z
#    x 2.184730 0.000000 0.000000 
#    y 0.000000 2.208620 0.000000 
#    z 0.000000 0.000000 2.059130 
# 
# From -- ./inp_files/3524.got.cif
#   From: 2010.05.17/outbox.cif.g08.bks.cpg/sg24_2_cif.got.tgz:3524.got - 2010.06.04 00:33:39.
