data_PCOD9336756
_publ_section_title
;
Structure prediction by ZEFSAII (Michael W. Deem and Ramdas Pophale) SiO2 
 PCOD9336756
Probable space group: I 21 21 21
;
_chemical_formula_sum "Si O2"
_cell_formula_units_Z 36
_cell_length_a 11.894097
_cell_length_b 19.399601
_cell_length_c 6.790498
_cell_angle_alpha 90.000000
_cell_angle_beta 90.000000
_cell_angle_gamma 90.000000
_cell_volume 1566.844507
_symmetry_space_group_name_H-M "I 21 21 21"
_symmetry_group_IT_number 24
_symmetry_cell_setting 'orthorhombic'
loop_
_space_group_symop_operation_xyz
x,y,z
-x,1/2-y,z
x,-y,1/2-z
1/2-x,y,-z
1/2+x,1/2+y,1/2+z
1/2-x,-y,1/2+z
1/2+x,1/2-y,-z
-x,1/2+y,1/2-z
loop_
_atom_site_type_symbol
_atom_site_label
_atom_site_fract_x
_atom_site_fract_y
_atom_site_fract_z
Si Si1 0.750000 0.157528 0.000000
Si Si2 0.832359 0.428354 0.165732
Si Si3 0.917764 0.343518 0.512458
Si Si4 0.152547 0.302600 0.389560
Si Si5 0.529075 0.072480 0.137594
O O1 0.695866 0.204994 0.830687
O O2 0.853879 0.110626 0.918850
O O3 0.785875 0.500000 0.250000
O O4 0.840423 0.382391 0.357974
O O5 0.750000 0.399812 0.000000
O O6 0.951291 0.440262 0.054716
O O7 0.870878 0.265873 0.518657
O O8 0.035169 0.340071 0.393139
O O9 0.954076 0.379516 0.714763
O O10 0.250000 0.343963 0.500000
O O11 0.548595 0.000000 0.250000
#
# Coordination Sequence:
#
# PCOD9336756 Si02
#       5
#     4   8   8   8   8
#     4  12  26  46  76 112 144 190 254 310 374 452
#     4  12  27  45  71 104 145 188 246 301 365 442
#     4  11  26  46  70 104 144 190 239 303 368 445
#     4  11  25  46  71 102 147 186 241 307 370 444
#     4  12  26  47  76 108 148 191 245 307 375 442
#
# _framework density 22.976116000000001
#
# number of rings (size 3 to 8) (size 9 to 14) (size 15 to 20)
#    0.000    0.444    6.667    0.667    4.667    2.667 
#    0.000    0.000    0.000    0.000    0.000    0.000 
#    0.000    0.000    0.000    0.000    0.000    0.000 
#
# Total GULP energy -100572.814930 kJ/mol
# GULP energy per Si atom -5587.378607 kJ/mol
# Density = 2.292382 g / cm^3
# Si number density = 22.976116 Si / 1000 Ang^3
#
#
#
# Elastic Constant Matrix: (Units=GPa)
#
#
# Indices 1 2 3 4 5 6 
#
# 1 118.8094 11.2092 44.6690 0.0000 0.0000 0.0000
# 2 11.2092 72.1911 31.8267 0.0000 0.0000 0.0000
# 3 44.6690 31.8267 124.8290 -0.0003 0.0003 0.0004
# 4 0.0000 0.0000 -0.0003 33.7467 0.0001 0.0001
# 5 0.0000 0.0000 0.0003 0.0001 62.6448 -0.0001
# 6 0.0000 0.0000 0.0004 0.0001 -0.0001 -19.5365
#
#
#
# Elastic Compliance Matrix: (Units=1/GPa)
#
#
# Indices 1 2 3 4 5 6 
#
# 1 0.009725 0.000027 -0.003487 0.000000 0.000000 0.000000
# 2 0.000027 0.015606 -0.003989 0.000000 0.000000 0.000000
# 3 -0.003487 -0.003989 0.010276 0.000000 0.000000 0.000000
# 4 0.000000 0.000000 0.000000 0.029633 0.000000 0.000000
# 5 0.000000 0.000000 0.000000 0.000000 0.015963 0.000000
# 6 0.000000 0.000000 0.000000 0.000000 0.000000 -0.051186
#
#
# Mechanical properties :
#
#
# Convention : Reuss Voigt Hill
#
# Bulk Modulus (GPa) = 48.28517 54.58214 51.43365
# Shear Modulus (GPa) = 96.49232 30.57929 63.53581
#
# Velocity S-wave (km/s) = 6.48752 3.65213 5.26431
# Velocity P-wave (km/s) = 8.78512 6.44916 7.70617
#
# Compressibility (1/GPa) = 0.02071029
#
# Stress axis : x y z
#
# Youngs Moduli (GPa) = 102.82443 64.07621 97.31624
#
# Poissons Ratio (x) = -0.00175 0.33935
# Poissons Ratio (y) = -0.00280 0.38818
# Poissons Ratio (z) = 0.35856 0.25559
#
# Static dielectric constant tensor:
#      x y z
#    x 1.919500 0.000000 0.000000 
#    y 0.000000 1.876830 0.000000 
#    z 0.000000 0.000000 1.990720 
# 
# From -- ./inp_files/2264.got.cif
#   From: 2010.05.17/outbox.cif.g08.bks.cpg/sg24_2_cif.got.tgz:2264.got - 2010.06.04 00:33:39.
