data_PCOD9336361
_publ_section_title
;
Structure prediction by ZEFSAII (Michael W. Deem and Ramdas Pophale) SiO2 
 PCOD9336361
Probable space group: I 21 21 21
;
_chemical_formula_sum "Si O2"
_cell_formula_units_Z 48
_cell_length_a 7.927822
_cell_length_b 21.670190
_cell_length_c 17.744574
_cell_angle_alpha 90.000000
_cell_angle_beta 90.000000
_cell_angle_gamma 90.000000
_cell_volume 3048.471837
_symmetry_space_group_name_H-M "I 21 21 21"
_symmetry_group_IT_number 24
_symmetry_cell_setting 'orthorhombic'
loop_
_space_group_symop_operation_xyz
x,y,z
-x,1/2-y,z
x,-y,1/2-z
1/2-x,y,-z
1/2+x,1/2+y,1/2+z
1/2-x,-y,1/2+z
1/2+x,1/2-y,-z
-x,1/2+y,1/2-z
loop_
_atom_site_type_symbol
_atom_site_label
_atom_site_fract_x
_atom_site_fract_y
_atom_site_fract_z
Si Si1 0.708189 0.991178 0.914788
Si Si2 0.439017 0.680118 0.469432
Si Si3 0.122122 0.074579 0.061113
Si Si4 0.381216 0.401255 0.173991
Si Si5 0.228999 0.928522 0.727419
Si Si6 0.083151 0.572383 0.222194
O O1 0.662942 0.934770 0.860101
O O2 0.541134 0.033419 0.922642
O O3 0.848488 0.035318 0.874497
O O4 0.750000 0.973724 0.000000
O O5 0.500000 0.750000 0.467906
O O6 0.250000 0.676683 0.500000
O O7 0.556080 0.637780 0.523056
O O8 0.426804 0.650151 0.386930
O O9 0.216807 0.080978 0.140302
O O10 0.250000 0.046177 0.000000
O O11 0.538040 0.405130 0.231130
O O12 0.208577 0.393222 0.220689
O O13 0.391215 0.904049 0.773732
O O14 0.218167 0.000000 0.750000
O O15 0.079919 0.500000 0.250000
#
# Coordination Sequence:
#
# PCOD9336361 Si02
#       6
#     8   8   8   8   8   8
#     4  11  17  32  47  69 100 130 164 206 250 303
#     4  12  23  35  48  67  97 136 179 216 247 285
#     4  12  19  31  47  70  96 131 170 214 242 290
#     4  11  19  32  49  65  92 131 167 209 247 293
#     4  11  18  29  48  69  92 123 170 202 249 300
#     4   9  18  30  46  67  93 123 164 202 245 302
#
# _framework density 15.745595
#
# number of rings (size 3 to 8) (size 9 to 14) (size 15 to 20)
#    0.000    1.000   10.000    2.000    0.000    0.000 
#    0.000    0.000    0.000    0.000    0.000    0.000 
#    0.000    0.000    5.667    0.000    0.000    0.000 
#
# Total GULP energy -133717.043463 kJ/mol
# GULP energy per Si atom -5571.543478 kJ/mol
# Density = 1.570976 g / cm^3
# Si number density = 15.745595 Si / 1000 Ang^3
#
#
#
# Elastic Constant Matrix: (Units=GPa)
#
#
# Indices 1 2 3 4 5 6 
#
# 1 87.0696 11.9169 11.4332 0.0000 0.0000 0.0000
# 2 11.9169 36.0028 16.6116 0.0000 0.0000 0.0000
# 3 11.4332 16.6116 69.4844 0.0000 0.0000 0.0000
# 4 0.0000 0.0000 0.0000 11.7526 0.0000 0.0000
# 5 0.0000 0.0000 0.0000 0.0000 29.5020 0.0000
# 6 0.0000 0.0000 0.0000 0.0000 0.0000 14.9950
#
#
#
# Elastic Compliance Matrix: (Units=1/GPa)
#
#
# Indices 1 2 3 4 5 6 
#
# 1 0.012113 -0.003473 -0.001163 0.000000 0.000000 0.000000
# 2 -0.003473 0.032215 -0.007130 0.000000 0.000000 0.000000
# 3 -0.001163 -0.007130 0.016288 0.000000 0.000000 0.000000
# 4 0.000000 0.000000 0.000000 0.085088 0.000000 0.000000
# 5 0.000000 0.000000 0.000000 0.000000 0.033896 0.000000
# 6 0.000000 0.000000 0.000000 0.000000 0.000000 0.066689
#
#
# Mechanical properties :
#
#
# Convention : Reuss Voigt Hill
#
# Bulk Modulus (GPa) = 26.96590 30.27560 28.62075
# Shear Modulus (GPa) = 17.71907 21.42291 19.57099
#
# Velocity S-wave (km/s) = 3.35824 3.69259 3.52937
# Velocity P-wave (km/s) = 5.67452 6.11964 5.90128
#
# Compressibility (1/GPa) = 0.03708388
#
# Stress axis : x y z
#
# Youngs Moduli (GPa) = 82.55540 31.04146 61.39615
#
# Poissons Ratio (x) = 0.10780 0.07140
# Poissons Ratio (y) = 0.28670 0.43777
# Poissons Ratio (z) = 0.09600 0.22133
#
# Static dielectric constant tensor:
#      x y z
#    x 1.594070 0.000000 0.000000 
#    y 0.000000 1.504150 0.000000 
#    z 0.000000 0.000000 1.555260 
# 
# From -- ./inp_files/29717.got.cif
#   From: 2010.05.17/outbox.cif.g08.bks.cpg/sg24_15_cif.got.tgz:29717.got - 2010.06.04 00:33:39.
