data_PCOD9336976
_publ_section_title
;
Structure prediction by ZEFSAII (Michael W. Deem and Ramdas Pophale) SiO2 
 PCOD9336976
Probable space group: I 21 21 21
;
_chemical_formula_sum "Si O2"
_cell_formula_units_Z 36
_cell_length_a 9.465657
_cell_length_b 7.926605
_cell_length_c 20.162694
_cell_angle_alpha 90.000000
_cell_angle_beta 90.000000
_cell_angle_gamma 90.000000
_cell_volume 1512.817498
_symmetry_space_group_name_H-M "I 21 21 21"
_symmetry_group_IT_number 24
_symmetry_cell_setting 'orthorhombic'
loop_
_space_group_symop_operation_xyz
x,y,z
-x,1/2-y,z
x,-y,1/2-z
1/2-x,y,-z
1/2+x,1/2+y,1/2+z
1/2-x,-y,1/2+z
1/2+x,1/2-y,-z
-x,1/2+y,1/2-z
loop_
_atom_site_type_symbol
_atom_site_label
_atom_site_fract_x
_atom_site_fract_y
_atom_site_fract_z
Si Si1 0.459488 0.054133 0.390184
Si Si2 0.750000 0.541974 0.500000
Si Si3 0.500000 0.250000 0.936103
Si Si4 0.158197 0.320390 0.287802
Si Si5 0.261137 0.516922 0.921118
Si Si6 0.836592 0.500000 0.750000
O O1 0.500000 0.250000 0.393309
O O2 0.601053 0.951819 0.410616
O O3 0.426463 0.999676 0.316270
O O4 0.322060 0.042544 0.436629
O O5 0.616076 0.644773 0.525095
O O6 0.391267 0.388250 0.905739
O O7 0.169762 0.500000 0.250000
O O8 0.210449 0.347000 0.363445
O O9 0.246853 0.172047 0.253219
O O10 0.000000 0.250000 0.288605
O O11 0.250000 0.565376 0.000000
#
# Coordination Sequence:
#
# PCOD9336976 Si02
#       6
#     8   4   4   8   8   4
#     4  12  29  52  81 125 166 230 283 353 423 520
#     4  12  26  48  86 116 170 224 282 346 434 504
#     4  12  26  48  78 126 164 220 272 360 420 504
#     4  12  30  54  88 123 170 229 286 358 427 519
#     4  12  28  51  82 127 171 215 290 351 429 507
#     4  12  30  56  80 124 170 232 282 346 442 504
#
# _framework density 23.796658000000001
#
# number of rings (size 3 to 8) (size 9 to 14) (size 15 to 20)
#    0.000    0.000    6.667    0.000   10.889    0.889 
#    2.000    0.000    0.000    0.000    0.000    0.000 
#    0.000    0.000    0.000    0.000    0.000    0.000 
#
# Total GULP energy -100554.203798 kJ/mol
# GULP energy per Si atom -5586.344655 kJ/mol
# Density = 2.374250 g / cm^3
# Si number density = 23.796658 Si / 1000 Ang^3
#
#
#
# Elastic Constant Matrix: (Units=GPa)
#
#
# Indices 1 2 3 4 5 6 
#
# 1 214.0182 63.1894 80.6154 0.0000 0.0000 0.0000
# 2 63.1894 123.4697 53.1799 0.0000 0.0000 0.0000
# 3 80.6154 53.1799 165.7427 0.0000 0.0000 0.0000
# 4 0.0000 0.0000 0.0000 89.8526 0.0000 0.0000
# 5 0.0000 0.0000 0.0000 0.0000 20.2707 0.0000
# 6 0.0000 0.0000 0.0000 0.0000 0.0000 51.2091
#
#
#
# Elastic Compliance Matrix: (Units=1/GPa)
#
#
# Indices 1 2 3 4 5 6 
#
# 1 0.006184 -0.002169 -0.002312 0.000000 0.000000 0.000000
# 2 -0.002169 0.010159 -0.002205 0.000000 0.000000 0.000000
# 3 -0.002312 -0.002205 0.007865 0.000000 0.000000 0.000000
# 4 0.000000 0.000000 0.000000 0.011129 0.000000 0.000000
# 5 0.000000 0.000000 0.000000 0.000000 0.049332 0.000000
# 6 0.000000 0.000000 0.000000 0.000000 0.000000 0.019528
#
#
# Mechanical properties :
#
#
# Convention : Reuss Voigt Hill
#
# Bulk Modulus (GPa) = 92.27589 99.68890 95.98239
# Shear Modulus (GPa) = 41.26099 52.68288 46.97193
#
# Velocity S-wave (km/s) = 4.16853 4.71029 4.44767
# Velocity P-wave (km/s) = 7.87590 8.45963 8.17298
#
# Compressibility (1/GPa) = 0.01083707
#
# Stress axis : x y z
#
# Youngs Moduli (GPa) = 161.71621 98.43762 127.14257
#
# Poissons Ratio (x) = 0.21351 0.29392
# Poissons Ratio (y) = 0.35076 0.28029
# Poissons Ratio (z) = 0.37384 0.21701
#
# Static dielectric constant tensor:
#      x y z
#    x 1.910600 0.000000 0.000000 
#    y 0.000000 2.032740 0.000000 
#    z 0.000000 0.000000 1.979550 
# 
# From -- ./inp_files/32528.got.cif
#   From: 2010.05.17/outbox.cif.g08.bks.cpg/sg24_17_cif.got.tgz:32528.got - 2010.06.04 00:33:39.
