data_PCOD9336821
_publ_section_title
;
Structure prediction by ZEFSAII (Michael W. Deem and Ramdas Pophale) SiO2 
 PCOD9336821
Probable space group: I 21 21 21
;
_chemical_formula_sum "Si O2"
_cell_formula_units_Z 36
_cell_length_a 13.672674
_cell_length_b 5.612873
_cell_length_c 18.875164
_cell_angle_alpha 90.000000
_cell_angle_beta 90.000000
_cell_angle_gamma 90.000000
_cell_volume 1448.536385
_symmetry_space_group_name_H-M "I 21 21 21"
_symmetry_group_IT_number 24
_symmetry_cell_setting 'orthorhombic'
loop_
_space_group_symop_operation_xyz
x,y,z
-x,1/2-y,z
x,-y,1/2-z
1/2-x,y,-z
1/2+x,1/2+y,1/2+z
1/2-x,-y,1/2+z
1/2+x,1/2-y,-z
-x,1/2+y,1/2-z
loop_
_atom_site_type_symbol
_atom_site_label
_atom_site_fract_x
_atom_site_fract_y
_atom_site_fract_z
Si Si1 0.765848 0.729599 0.616198
Si Si2 0.750000 0.608356 0.000000
Si Si3 0.500000 0.750000 0.829594
Si Si4 0.596045 0.007732 0.549947
Si Si5 0.669009 0.500000 0.750000
Si Si6 0.453568 0.502134 0.389655
O O1 0.807812 0.534124 0.561806
O O2 0.734416 0.617103 0.689586
O O3 0.838195 0.952744 0.625555
O O4 0.669995 0.801876 0.571855
O O5 0.830574 0.768530 0.039732
O O6 0.524584 0.959713 0.884236
O O7 0.594700 0.692441 0.783728
O O8 0.542683 0.989038 0.475363
O O9 0.500000 0.750000 0.361250
O O10 0.500000 0.250000 0.365739
#
# Coordination Sequence:
#
# PCOD9336821 Si02
#       6
#     8   4   4   8   4   8
#     4  12  26  45  73 108 159 221 262 329 421 495
#     4  12  20  46  70 106 150 218 258 328 396 484
#     4  12  26  44  70 112 160 208 264 322 406 490
#     4  12  24  40  74 108 159 200 262 332 401 485
#     4  12  28  48  70 110 170 224 268 328 412 516
#     4  12  26  44  78 119 149 201 275 355 398 463
#
# _framework density 24.852671000000001
#
# number of rings (size 3 to 8) (size 9 to 14) (size 15 to 20)
#    0.000    0.000    7.778    2.667    3.111    0.000 
#    0.000    0.000    0.000    6.667    0.000    0.000 
#    0.000    0.000    0.000    0.000    0.000    0.000 
#
# Total GULP energy -100791.015139 kJ/mol
# GULP energy per Si atom -5599.500841 kJ/mol
# Density = 2.479611 g / cm^3
# Si number density = 24.852671 Si / 1000 Ang^3
#
#
#
# Elastic Constant Matrix: (Units=GPa)
#
#
# Indices 1 2 3 4 5 6 
#
# 1 96.0036 54.2295 41.2577 0.0000 0.0000 0.0000
# 2 54.2295 132.3932 42.5353 0.0000 0.0000 0.0000
# 3 41.2577 42.5353 131.1164 0.0000 0.0000 0.0000
# 4 0.0000 0.0000 0.0000 19.3420 0.0000 0.0000
# 5 0.0000 0.0000 0.0000 0.0000 33.1037 0.0000
# 6 0.0000 0.0000 0.0000 0.0000 0.0000 60.7220
#
#
#
# Elastic Compliance Matrix: (Units=1/GPa)
#
#
# Indices 1 2 3 4 5 6 
#
# 1 0.014502 -0.004995 -0.002943 0.000000 0.000000 0.000000
# 2 -0.004995 0.010152 -0.001722 0.000000 0.000000 0.000000
# 3 -0.002943 -0.001722 0.009111 0.000000 0.000000 0.000000
# 4 0.000000 0.000000 0.000000 0.051701 0.000000 0.000000
# 5 0.000000 0.000000 0.000000 0.000000 0.030208 0.000000
# 6 0.000000 0.000000 0.000000 0.000000 0.000000 0.016468
#
#
# Mechanical properties :
#
#
# Convention : Reuss Voigt Hill
#
# Bulk Modulus (GPa) = 69.21890 70.61759 69.91824
# Shear Modulus (GPa) = 31.99411 37.39959 34.69685
#
# Velocity S-wave (km/s) = 3.59186 3.88345 3.74050
# Velocity P-wave (km/s) = 6.71670 6.97025 6.84465
#
# Compressibility (1/GPa) = 0.01444692
#
# Stress axis : x y z
#
# Youngs Moduli (GPa) = 68.95374 98.49917 109.75181
#
# Poissons Ratio (x) = 0.49198 0.32301
# Poissons Ratio (y) = 0.34441 0.18897
# Poissons Ratio (z) = 0.20294 0.16960
#
# Static dielectric constant tensor:
#      x y z
#    x 2.067210 0.000000 0.000000 
#    y 0.000000 2.295130 0.000000 
#    z 0.000000 0.000000 1.880460 
# 
# From -- ./inp_files/23645.got.cif
#   From: 2010.05.17/outbox.cif.g08.bks.cpg/sg24_12_cif.got.tgz:23645.got - 2010.06.04 00:33:39.
