data_PCOD9336816
_publ_section_title
;
Structure prediction by ZEFSAII (Michael W. Deem and Ramdas Pophale) SiO2 
 PCOD9336816
Probable space group: I 21 21 21
;
_chemical_formula_sum "Si O2"
_cell_formula_units_Z 36
_cell_length_a 13.395573
_cell_length_b 24.597029
_cell_length_c 5.231442
_cell_angle_alpha 90.000000
_cell_angle_beta 90.000000
_cell_angle_gamma 90.000000
_cell_volume 1723.714613
_symmetry_space_group_name_H-M "I 21 21 21"
_symmetry_group_IT_number 24
_symmetry_cell_setting 'orthorhombic'
loop_
_space_group_symop_operation_xyz
x,y,z
-x,1/2-y,z
x,-y,1/2-z
1/2-x,y,-z
1/2+x,1/2+y,1/2+z
1/2-x,-y,1/2+z
1/2+x,1/2-y,-z
-x,1/2+y,1/2-z
loop_
_atom_site_type_symbol
_atom_site_label
_atom_site_fract_x
_atom_site_fract_y
_atom_site_fract_z
Si Si1 0.635558 0.557010 0.407723
Si Si2 0.140189 0.680582 0.076298
Si Si3 0.849139 0.709105 0.359080
Si Si4 0.000000 0.250000 0.786644
Si Si5 0.055266 0.886454 0.095544
O O1 0.634485 0.500000 0.250000
O O2 0.750000 0.565591 0.500000
O O3 0.578449 0.570424 0.675825
O O4 0.586773 0.593757 0.184984
O O5 0.083786 0.718701 0.870487
O O6 0.250000 0.660685 0.000000
O O7 0.158425 0.727324 0.288260
O O8 0.059446 0.633530 0.121701
O O9 0.750000 0.692201 0.500000
O O10 0.944604 0.706497 0.539791
O O11 0.875980 0.667212 0.138741
#
# Coordination Sequence:
#
# PCOD9336816 Si02
#       5
#     8   8   8   4   8
#     4  12  27  48  76 104 137 170 224 299 371 422
#     4  12  25  39  63  95 145 193 231 277 330 401
#     4  12  24  37  63  95 141 187 227 278 330 408
#     4  12  20  40  58  90 138 190 236 272 326 386
#     4  12  25  44  70 104 140 182 235 281 349 426
#
# _framework density 20.885127000000001
#
# number of rings (size 3 to 8) (size 9 to 14) (size 15 to 20)
#    0.000    0.000    6.667    4.667    0.000    3.556 
#    0.000    0.000    0.000    2.667    0.000    1.556 
#    0.000    0.000    0.000    0.000    0.000    0.000 
#
# Total GULP energy -100456.095095 kJ/mol
# GULP energy per Si atom -5580.894172 kJ/mol
# Density = 2.083759 g / cm^3
# Si number density = 20.885127 Si / 1000 Ang^3
#
#
#
# Elastic Constant Matrix: (Units=GPa)
#
#
# Indices 1 2 3 4 5 6 
#
# 1 161.7009 44.7184 30.9354 0.0061 -0.0077 -0.0009
# 2 44.7184 85.3080 28.7844 0.0124 -0.0110 -0.0064
# 3 30.9354 28.7844 103.7309 0.0811 -0.0084 -0.0169
# 4 0.0061 0.0124 0.0811 30.3294 0.0022 -0.0074
# 5 -0.0077 -0.0110 -0.0084 0.0022 34.6097 -0.0041
# 6 -0.0009 -0.0064 -0.0169 -0.0074 -0.0041 19.9669
#
#
#
# Elastic Compliance Matrix: (Units=1/GPa)
#
#
# Indices 1 2 3 4 5 6 
#
# 1 0.007375 -0.003447 -0.001243 0.000003 0.000000 -0.000002
# 2 -0.003447 0.014544 -0.003008 0.000003 0.000003 0.000002
# 3 -0.001243 -0.003008 0.010846 -0.000028 0.000001 0.000008
# 4 0.000003 0.000003 -0.000028 0.032971 -0.000002 0.000012
# 5 0.000000 0.000003 0.000001 -0.000002 0.028894 0.000006
# 6 -0.000002 0.000002 0.000008 0.000012 0.000006 0.050083
#
#
# Mechanical properties :
#
#
# Convention : Reuss Voigt Hill
#
# Bulk Modulus (GPa) = 57.57198 62.17958 59.87578
# Shear Modulus (GPa) = 30.13902 33.40132 31.77017
#
# Velocity S-wave (km/s) = 3.80292 4.00345 3.90447
# Velocity P-wave (km/s) = 6.84900 7.15590 7.00413
#
# Compressibility (1/GPa) = 0.01736956
#
# Stress axis : x y z
#
# Youngs Moduli (GPa) = 135.58867 68.75740 92.20209
#
# Poissons Ratio (x) = 0.23698 0.11462
# Poissons Ratio (y) = 0.46733 0.27734
# Poissons Ratio (z) = 0.16855 0.20682
#
# Static dielectric constant tensor:
#      x y z
#    x 1.751400 -0.000010 0.000000 
#    y -0.000010 1.833570 0.000000 
#    z 0.000000 0.000000 1.842460 
# 
# From -- ./inp_files/2288.got.cif
#   From: 2010.05.17/outbox.cif.g08.bks.cpg/sg24_2_cif.got.tgz:2288.got - 2010.06.04 00:33:39.
