data_PCOD9336778
_publ_section_title
;
Structure prediction by ZEFSAII (Michael W. Deem and Ramdas Pophale) SiO2 
 PCOD9336778
Probable space group: I 21 21 21
;
_chemical_formula_sum "Si O2"
_cell_formula_units_Z 48
_cell_length_a 15.792421
_cell_length_b 15.018713
_cell_length_c 8.808251
_cell_angle_alpha 90.000000
_cell_angle_beta 90.000000
_cell_angle_gamma 90.000000
_cell_volume 2089.157167
_symmetry_space_group_name_H-M "I 21 21 21"
_symmetry_group_IT_number 24
_symmetry_cell_setting 'orthorhombic'
loop_
_space_group_symop_operation_xyz
x,y,z
-x,1/2-y,z
x,-y,1/2-z
1/2-x,y,-z
1/2+x,1/2+y,1/2+z
1/2-x,-y,1/2+z
1/2+x,1/2-y,-z
-x,1/2+y,1/2-z
loop_
_atom_site_type_symbol
_atom_site_label
_atom_site_fract_x
_atom_site_fract_y
_atom_site_fract_z
Si Si1 0.156368 0.257280 0.431255
Si Si2 0.500000 0.250000 0.106090
Si Si3 0.250000 0.419930 0.000000
Si Si4 0.946366 0.621603 0.876491
Si Si5 0.300843 0.000000 0.250000
Si Si6 0.750000 0.380139 0.000000
Si Si7 0.352261 0.732743 0.598979
Si Si8 0.904932 0.960070 0.075307
O O1 0.250000 0.244851 0.500000
O O2 0.088214 0.205492 0.529741
O O3 0.143469 0.222456 0.261009
O O4 0.134707 0.361341 0.417404
O O5 0.479579 0.167859 0.221401
O O6 0.436176 0.297618 0.984781
O O7 0.217194 0.345772 0.120028
O O8 0.166909 0.480883 0.988614
O O9 0.864026 0.562120 0.844198
O O10 0.012361 0.560098 0.971605
O O11 0.243563 0.941366 0.356831
O O12 0.674356 0.310802 0.016883
O O13 0.917163 0.000000 0.250000
#
# Coordination Sequence:
#
# PCOD9336778 Si02
#       8
#     8   4   4   8   4   4   8   8
#     4  12  26  48  79 109 152 206 260 317 395 470
#     4  12  26  50  76 108 158 208 252 318 398 472
#     4  11  26  44  75 112 152 196 255 316 390 471
#     4  12  29  49  76 111 156 207 260 323 393 471
#     4  12  28  50  72 114 142 202 254 320 376 458
#     4  11  26  48  71 104 144 188 255 302 380 443
#     4  11  27  47  78 108 149 206 250 319 396 460
#     4  12  26  47  74 116 157 198 254 323 390 467
#
# _framework density 22.975774000000001
#
# number of rings (size 3 to 8) (size 9 to 14) (size 15 to 20)
#    0.000    0.333    5.833    1.000   10.500    2.667 
#    0.000    0.000    0.000    0.000    0.000    0.000 
#    0.000    0.000    0.000    0.000    0.000    0.000 
#
# Total GULP energy -133734.857612 kJ/mol
# GULP energy per Si atom -5572.285734 kJ/mol
# Density = 2.292348 g / cm^3
# Si number density = 22.975774 Si / 1000 Ang^3
#
#
#
# Elastic Constant Matrix: (Units=GPa)
#
#
# Indices 1 2 3 4 5 6 
#
# 1 71.8127 37.7143 44.4482 0.0000 0.0000 0.0000
# 2 37.7143 118.1190 34.0577 0.0000 0.0000 0.0000
# 3 44.4482 34.0577 102.0295 0.0000 0.0000 0.0000
# 4 0.0000 0.0000 0.0000 -160.5637 0.0000 0.0000
# 5 0.0000 0.0000 0.0000 0.0000 40.7982 0.0000
# 6 0.0000 0.0000 0.0000 0.0000 0.0000 36.5750
#
#
#
# Elastic Compliance Matrix: (Units=1/GPa)
#
#
# Indices 1 2 3 4 5 6 
#
# 1 0.021032 -0.004507 -0.007658 0.000000 0.000000 0.000000
# 2 -0.004507 0.010334 -0.001486 0.000000 0.000000 0.000000
# 3 -0.007658 -0.001486 0.013633 0.000000 0.000000 0.000000
# 4 0.000000 0.000000 0.000000 -0.006228 0.000000 0.000000
# 5 0.000000 0.000000 0.000000 0.000000 0.024511 0.000000
# 6 0.000000 0.000000 0.000000 0.000000 0.000000 0.027341
#
#
# Mechanical properties :
#
#
# Convention : Reuss Voigt Hill
#
# Bulk Modulus (GPa) = 56.50741 58.26685 57.38713
# Shear Modulus (GPa) = 40.38006 -4.92202 17.72902
#
# Velocity S-wave (km/s) = 4.19681 -1.46524 2.78085
# Velocity P-wave (km/s) = 6.93772 4.74896 5.94494
#
# Compressibility (1/GPa) = 0.01769679
#
# Stress axis : x y z
#
# Youngs Moduli (GPa) = 47.54650 96.77178 73.35082
#
# Poissons Ratio (x) = 0.43618 0.56171
# Poissons Ratio (y) = 0.21431 0.10899
# Poissons Ratio (z) = 0.36410 0.14378
#
# Static dielectric constant tensor:
#      x y z
#    x 2.093610 0.000000 0.000000 
#    y 0.000000 1.902950 0.000000 
#    z 0.000000 0.000000 2.111890 
# 
# From -- ./inp_files/14248.got.cif
#   From: 2010.05.17/outbox.cif.g08.bks.cpg/sg24_8_cif.got.tgz:14248.got - 2010.06.04 00:33:39.
