data_PCOD9336368
_publ_section_title
;
Structure prediction by ZEFSAII (Michael W. Deem and Ramdas Pophale) SiO2 
 PCOD9336368
Probable space group: I 21 21 21
;
_chemical_formula_sum "Si O2"
_cell_formula_units_Z 64
_cell_length_a 15.141847
_cell_length_b 12.468183
_cell_length_c 14.655027
_cell_angle_alpha 90.000000
_cell_angle_beta 90.000000
_cell_angle_gamma 90.000000
_cell_volume 2766.741882
_symmetry_space_group_name_H-M "I 21 21 21"
_symmetry_group_IT_number 24
_symmetry_cell_setting 'orthorhombic'
loop_
_space_group_symop_operation_xyz
x,y,z
-x,1/2-y,z
x,-y,1/2-z
1/2-x,y,-z
1/2+x,1/2+y,1/2+z
1/2-x,-y,1/2+z
1/2+x,1/2-y,-z
-x,1/2+y,1/2-z
loop_
_atom_site_type_symbol
_atom_site_label
_atom_site_fract_x
_atom_site_fract_y
_atom_site_fract_z
Si Si1 0.384027 0.921925 0.473842
Si Si2 0.592058 0.980273 0.453572
Si Si3 0.931534 0.597303 0.195017
Si Si4 0.094824 0.765053 0.371252
Si Si5 0.892909 0.766783 0.650880
Si Si6 0.123516 0.485142 0.151339
Si Si7 0.590220 0.803351 0.153497
Si Si8 0.846025 0.343350 0.495891
O O1 0.488837 0.954143 0.476780
O O2 0.360313 0.854213 0.564928
O O3 0.359737 0.843681 0.391594
O O4 0.339935 0.036787 0.464461
O O5 0.629414 0.870617 0.410627
O O6 0.641600 0.018567 0.546199
O O7 0.590715 0.074157 0.378443
O O8 0.885597 0.500000 0.250000
O O9 0.925492 0.687504 0.271938
O O10 0.887707 0.640831 0.103409
O O11 0.028507 0.547852 0.168857
O O12 0.126178 0.643881 0.360913
O O13 0.000000 0.750000 0.419731
O O14 0.855890 0.787036 0.752801
O O15 0.000000 0.750000 0.641587
O O16 0.170445 0.500000 0.250000
O O17 0.500000 0.750000 0.186732
O O18 0.603399 0.732846 0.063877
O O19 0.750000 0.294166 0.500000
#
# Coordination Sequence:
#
# PCOD9336368 Si02
#       8
#     8   8   8   8   8   8   8   8
#     4  11  18  37  57  85 122 159 197 253 298 363
#     4  11  18  33  58  88 125 149 192 250 309 352
#     4  11  20  34  53  81 120 156 191 234 304 364
#     4  12  17  30  54  86 129 152 186 243 303 371
#     4   9  20  33  58  88 119 154 201 254 305 348
#     4  11  19  28  52  94 123 153 181 241 317 363
#     4  11  22  38  58  91 120 155 204 257 306 352
#     4  12  26  43  58  84 123 168 205 248 303 364
#
# _framework density 23.131900999999999
#
# number of rings (size 3 to 8) (size 9 to 14) (size 15 to 20)
#    0.000    1.000    8.750    0.750    1.750    1.000 
#    2.250    0.000    0.000    0.750    6.500    0.000 
#    0.000    0.000    0.000    0.000    0.000    0.000 
#
# Total GULP energy -178231.761880 kJ/mol
# GULP energy per Si atom -5569.742559 kJ/mol
# Density = 2.307925 g / cm^3
# Si number density = 23.131901 Si / 1000 Ang^3
#
#
#
# Elastic Constant Matrix: (Units=GPa)
#
#
# Indices 1 2 3 4 5 6 
#
# 1 16.2225 -7.9114 0.8619 0.0000 0.0000 0.0000
# 2 -7.9114 93.6897 34.2480 0.0000 0.0000 0.0000
# 3 0.8619 34.2480 165.5320 0.0000 0.0000 0.0000
# 4 0.0000 0.0000 0.0000 93.6053 0.0000 0.0000
# 5 0.0000 0.0000 0.0000 0.0000 -8.6729 0.0000
# 6 0.0000 0.0000 0.0000 0.0000 0.0000 -25.4506
#
#
#
# Elastic Compliance Matrix: (Units=1/GPa)
#
#
# Indices 1 2 3 4 5 6 
#
# 1 0.064673 0.006041 -0.001587 0.000000 0.000000 0.000000
# 2 0.006041 0.012111 -0.002537 0.000000 0.000000 0.000000
# 3 -0.001587 -0.002537 0.006574 0.000000 0.000000 0.000000
# 4 0.000000 0.000000 0.000000 0.010683 0.000000 0.000000
# 5 0.000000 0.000000 0.000000 0.000000 -0.115302 0.000000
# 6 0.000000 0.000000 0.000000 0.000000 0.000000 -0.039292
#
#
# Mechanical properties :
#
#
# Convention : Reuss Voigt Hill
#
# Bulk Modulus (GPa) = 11.46875 36.64900 24.05887
# Shear Modulus (GPa) = -141.55539 28.44607 -56.55466
#
# Velocity S-wave (km/s) = -7.83120 3.51056 -4.94993
# Velocity P-wave (km/s) = 8.76365 5.68418 4.71655
#
# Compressibility (1/GPa) = 0.08719347
#
# Stress axis : x y z
#
# Youngs Moduli (GPa) = 15.46232 82.56864 152.10678
#
# Poissons Ratio (x) = -0.49881 0.24134
# Poissons Ratio (y) = -0.09341 0.38593
# Poissons Ratio (z) = 0.02453 0.20949
#
# Static dielectric constant tensor:
#      x y z
#    x 1.861550 0.000000 0.000000 
#    y 0.000000 1.836650 0.000000 
#    z 0.000000 0.000000 2.076620 
# 
# From -- ./inp_files/27221.got.cif
#   From: 2010.05.17/outbox.cif.g08.bks.cpg/sg24_14_cif.got.tgz:27221.got - 2010.06.04 00:33:39.
