data_PCOD9336646
_publ_section_title
;
Structure prediction by ZEFSAII (Michael W. Deem and Ramdas Pophale) SiO2 
 PCOD9336646
Probable space group: I 21 21 21
;
_chemical_formula_sum "Si O2"
_cell_formula_units_Z 56
_cell_length_a 14.195481
_cell_length_b 10.979236
_cell_length_c 15.432474
_cell_angle_alpha 90.000000
_cell_angle_beta 90.000000
_cell_angle_gamma 90.000000
_cell_volume 2405.236508
_symmetry_space_group_name_H-M "I 21 21 21"
_symmetry_group_IT_number 24
_symmetry_cell_setting 'orthorhombic'
loop_
_space_group_symop_operation_xyz
x,y,z
-x,1/2-y,z
x,-y,1/2-z
1/2-x,y,-z
1/2+x,1/2+y,1/2+z
1/2-x,-y,1/2+z
1/2+x,1/2-y,-z
-x,1/2+y,1/2-z
loop_
_atom_site_type_symbol
_atom_site_label
_atom_site_fract_x
_atom_site_fract_y
_atom_site_fract_z
Si Si1 0.765161 0.204401 0.364295
Si Si2 0.893037 0.294588 0.511424
Si Si3 0.535342 0.548409 0.491277
Si Si4 0.493118 0.108366 0.190038
Si Si5 0.597919 0.981950 0.651744
Si Si6 0.228687 0.119564 0.792261
Si Si7 0.829554 0.252514 0.062082
O O1 0.844820 0.278124 0.418121
O O2 0.671500 0.217328 0.422569
O O3 0.742317 0.268533 0.273735
O O4 0.812340 0.072132 0.355425
O O5 0.896267 0.437057 0.534559
O O6 0.000000 0.250000 0.515040
O O7 0.472296 0.582110 0.407691
O O8 0.477470 0.498460 0.574364
O O9 0.590260 0.671614 0.513930
O O10 0.500000 0.250000 0.216979
O O11 0.380448 0.095248 0.190241
O O12 0.532700 0.000000 0.250000
O O13 0.629546 0.845730 0.628364
O O14 0.561232 0.000000 0.750000
O O15 0.276282 0.147477 0.882098
O O16 0.271962 0.000000 0.750000
O O17 0.750000 0.195486 0.000000
#
# Coordination Sequence:
#
# PCOD9336646 Si02
#       7
#     8   8   8   8   8   8   8
#     4  11  25  46  73 110 153 195 258 314 385 455
#     4  11  24  45  75 110 152 202 252 315 388 458
#     4  12  26  47  77 108 154 199 261 313 390 469
#     4  11  25  48  72 111 151 198 257 324 394 469
#     4  12  27  51  73 111 157 207 256 324 388 464
#     4  11  23  45  73 103 147 193 255 317 384 461
#     4  12  26  45  75 106 146 201 253 313 395 455
#
# _framework density 23.282532
#
# number of rings (size 3 to 8) (size 9 to 14) (size 15 to 20)
#    0.000    0.571    4.286    3.857    4.000    4.000 
#    5.143    0.000    0.000    0.000    0.000    0.000 
#    0.000    0.000    0.000    0.000    0.000    0.000 
#
# Total GULP energy -156578.892580 kJ/mol
# GULP energy per Si atom -5592.103306 kJ/mol
# Density = 2.322954 g / cm^3
# Si number density = 23.282532 Si / 1000 Ang^3
#
#
#
# Elastic Constant Matrix: (Units=GPa)
#
#
# Indices 1 2 3 4 5 6 
#
# 1 81.3238 8.5785 30.9882 0.0000 0.0000 0.0000
# 2 8.5785 119.3359 28.5943 0.0000 0.0000 0.0000
# 3 30.9882 28.5943 131.1606 0.0000 0.0000 0.0000
# 4 0.0000 0.0000 0.0000 41.5586 0.0000 0.0000
# 5 0.0000 0.0000 0.0000 0.0000 27.3335 0.0000
# 6 0.0000 0.0000 0.0000 0.0000 0.0000 26.7875
#
#
#
# Elastic Compliance Matrix: (Units=1/GPa)
#
#
# Indices 1 2 3 4 5 6 
#
# 1 0.013518 -0.000218 -0.003146 0.000000 0.000000 0.000000
# 2 -0.000218 0.008845 -0.001877 0.000000 0.000000 0.000000
# 3 -0.003146 -0.001877 0.008777 0.000000 0.000000 0.000000
# 4 0.000000 0.000000 0.000000 0.024062 0.000000 0.000000
# 5 0.000000 0.000000 0.000000 0.000000 0.036585 0.000000
# 6 0.000000 0.000000 0.000000 0.000000 0.000000 0.037331
#
#
# Mechanical properties :
#
#
# Convention : Reuss Voigt Hill
#
# Bulk Modulus (GPa) = 48.40717 52.01581 50.21149
# Shear Modulus (GPa) = 34.13272 36.71319 35.42295
#
# Velocity S-wave (km/s) = 3.83302 3.97527 3.90479
# Velocity P-wave (km/s) = 6.35812 6.59242 6.47633
#
# Compressibility (1/GPa) = 0.02065810
#
# Stress axis : x y z
#
# Youngs Moduli (GPa) = 73.97310 113.05720 113.93699
#
# Poissons Ratio (x) = 0.02463 0.35849
# Poissons Ratio (y) = 0.01612 0.21384
# Poissons Ratio (z) = 0.23275 0.21219
#
# Static dielectric constant tensor:
#      x y z
#    x 1.884740 0.000000 0.000000 
#    y 0.000000 1.896390 0.000000 
#    z 0.000000 0.000000 1.937750 
# 
# From -- ./inp_files/26502.got.cif
#   From: 2010.05.17/outbox.cif.g08.bks.cpg/sg24_14_cif.got.tgz:26502.got - 2010.06.04 00:33:39.
