data_PCOD9336700
_publ_section_title
;
Structure prediction by ZEFSAII (Michael W. Deem and Ramdas Pophale) SiO2 
 PCOD9336700
Probable space group: I 21 21 21
;
_chemical_formula_sum "Si O2"
_cell_formula_units_Z 32
_cell_length_a 12.801051
_cell_length_b 13.988194
_cell_length_c 8.188085
_cell_angle_alpha 90.000000
_cell_angle_beta 90.000000
_cell_angle_gamma 90.000000
_cell_volume 1466.187853
_symmetry_space_group_name_H-M "I 21 21 21"
_symmetry_group_IT_number 24
_symmetry_cell_setting 'orthorhombic'
loop_
_space_group_symop_operation_xyz
x,y,z
-x,1/2-y,z
x,-y,1/2-z
1/2-x,y,-z
1/2+x,1/2+y,1/2+z
1/2-x,-y,1/2+z
1/2+x,1/2-y,-z
-x,1/2+y,1/2-z
loop_
_atom_site_type_symbol
_atom_site_label
_atom_site_fract_x
_atom_site_fract_y
_atom_site_fract_z
Si Si1 0.879107 0.894651 0.672109
Si Si2 0.750000 0.244333 0.000000
Si Si3 0.431518 0.896963 0.554734
Si Si4 0.500000 0.250000 0.395894
Si Si5 0.133149 0.102805 0.435984
O O1 0.775022 0.831060 0.645344
O O2 0.948049 0.887370 0.502975
O O3 0.952446 0.835275 0.792052
O O4 0.861739 0.000000 0.750000
O O5 0.850821 0.315198 0.993741
O O6 0.400673 0.899755 0.745987
O O7 0.406941 0.002897 0.488668
O O8 0.413435 0.201114 0.503412
O O9 0.250000 0.103926 0.500000
#
# Coordination Sequence:
#
# PCOD9336700 Si02
#       5
#     8   4   8   4   8
#     4  12  26  48  70 106 147 197 246 311 375 447
#     4  12  24  46  76  98 140 200 248 296 368 452
#     4  11  24  45  76 100 141 190 246 300 365 449
#     4  12  24  44  72 100 148 186 242 320 374 430
#     4  11  25  43  70 111 141 184 244 312 368 440
#
# _framework density 21.825308
#
# number of rings (size 3 to 8) (size 9 to 14) (size 15 to 20)
#    0.000    0.500    6.250    1.500    3.500    0.000 
#   11.250    0.000    0.000    0.000    0.000    0.000 
#    0.000    0.000    0.000    0.000    0.000    0.000 
#
# Total GULP energy -89083.027666 kJ/mol
# GULP energy per Si atom -5567.689229 kJ/mol
# Density = 2.177563 g / cm^3
# Si number density = 21.825308 Si / 1000 Ang^3
#
#
#
# Elastic Constant Matrix: (Units=GPa)
#
#
# Indices 1 2 3 4 5 6 
#
# 1 63.0403 17.9434 1.6917 0.0000 0.0000 0.0000
# 2 17.9434 150.1359 15.9615 0.0000 0.0000 0.0000
# 3 1.6917 15.9615 54.5606 0.0000 0.0000 0.0000
# 4 0.0000 0.0000 0.0000 32.4339 0.0000 0.0000
# 5 0.0000 0.0000 0.0000 0.0000 14.0975 0.0000
# 6 0.0000 0.0000 0.0000 0.0000 0.0000 43.1407
#
#
#
# Elastic Compliance Matrix: (Units=1/GPa)
#
#
# Indices 1 2 3 4 5 6 
#
# 1 0.016422 -0.001970 0.000067 0.000000 0.000000 0.000000
# 2 -0.001970 0.007111 -0.002019 0.000000 0.000000 0.000000
# 3 0.000067 -0.002019 0.018917 0.000000 0.000000 0.000000
# 4 0.000000 0.000000 0.000000 0.030832 0.000000 0.000000
# 5 0.000000 0.000000 0.000000 0.000000 0.070935 0.000000
# 6 0.000000 0.000000 0.000000 0.000000 0.000000 0.023180
#
#
# Mechanical properties :
#
#
# Convention : Reuss Voigt Hill
#
# Bulk Modulus (GPa) = 28.89702 37.65890 33.27796
# Shear Modulus (GPa) = 26.77023 33.41044 30.09034
#
# Velocity S-wave (km/s) = 3.50604 3.91680 3.71710
# Velocity P-wave (km/s) = 5.44597 6.14388 5.80542
#
# Compressibility (1/GPa) = 0.03460565
#
# Stress axis : x y z
#
# Youngs Moduli (GPa) = 60.89488 140.63295 52.86293
#
# Poissons Ratio (x) = 0.27701 -0.00355
# Poissons Ratio (y) = 0.11995 0.10674
# Poissons Ratio (z) = -0.00409 0.28396
#
# Static dielectric constant tensor:
#      x y z
#    x 1.514450 0.000000 0.000000 
#    y 0.000000 1.786760 0.000000 
#    z 0.000000 0.000000 1.541960 
# 
# From -- ./inp_files/10304.got.cif
#   From: 2010.05.17/outbox.cif.g08.bks.cpg/sg24_6_cif.got.tgz:10304.got - 2010.06.04 00:33:39.
