data_PCOD9336636
_publ_section_title
;
Structure prediction by ZEFSAII (Michael W. Deem and Ramdas Pophale) SiO2 
 PCOD9336636
Probable space group: I 21 21 21
;
_chemical_formula_sum "Si O2"
_cell_formula_units_Z 32
_cell_length_a 23.636321
_cell_length_b 5.716217
_cell_length_c 8.956132
_cell_angle_alpha 90.000000
_cell_angle_beta 90.000000
_cell_angle_gamma 90.000000
_cell_volume 1210.066039
_symmetry_space_group_name_H-M "I 21 21 21"
_symmetry_group_IT_number 24
_symmetry_cell_setting 'orthorhombic'
loop_
_space_group_symop_operation_xyz
x,y,z
-x,1/2-y,z
x,-y,1/2-z
1/2-x,y,-z
1/2+x,1/2+y,1/2+z
1/2-x,-y,1/2+z
1/2+x,1/2-y,-z
-x,1/2+y,1/2-z
loop_
_atom_site_type_symbol
_atom_site_label
_atom_site_fract_x
_atom_site_fract_y
_atom_site_fract_z
Si Si1 0.293423 0.444226 0.401325
Si Si2 0.040896 0.440374 0.092781
Si Si3 0.093740 0.173539 0.616689
Si Si4 0.652996 0.664769 0.613696
O O1 0.260609 0.500000 0.250000
O O2 0.250000 0.292536 0.500000
O O3 0.349248 0.315330 0.341501
O O4 0.309584 0.664620 0.507311
O O5 0.010348 0.500000 0.250000
O O6 0.099696 0.330284 0.150876
O O7 0.000000 0.250000 0.017981
O O8 0.054421 0.639213 0.970023
O O9 0.074140 0.000000 0.750000
O O10 0.120183 0.013806 0.490756
O O11 0.675095 0.500000 0.750000
#
# Coordination Sequence:
#
# PCOD9336636 Si02
#       4
#     8   8   8   8
#     4  11  26  44  68 107 155 199 264 329 388 469
#     4  11  24  41  76 116 149 198 263 326 384 464
#     4  11  24  47  73 104 158 209 250 322 404 463
#     4  11  23  44  73 103 146 204 253 312 391 465
#
# _framework density 26.444835999999999
#
# number of rings (size 3 to 8) (size 9 to 14) (size 15 to 20)
#    0.000    1.000    5.000    0.750    3.500    1.000 
#    0.000    0.000    5.500    3.000    0.000    0.000 
#    0.000    0.000    0.000    0.000    0.000    0.000 
#
# Total GULP energy -89263.727610 kJ/mol
# GULP energy per Si atom -5578.982976 kJ/mol
# Density = 2.638465 g / cm^3
# Si number density = 26.444836 Si / 1000 Ang^3
#
#
#
# Elastic Constant Matrix: (Units=GPa)
#
#
# Indices 1 2 3 4 5 6 
#
# 1 80.5478 32.3391 25.2332 0.0000 0.0000 0.0000
# 2 32.3391 158.7123 79.0434 0.0000 0.0000 0.0000
# 3 25.2332 79.0434 178.8176 0.0000 0.0000 0.0000
# 4 0.0000 0.0000 0.0000 75.6609 0.0000 0.0000
# 5 0.0000 0.0000 0.0000 0.0000 256.1038 0.0000
# 6 0.0000 0.0000 0.0000 0.0000 0.0000-1514.9898
#
#
#
# Elastic Compliance Matrix: (Units=1/GPa)
#
#
# Indices 1 2 3 4 5 6 
#
# 1 0.013631 -0.002333 -0.000892 0.000000 0.000000 0.000000
# 2 -0.002333 0.008479 -0.003419 0.000000 0.000000 0.000000
# 3 -0.000892 -0.003419 0.007229 0.000000 0.000000 0.000000
# 4 0.000000 0.000000 0.000000 0.013217 0.000000 0.000000
# 5 0.000000 0.000000 0.000000 0.000000 0.003905 0.000000
# 6 0.000000 0.000000 0.000000 0.000000 0.000000 -0.000660
#
#
# Mechanical properties :
#
#
# Convention : Reuss Voigt Hill
#
# Bulk Modulus (GPa) = 62.30022 76.81212 69.55617
# Shear Modulus (GPa) = 77.59265 -217.88089 -70.14412
#
# Velocity S-wave (km/s) = 5.42264 -9.08678 -5.15580
# Velocity P-wave (km/s) = 7.92568 8.99909 3.01390
#
# Compressibility (1/GPa) = 0.01605131
#
# Stress axis : x y z
#
# Youngs Moduli (GPa) = 73.36097 117.94279 138.32530
#
# Poissons Ratio (x) = 0.27518 0.12341
# Poissons Ratio (y) = 0.17116 0.47288
# Poissons Ratio (z) = 0.06545 0.40320
#
# Static dielectric constant tensor:
#      x y z
#    x 2.151260 0.000000 0.000000 
#    y 0.000000 -12.885990 0.000000 
#    z 0.000000 0.000000 7.136620 
# 
# From -- ./inp_files/1278.got.cif
#   From: 2010.05.17/outbox.cif.g08.bks.cpg/sg24_1_cif.got.tgz:1278.got - 2010.06.04 00:33:39.
