data_PCOD9336514
_publ_section_title
;
Structure prediction by ZEFSAII (Michael W. Deem and Ramdas Pophale) SiO2 
 PCOD9336514
Probable space group: I 21 21 21
;
_chemical_formula_sum "Si O2"
_cell_formula_units_Z 32
_cell_length_a 5.024530
_cell_length_b 35.079111
_cell_length_c 8.694079
_cell_angle_alpha 90.000000
_cell_angle_beta 90.000000
_cell_angle_gamma 90.000000
_cell_volume 1532.383985
_symmetry_space_group_name_H-M "I 21 21 21"
_symmetry_group_IT_number 24
_symmetry_cell_setting 'orthorhombic'
loop_
_space_group_symop_operation_xyz
x,y,z
-x,1/2-y,z
x,-y,1/2-z
1/2-x,y,-z
1/2+x,1/2+y,1/2+z
1/2-x,-y,1/2+z
1/2+x,1/2-y,-z
-x,1/2+y,1/2-z
loop_
_atom_site_type_symbol
_atom_site_label
_atom_site_fract_x
_atom_site_fract_y
_atom_site_fract_z
Si Si1 0.251666 0.274541 0.812346
Si Si2 0.015242 0.975285 0.897882
Si Si3 0.708705 0.861716 0.318150
Si Si4 0.787112 0.605504 0.172135
O O1 0.500000 0.250000 0.761182
O O2 0.261558 0.318469 0.764568
O O3 0.000000 0.250000 0.762957
O O4 0.250000 0.275750 0.000000
O O5 0.163680 0.936910 0.839393
O O6 0.941076 0.000000 0.750000
O O7 0.250000 0.994685 0.000000
O O8 0.750000 0.968034 0.000000
O O9 0.750000 0.864874 0.500000
O O10 0.404458 0.871429 0.284001
O O11 0.911674 0.889846 0.229428
O O12 0.750000 0.621214 0.000000
#
# Coordination Sequence:
#
# PCOD9336514 Si02
#       4
#     8   8   8   8
#     4   9  17  31  53  82 115 149 192 250 304 343
#     4  11  24  43  65  91 121 159 203 249 305 365
#     4  11  22  37  62  92 117 154 209 255 291 350
#     4  11  23  41  60  85 125 164 192 236 311 374
#
# _framework density 20.882494999999999
#
# number of rings (size 3 to 8) (size 9 to 14) (size 15 to 20)
#    0.000    1.500    0.000    6.750    0.000    7.000 
#    0.000    0.000    0.000   15.000    0.000    0.000 
#    0.000    0.000    0.000    0.000    0.000    0.000 
#
# Total GULP energy -89355.089960 kJ/mol
# GULP energy per Si atom -5584.693123 kJ/mol
# Density = 2.083497 g / cm^3
# Si number density = 20.882495 Si / 1000 Ang^3
#
#
#
# Elastic Constant Matrix: (Units=GPa)
#
#
# Indices 1 2 3 4 5 6 
#
# 1 105.3051 13.6564 1.0533 -0.0001 0.0000 0.0000
# 2 13.6564 77.3071 19.1224 0.0001 0.0000 0.0000
# 3 1.0533 19.1224 58.3044 0.0005 0.0000 0.0001
# 4 -0.0001 0.0001 0.0005 -13.4709 0.0000 0.0002
# 5 0.0000 0.0000 0.0000 0.0000 59.6831 0.0000
# 6 0.0000 0.0000 0.0001 0.0002 0.0000 14.4944
#
#
#
# Elastic Compliance Matrix: (Units=1/GPa)
#
#
# Indices 1 2 3 4 5 6 
#
# 1 0.009728 -0.001823 0.000422 0.000000 0.000000 0.000000
# 2 -0.001823 0.014419 -0.004696 0.000000 0.000000 0.000000
# 3 0.000422 -0.004696 0.018684 0.000001 0.000000 0.000000
# 4 0.000000 0.000000 0.000001 -0.074234 0.000000 0.000001
# 5 0.000000 0.000000 0.000000 0.000000 0.016755 0.000000
# 6 0.000000 0.000000 0.000000 0.000001 0.000000 0.068992
#
#
# Mechanical properties :
#
#
# Convention : Reuss Voigt Hill
#
# Bulk Modulus (GPa) = 32.63978 34.28676 33.46327
# Shear Modulus (GPa) = 65.14578 25.94696 45.54637
#
# Velocity S-wave (km/s) = 5.59143 3.52877 4.67527
# Velocity P-wave (km/s) = 7.57295 5.74956 6.72336
#
# Compressibility (1/GPa) = 0.03063746
#
# Stress axis : x y z
#
# Youngs Moduli (GPa) = 102.79178 69.35257 53.52186
#
# Poissons Ratio (x) = 0.12643 -0.02259
# Poissons Ratio (y) = 0.18738 0.25135
# Poissons Ratio (z) = -0.04339 0.32569
#
# Static dielectric constant tensor:
#      x y z
#    x 1.711600 0.000000 0.000000 
#    y 0.000000 1.750010 0.000000 
#    z 0.000000 0.000000 1.818590 
# 
# From -- ./inp_files/1137.got.cif
#   From: 2010.05.17/outbox.cif.g08.bks.cpg/sg24_1_cif.got.tgz:1137.got - 2010.06.04 00:33:39.
