data_PCOD9336452
_publ_section_title
;
Structure prediction by ZEFSAII (Michael W. Deem and Ramdas Pophale) SiO2 
 PCOD9336452
Probable space group: I 21 21 21
;
_chemical_formula_sum "Si O2"
_cell_formula_units_Z 56
_cell_length_a 9.196466
_cell_length_b 15.398560
_cell_length_c 20.208414
_cell_angle_alpha 90.000000
_cell_angle_beta 90.000000
_cell_angle_gamma 90.000000
_cell_volume 2861.760663
_symmetry_space_group_name_H-M "I 21 21 21"
_symmetry_group_IT_number 24
_symmetry_cell_setting 'orthorhombic'
loop_
_space_group_symop_operation_xyz
x,y,z
-x,1/2-y,z
x,-y,1/2-z
1/2-x,y,-z
1/2+x,1/2+y,1/2+z
1/2-x,-y,1/2+z
1/2+x,1/2-y,-z
-x,1/2+y,1/2-z
loop_
_atom_site_type_symbol
_atom_site_label
_atom_site_fract_x
_atom_site_fract_y
_atom_site_fract_z
Si Si1 0.402120 0.128873 0.481872
Si Si2 0.668819 0.967125 0.603097
Si Si3 0.841350 0.705583 0.566459
Si Si4 0.000000 0.250000 0.402684
Si Si5 0.974167 0.041717 0.959785
Si Si6 0.149155 0.700876 0.320258
Si Si7 0.500000 0.750000 0.120023
Si Si8 0.256721 0.349335 0.675848
O O1 0.250000 0.087237 0.500000
O O2 0.467880 0.169904 0.547875
O O3 0.385181 0.207128 0.430739
O O4 0.494762 0.058081 0.444269
O O5 0.827384 0.934285 0.578399
O O6 0.568377 0.968325 0.537439
O O7 0.605299 0.888691 0.644659
O O8 0.697017 0.056438 0.644483
O O9 0.750000 0.727624 0.500000
O O10 0.749005 0.739646 0.630029
O O11 0.000000 0.750000 0.565268
O O12 0.892894 0.604624 0.559190
O O13 0.132700 0.281072 0.358024
O O14 0.226204 0.666761 0.253896
O O15 0.000000 0.750000 0.304239
O O16 0.592301 0.819705 0.159954
#
# Coordination Sequence:
#
# PCOD9336452 Si02
#       8
#     8   8   8   4   8   8   4   8
#     4  11  21  35  62  98 133 170 216 275 343 400
#     4  11  23  42  68 100 132 176 230 280 342 411
#     4  12  24  43  68  99 134 174 230 293 345 399
#     4  11  22  40  64  94 133 168 222 272 337 422
#     4  11  22  38  67  99 132 171 218 288 340 394
#     4  12  27  46  70  96 132 187 236 285 348 422
#     4  11  24  36  66 100 137 176 218 274 337 418
#     4  12  24  45  68  98 138 181 227 279 346 427
#
# _framework density 19.568373000000001
#
# number of rings (size 3 to 8) (size 9 to 14) (size 15 to 20)
#    0.000    0.571    6.429    3.000    1.000    0.000 
#    0.000    0.000    0.000    0.000    0.000    0.000 
#    0.000    0.000    0.000    0.000    0.000    0.000 
#
# Total GULP energy -155954.570360 kJ/mol
# GULP energy per Si atom -5569.806084 kJ/mol
# Density = 1.952383 g / cm^3
# Si number density = 19.568373 Si / 1000 Ang^3
#
#
#
# Elastic Constant Matrix: (Units=GPa)
#
#
# Indices 1 2 3 4 5 6 
#
# 1 49.6933 2.6598 15.1984 0.0000 0.0000 0.0000
# 2 2.6598 82.7238 28.6370 0.0000 0.0000 0.0000
# 3 15.1984 28.6370 103.8255 0.0000 0.0000 0.0000
# 4 0.0000 0.0000 0.0000 22.0946 0.0000 0.0000
# 5 0.0000 0.0000 0.0000 0.0000 30.9060 0.0000
# 6 0.0000 0.0000 0.0000 0.0000 0.0000 29.2627
#
#
#
# Elastic Compliance Matrix: (Units=1/GPa)
#
#
# Indices 1 2 3 4 5 6 
#
# 1 0.021081 0.000432 -0.003205 0.000000 0.000000 0.000000
# 2 0.000432 0.013373 -0.003752 0.000000 0.000000 0.000000
# 3 -0.003205 -0.003752 0.011136 0.000000 0.000000 0.000000
# 4 0.000000 0.000000 0.000000 0.045260 0.000000 0.000000
# 5 0.000000 0.000000 0.000000 0.000000 0.032356 0.000000
# 6 0.000000 0.000000 0.000000 0.000000 0.000000 0.034173
#
#
# Mechanical properties :
#
#
# Convention : Reuss Voigt Hill
#
# Bulk Modulus (GPa) = 30.73210 36.58145 33.65678
# Shear Modulus (GPa) = 27.58237 29.10248 28.34243
#
# Velocity S-wave (km/s) = 3.75845 3.86063 3.80989
# Velocity P-wave (km/s) = 5.87994 6.21349 6.04901
#
# Compressibility (1/GPa) = 0.03253926
#
# Stress axis : x y z
#
# Youngs Moduli (GPa) = 47.43716 74.77571 89.80287
#
# Poissons Ratio (x) = -0.03228 0.28781
# Poissons Ratio (y) = -0.02048 0.33692
# Poissons Ratio (z) = 0.15203 0.28054
#
# Static dielectric constant tensor:
#      x y z
#    x 1.733960 0.000000 0.000000 
#    y 0.000000 1.723100 0.000000 
#    z 0.000000 0.000000 1.736070 
# 
# From -- ./inp_files/32871.got.cif
#   From: 2010.05.17/outbox.cif.g08.bks.cpg/sg24_17_cif.got.tgz:32871.got - 2010.06.04 00:33:39.
