data_PCOD9336456
_publ_section_title
;
Structure prediction by ZEFSAII (Michael W. Deem and Ramdas Pophale) SiO2 
 PCOD9336456
Probable space group: I 21 21 21
;
_chemical_formula_sum "Si O2"
_cell_formula_units_Z 60
_cell_length_a 12.138455
_cell_length_b 12.454131
_cell_length_c 20.549877
_cell_angle_alpha 90.000000
_cell_angle_beta 90.000000
_cell_angle_gamma 90.000000
_cell_volume 3106.605230
_symmetry_space_group_name_H-M "I 21 21 21"
_symmetry_group_IT_number 24
_symmetry_cell_setting 'orthorhombic'
loop_
_space_group_symop_operation_xyz
x,y,z
-x,1/2-y,z
x,-y,1/2-z
1/2-x,y,-z
1/2+x,1/2+y,1/2+z
1/2-x,-y,1/2+z
1/2+x,1/2-y,-z
-x,1/2+y,1/2-z
loop_
_atom_site_type_symbol
_atom_site_label
_atom_site_fract_x
_atom_site_fract_y
_atom_site_fract_z
Si Si1 0.513588 0.122519 0.438601
Si Si2 0.103465 0.172517 0.773543
Si Si3 0.096972 0.972374 0.327397
Si Si4 0.652467 0.469776 0.349066
Si Si5 0.776806 0.938794 0.853609
Si Si6 0.728181 0.155344 0.783732
Si Si7 0.051697 0.367384 0.409701
Si Si8 0.500000 0.750000 0.697544
O O1 0.500000 0.250000 0.427457
O O2 0.400846 0.067119 0.415821
O O3 0.611420 0.075727 0.393677
O O4 0.537862 0.105591 0.514287
O O5 0.138774 0.125718 0.703594
O O6 0.203749 0.240322 0.803093
O O7 0.000000 0.250000 0.768443
O O8 0.084816 0.069625 0.818918
O O9 0.058527 0.849738 0.338216
O O10 0.094061 0.000000 0.250000
O O11 0.220596 0.996717 0.350572
O O12 0.014249 0.049922 0.364820
O O13 0.784803 0.886216 0.782283
O O14 0.679403 0.877345 0.891017
O O15 0.738944 0.061014 0.836950
O O16 0.602713 0.190087 0.767750
O O17 0.000000 0.250000 0.398912
#
# Coordination Sequence:
#
# PCOD9336456 Si02
#       8
#     8   8   8   8   8   8   8   4
#     4  11  25  44  64  92 131 177 215 262 315 390
#     4  11  21  36  60  96 130 167 210 267 324 380
#     4  12  24  42  68  98 130 165 214 273 329 387
#     4  11  22  39  62  95 129 168 216 265 322 383
#     4  11  23  41  64  95 131 169 217 264 325 384
#     4  11  22  37  65  99 125 169 206 271 329 377
#     4  11  27  42  67  95 129 174 215 267 322 388
#     4  12  22  40  62  96 140 156 214 264 334 384
#
# _framework density 19.313687000000002
#
# number of rings (size 3 to 8) (size 9 to 14) (size 15 to 20)
#    0.000    0.800    4.000    4.000    7.467    2.667 
#    0.000    0.000    4.400    0.000    0.000    0.000 
#    0.000    0.000    0.000    0.000    0.000    0.000 
#
# Total GULP energy -167640.628014 kJ/mol
# GULP energy per Si atom -5588.020934 kJ/mol
# Density = 1.926973 g / cm^3
# Si number density = 19.313687 Si / 1000 Ang^3
#
#
#
# Elastic Constant Matrix: (Units=GPa)
#
#
# Indices 1 2 3 4 5 6 
#
# 1 121.2988 40.5263 29.2564 0.0000 0.0000 0.0000
# 2 40.5263 93.4735 27.2800 0.0000 0.0000 0.0000
# 3 29.2564 27.2800 77.0129 0.0000 0.0000 0.0000
# 4 0.0000 0.0000 0.0000 15.1105 0.0000 0.0000
# 5 0.0000 0.0000 0.0000 0.0000 6.3582 0.0000
# 6 0.0000 0.0000 0.0000 0.0000 0.0000 38.9845
#
#
#
# Elastic Compliance Matrix: (Units=1/GPa)
#
#
# Indices 1 2 3 4 5 6 
#
# 1 0.010068 -0.003623 -0.002541 0.000000 0.000000 0.000000
# 2 -0.003623 0.013236 -0.003312 0.000000 0.000000 0.000000
# 3 -0.002541 -0.003312 0.015123 0.000000 0.000000 0.000000
# 4 0.000000 0.000000 0.000000 0.066179 0.000000 0.000000
# 5 0.000000 0.000000 0.000000 0.000000 0.157277 0.000000
# 6 0.000000 0.000000 0.000000 0.000000 0.000000 0.025651
#
#
# Mechanical properties :
#
#
# Convention : Reuss Voigt Hill
#
# Bulk Modulus (GPa) = 51.35075 53.99006 52.67041
# Shear Modulus (GPa) = 15.97555 25.07216 20.52385
#
# Velocity S-wave (km/s) = 2.87916 3.60690 3.26338
# Velocity P-wave (km/s) = 6.13989 6.73508 6.44436
#
# Compressibility (1/GPa) = 0.01947391
#
# Stress axis : x y z
#
# Youngs Moduli (GPa) = 99.32912 75.55320 66.12282
#
# Poissons Ratio (x) = 0.27375 0.16802
# Poissons Ratio (y) = 0.35990 0.21900
# Poissons Ratio (z) = 0.25241 0.25023
#
# Static dielectric constant tensor:
#      x y z
#    x 1.700250 0.000000 0.000000 
#    y 0.000000 1.699190 0.000000 
#    z 0.000000 0.000000 1.635370 
# 
# From -- ./inp_files/22242.got.cif
#   From: 2010.05.17/outbox.cif.g08.bks.cpg/sg24_12_cif.got.tgz:22242.got - 2010.06.04 00:33:39.
