data_PCOD9336496
_publ_section_title
;
Structure prediction by ZEFSAII (Michael W. Deem and Ramdas Pophale) SiO2 
 PCOD9336496
Probable space group: I 21 21 21
;
_chemical_formula_sum "Si O2"
_cell_formula_units_Z 32
_cell_length_a 8.699386
_cell_length_b 14.550628
_cell_length_c 13.506686
_cell_angle_alpha 90.000000
_cell_angle_beta 90.000000
_cell_angle_gamma 90.000000
_cell_volume 1709.696973
_symmetry_space_group_name_H-M "I 21 21 21"
_symmetry_group_IT_number 24
_symmetry_cell_setting 'orthorhombic'
loop_
_space_group_symop_operation_xyz
x,y,z
-x,1/2-y,z
x,-y,1/2-z
1/2-x,y,-z
1/2+x,1/2+y,1/2+z
1/2-x,-y,1/2+z
1/2+x,1/2-y,-z
-x,1/2+y,1/2-z
loop_
_atom_site_type_symbol
_atom_site_label
_atom_site_fract_x
_atom_site_fract_y
_atom_site_fract_z
Si Si1 0.624612 0.522015 0.145772
Si Si2 0.500000 0.250000 0.876522
Si Si3 0.046100 0.901380 0.212034
Si Si4 0.432652 0.651476 0.002855
Si Si5 0.750000 0.361620 0.000000
O O1 0.543725 0.500000 0.250000
O O2 0.772412 0.582319 0.183542
O O3 0.513417 0.577356 0.073469
O O4 0.683776 0.432249 0.084282
O O5 0.490319 0.333347 0.797790
O O6 0.629051 0.292908 0.948613
O O7 0.993146 0.000000 0.250000
O O8 0.979204 0.869316 0.109072
O O9 0.500000 0.750000 0.032792
O O10 0.250000 0.651499 0.000000
#
# Coordination Sequence:
#
# PCOD9336496 Si02
#       5
#     8   4   8   8   4
#     4  11  22  47  73  96 139 194 239 302 367 433
#     4  12  24  44  74 104 142 196 240 306 368 442
#     4  11  21  44  73  96 138 190 238 291 365 429
#     4  12  25  41  69 103 137 178 239 302 358 435
#     4  12  24  46  70 106 148 192 246 304 374 430
#
# _framework density 18.716767999999998
#
# number of rings (size 3 to 8) (size 9 to 14) (size 15 to 20)
#    0.000    0.500    8.750    1.500    0.000    1.000 
#   15.750    0.000    0.000    0.000    0.000    0.000 
#    0.000    0.000    0.000    0.000    0.000    0.000 
#
# Total GULP energy -89113.262888 kJ/mol
# GULP energy per Si atom -5569.578930 kJ/mol
# Density = 1.867417 g / cm^3
# Si number density = 18.716768 Si / 1000 Ang^3
#
#
#
# Elastic Constant Matrix: (Units=GPa)
#
#
# Indices 1 2 3 4 5 6 
#
# 1 99.8263 73.3014 59.6690 0.0000 0.0000 0.0000
# 2 73.3014 160.8561 72.3723 0.0000 0.0000 0.0000
# 3 59.6690 72.3723 173.3972 0.0000 0.0000 0.0000
# 4 0.0000 0.0000 0.0000 47.6276 0.0000 0.0000
# 5 0.0000 0.0000 0.0000 0.0000 28.0569 0.0000
# 6 0.0000 0.0000 0.0000 0.0000 0.0000 31.1871
#
#
#
# Elastic Compliance Matrix: (Units=1/GPa)
#
#
# Indices 1 2 3 4 5 6 
#
# 1 0.016296 -0.006037 -0.003088 0.000000 0.000000 0.000000
# 2 -0.006037 0.009890 -0.002051 0.000000 0.000000 0.000000
# 3 -0.003088 -0.002051 0.007686 0.000000 0.000000 0.000000
# 4 0.000000 0.000000 0.000000 0.020996 0.000000 0.000000
# 5 0.000000 0.000000 0.000000 0.000000 0.035642 0.000000
# 6 0.000000 0.000000 0.000000 0.000000 0.000000 0.032065
#
#
# Mechanical properties :
#
#
# Convention : Reuss Voigt Hill
#
# Bulk Modulus (GPa) = 86.79803 93.86280 90.33041
# Shear Modulus (GPa) = 33.60997 36.62346 35.11671
#
# Velocity S-wave (km/s) = 4.24218 4.42828 4.33623
# Velocity P-wave (km/s) = 8.39464 8.74095 8.56954
#
# Compressibility (1/GPa) = 0.01152100
#
# Stress axis : x y z
#
# Youngs Moduli (GPa) = 61.36540 101.11027 130.11163
#
# Poissons Ratio (x) = 0.61035 0.40181
# Poissons Ratio (y) = 0.37043 0.26682
# Poissons Ratio (z) = 0.18951 0.20735
#
# Static dielectric constant tensor:
#      x y z
#    x 1.683580 0.000000 0.000000 
#    y 0.000000 1.691560 0.000000 
#    z 0.000000 0.000000 1.666130 
# 
# From -- ./inp_files/10429.got.cif
#   From: 2010.05.17/outbox.cif.g08.bks.cpg/sg24_6_cif.got.tgz:10429.got - 2010.06.04 00:33:39.
