data_PCOD9336438
_publ_section_title
;
Structure prediction by ZEFSAII (Michael W. Deem and Ramdas Pophale) SiO2 
 PCOD9336438
Probable space group: I 21 21 21
;
_chemical_formula_sum "Si O2"
_cell_formula_units_Z 48
_cell_length_a 13.365465
_cell_length_b 12.358394
_cell_length_c 14.479027
_cell_angle_alpha 90.000000
_cell_angle_beta 90.000000
_cell_angle_gamma 90.000000
_cell_volume 2391.583166
_symmetry_space_group_name_H-M "I 21 21 21"
_symmetry_group_IT_number 24
_symmetry_cell_setting 'orthorhombic'
loop_
_space_group_symop_operation_xyz
x,y,z
-x,1/2-y,z
x,-y,1/2-z
1/2-x,y,-z
1/2+x,1/2+y,1/2+z
1/2-x,-y,1/2+z
1/2+x,1/2-y,-z
-x,1/2+y,1/2-z
loop_
_atom_site_type_symbol
_atom_site_label
_atom_site_fract_x
_atom_site_fract_y
_atom_site_fract_z
Si Si1 0.165594 0.451413 0.345833
Si Si2 0.884682 0.791587 0.652312
Si Si3 0.564034 0.638030 0.089421
Si Si4 0.250000 0.611085 0.500000
Si Si5 0.045298 0.871187 0.122985
Si Si6 0.037670 0.500000 0.750000
Si Si7 0.754639 0.712182 0.186499
O O1 0.199461 0.500000 0.250000
O O2 0.197590 0.530503 0.427499
O O3 0.211879 0.331116 0.349192
O O4 0.045820 0.442908 0.343017
O O5 0.829712 0.816399 0.556056
O O6 0.809256 0.722707 0.718226
O O7 0.000000 0.750000 0.643959
O O8 0.898978 0.904554 0.705323
O O9 0.500000 0.750000 0.098145
O O10 0.524002 0.554152 0.165877
O O11 0.676792 0.666140 0.113728
O O12 0.560931 0.598827 0.984303
O O13 0.145831 0.861348 0.183221
O O14 0.000000 0.750000 0.121608
#
# Coordination Sequence:
#
# PCOD9336438 Si02
#       7
#     8   8   8   4   8   4   8
#     4  11  23  42  66  98 127 168 222 272 322 396
#     4  12  24  44  66 100 132 176 225 273 334 403
#     4  11  21  36  62  98 129 168 218 280 332 386
#     4  12  26  42  72  98 130 174 230 274 332 408
#     4   9  22  36  60  93 128 163 210 269 330 382
#     4  12  20  38  68  92 136 162 226 280 322 396
#     4  11  20  41  65  92 131 166 213 271 341 380
#
# _framework density 20.070387
#
# number of rings (size 3 to 8) (size 9 to 14) (size 15 to 20)
#    0.000    1.000    5.000    2.500    7.000    0.000 
#    4.500    0.000    3.667    0.000    0.000    0.000 
#    0.000    0.000    0.000    0.000    0.000    0.000 
#
# Total GULP energy -133977.838782 kJ/mol
# GULP energy per Si atom -5582.409949 kJ/mol
# Density = 2.002471 g / cm^3
# Si number density = 20.070387 Si / 1000 Ang^3
#
#
#
# Elastic Constant Matrix: (Units=GPa)
#
#
# Indices 1 2 3 4 5 6 
#
# 1 180.5381 42.3755 72.9576 0.0000 0.0000 0.0000
# 2 42.3755 40.2224 38.1575 0.0000 0.0000 0.0000
# 3 72.9576 38.1575 129.3794 0.0000 0.0000 0.0000
# 4 0.0000 0.0000 0.0000 14.9715 0.0000 0.0000
# 5 0.0000 0.0000 0.0000 0.0000 -24.9665 0.0000
# 6 0.0000 0.0000 0.0000 0.0000 0.0000 18.6851
#
#
#
# Elastic Compliance Matrix: (Units=1/GPa)
#
#
# Indices 1 2 3 4 5 6 
#
# 1 0.008040 -0.005789 -0.002826 0.000000 0.000000 0.000000
# 2 -0.005789 0.038688 -0.008146 0.000000 0.000000 0.000000
# 3 -0.002826 -0.008146 0.011725 0.000000 0.000000 0.000000
# 4 0.000000 0.000000 0.000000 0.066794 0.000000 0.000000
# 5 0.000000 0.000000 0.000000 0.000000 -0.040054 0.000000
# 6 0.000000 0.000000 0.000000 0.000000 0.000000 0.053519
#
#
# Mechanical properties :
#
#
# Convention : Reuss Voigt Hill
#
# Bulk Modulus (GPa) = 40.11030 73.01345 56.56188
# Shear Modulus (GPa) = 27.69390 14.84796 21.27093
#
# Velocity S-wave (km/s) = 3.71865 2.72287 3.25901
# Velocity P-wave (km/s) = 6.20210 6.80757 6.51187
#
# Compressibility (1/GPa) = 0.02493125
#
# Stress axis : x y z
#
# Youngs Moduli (GPa) = 124.37839 25.84764 85.28452
#
# Poissons Ratio (x) = 0.14963 0.24105
# Poissons Ratio (y) = 0.72003 0.69471
# Poissons Ratio (z) = 0.35155 0.21055
#
# Static dielectric constant tensor:
#      x y z
#    x 1.740070 0.000000 0.000000 
#    y 0.000000 2.610380 0.000000 
#    z 0.000000 0.000000 1.722980 
# 
# From -- ./inp_files/25754.got.cif
#   From: 2010.05.17/outbox.cif.g08.bks.cpg/sg24_13_cif.got.tgz:25754.got - 2010.06.04 00:33:39.
