data_PCOD9336881
_publ_section_title
;
Structure prediction by ZEFSAII (Michael W. Deem and Ramdas Pophale) SiO2 
 PCOD9336881
Probable space group: I 21 21 21
;
_chemical_formula_sum "Si O2"
_cell_formula_units_Z 36
_cell_length_a 24.102071
_cell_length_b 6.856239
_cell_length_c 9.471848
_cell_angle_alpha 90.000000
_cell_angle_beta 90.000000
_cell_angle_gamma 90.000000
_cell_volume 1565.218707
_symmetry_space_group_name_H-M "I 21 21 21"
_symmetry_group_IT_number 24
_symmetry_cell_setting 'orthorhombic'
loop_
_space_group_symop_operation_xyz
x,y,z
-x,1/2-y,z
x,-y,1/2-z
1/2-x,y,-z
1/2+x,1/2+y,1/2+z
1/2-x,-y,1/2+z
1/2+x,1/2-y,-z
-x,1/2+y,1/2-z
loop_
_atom_site_type_symbol
_atom_site_label
_atom_site_fract_x
_atom_site_fract_y
_atom_site_fract_z
Si Si1 0.500000 0.250000 0.110158
Si Si2 0.952518 0.089245 0.404474
Si Si3 0.750000 0.249628 0.500000
Si Si4 0.802152 0.000000 0.750000
Si Si5 0.865081 0.418151 0.407483
Si Si6 0.616126 0.674315 0.341264
O O1 0.553360 0.289474 0.208115
O O2 0.475727 0.425462 0.012109
O O3 0.897759 0.216561 0.439962
O O4 0.000000 0.250000 0.391319
O O5 0.942998 0.000000 0.250000
O O6 0.801910 0.379952 0.452097
O O7 0.766872 0.116492 0.634003
O O8 0.843299 0.853697 0.669041
O O9 0.869822 0.500000 0.250000
O O10 0.889947 0.589189 0.503224
O O11 0.641303 0.500000 0.250000
#
# Coordination Sequence:
#
# PCOD9336881 Si02
#       6
#     4   8   4   4   8   8
#     4  12  26  40  80 106 158 206 244 310 388 472
#     4  12  23  45  71 116 151 200 256 313 382 453
#     4  12  30  50  82 110 150 208 260 322 386 458
#     4  12  30  54  78 112 154 202 264 322 382 464
#     4  12  28  50  80 115 151 203 261 325 388 458
#     4  12  28  51  73 115 156 198 252 318 386 468
#
# _framework density 22.999980999999998
#
# number of rings (size 3 to 8) (size 9 to 14) (size 15 to 20)
#    0.000    0.000    5.556    3.333    9.333    0.000 
#    0.000    0.000    0.000    0.000    0.000    0.000 
#    0.000    0.000    0.000    0.000    0.000    0.000 
#
# Total GULP energy -100795.671753 kJ/mol
# GULP energy per Si atom -5599.759542 kJ/mol
# Density = 2.294763 g / cm^3
# Si number density = 22.999981 Si / 1000 Ang^3
#
#
#
# Elastic Constant Matrix: (Units=GPa)
#
#
# Indices 1 2 3 4 5 6 
#
# 1 123.1918 27.8943 -9.6669 0.0000 0.0000 0.0000
# 2 27.8943 97.5277 12.1801 0.0000 0.0000 0.0000
# 3 -9.6669 12.1801 75.6193 0.0000 0.0000 0.0000
# 4 0.0000 0.0000 0.0000 42.5459 0.0000 0.0000
# 5 0.0000 0.0000 0.0000 0.0000 29.2356 0.0000
# 6 0.0000 0.0000 0.0000 0.0000 0.0000 24.5320
#
#
#
# Elastic Compliance Matrix: (Units=1/GPa)
#
#
# Indices 1 2 3 4 5 6 
#
# 1 0.008859 -0.002730 0.001572 0.000000 0.000000 0.000000
# 2 -0.002730 0.011305 -0.002170 0.000000 0.000000 0.000000
# 3 0.001572 -0.002170 0.013775 0.000000 0.000000 0.000000
# 4 0.000000 0.000000 0.000000 0.023504 0.000000 0.000000
# 5 0.000000 0.000000 0.000000 0.000000 0.034205 0.000000
# 6 0.000000 0.000000 0.000000 0.000000 0.000000 0.040763
#
#
# Mechanical properties :
#
#
# Convention : Reuss Voigt Hill
#
# Bulk Modulus (GPa) = 36.65255 39.68376 38.16816
# Shear Modulus (GPa) = 33.74705 36.99146 35.36926
#
# Velocity S-wave (km/s) = 3.83464 4.01474 3.92573
# Velocity P-wave (km/s) = 5.96460 6.22753 6.09749
#
# Compressibility (1/GPa) = 0.02728323
#
# Stress axis : x y z
#
# Youngs Moduli (GPa) = 112.87972 88.45354 72.59715
#
# Poissons Ratio (x) = 0.24149 -0.11414
# Poissons Ratio (y) = 0.30818 0.15753
# Poissons Ratio (z) = -0.17748 0.19194
#
# Static dielectric constant tensor:
#      x y z
#    x 1.849740 0.000000 0.000000 
#    y 0.000000 1.977670 0.000000 
#    z 0.000000 0.000000 1.899730 
# 
# From -- ./inp_files/22462.got.cif
#   From: 2010.05.17/outbox.cif.g08.bks.cpg/sg24_12_cif.got.tgz:22462.got - 2010.06.04 00:33:39.
