data_PCOD9336607
_publ_section_title
;
Structure prediction by ZEFSAII (Michael W. Deem and Ramdas Pophale) SiO2 
 PCOD9336607
Probable space group: I 21 21 21
;
_chemical_formula_sum "Si O2"
_cell_formula_units_Z 56
_cell_length_a 14.171160
_cell_length_b 14.534994
_cell_length_c 12.198241
_cell_angle_alpha 90.000000
_cell_angle_beta 90.000000
_cell_angle_gamma 90.000000
_cell_volume 2512.565937
_symmetry_space_group_name_H-M "I 21 21 21"
_symmetry_group_IT_number 24
_symmetry_cell_setting 'orthorhombic'
loop_
_space_group_symop_operation_xyz
x,y,z
-x,1/2-y,z
x,-y,1/2-z
1/2-x,y,-z
1/2+x,1/2+y,1/2+z
1/2-x,-y,1/2+z
1/2+x,1/2-y,-z
-x,1/2+y,1/2-z
loop_
_atom_site_type_symbol
_atom_site_label
_atom_site_fract_x
_atom_site_fract_y
_atom_site_fract_z
Si Si1 0.729657 0.878948 0.832794
Si Si2 0.609296 0.721199 0.926512
Si Si3 0.843251 0.582348 0.670924
Si Si4 0.478983 0.146539 0.983272
Si Si5 0.679827 0.915948 0.591437
Si Si6 0.111030 0.758431 0.830746
Si Si7 0.131808 0.903743 0.280353
O O1 0.670042 0.811923 0.908354
O O2 0.688007 0.868574 0.709896
O O3 0.835686 0.839392 0.830391
O O4 0.715216 0.981143 0.878317
O O5 0.500000 0.750000 0.913820
O O6 0.640690 0.650148 0.833628
O O7 0.626047 0.692130 0.051729
O O8 0.877286 0.500000 0.750000
O O9 0.908886 0.593204 0.565147
O O10 0.849755 0.678295 0.735561
O O11 0.730485 0.569957 0.660384
O O12 0.500000 0.250000 0.024437
O O13 0.575922 0.092501 0.959261
O O14 0.427399 0.154512 0.866354
O O15 0.750000 0.875903 0.500000
O O16 0.000000 0.750000 0.816199
O O17 0.081949 0.000000 0.250000
#
# Coordination Sequence:
#
# PCOD9336607 Si02
#       7
#     8   8   8   8   8   8   8
#     4  11  24  47  71 103 145 189 254 307 377 439
#     4  11  23  41  71 103 137 185 244 305 371 437
#     4  11  27  46  71 106 145 196 240 304 380 458
#     4  12  28  47  74 108 149 194 250 313 388 457
#     4  11  27  44  72 106 146 197 245 313 374 449
#     4  11  25  44  74 104 144 191 246 303 376 445
#     4  11  25  44  72 102 143 187 246 305 368 451
#
# _framework density 22.287972
#
# number of rings (size 3 to 8) (size 9 to 14) (size 15 to 20)
#    0.000    0.857    1.429    4.286   10.000    2.286 
#    0.000    0.000    0.000    0.000    0.000    0.000 
#    0.000    0.000    0.000    0.000    0.000    0.000 
#
# Total GULP energy -156597.239284 kJ/mol
# GULP energy per Si atom -5592.758546 kJ/mol
# Density = 2.223724 g / cm^3
# Si number density = 22.287972 Si / 1000 Ang^3
#
#
#
# Elastic Constant Matrix: (Units=GPa)
#
#
# Indices 1 2 3 4 5 6 
#
# 1 111.7279 13.1770 18.6635 0.0000 0.0000 0.0000
# 2 13.1770 65.1753 -2.5489 0.0000 0.0000 0.0000
# 3 18.6635 -2.5489 97.7702 0.0000 0.0000 0.0000
# 4 0.0000 0.0000 0.0000 27.0327 0.0000 0.0000
# 5 0.0000 0.0000 0.0000 0.0000 34.2580 0.0000
# 6 0.0000 0.0000 0.0000 0.0000 0.0000 23.6321
#
#
#
# Elastic Compliance Matrix: (Units=1/GPa)
#
#
# Indices 1 2 3 4 5 6 
#
# 1 0.009497 -0.001993 -0.001865 0.000000 0.000000 0.000000
# 2 -0.001993 0.015777 0.000792 0.000000 0.000000 0.000000
# 3 -0.001865 0.000792 0.010605 0.000000 0.000000 0.000000
# 4 0.000000 0.000000 0.000000 0.036992 0.000000 0.000000
# 5 0.000000 0.000000 0.000000 0.000000 0.029190 0.000000
# 6 0.000000 0.000000 0.000000 0.000000 0.000000 0.042315
#
#
# Mechanical properties :
#
#
# Convention : Reuss Voigt Hill
#
# Bulk Modulus (GPa) = 33.61730 37.02850 35.32290
# Shear Modulus (GPa) = 31.16739 33.34336 32.25538
#
# Velocity S-wave (km/s) = 3.74357 3.87204 3.80835
# Velocity P-wave (km/s) = 5.81392 6.05310 5.93471
#
# Compressibility (1/GPa) = 0.02974659
#
# Stress axis : x y z
#
# Youngs Moduli (GPa) = 105.29778 63.38287 94.29796
#
# Poissons Ratio (x) = 0.12632 0.17585
# Poissons Ratio (y) = 0.20986 -0.07466
# Poissons Ratio (z) = 0.19636 -0.05018
#
# Static dielectric constant tensor:
#      x y z
#    x 1.847920 0.000000 0.000000 
#    y 0.000000 1.844630 0.000000 
#    z 0.000000 0.000000 1.828560 
# 
# From -- ./inp_files/20829.got.cif
#   From: 2010.05.17/outbox.cif.g08.bks.cpg/sg24_11_cif.got.tgz:20829.got - 2010.06.04 00:33:39.
