data_PCOD9336347
_publ_section_title
;
Structure prediction by ZEFSAII (Michael W. Deem and Ramdas Pophale) SiO2 
 PCOD9336347
Probable space group: I 21 21 21
;
_chemical_formula_sum "Si O2"
_cell_formula_units_Z 40
_cell_length_a 12.110167
_cell_length_b 5.282847
_cell_length_c 25.460954
_cell_angle_alpha 90.000000
_cell_angle_beta 90.000000
_cell_angle_gamma 90.000000
_cell_volume 1628.894052
_symmetry_space_group_name_H-M "I 21 21 21"
_symmetry_group_IT_number 24
_symmetry_cell_setting 'orthorhombic'
loop_
_space_group_symop_operation_xyz
x,y,z
-x,1/2-y,z
x,-y,1/2-z
1/2-x,y,-z
1/2+x,1/2+y,1/2+z
1/2-x,-y,1/2+z
1/2+x,1/2-y,-z
-x,1/2+y,1/2-z
loop_
_atom_site_type_symbol
_atom_site_label
_atom_site_fract_x
_atom_site_fract_y
_atom_site_fract_z
Si Si1 0.500000 0.750000 0.778588
Si Si2 0.500000 0.750000 0.341118
Si Si3 0.076507 0.505842 0.416956
Si Si4 0.133552 0.500000 0.750000
Si Si5 0.116928 0.101459 0.590212
Si Si6 0.205204 0.705330 0.171509
Si Si7 0.250000 0.307468 0.500000
O O1 0.452989 0.500000 0.750000
O O2 0.399566 0.868204 0.811553
O O3 0.443887 0.563375 0.299301
O O4 0.592591 0.662391 0.381746
O O5 0.140507 0.517961 0.360557
O O6 0.170847 0.471510 0.461791
O O7 0.000000 0.750000 0.425131
O O8 0.000000 0.250000 0.418402
O O9 0.219016 0.691996 0.776614
O O10 0.211164 0.208053 0.627504
O O11 0.167059 0.130162 0.533071
O O12 0.000000 0.250000 0.593109
#
# Coordination Sequence:
#
# PCOD9336347 Si02
#       7
#     4   4   8   4   8   8   4
#     4  12  28  44  70 107 155 206 256 314 382 470
#     4  12  26  46  82 109 169 204 274 332 404 494
#     4  11  26  50  78 112 158 206 266 335 402 488
#     4  12  24  44  72 116 150 216 254 330 402 466
#     4  11  24  51  73 113 150 205 265 336 399 490
#     4  11  25  44  74 108 157 203 266 319 401 477
#     4  10  26  52  80 114 152 208 270 340 422 476
#
# _framework density 24.556535
#
# number of rings (size 3 to 8) (size 9 to 14) (size 15 to 20)
#    0.000    0.800    4.000    1.800    4.200    4.000 
#    7.200    0.000    0.000    0.000    0.000    0.000 
#    0.000    0.000    0.000    0.000    0.000    0.000 
#
# Total GULP energy -111501.813285 kJ/mol
# GULP energy per Si atom -5575.090664 kJ/mol
# Density = 2.450064 g / cm^3
# Si number density = 24.556535 Si / 1000 Ang^3
#
#
#
# Elastic Constant Matrix: (Units=GPa)
#
#
# Indices 1 2 3 4 5 6 
#
# 1 140.7104 32.5706 25.5946 0.0000 0.0000 0.0000
# 2 32.5706 85.9560 25.1330 0.0000 0.0000 0.0000
# 3 25.5946 25.1330 115.4109 0.0000 0.0000 0.0000
# 4 0.0000 0.0000 0.0000 16.6705 0.0000 0.0000
# 5 0.0000 0.0000 0.0000 0.0000 -106.1704 0.0000
# 6 0.0000 0.0000 0.0000 0.0000 0.0000 36.3169
#
#
#
# Elastic Compliance Matrix: (Units=1/GPa)
#
#
# Indices 1 2 3 4 5 6 
#
# 1 0.007938 -0.002663 -0.001181 0.000000 0.000000 0.000000
# 2 -0.002663 0.013318 -0.002310 0.000000 0.000000 0.000000
# 3 -0.001181 -0.002310 0.009430 0.000000 0.000000 0.000000
# 4 0.000000 0.000000 0.000000 0.059986 0.000000 0.000000
# 5 0.000000 0.000000 0.000000 0.000000 -0.009419 0.000000
# 6 0.000000 0.000000 0.000000 0.000000 0.000000 0.027535
#
#
# Mechanical properties :
#
#
# Convention : Reuss Voigt Hill
#
# Bulk Modulus (GPa) = 54.40824 56.51931 55.46378
# Shear Modulus (GPa) = 39.30177 6.61534 22.95855
#
# Velocity S-wave (km/s) = 4.00492 1.64310 3.06097
# Velocity P-wave (km/s) = 6.60229 5.16388 5.92688
#
# Compressibility (1/GPa) = 0.01837957
#
# Stress axis : x y z
#
# Youngs Moduli (GPa) = 125.97855 75.08542 106.05015
#
# Poissons Ratio (x) = 0.19993 0.12520
# Poissons Ratio (y) = 0.33544 0.24496
# Poissons Ratio (z) = 0.14872 0.17343
#
# Static dielectric constant tensor:
#      x y z
#    x 2.050620 0.000000 0.000000 
#    y 0.000000 2.224690 0.000000 
#    z 0.000000 0.000000 2.006710 
# 
# From -- ./inp_files/37087.got.cif
#   From: 2010.05.17/outbox.cif.g08.bks.cpg/sg24_19_cif.got.tgz:37087.got - 2010.06.04 00:33:39.
