data_PCOD9336817
_publ_section_title
;
Structure prediction by ZEFSAII (Michael W. Deem and Ramdas Pophale) SiO2 
 PCOD9336817
Probable space group: I 21 21 21
;
_chemical_formula_sum "Si O2"
_cell_formula_units_Z 36
_cell_length_a 25.090826
_cell_length_b 13.079712
_cell_length_c 5.293920
_cell_angle_alpha 90.000000
_cell_angle_beta 90.000000
_cell_angle_gamma 90.000000
_cell_volume 1737.362784
_symmetry_space_group_name_H-M "I 21 21 21"
_symmetry_group_IT_number 24
_symmetry_cell_setting 'orthorhombic'
loop_
_space_group_symop_operation_xyz
x,y,z
-x,1/2-y,z
x,-y,1/2-z
1/2-x,y,-z
1/2+x,1/2+y,1/2+z
1/2-x,-y,1/2+z
1/2+x,1/2-y,-z
-x,1/2+y,1/2-z
loop_
_atom_site_type_symbol
_atom_site_label
_atom_site_fract_x
_atom_site_fract_y
_atom_site_fract_z
Si Si1 0.924079 0.118701 0.286996
Si Si2 0.117058 0.000000 0.250000
Si Si3 0.308492 0.108188 0.095541
Si Si4 0.102131 0.740863 0.722482
Si Si5 0.526546 0.589734 0.084595
O O1 0.898391 0.165835 0.538653
O O2 0.987165 0.122521 0.360692
O O3 0.910679 0.000000 0.250000
O O4 0.907751 0.182021 0.039842
O O5 0.078460 0.037014 0.467854
O O6 0.155191 0.912981 0.351241
O O7 0.343082 0.194551 0.231925
O O8 0.305318 0.000000 0.250000
O O9 0.250000 0.136317 0.000000
O O10 0.051614 0.817473 0.759398
O O11 0.499232 0.500000 0.250000
#
# Coordination Sequence:
#
# PCOD9336817 Si02
#       5
#     8   4   8   8   8
#     4  12  28  45  65  96 140 193 239 283 326 394
#     4  12  20  40  66 102 152 172 216 260 350 426
#     4  12  25  42  71 106 138 180 215 287 358 428
#     4  12  26  45  68 101 138 183 238 281 340 407
#     4  12  24  39  69 101 147 181 223 272 350 428
#
# _framework density 20.721060999999999
#
# number of rings (size 3 to 8) (size 9 to 14) (size 15 to 20)
#    0.000    0.000    6.667    4.000    0.000    5.333 
#    0.000    0.000    0.000    2.667    0.000    1.556 
#    0.000    0.000    0.000    0.000    0.000    0.000 
#
# Total GULP energy -100709.451520 kJ/mol
# GULP energy per Si atom -5594.969529 kJ/mol
# Density = 2.067390 g / cm^3
# Si number density = 20.721061 Si / 1000 Ang^3
#
#
#
# Elastic Constant Matrix: (Units=GPa)
#
#
# Indices 1 2 3 4 5 6 
#
# 1 132.1302 58.7649 44.3918 0.0000 0.0000 0.0000
# 2 58.7649 141.5094 74.2499 0.0000 0.0000 0.0000
# 3 44.3918 74.2499 145.7058 0.0000 0.0000 0.0000
# 4 0.0000 0.0000 0.0000 51.8508 0.0000 0.0000
# 5 0.0000 0.0000 0.0000 0.0000 -42.6547 0.0000
# 6 0.0000 0.0000 0.0000 0.0000 0.0000 40.5496
#
#
#
# Elastic Compliance Matrix: (Units=1/GPa)
#
#
# Indices 1 2 3 4 5 6 
#
# 1 0.009434 -0.003289 -0.001198 0.000000 0.000000 0.000000
# 2 -0.003289 0.010792 -0.004498 0.000000 0.000000 0.000000
# 3 -0.001198 -0.004498 0.009520 0.000000 0.000000 0.000000
# 4 0.000000 0.000000 0.000000 0.019286 0.000000 0.000000
# 5 0.000000 0.000000 0.000000 0.000000 -0.023444 0.000000
# 6 0.000000 0.000000 0.000000 0.000000 0.000000 0.024661
#
#
# Mechanical properties :
#
#
# Convention : Reuss Voigt Hill
#
# Bulk Modulus (GPa) = 84.91291 86.01763 85.46527
# Shear Modulus (GPa) = 69.30588 26.07840 47.69214
#
# Velocity S-wave (km/s) = 5.78962 3.55145 4.80273
# Velocity P-wave (km/s) = 9.26072 7.64325 8.49059
#
# Compressibility (1/GPa) = 0.01177677
#
# Stress axis : x y z
#
# Youngs Moduli (GPa) = 106.00478 92.65845 105.04067
#
# Poissons Ratio (x) = 0.30474 0.12586
# Poissons Ratio (y) = 0.34863 0.47244
# Poissons Ratio (z) = 0.12701 0.41674
#
# Static dielectric constant tensor:
#      x y z
#    x 1.717460 0.000000 0.000000 
#    y 0.000000 1.841210 0.000000 
#    z 0.000000 0.000000 1.797730 
# 
# From -- ./inp_files/6172.got.cif
#   From: 2010.05.17/outbox.cif.g08.bks.cpg/sg24_4_cif.got.tgz:6172.got - 2010.06.04 00:33:39.
