data_PCOD9336972
_publ_section_title
;
Structure prediction by ZEFSAII (Michael W. Deem and Ramdas Pophale) SiO2 
 PCOD9336972
Probable space group: I 21 21 21
;
_chemical_formula_sum "Si O2"
_cell_formula_units_Z 28
_cell_length_a 14.901918
_cell_length_b 8.941586
_cell_length_c 7.783644
_cell_angle_alpha 90.000000
_cell_angle_beta 90.000000
_cell_angle_gamma 90.000000
_cell_volume 1037.145510
_symmetry_space_group_name_H-M "I 21 21 21"
_symmetry_group_IT_number 24
_symmetry_cell_setting 'orthorhombic'
loop_
_space_group_symop_operation_xyz
x,y,z
-x,1/2-y,z
x,-y,1/2-z
1/2-x,y,-z
1/2+x,1/2+y,1/2+z
1/2-x,-y,1/2+z
1/2+x,1/2-y,-z
-x,1/2+y,1/2-z
loop_
_atom_site_type_symbol
_atom_site_label
_atom_site_fract_x
_atom_site_fract_y
_atom_site_fract_z
Si Si1 0.664989 0.354173 0.913765
Si Si2 0.503456 0.000000 0.750000
Si Si3 0.905676 0.176890 0.787278
Si Si4 0.341004 0.689219 0.933599
O O1 0.567622 0.430401 0.885360
O O2 0.685859 0.296981 0.722274
O O3 0.651230 0.217047 0.045297
O O4 0.750000 0.437218 0.000000
O O5 0.573079 0.103995 0.646493
O O6 0.000000 0.250000 0.822490
O O7 0.907291 0.000000 0.750000
O O8 0.874764 0.742987 0.888424
O O9 0.250000 0.606880 0.000000
#
# Coordination Sequence:
#
# PCOD9336972 Si02
#       4
#     8   4   8   8
#     4  12  27  54  79 119 167 219 281 345 422 502
#     4  12  28  52  82 116 172 216 278 352 414 494
#     4  12  26  47  80 120 166 220 282 348 419 500
#     4  12  26  47  77 112 157 212 274 343 410 493
#
# _framework density 26.997178000000002
#
# number of rings (size 3 to 8) (size 9 to 14) (size 15 to 20)
#    0.000    0.000    2.857    7.714    2.000    3.429 
#    7.714    0.000    0.000    0.000    0.000    0.000 
#    0.000    0.000    0.000    0.000    0.000    0.000 
#
# Total GULP energy -78301.904953 kJ/mol
# GULP energy per Si atom -5592.993211 kJ/mol
# Density = 2.693573 g / cm^3
# Si number density = 26.997178 Si / 1000 Ang^3
#
#
#
# Elastic Constant Matrix: (Units=GPa)
#
#
# Indices 1 2 3 4 5 6 
#
# 1 254.5016 66.1785 81.4353 0.0000 0.0000 0.0000
# 2 66.1785 79.1040 58.4732 0.0000 0.0000 0.0000
# 3 81.4353 58.4732 215.3646 0.0000 0.0000 0.0000
# 4 0.0000 0.0000 0.0000 47.8723 0.0000 0.0000
# 5 0.0000 0.0000 0.0000 0.0000 83.3405 0.0000
# 6 0.0000 0.0000 0.0000 0.0000 0.0000 37.6388
#
#
#
# Elastic Compliance Matrix: (Units=1/GPa)
#
#
# Indices 1 2 3 4 5 6 
#
# 1 0.005181 -0.003611 -0.000979 0.000000 0.000000 0.000000
# 2 -0.003611 0.018333 -0.003612 0.000000 0.000000 0.000000
# 3 -0.000979 -0.003612 0.005994 0.000000 0.000000 0.000000
# 4 0.000000 0.000000 0.000000 0.020889 0.000000 0.000000
# 5 0.000000 0.000000 0.000000 0.000000 0.011999 0.000000
# 6 0.000000 0.000000 0.000000 0.000000 0.000000 0.026568
#
#
# Mechanical properties :
#
#
# Convention : Reuss Voigt Hill
#
# Bulk Modulus (GPa) = 76.31127 106.79380 91.55254
# Shear Modulus (GPa) = 45.56360 56.62919 51.09639
#
# Velocity S-wave (km/s) = 4.11264 4.58492 4.35519
# Velocity P-wave (km/s) = 7.13299 8.22630 7.69907
#
# Compressibility (1/GPa) = 0.01310422
#
# Stress axis : x y z
#
# Youngs Moduli (GPa) = 192.99438 54.54707 166.83200
#
# Poissons Ratio (x) = 0.19699 0.16329
# Poissons Ratio (y) = 0.69697 0.60259
# Poissons Ratio (z) = 0.18889 0.19702
#
# Static dielectric constant tensor:
#      x y z
#    x 2.188000 0.000000 0.000000 
#    y 0.000000 2.247480 0.000000 
#    z 0.000000 0.000000 2.038740 
# 
# From -- ./inp_files/13652.got.cif
#   From: 2010.05.17/outbox.cif.g08.bks.cpg/sg24_7_cif.got.tgz:13652.got - 2010.06.04 00:33:39.
