data_PCOD9336853
_publ_section_title
;
Structure prediction by ZEFSAII (Michael W. Deem and Ramdas Pophale) SiO2 
 PCOD9336853
Probable space group: I 21 21 21
;
_chemical_formula_sum "Si O2"
_cell_formula_units_Z 28
_cell_length_a 11.817836
_cell_length_b 4.946180
_cell_length_c 21.996423
_cell_angle_alpha 90.000000
_cell_angle_beta 90.000000
_cell_angle_gamma 90.000000
_cell_volume 1285.760083
_symmetry_space_group_name_H-M "I 21 21 21"
_symmetry_group_IT_number 24
_symmetry_cell_setting 'orthorhombic'
loop_
_space_group_symop_operation_xyz
x,y,z
-x,1/2-y,z
x,-y,1/2-z
1/2-x,y,-z
1/2+x,1/2+y,1/2+z
1/2-x,-y,1/2+z
1/2+x,1/2-y,-z
-x,1/2+y,1/2-z
loop_
_atom_site_type_symbol
_atom_site_label
_atom_site_fract_x
_atom_site_fract_y
_atom_site_fract_z
Si Si1 0.500000 0.750000 0.388526
Si Si2 0.085526 0.500000 0.250000
Si Si3 0.000000 0.750000 0.979470
Si Si4 0.247618 0.374762 0.861382
Si Si5 0.200944 0.123780 0.439450
O O1 0.517307 0.500987 0.434733
O O2 0.616678 0.785355 0.350752
O O3 0.171351 0.457059 0.193810
O O4 0.000000 0.250000 0.259450
O O5 0.899715 0.782963 0.027745
O O6 0.234880 0.636856 0.904689
O O7 0.311108 0.122073 0.893190
O O8 0.250000 0.985339 0.500000
#
# Coordination Sequence:
#
# PCOD9336853 Si02
#       5
#     4   4   4   8   8
#     4  12  22  44  69 104 143 178 234 288 344 432
#     4  12  30  54  72 100 140 188 248 298 342 422
#     4  12  24  36  67 108 149 180 218 286 352 434
#     4  12  26  46  71 102 141 189 236 290 348 412
#     4  12  23  42  68 109 145 181 223 282 365 422
#
# _framework density 21.777000000000001
#
# number of rings (size 3 to 8) (size 9 to 14) (size 15 to 20)
#    0.000    0.000    5.714    4.286    6.000    0.000 
#    0.000    5.714    0.000    0.000    0.000    0.000 
#    0.000    0.000    0.000    0.000    0.000    0.000 
#
# Total GULP energy -78070.503167 kJ/mol
# GULP energy per Si atom -5576.464512 kJ/mol
# Density = 2.172743 g / cm^3
# Si number density = 21.777000 Si / 1000 Ang^3
#
#
#
# Elastic Constant Matrix: (Units=GPa)
#
#
# Indices 1 2 3 4 5 6 
#
# 1 159.1407 35.0964 85.5950 0.0000 0.0000 0.0000
# 2 35.0964 139.2304 34.2147 0.0000 0.0000 0.0000
# 3 85.5950 34.2147 88.4318 0.0000 0.0000 0.0000
# 4 0.0000 0.0000 0.0000 26.2607 0.0000 0.0000
# 5 0.0000 0.0000 0.0000 0.0000 25.5487 0.0000
# 6 0.0000 0.0000 0.0000 0.0000 0.0000 27.1586
#
#
#
# Elastic Compliance Matrix: (Units=1/GPa)
#
#
# Indices 1 2 3 4 5 6 
#
# 1 0.013113 -0.000206 -0.012613 0.000000 0.000000 0.000000
# 2 -0.000206 0.007940 -0.002873 0.000000 0.000000 0.000000
# 3 -0.012613 -0.002873 0.024628 0.000000 0.000000 0.000000
# 4 0.000000 0.000000 0.000000 0.038080 0.000000 0.000000
# 5 0.000000 0.000000 0.000000 0.000000 0.039141 0.000000
# 6 0.000000 0.000000 0.000000 0.000000 0.000000 0.036821
#
#
# Mechanical properties :
#
#
# Convention : Reuss Voigt Hill
#
# Bulk Modulus (GPa) = 69.93915 77.40170 73.67043
# Shear Modulus (GPa) = 25.52702 31.25340 28.39021
#
# Velocity S-wave (km/s) = 3.42746 3.79246 3.61457
# Velocity P-wave (km/s) = 6.91730 7.40250 7.16401
#
# Compressibility (1/GPa) = 0.01429814
#
# Stress axis : x y z
#
# Youngs Moduli (GPa) = 76.26040 125.94123 40.60481
#
# Poissons Ratio (x) = 0.02594 0.51213
# Poissons Ratio (y) = 0.01571 0.11665
# Poissons Ratio (z) = 0.96184 0.36179
#
# Static dielectric constant tensor:
#      x y z
#    x 2.012630 0.000000 0.000000 
#    y 0.000000 1.797880 0.000000 
#    z 0.000000 0.000000 1.742860 
# 
# From -- ./inp_files/1896.got.cif
#   From: 2010.05.17/outbox.cif.g08.bks.cpg/sg24_1_cif.got.tgz:1896.got - 2010.06.04 00:33:39.
