data_PCOD9336799
_publ_section_title
;
Structure prediction by ZEFSAII (Michael W. Deem and Ramdas Pophale) SiO2 
 PCOD9336799
Probable space group: I 21 21 21
;
_chemical_formula_sum "Si O2"
_cell_formula_units_Z 32
_cell_length_a 8.199880
_cell_length_b 9.148636
_cell_length_c 15.470573
_cell_angle_alpha 90.000000
_cell_angle_beta 90.000000
_cell_angle_gamma 90.000000
_cell_volume 1160.567073
_symmetry_space_group_name_H-M "I 21 21 21"
_symmetry_group_IT_number 24
_symmetry_cell_setting 'orthorhombic'
loop_
_space_group_symop_operation_xyz
x,y,z
-x,1/2-y,z
x,-y,1/2-z
1/2-x,y,-z
1/2+x,1/2+y,1/2+z
1/2-x,-y,1/2+z
1/2+x,1/2-y,-z
-x,1/2+y,1/2-z
loop_
_atom_site_type_symbol
_atom_site_label
_atom_site_fract_x
_atom_site_fract_y
_atom_site_fract_z
Si Si1 0.000000 0.750000 0.278413
Si Si2 0.191144 0.926941 0.135250
Si Si3 0.000000 0.750000 0.988121
Si Si4 0.227212 0.732371 0.600290
Si Si5 0.444452 0.535765 0.153437
O O1 0.087241 0.861213 0.213144
O O2 0.127830 0.665522 0.339892
O O3 0.609091 0.858770 0.073713
O O4 0.377040 0.892700 0.165629
O O5 0.106658 0.855407 0.050532
O O6 0.250000 0.714469 0.500000
O O7 0.274295 0.902048 0.618125
O O8 0.072153 0.627383 0.617170
O O9 0.381255 0.500000 0.250000
#
# Coordination Sequence:
#
# PCOD9336799 Si02
#       5
#     4   8   4   8   8
#     4  11  28  54  89 134 180 244 301 376 466 545
#     4  11  27  54  90 130 185 239 308 374 456 555
#     4  11  28  54  89 134 180 244 301 376 466 545
#     4  12  29  53  88 132 184 239 303 381 459 552
#     4  12  29  53  88 132 184 239 303 381 459 552
#
# _framework density 27.572727
#
# number of rings (size 3 to 8) (size 9 to 14) (size 15 to 20)
#    0.000    0.500    0.000    5.250   14.000    4.000 
#    0.000    0.000    0.000    0.000    0.000    0.000 
#    0.000    0.000    0.000    0.000    0.000    0.000 
#
# Total GULP energy -89138.823888 kJ/mol
# GULP energy per Si atom -5571.176493 kJ/mol
# Density = 2.750997 g / cm^3
# Si number density = 27.572727 Si / 1000 Ang^3
#
#
#
# Elastic Constant Matrix: (Units=GPa)
#
#
# Indices 1 2 3 4 5 6 
#
# 1 89.1867 70.6018 36.3491 0.0000 0.0000 0.0000
# 2 70.6018 178.5647 102.5851 0.0000 0.0000 0.0000
# 3 36.3491 102.5851 246.7927 0.0000 0.0000 0.0000
# 4 0.0000 0.0000 0.0000 29.0563 0.0000 0.0000
# 5 0.0000 0.0000 0.0000 0.0000 27.8587 0.0000
# 6 0.0000 0.0000 0.0000 0.0000 0.0000 150.4638
#
#
#
# Elastic Compliance Matrix: (Units=1/GPa)
#
#
# Indices 1 2 3 4 5 6 
#
# 1 0.016346 -0.006673 0.000366 0.000000 0.000000 0.000000
# 2 -0.006673 0.010082 -0.003208 0.000000 0.000000 0.000000
# 3 0.000366 -0.003208 0.005331 0.000000 0.000000 0.000000
# 4 0.000000 0.000000 0.000000 0.034416 0.000000 0.000000
# 5 0.000000 0.000000 0.000000 0.000000 0.035895 0.000000
# 6 0.000000 0.000000 0.000000 0.000000 0.000000 0.006646
#
#
# Mechanical properties :
#
#
# Convention : Reuss Voigt Hill
#
# Bulk Modulus (GPa) = 78.55817 103.73511 91.14664
# Shear Modulus (GPa) = 37.88192 61.80963 49.84578
#
# Velocity S-wave (km/s) = 3.71062 4.73979 4.25643
# Velocity P-wave (km/s) = 6.84919 8.22546 7.56867
#
# Compressibility (1/GPa) = 0.01272942
#
# Stress axis : x y z
#
# Youngs Moduli (GPa) = 61.17739 99.19013 187.56824
#
# Poissons Ratio (x) = 0.66194 -0.06873
# Poissons Ratio (y) = 0.40826 0.60167
# Poissons Ratio (z) = -0.02242 0.31818
#
# Static dielectric constant tensor:
#      x y z
#    x 2.481590 0.000000 0.000000 
#    y 0.000000 2.346300 0.000000 
#    z 0.000000 0.000000 2.083580 
# 
# From -- ./inp_files/24443.got.cif
#   From: 2010.05.17/outbox.cif.g08.bks.cpg/sg24_13_cif.got.tgz:24443.got - 2010.06.04 00:33:39.
