data_PCOD9336985
_publ_section_title
;
Structure prediction by ZEFSAII (Michael W. Deem and Ramdas Pophale) SiO2 
 PCOD9336985
Probable space group: I 21 21 21
;
_chemical_formula_sum "Si O2"
_cell_formula_units_Z 16
_cell_length_a 5.325096
_cell_length_b 4.878877
_cell_length_c 25.311331
_cell_angle_alpha 90.000000
_cell_angle_beta 90.000000
_cell_angle_gamma 90.000000
_cell_volume 657.600741
_symmetry_space_group_name_H-M "I 21 21 21"
_symmetry_group_IT_number 24
_symmetry_cell_setting 'orthorhombic'
loop_
_space_group_symop_operation_xyz
x,y,z
-x,1/2-y,z
x,-y,1/2-z
1/2-x,y,-z
1/2+x,1/2+y,1/2+z
1/2-x,-y,1/2+z
1/2+x,1/2-y,-z
-x,1/2+y,1/2-z
loop_
_atom_site_type_symbol
_atom_site_label
_atom_site_fract_x
_atom_site_fract_y
_atom_site_fract_z
Si Si1 0.500000 0.250000 0.169173
Si Si2 0.620598 0.500000 0.750000
Si Si3 0.750000 0.059762 0.000000
Si Si4 0.500000 0.750000 0.090098
O O1 0.725669 0.303279 0.210228
O O2 0.535201 0.500276 0.129635
O O3 0.500000 0.750000 0.783513
O O4 0.500000 0.250000 0.996622
O O5 0.786800 0.862008 0.949681
#
# Coordination Sequence:
#
# PCOD9336985 Si02
#       4
#     4   4   4   4
#     4  12  27  50  80 118 164 206 275 332 410 488
#     4  12  26  50  80 116 162 212 266 336 406 494
#     4  12  28  56  82 118 176 220 278 340 406 492
#     4  12  27  50  80 122 160 222 271 342 406 494
#
# _framework density 24.330870000000001
#
# number of rings (size 3 to 8) (size 9 to 14) (size 15 to 20)
#    0.000    0.000    2.500    7.500    0.000    6.000 
#    9.000    0.000    0.000    0.000    0.000    0.000 
#    0.000    0.000    0.000    0.000    0.000    0.000 
#
# Total GULP energy -44597.860230 kJ/mol
# GULP energy per Si atom -5574.732529 kJ/mol
# Density = 2.427549 g / cm^3
# Si number density = 24.330870 Si / 1000 Ang^3
#
#
#
# Elastic Constant Matrix: (Units=GPa)
#
#
# Indices 1 2 3 4 5 6 
#
# 1 91.1656 45.9898 -9.8973 0.0000 0.0000 0.0000
# 2 45.9898 212.8900 26.8276 0.0000 0.0000 0.0000
# 3 -9.8973 26.8276 99.5342 0.0000 0.0000 0.0000
# 4 0.0000 0.0000 0.0000 1108.4116 0.0000 0.0000
# 5 0.0000 0.0000 0.0000 0.0000 56.7349 0.0000
# 6 0.0000 0.0000 0.0000 0.0000 0.0000 31.3040
#
#
#
# Elastic Compliance Matrix: (Units=1/GPa)
#
#
# Indices 1 2 3 4 5 6 
#
# 1 0.012711 -0.003007 0.002075 0.000000 0.000000 0.000000
# 2 -0.003007 0.005574 -0.001801 0.000000 0.000000 0.000000
# 3 0.002075 -0.001801 0.010739 0.000000 0.000000 0.000000
# 4 0.000000 0.000000 0.000000 0.000902 0.000000 0.000000
# 5 0.000000 0.000000 0.000000 0.000000 0.017626 0.000000
# 6 0.000000 0.000000 0.000000 0.000000 0.000000 0.031945
#
#
# Mechanical properties :
#
#
# Convention : Reuss Voigt Hill
#
# Bulk Modulus (GPa) = 42.45303 58.82559 50.63931
# Shear Modulus (GPa) = 53.86935 262.00141 157.93538
#
# Velocity S-wave (km/s) = 4.71046 10.38829 8.06551
# Velocity P-wave (km/s) = 6.86080 12.96605 10.37278
#
# Compressibility (1/GPa) = 0.02355545
#
# Stress axis : x y z
#
# Youngs Moduli (GPa) = 78.66947 179.40596 93.12188
#
# Poissons Ratio (x) = 0.53955 -0.19319
# Poissons Ratio (y) = 0.23659 0.16775
# Poissons Ratio (z) = -0.16320 0.32318
#
# Static dielectric constant tensor:
#      x y z
#    x -0.033600 0.000000 0.000000 
#    y 0.000000 1.773080 0.000000 
#    z 0.000000 0.000000 1.940240 
# 
# From -- ./inp_files/259.got.cif
#   From: 2010.05.17/outbox.cif.g08.bks.cpg/sg24_1_cif.got.tgz:259.got - 2010.06.04 00:33:39.
