data_PCOD9336319
_publ_section_title
;
Structure prediction by ZEFSAII (Michael W. Deem and Ramdas Pophale) SiO2 
 PCOD9336319
Probable space group: I 21 21 21
;
_chemical_formula_sum "Si O2"
_cell_formula_units_Z 24
_cell_length_a 10.476140
_cell_length_b 13.283237
_cell_length_c 7.451384
_cell_angle_alpha 90.000000
_cell_angle_beta 90.000000
_cell_angle_gamma 90.000000
_cell_volume 1036.912619
_symmetry_space_group_name_H-M "I 21 21 21"
_symmetry_group_IT_number 24
_symmetry_cell_setting 'orthorhombic'
loop_
_space_group_symop_operation_xyz
x,y,z
-x,1/2-y,z
x,-y,1/2-z
1/2-x,y,-z
1/2+x,1/2+y,1/2+z
1/2-x,-y,1/2+z
1/2+x,1/2-y,-z
-x,1/2+y,1/2-z
loop_
_atom_site_type_symbol
_atom_site_label
_atom_site_fract_x
_atom_site_fract_y
_atom_site_fract_z
Si Si1 0.876994 0.293030 0.909568
Si Si2 0.890321 0.518560 0.034572
Si Si3 0.898572 0.177592 0.534821
O O1 0.879516 0.244008 0.714520
O O2 0.000000 0.250000 0.007261
O O3 0.750000 0.256397 0.000000
O O4 0.881775 0.412970 0.928006
O O5 0.901408 0.500000 0.250000
O O6 0.750000 0.568835 0.000000
O O7 0.014173 0.577802 0.964378
O O8 0.750000 0.152319 0.500000
O O9 0.000000 0.250000 0.425295
#
# Coordination Sequence:
#
# PCOD9336319 Si02
#       3
#     8   8   8
#     4  10  26  46  75 105 151 194 252 310 381 443
#     4  11  28  49  78 110 154 205 248 313 386 451
#     4  11  27  47  78 110 152 196 261 310 379 445
#
# _framework density 23.145634000000001
#
# number of rings (size 3 to 8) (size 9 to 14) (size 15 to 20)
#    0.000    1.333    0.000    1.000   32.667    1.333 
#    6.000    0.000    0.000    0.000    0.000    0.000 
#    0.000    0.000    0.000    0.000    0.000    0.000 
#
# Total GULP energy -66842.768333 kJ/mol
# GULP energy per Si atom -5570.230694 kJ/mol
# Density = 2.309295 g / cm^3
# Si number density = 23.145634 Si / 1000 Ang^3
#
#
#
# Elastic Constant Matrix: (Units=GPa)
#
#
# Indices 1 2 3 4 5 6 
#
# 1 299.7085 84.6530 48.3641 0.0000 0.0000 0.0000
# 2 84.6530 83.0308 57.7409 0.0000 0.0000 0.0000
# 3 48.3641 57.7409 135.0037 0.0000 0.0000 0.0000
# 4 0.0000 0.0000 0.0000 20.4970 0.0000 0.0000
# 5 0.0000 0.0000 0.0000 0.0000 26.9777 0.0000
# 6 0.0000 0.0000 0.0000 0.0000 0.0000 55.9429
#
#
#
# Elastic Compliance Matrix: (Units=1/GPa)
#
#
# Indices 1 2 3 4 5 6 
#
# 1 0.004712 -0.005167 0.000522 0.000000 0.000000 0.000000
# 2 -0.005167 0.022808 -0.007904 0.000000 0.000000 0.000000
# 3 0.000522 -0.007904 0.010601 0.000000 0.000000 0.000000
# 4 0.000000 0.000000 0.000000 0.048788 0.000000 0.000000
# 5 0.000000 0.000000 0.000000 0.000000 0.037068 0.000000
# 6 0.000000 0.000000 0.000000 0.000000 0.000000 0.017875
#
#
# Mechanical properties :
#
#
# Convention : Reuss Voigt Hill
#
# Bulk Modulus (GPa) = 76.78862 99.91768 88.35315
# Shear Modulus (GPa) = 29.19035 42.48250 35.83643
#
# Velocity S-wave (km/s) = 3.55513 4.28886 3.93912
# Velocity P-wave (km/s) = 7.07816 8.23338 7.67753
#
# Compressibility (1/GPa) = 0.01302276
#
# Stress axis : x y z
#
# Youngs Moduli (GPa) = 212.23814 43.84459 94.33271
#
# Poissons Ratio (x) = 0.22653 -0.04923
# Poissons Ratio (y) = 1.09656 0.74560
# Poissons Ratio (z) = -0.11075 0.34655
#
# Static dielectric constant tensor:
#      x y z
#    x 2.038570 0.000000 0.000000 
#    y 0.000000 1.922870 0.000000 
#    z 0.000000 0.000000 1.990270 
# 
# From -- ./inp_files/9996.got.cif
#   From: 2010.05.17/outbox.cif.g08.bks.cpg/sg24_5_cif.got.tgz:9996.got - 2010.06.04 00:33:39.
