data_PCOD9336962
_publ_section_title
;
Structure prediction by ZEFSAII (Michael W. Deem and Ramdas Pophale) SiO2 
 PCOD9336962
Probable space group: I 21 21 21
;
_chemical_formula_sum "Si O2"
_cell_formula_units_Z 32
_cell_length_a 4.960615
_cell_length_b 17.512609
_cell_length_c 15.036189
_cell_angle_alpha 90.000000
_cell_angle_beta 90.000000
_cell_angle_gamma 90.000000
_cell_volume 1306.243522
_symmetry_space_group_name_H-M "I 21 21 21"
_symmetry_group_IT_number 24
_symmetry_cell_setting 'orthorhombic'
loop_
_space_group_symop_operation_xyz
x,y,z
-x,1/2-y,z
x,-y,1/2-z
1/2-x,y,-z
1/2+x,1/2+y,1/2+z
1/2-x,-y,1/2+z
1/2+x,1/2-y,-z
-x,1/2+y,1/2-z
loop_
_atom_site_type_symbol
_atom_site_label
_atom_site_fract_x
_atom_site_fract_y
_atom_site_fract_z
Si Si1 0.656036 0.127790 0.819577
Si Si2 0.750000 0.796514 0.500000
Si Si3 0.000000 0.750000 0.795789
Si Si4 0.663213 0.617368 0.843855
Si Si5 0.334082 0.474914 0.401121
O O1 0.614379 0.159431 0.918222
O O2 0.386902 0.113363 0.762658
O O3 0.828704 0.190568 0.764827
O O4 0.791443 0.046047 0.835659
O O5 0.500000 0.750000 0.460177
O O6 0.206357 0.799674 0.854594
O O7 0.372036 0.594303 0.880487
O O8 0.868962 0.557299 0.886167
O O9 0.250000 0.499756 0.500000
#
# Coordination Sequence:
#
# PCOD9336962 Si02
#       5
#     8   4   4   8   8
#     4  12  27  48  80 118 160 203 264 318 399 477
#     4  12  26  44  72 118 164 206 246 320 400 474
#     4  12  26  50  80 116 150 212 254 332 374 492
#     4  12  28  50  81 112 155 211 263 317 396 463
#     4  12  29  52  80 117 157 205 265 331 390 463
#
# _framework density 24.497731000000002
#
# number of rings (size 3 to 8) (size 9 to 14) (size 15 to 20)
#    0.000    0.000    5.000    3.750    7.000    0.000 
#    0.000    2.500    0.000    0.000    0.000    0.000 
#    0.000    0.000    0.000    0.000    0.000    0.000 
#
# Total GULP energy -89532.182025 kJ/mol
# GULP energy per Si atom -5595.761377 kJ/mol
# Density = 2.444197 g / cm^3
# Si number density = 24.497731 Si / 1000 Ang^3
#
#
#
# Elastic Constant Matrix: (Units=GPa)
#
#
# Indices 1 2 3 4 5 6 
#
# 1 97.3775 7.5859 25.4872 0.0000 0.0000 0.0000
# 2 7.5859 96.8855 31.3976 0.0000 0.0000 0.0000
# 3 25.4872 31.3976 45.4155 0.0000 0.0000 0.0000
# 4 0.0000 0.0000 0.0000 41.5274 0.0000 0.0000
# 5 0.0000 0.0000 0.0000 0.0000 26.4346 0.0000
# 6 0.0000 0.0000 0.0000 0.0000 0.0000 29.6403
#
#
#
# Elastic Compliance Matrix: (Units=1/GPa)
#
#
# Indices 1 2 3 4 5 6 
#
# 1 0.012235 0.001633 -0.007995 0.000000 0.000000 0.000000
# 2 0.001633 0.013520 -0.010263 0.000000 0.000000 0.000000
# 3 -0.007995 -0.010263 0.033601 0.000000 0.000000 0.000000
# 4 0.000000 0.000000 0.000000 0.024081 0.000000 0.000000
# 5 0.000000 0.000000 0.000000 0.000000 0.037829 0.000000
# 6 0.000000 0.000000 0.000000 0.000000 0.000000 0.033738
#
#
# Mechanical properties :
#
#
# Convention : Reuss Voigt Hill
#
# Bulk Modulus (GPa) = 38.30684 40.95777 39.63230
# Shear Modulus (GPa) = 25.38654 31.20098 28.29376
#
# Velocity S-wave (km/s) = 3.22262 3.57266 3.40215
# Velocity P-wave (km/s) = 5.43304 5.81153 5.62547
#
# Compressibility (1/GPa) = 0.02610500
#
# Stress axis : x y z
#
# Youngs Moduli (GPa) = 81.73476 73.96695 29.76098
#
# Poissons Ratio (x) = -0.12079 0.23794
# Poissons Ratio (y) = -0.13347 0.30544
# Poissons Ratio (z) = 0.65348 0.75913
#
# Static dielectric constant tensor:
#      x y z
#    x 1.911330 0.000000 0.000000 
#    y 0.000000 1.993030 0.000000 
#    z 0.000000 0.000000 1.999370 
# 
# From -- ./inp_files/23502.got.cif
#   From: 2010.05.17/outbox.cif.g08.bks.cpg/sg24_12_cif.got.tgz:23502.got - 2010.06.04 00:33:39.
