data_PCOD9336726
_publ_section_title
;
Structure prediction by ZEFSAII (Michael W. Deem and Ramdas Pophale) SiO2 
 PCOD9336726
Probable space group: I 21 21 21
;
_chemical_formula_sum "Si O2"
_cell_formula_units_Z 40
_cell_length_a 6.804756
_cell_length_b 9.899503
_cell_length_c 27.313142
_cell_angle_alpha 90.000000
_cell_angle_beta 90.000000
_cell_angle_gamma 90.000000
_cell_volume 1839.914370
_symmetry_space_group_name_H-M "I 21 21 21"
_symmetry_group_IT_number 24
_symmetry_cell_setting 'orthorhombic'
loop_
_space_group_symop_operation_xyz
x,y,z
-x,1/2-y,z
x,-y,1/2-z
1/2-x,y,-z
1/2+x,1/2+y,1/2+z
1/2-x,-y,1/2+z
1/2+x,1/2-y,-z
-x,1/2+y,1/2-z
loop_
_atom_site_type_symbol
_atom_site_label
_atom_site_fract_x
_atom_site_fract_y
_atom_site_fract_z
Si Si1 0.963404 0.088279 0.848892
Si Si2 0.500000 0.250000 0.570460
Si Si3 0.252380 0.500000 0.250000
Si Si4 0.800898 0.331945 0.648806
Si Si5 0.250000 0.066055 0.500000
Si Si6 0.408993 0.398522 0.043469
Si Si7 0.000000 0.250000 0.271734
O O1 0.000000 0.250000 0.840338
O O2 0.876105 0.016963 0.800175
O O3 0.839306 0.081395 0.900132
O O4 0.149760 0.989842 0.859994
O O5 0.684534 0.245553 0.607469
O O6 0.408006 0.143005 0.533328
O O7 0.117379 0.367775 0.245741
O O8 0.661079 0.324240 0.695193
O O9 0.000000 0.250000 0.656566
O O10 0.398665 0.987324 0.465471
O O11 0.500000 0.250000 0.039499
O O12 0.250000 0.419759 0.000000
#
# Coordination Sequence:
#
# PCOD9336726 Si02
#       7
#     8   4   4   8   4   8   4
#     4  11  27  49  79 113 148 206 261 323 397 470
#     4  11  28  42  74 108 150 200 252 317 380 474
#     4  12  28  50  76 114 152 202 262 326 390 482
#     4  11  24  50  73 105 154 197 248 318 387 461
#     4  12  26  42  70 114 148 196 256 318 386 472
#     4  11  25  49  76 109 156 202 255 324 396 472
#     4  11  28  46  76 108 152 198 250 319 396 470
#
# _framework density 21.740141999999999
#
# number of rings (size 3 to 8) (size 9 to 14) (size 15 to 20)
#    0.000    0.800    5.000    0.000   11.200    0.000 
#    1.800    0.000    0.000    0.000    0.000    0.000 
#    0.000    0.000    0.000    0.000    0.000    0.000 
#
# Total GULP energy -111340.306206 kJ/mol
# GULP energy per Si atom -5567.015310 kJ/mol
# Density = 2.169066 g / cm^3
# Si number density = 21.740142 Si / 1000 Ang^3
#
#
#
# Elastic Constant Matrix: (Units=GPa)
#
#
# Indices 1 2 3 4 5 6 
#
# 1 104.4569 53.6759 60.9056 0.0000 0.0000 0.0000
# 2 53.6759 122.6329 34.8530 0.0000 0.0000 0.0000
# 3 60.9056 34.8530 142.1516 0.0000 0.0000 0.0000
# 4 0.0000 0.0000 0.0000 23.7427 0.0000 0.0000
# 5 0.0000 0.0000 0.0000 0.0000 -89.8868 0.0000
# 6 0.0000 0.0000 0.0000 0.0000 0.0000 41.1709
#
#
#
# Elastic Compliance Matrix: (Units=1/GPa)
#
#
# Indices 1 2 3 4 5 6 
#
# 1 0.015336 -0.005208 -0.005294 0.000000 0.000000 0.000000
# 2 -0.005208 0.010534 -0.000351 0.000000 0.000000 0.000000
# 3 -0.005294 -0.000351 0.009389 0.000000 0.000000 0.000000
# 4 0.000000 0.000000 0.000000 0.042118 0.000000 0.000000
# 5 0.000000 0.000000 0.000000 0.000000 -0.011125 0.000000
# 6 0.000000 0.000000 0.000000 0.000000 0.000000 0.024289
#
#
# Mechanical properties :
#
#
# Convention : Reuss Voigt Hill
#
# Bulk Modulus (GPa) = 73.78684 74.23448 74.01066
# Shear Modulus (GPa) = 42.82091 9.65917 26.24004
#
# Velocity S-wave (km/s) = 4.44291 2.11013 3.47794
# Velocity P-wave (km/s) = 7.76745 6.33698 7.08839
#
# Compressibility (1/GPa) = 0.01355255
#
# Stress axis : x y z
#
# Youngs Moduli (GPa) = 65.20483 94.93264 106.50631
#
# Poissons Ratio (x) = 0.49441 0.56384
# Poissons Ratio (y) = 0.33959 0.03741
# Poissons Ratio (z) = 0.34519 0.03335
#
# Static dielectric constant tensor:
#      x y z
#    x 1.776560 0.000000 0.000000 
#    y 0.000000 2.094070 0.000000 
#    z 0.000000 0.000000 1.911600 
# 
# From -- ./inp_files/37852.got.cif
#   From: 2010.05.17/outbox.cif.g08.bks.cpg/sg24_19_cif.got.tgz:37852.got - 2010.06.04 00:33:39.
