data_PCOD9336679
_publ_section_title
;
Structure prediction by ZEFSAII (Michael W. Deem and Ramdas Pophale) SiO2 
 PCOD9336679
Probable space group: I 21 21 21
;
_chemical_formula_sum "Si O2"
_cell_formula_units_Z 32
_cell_length_a 4.994504
_cell_length_b 23.291166
_cell_length_c 12.871282
_cell_angle_alpha 90.000000
_cell_angle_beta 90.000000
_cell_angle_gamma 90.000000
_cell_volume 1497.288198
_symmetry_space_group_name_H-M "I 21 21 21"
_symmetry_group_IT_number 24
_symmetry_cell_setting 'orthorhombic'
loop_
_space_group_symop_operation_xyz
x,y,z
-x,1/2-y,z
x,-y,1/2-z
1/2-x,y,-z
1/2+x,1/2+y,1/2+z
1/2-x,-y,1/2+z
1/2+x,1/2-y,-z
-x,1/2+y,1/2-z
loop_
_atom_site_type_symbol
_atom_site_label
_atom_site_fract_x
_atom_site_fract_y
_atom_site_fract_z
Si Si1 0.795339 0.362860 0.809614
Si Si2 0.000000 0.250000 0.927102
Si Si3 0.284587 0.380426 0.671922
Si Si4 0.750000 0.024238 0.500000
Si Si5 0.250000 0.056223 0.000000
Si Si6 0.250000 0.710852 0.000000
O O1 0.557759 0.360430 0.726149
O O2 0.693113 0.402572 0.903022
O O3 0.888707 0.301984 0.857063
O O4 0.056194 0.390557 0.756678
O O5 0.250000 0.268972 0.000000
O O6 0.322556 0.435085 0.597464
O O7 0.181632 0.329811 0.596718
O O8 0.499648 0.984193 0.475464
O O9 0.500000 0.750000 0.972937
#
# Coordination Sequence:
#
# PCOD9336679 Si02
#       6
#     8   4   8   4   4   4
#     4  12  26  44  71 104 137 181 233 279 349 426
#     4  12  26  46  70 100 150 186 226 296 350 412
#     4  11  26  45  68 102 137 178 233 287 350 410
#     4  11  26  48  71  97 142 178 231 304 340 404
#     4  12  26  45  71 101 135 186 234 284 352 414
#     4  11  24  43  66  98 135 180 231 282 342 416
#
# _framework density 21.371972
#
# number of rings (size 3 to 8) (size 9 to 14) (size 15 to 20)
#    0.000    0.500    1.250    6.000    7.000   10.000 
#    0.000    0.000    0.000    0.000    0.000    0.000 
#    0.000    0.000    0.000    0.000    0.000    0.000 
#
# Total GULP energy -89599.986825 kJ/mol
# GULP energy per Si atom -5599.999177 kJ/mol
# Density = 2.132333 g / cm^3
# Si number density = 21.371972 Si / 1000 Ang^3
#
#
#
# Elastic Constant Matrix: (Units=GPa)
#
#
# Indices 1 2 3 4 5 6 
#
# 1 86.4330 -2.5411 19.9460 0.0000 0.0000 0.0000
# 2 -2.5411 89.7547 44.0233 0.0000 0.0000 0.0000
# 3 19.9460 44.0233 101.5795 0.0000 0.0000 0.0000
# 4 0.0000 0.0000 0.0000 3.7582 0.0000 0.0000
# 5 0.0000 0.0000 0.0000 0.0000 49.4934 0.0000
# 6 0.0000 0.0000 0.0000 0.0000 0.0000 26.0995
#
#
#
# Elastic Compliance Matrix: (Units=1/GPa)
#
#
# Indices 1 2 3 4 5 6 
#
# 1 0.012384 0.001960 -0.003281 0.000000 0.000000 0.000000
# 2 0.001960 0.014459 -0.006651 0.000000 0.000000 0.000000
# 3 -0.003281 -0.006651 0.013371 0.000000 0.000000 0.000000
# 4 0.000000 0.000000 0.000000 0.266082 0.000000 0.000000
# 5 0.000000 0.000000 0.000000 0.000000 0.020205 0.000000
# 6 0.000000 0.000000 0.000000 0.000000 0.000000 0.038315
#
#
# Mechanical properties :
#
#
# Convention : Reuss Voigt Hill
#
# Bulk Modulus (GPa) = 41.20299 44.51375 42.85837
# Shear Modulus (GPa) = 12.85837 30.29281 21.57559
#
# Velocity S-wave (km/s) = 2.45551 3.76893 3.18075
# Velocity P-wave (km/s) = 5.23070 6.30976 5.79540
#
# Compressibility (1/GPa) = 0.02427008
#
# Stress axis : x y z
#
# Youngs Moduli (GPa) = 80.74616 69.15926 74.78629
#
# Poissons Ratio (x) = -0.13555 0.24539
# Poissons Ratio (y) = -0.15826 0.49743
# Poissons Ratio (z) = 0.26495 0.46000
#
# Static dielectric constant tensor:
#      x y z
#    x 1.727950 0.000000 0.000000 
#    y 0.000000 1.732330 0.000000 
#    z 0.000000 0.000000 1.766040 
# 
# From -- ./inp_files/2053.got.cif
#   From: 2010.05.17/outbox.cif.g08.bks.cpg/sg24_2_cif.got.tgz:2053.got - 2010.06.04 00:33:39.
