data_PCOD9336836
_publ_section_title
;
Structure prediction by ZEFSAII (Michael W. Deem and Ramdas Pophale) SiO2 
 PCOD9336836
Probable space group: I 21 21 21
;
_chemical_formula_sum "Si O2"
_cell_formula_units_Z 48
_cell_length_a 16.337973
_cell_length_b 26.967606
_cell_length_c 5.066173
_cell_angle_alpha 90.000000
_cell_angle_beta 90.000000
_cell_angle_gamma 90.000000
_cell_volume 2232.135654
_symmetry_space_group_name_H-M "I 21 21 21"
_symmetry_group_IT_number 24
_symmetry_cell_setting 'orthorhombic'
loop_
_space_group_symop_operation_xyz
x,y,z
-x,1/2-y,z
x,-y,1/2-z
1/2-x,y,-z
1/2+x,1/2+y,1/2+z
1/2-x,-y,1/2+z
1/2+x,1/2-y,-z
-x,1/2+y,1/2-z
loop_
_atom_site_type_symbol
_atom_site_label
_atom_site_fract_x
_atom_site_fract_y
_atom_site_fract_z
Si Si1 0.933843 0.000000 0.250000
Si Si2 0.342732 0.264594 0.906928
Si Si3 0.570248 0.134694 0.972309
Si Si4 0.466626 0.891042 0.033231
Si Si5 0.412763 0.780822 0.098839
Si Si6 0.538591 0.500000 0.250000
Si Si7 0.704514 0.071180 0.759526
O O1 0.871200 0.959578 0.145544
O O2 0.986328 0.983556 0.498048
O O3 0.411045 0.307696 0.938872
O O4 0.352261 0.245403 0.609775
O O5 0.250000 0.277418 0.000000
O O6 0.376347 0.223896 0.109645
O O7 0.506945 0.113067 0.756800
O O8 0.660090 0.113245 0.923829
O O9 0.538461 0.120378 0.257900
O O10 0.416020 0.839824 0.045078
O O11 0.429458 0.945511 0.125142
O O12 0.500000 0.750000 0.080100
O O13 0.750000 0.088570 0.500000
O O14 0.750000 0.042157 0.000000
#
# Coordination Sequence:
#
# PCOD9336836 Si02
#       7
#     4   8   8   8   8   4   8
#     4  12  22  37  54  70 110 159 212 268 314 350
#     4  12  25  42  65  98 135 166 212 270 330 388
#     4  12  22  39  59  85 121 168 209 258 314 380
#     4  12  23  39  65  88 121 166 217 263 320 382
#     4  12  23  42  69  95 127 174 219 262 325 398
#     4  12  22  41  58  84 120 157 212 276 316 364
#     4  12  23  35  49  73 109 160 215 252 297 360
#
# _framework density 21.504069999999999
#
# number of rings (size 3 to 8) (size 9 to 14) (size 15 to 20)
#    0.000    0.000    6.667    5.000    0.000    1.333 
#    0.000    0.000    0.000    0.000    0.000    2.333 
#    0.000    0.000    0.000    0.000    0.000    0.000 
#
# Total GULP energy -133642.503455 kJ/mol
# GULP energy per Si atom -5568.437644 kJ/mol
# Density = 2.145513 g / cm^3
# Si number density = 21.504070 Si / 1000 Ang^3
#
#
#
# Elastic Constant Matrix: (Units=GPa)
#
#
# Indices 1 2 3 4 5 6 
#
# 1 17.3572 -1.0472 7.4771 -0.0008 0.0020 -0.0003
# 2 -1.0472 112.2180 -14.1717 0.0006 -0.0018 -0.0009
# 3 7.4771 -14.1717 93.5353 0.0021 0.0013 -0.0191
# 4 -0.0008 0.0006 0.0021 33.4015 0.0006 0.0011
# 5 0.0020 -0.0018 0.0013 0.0006 28.2227 0.0000
# 6 -0.0003 -0.0009 -0.0191 0.0011 0.0000 16.0689
#
#
#
# Elastic Compliance Matrix: (Units=1/GPa)
#
#
# Indices 1 2 3 4 5 6 
#
# 1 0.059668 -0.000046 -0.004777 0.000002 -0.000004 -0.000005
# 2 -0.000046 0.009085 0.001380 0.000000 0.000001 0.000002
# 3 -0.004777 0.001380 0.011282 -0.000001 0.000000 0.000013
# 4 0.000002 0.000000 -0.000001 0.029939 -0.000001 -0.000002
# 5 -0.000004 0.000001 0.000000 -0.000001 0.035432 0.000000
# 6 -0.000005 0.000002 0.000013 -0.000002 0.000000 0.062232
#
#
# Mechanical properties :
#
#
# Convention : Reuss Voigt Hill
#
# Bulk Modulus (GPa) = 13.67071 23.06968 18.37019
# Shear Modulus (GPa) = 20.92858 30.92878 25.92868
#
# Velocity S-wave (km/s) = 3.12306 3.79657 3.47617
# Velocity P-wave (km/s) = 4.40179 5.47448 4.96718
#
# Compressibility (1/GPa) = 0.07314908
#
# Stress axis : x y z
#
# Youngs Moduli (GPa) = 16.75938 110.07040 88.63577
#
# Poissons Ratio (x) = 0.00511 0.42340
# Poissons Ratio (y) = 0.00078 -0.12234
# Poissons Ratio (z) = 0.08006 -0.15192
#
# Static dielectric constant tensor:
#      x y z
#    x 1.866590 0.000010 0.000050 
#    y 0.000010 2.114990 -0.000130 
#    z 0.000050 -0.000130 1.800570 
# 
# From -- ./inp_files/3810.got.cif
#   From: 2010.05.17/outbox.cif.g08.bks.cpg/sg24_2_cif.got.tgz:3810.got - 2010.06.04 00:33:39.
