data_PCOD9336810
_publ_section_title
;
Structure prediction by ZEFSAII (Michael W. Deem and Ramdas Pophale) SiO2 
 PCOD9336810
Probable space group: I 21 21 21
;
_chemical_formula_sum "Si O2"
_cell_formula_units_Z 32
_cell_length_a 9.390017
_cell_length_b 8.030115
_cell_length_c 18.891424
_cell_angle_alpha 90.000000
_cell_angle_beta 90.000000
_cell_angle_gamma 90.000000
_cell_volume 1424.468464
_symmetry_space_group_name_H-M "I 21 21 21"
_symmetry_group_IT_number 24
_symmetry_cell_setting 'orthorhombic'
loop_
_space_group_symop_operation_xyz
x,y,z
-x,1/2-y,z
x,-y,1/2-z
1/2-x,y,-z
1/2+x,1/2+y,1/2+z
1/2-x,-y,1/2+z
1/2+x,1/2-y,-z
-x,1/2+y,1/2-z
loop_
_atom_site_type_symbol
_atom_site_label
_atom_site_fract_x
_atom_site_fract_y
_atom_site_fract_z
Si Si1 0.765137 0.999999 0.083662
Si Si2 0.305555 0.814394 0.668235
Si Si3 0.805555 0.685606 0.168235
Si Si4 0.479552 0.000000 0.170477
O O1 0.837830 0.166181 0.115237
O O2 0.605019 0.000000 0.115271
O O3 0.837829 0.833818 0.115237
O O4 0.750000 0.999999 0.000000
O O5 0.337897 0.771826 0.750000
O O6 0.134782 0.849273 0.664579
O O7 0.365300 1.000000 0.653318
O O8 0.634782 0.650726 0.164579
O O9 0.540102 0.000000 0.250000
#
# Coordination Sequence:
#
# PCOD9336810 Si02
#       4
#     8   8   8   8
#     4  12  20  24  38  69 106 121 126 171 238 283
#     4   8  17  31  50  65  80 117 160 187 206 248
#     4   8  17  31  50  65  80 117 160 187 206 248
#     4   8  16  32  51  65  82 117 158 187 206 247
#
# _framework density 22.464521000000001
#
# number of rings (size 3 to 8) (size 9 to 14) (size 15 to 20)
#    1.500    1.500    0.000    3.750    0.000    5.000 
#    0.000    0.000    0.000    0.000    0.000    0.000 
#    0.000   72.000    0.000    0.000    0.000    0.000 
#
# Total GULP energy -89250.379897 kJ/mol
# GULP energy per Si atom -5578.148744 kJ/mol
# Density = 2.241339 g / cm^3
# Si number density = 22.464521 Si / 1000 Ang^3
#
#
#
# Elastic Constant Matrix: (Units=GPa)
#
#
# Indices 1 2 3 4 5 6 
#
# 1 99.6872 4.2540 26.0466 0.0000 0.0000 0.0000
# 2 4.2540 188.3444 131.3986 0.0000 0.0000 0.0000
# 3 26.0466 131.3986 194.2291 0.0000 0.0000 0.0000
# 4 0.0000 0.0000 0.0000 -14.9108 0.0000 0.0000
# 5 0.0000 0.0000 0.0000 0.0000 -10.0143 0.0000
# 6 0.0000 0.0000 0.0000 0.0000 0.0000 19.9819
#
#
#
# Elastic Compliance Matrix: (Units=1/GPa)
#
#
# Indices 1 2 3 4 5 6 
#
# 1 0.010593 0.001424 -0.002384 0.000000 0.000000 0.000000
# 2 0.001424 0.010247 -0.007123 0.000000 0.000000 0.000000
# 3 -0.002384 -0.007123 0.010287 0.000000 0.000000 0.000000
# 4 0.000000 0.000000 0.000000 -0.067066 0.000000 0.000000
# 5 0.000000 0.000000 0.000000 0.000000 -0.099858 0.000000
# 6 0.000000 0.000000 0.000000 0.000000 0.000000 0.050045
#
#
# Mechanical properties :
#
#
# Convention : Reuss Voigt Hill
#
# Bulk Modulus (GPa) = 66.83958 89.51770 78.17864
# Shear Modulus (GPa) = -77.40170 20.38213 -28.50979
#
# Velocity S-wave (km/s) = -5.87621 3.01541 -3.56631
# Velocity P-wave (km/s) = 4.02764 7.21517 4.23301
#
# Compressibility (1/GPa) = 0.01496119
#
# Stress axis : x y z
#
# Youngs Moduli (GPa) = 94.39772 97.59401 97.21056
#
# Poissons Ratio (x) = -0.13896 0.23174
# Poissons Ratio (y) = -0.13441 0.69242
# Poissons Ratio (z) = 0.22503 0.69515
#
# Static dielectric constant tensor:
#      x y z
#    x 1.917960 0.000000 0.000000 
#    y 0.000000 1.960680 0.000000 
#    z 0.000000 0.000000 1.717510 
# 
# From -- ./inp_files/13900.got.cif
#   From: 2010.05.17/outbox.cif.g08.bks.cpg/sg24_7_cif.got.tgz:13900.got - 2010.06.04 00:33:39.
