data_PCOD9336147
_publ_section_title
;
Structure prediction by ZEFSAII (Michael W. Deem and Ramdas Pophale) SiO2 
 PCOD9336147
Probable space group: I 21 21 21
;
_chemical_formula_sum "Si O2"
_cell_formula_units_Z 60
_cell_length_a 19.645695
_cell_length_b 8.474391
_cell_length_c 16.914939
_cell_angle_alpha 90.000000
_cell_angle_beta 90.000000
_cell_angle_gamma 90.000000
_cell_volume 2816.088709
_symmetry_space_group_name_H-M "I 21 21 21"
_symmetry_group_IT_number 24
_symmetry_cell_setting 'orthorhombic'
loop_
_space_group_symop_operation_xyz
x,y,z
-x,1/2-y,z
x,-y,1/2-z
1/2-x,y,-z
1/2+x,1/2+y,1/2+z
1/2-x,-y,1/2+z
1/2+x,1/2-y,-z
-x,1/2+y,1/2-z
loop_
_atom_site_type_symbol
_atom_site_label
_atom_site_fract_x
_atom_site_fract_y
_atom_site_fract_z
Si Si1 0.427843 0.336862 0.535785
Si Si2 0.554299 0.105291 0.829017
Si Si3 0.202414 0.890142 0.074781
Si Si4 0.193860 0.790056 0.342842
Si Si5 0.296247 0.271944 0.299981
Si Si6 0.573522 0.818907 0.280415
Si Si7 0.750000 0.139306 0.000000
Si Si8 0.637023 0.991326 0.405656
O O1 0.500000 0.250000 0.542411
O O2 0.436567 0.484813 0.596720
O O3 0.362410 0.223256 0.555645
O O4 0.417373 0.391259 0.444154
O O5 0.500000 0.250000 0.839162
O O6 0.627105 0.191471 0.821859
O O7 0.539801 0.000000 0.750000
O O8 0.259809 0.805593 0.126577
O O9 0.176130 0.032000 0.130924
O O10 0.250000 0.940540 0.000000
O O11 0.245852 0.763321 0.271494
O O12 0.231883 0.730633 0.421242
O O13 0.371240 0.223731 0.270571
O O14 0.313775 0.444341 0.336154
O O15 0.500000 0.750000 0.277177
O O16 0.569044 0.000000 0.250000
O O17 0.601712 0.838256 0.369389
O O18 0.815396 0.038231 0.979824
#
# Coordination Sequence:
#
# PCOD9336147 Si02
#       8
#     8   8   8   8   8   8   4   8
#     4  12  26  47  74 103 145 197 242 296 370 440
#     4  12  28  48  74 107 146 195 246 310 368 443
#     4  12  25  47  71 109 149 188 241 309 361 439
#     4  12  26  44  75 109 145 187 244 298 375 431
#     4  11  24  44  72 103 139 188 233 294 369 439
#     4  10  24  44  67 100 140 181 234 291 356 436
#     4  12  22  42  70 106 142 180 240 312 354 438
#     4  11  23  43  71 103 140 184 242 298 366 431
#
# _framework density 21.306146999999999
#
# number of rings (size 3 to 8) (size 9 to 14) (size 15 to 20)
#    0.000    0.533    4.667    3.200    1.867    4.800 
#    4.800    0.000    0.000    0.000    0.000    0.000 
#    0.000    0.000    0.000    0.000    0.000    0.000 
#
# Total GULP energy -167271.649307 kJ/mol
# GULP energy per Si atom -5575.721644 kJ/mol
# Density = 2.125765 g / cm^3
# Si number density = 21.306147 Si / 1000 Ang^3
#
#
#
# Elastic Constant Matrix: (Units=GPa)
#
#
# Indices 1 2 3 4 5 6 
#
# 1 140.6213 37.3416 36.6965 0.0000 0.0000 0.0000
# 2 37.3416 59.8850 2.7651 0.0000 0.0000 0.0000
# 3 36.6965 2.7651 82.0313 0.0000 0.0000 0.0000
# 4 0.0000 0.0000 0.0000 29.8240 0.0000 0.0000
# 5 0.0000 0.0000 0.0000 0.0000 25.7940 0.0000
# 6 0.0000 0.0000 0.0000 0.0000 0.0000 50.6276
#
#
#
# Elastic Compliance Matrix: (Units=1/GPa)
#
#
# Indices 1 2 3 4 5 6 
#
# 1 0.009765 -0.005897 -0.004170 0.000000 0.000000 0.000000
# 2 -0.005897 0.020285 0.001954 0.000000 0.000000 0.000000
# 3 -0.004170 0.001954 0.013990 0.000000 0.000000 0.000000
# 4 0.000000 0.000000 0.000000 0.033530 0.000000 0.000000
# 5 0.000000 0.000000 0.000000 0.000000 0.038769 0.000000
# 6 0.000000 0.000000 0.000000 0.000000 0.000000 0.019752
#
#
# Mechanical properties :
#
#
# Convention : Reuss Voigt Hill
#
# Bulk Modulus (GPa) = 35.95060 48.46045 42.20552
# Shear Modulus (GPa) = 30.94292 34.96474 32.95383
#
# Velocity S-wave (km/s) = 3.81504 4.05540 3.93705
# Velocity P-wave (km/s) = 6.02628 6.68749 6.36548
#
# Compressibility (1/GPa) = 0.02781595
#
# Stress axis : x y z
#
# Youngs Moduli (GPa) = 102.40382 49.29670 71.48014
#
# Poissons Ratio (x) = 0.29069 0.29805
# Poissons Ratio (y) = 0.60384 -0.13968
# Poissons Ratio (z) = 0.42699 -0.09633
#
# Static dielectric constant tensor:
#      x y z
#    x 1.754070 0.000000 0.000000 
#    y 0.000000 1.894680 0.000000 
#    z 0.000000 0.000000 1.811300 
# 
# From -- ./inp_files/31189.got.cif
#   From: 2010.05.17/outbox.cif.g08.bks.cpg/sg24_16_cif.got.tgz:31189.got - 2010.06.04 00:33:39.
