data_PCOD9336746
_publ_section_title
;
Structure prediction by ZEFSAII (Michael W. Deem and Ramdas Pophale) SiO2 
 PCOD9336746
Probable space group: I 21 21 21
;
_chemical_formula_sum "Si O2"
_cell_formula_units_Z 28
_cell_length_a 17.190719
_cell_length_b 10.056131
_cell_length_c 7.111455
_cell_angle_alpha 90.000000
_cell_angle_beta 90.000000
_cell_angle_gamma 90.000000
_cell_volume 1229.372318
_symmetry_space_group_name_H-M "I 21 21 21"
_symmetry_group_IT_number 24
_symmetry_cell_setting 'orthorhombic'
loop_
_space_group_symop_operation_xyz
x,y,z
-x,1/2-y,z
x,-y,1/2-z
1/2-x,y,-z
1/2+x,1/2+y,1/2+z
1/2-x,-y,1/2+z
1/2+x,1/2-y,-z
-x,1/2+y,1/2-z
loop_
_atom_site_type_symbol
_atom_site_label
_atom_site_fract_x
_atom_site_fract_y
_atom_site_fract_z
Si Si1 0.455759 0.881803 0.600483
Si Si2 0.456652 0.500000 0.250000
Si Si3 0.293607 0.848608 0.741141
Si Si4 0.178507 0.320561 0.595602
O O1 0.500000 0.750000 0.664474
O O2 0.364504 0.849617 0.598271
O O3 0.466852 0.000000 0.750000
O O4 0.490737 0.925936 0.402068
O O5 0.398037 0.398627 0.355205
O O6 0.221848 0.748060 0.728925
O O7 0.265453 0.000000 0.750000
O O8 0.331718 0.796703 0.940036
O O9 0.250000 0.404766 0.500000
#
# Coordination Sequence:
#
# PCOD9336746 Si02
#       4
#     8   4   8   8
#     4  11  25  44  71 105 151 193 243 307 377 441
#     4  12  24  44  74 110 146 194 244 306 378 458
#     4   8  18  43  67  95 137 189 235 309 344 431
#     4   8  21  41  69 102 144 188 249 290 372 443
#
# _framework density 22.775849999999998
#
# number of rings (size 3 to 8) (size 9 to 14) (size 15 to 20)
#    1.714    0.571    0.000    1.714    0.000    8.000 
#   20.571    0.000    0.000    0.000    0.000    0.000 
#    0.000    0.000    0.000    0.000    0.000    0.000 
#
# Total GULP energy -78055.966071 kJ/mol
# GULP energy per Si atom -5575.426148 kJ/mol
# Density = 2.272401 g / cm^3
# Si number density = 22.775850 Si / 1000 Ang^3
#
#
#
# Elastic Constant Matrix: (Units=GPa)
#
#
# Indices 1 2 3 4 5 6 
#
# 1 101.3332 25.1537 63.7873 0.0000 0.0000 0.0000
# 2 25.1537 83.9062 43.9924 0.0000 0.0000 0.0000
# 3 63.7873 43.9924 108.9392 0.0000 0.0000 0.0000
# 4 0.0000 0.0000 0.0000 20.9128 0.0000 0.0000
# 5 0.0000 0.0000 0.0000 0.0000 50.2255 0.0000
# 6 0.0000 0.0000 0.0000 0.0000 0.0000 12.6754
#
#
#
# Elastic Compliance Matrix: (Units=1/GPa)
#
#
# Indices 1 2 3 4 5 6 
#
# 1 0.015630 0.000143 -0.009210 0.000000 0.000000 0.000000
# 2 0.000143 0.015121 -0.006190 0.000000 0.000000 0.000000
# 3 -0.009210 -0.006190 0.017072 0.000000 0.000000 0.000000
# 4 0.000000 0.000000 0.000000 0.047818 0.000000 0.000000
# 5 0.000000 0.000000 0.000000 0.000000 0.019910 0.000000
# 6 0.000000 0.000000 0.000000 0.000000 0.000000 0.078893
#
#
# Mechanical properties :
#
#
# Convention : Reuss Voigt Hill
#
# Bulk Modulus (GPa) = 57.77218 62.22726 59.99972
# Shear Modulus (GPa) = 21.67069 27.51241 24.59155
#
# Velocity S-wave (km/s) = 3.08795 3.47935 3.28947
# Velocity P-wave (km/s) = 6.17531 6.59713 6.38970
#
# Compressibility (1/GPa) = 0.01730937
#
# Stress axis : x y z
#
# Youngs Moduli (GPa) = 63.97814 66.13519 58.57653
#
# Poissons Ratio (x) = -0.00946 0.53948
# Poissons Ratio (y) = -0.00915 0.36258
# Poissons Ratio (z) = 0.58923 0.40936
#
# Static dielectric constant tensor:
#      x y z
#    x 1.869510 0.000000 0.000000 
#    y 0.000000 1.877200 0.000000 
#    z 0.000000 0.000000 1.959710 
# 
# From -- ./inp_files/11850.got.cif
#   From: 2010.05.17/outbox.cif.g08.bks.cpg/sg24_6_cif.got.tgz:11850.got - 2010.06.04 00:33:39.
