data_PCOD9336483
_publ_section_title
;
Structure prediction by ZEFSAII (Michael W. Deem and Ramdas Pophale) SiO2 
 PCOD9336483
Probable space group: I 21 21 21
;
_chemical_formula_sum "Si O2"
_cell_formula_units_Z 40
_cell_length_a 5.269018
_cell_length_b 25.403070
_cell_length_c 12.545211
_cell_angle_alpha 90.000000
_cell_angle_beta 90.000000
_cell_angle_gamma 90.000000
_cell_volume 1679.166871
_symmetry_space_group_name_H-M "I 21 21 21"
_symmetry_group_IT_number 24
_symmetry_cell_setting 'orthorhombic'
loop_
_space_group_symop_operation_xyz
x,y,z
-x,1/2-y,z
x,-y,1/2-z
1/2-x,y,-z
1/2+x,1/2+y,1/2+z
1/2-x,-y,1/2+z
1/2+x,1/2-y,-z
-x,1/2+y,1/2-z
loop_
_atom_site_type_symbol
_atom_site_label
_atom_site_fract_x
_atom_site_fract_y
_atom_site_fract_z
Si Si1 0.952434 0.098874 0.573584
Si Si2 0.687318 0.143532 0.783498
Si Si3 0.488306 0.578250 0.433502
Si Si4 0.000000 0.250000 0.310841
Si Si5 0.291598 0.945522 0.759216
Si Si6 0.750000 0.306644 0.500000
O O1 0.750000 0.069418 0.500000
O O2 0.833398 0.121918 0.680760
O O3 0.191280 0.067293 0.622061
O O4 0.025119 0.151469 0.509217
O O5 0.866887 0.132062 0.884310
O O6 0.604822 0.202719 0.760429
O O7 0.444072 0.104911 0.783502
O O8 0.250000 0.555927 0.500000
O O9 0.565690 0.546606 0.326926
O O10 0.750000 0.582926 0.500000
O O11 0.208430 0.227117 0.394179
O O12 0.443723 0.000000 0.750000
#
# Coordination Sequence:
#
# PCOD9336483 Si02
#       6
#     8   8   8   4   8   4
#     4  11  21  42  64 105 153 194 239 298 368 466
#     4  11  24  43  73 106 145 194 247 309 370 453
#     4  11  24  50  77 100 141 193 254 313 374 444
#     4  12  22  40  70 106 150 198 236 304 388 456
#     4  11  25  46  74 108 148 193 256 317 376 446
#     4  12  22  40  64 106 152 196 236 286 380 470
#
# _framework density 23.821334
#
# number of rings (size 3 to 8) (size 9 to 14) (size 15 to 20)
#    0.000    0.800    6.000    1.200    0.000    4.000 
#    5.400    0.000    4.400    0.000    0.000    0.000 
#    0.000    0.000    0.000    0.000    0.000    0.000 
#
# Total GULP energy -111701.807543 kJ/mol
# GULP energy per Si atom -5585.090377 kJ/mol
# Density = 2.376712 g / cm^3
# Si number density = 23.821334 Si / 1000 Ang^3
#
#
#
# Elastic Constant Matrix: (Units=GPa)
#
#
# Indices 1 2 3 4 5 6 
#
# 1 121.9947 33.1249 40.5270 0.0000 0.0000 0.0000
# 2 33.1249 146.9308 39.8176 0.0000 0.0000 0.0000
# 3 40.5270 39.8176 97.0532 0.0000 0.0000 0.0000
# 4 0.0000 0.0000 0.0000 12.0003 0.0000 0.0000
# 5 0.0000 0.0000 0.0000 0.0000 51.9617 0.0000
# 6 0.0000 0.0000 0.0000 0.0000 0.0000 4.6219
#
#
#
# Elastic Compliance Matrix: (Units=1/GPa)
#
#
# Indices 1 2 3 4 5 6 
#
# 1 0.009710 -0.001227 -0.003551 0.000000 0.000000 0.000000
# 2 -0.001227 0.007812 -0.002693 0.000000 0.000000 0.000000
# 3 -0.003551 -0.002693 0.012891 0.000000 0.000000 0.000000
# 4 0.000000 0.000000 0.000000 0.083331 0.000000 0.000000
# 5 0.000000 0.000000 0.000000 0.000000 0.019245 0.000000
# 6 0.000000 0.000000 0.000000 0.000000 0.000000 0.216360
#
#
# Mechanical properties :
#
#
# Convention : Reuss Voigt Hill
#
# Bulk Modulus (GPa) = 64.63397 65.87978 65.25687
# Shear Modulus (GPa) = 13.53368 30.55073 22.04221
#
# Velocity S-wave (km/s) = 2.38614 3.58508 3.04520
# Velocity P-wave (km/s) = 5.89773 6.69723 6.31016
#
# Compressibility (1/GPa) = 0.01547174
#
# Stress axis : x y z
#
# Youngs Moduli (GPa) = 102.98742 128.00449 77.57122
#
# Poissons Ratio (x) = 0.15702 0.27548
# Poissons Ratio (y) = 0.12633 0.20889
# Poissons Ratio (z) = 0.36575 0.34470
#
# Static dielectric constant tensor:
#      x y z
#    x 2.118060 0.000000 0.000000 
#    y 0.000000 1.905810 0.000000 
#    z 0.000000 0.000000 2.382590 
# 
# From -- ./inp_files/17653.got.cif
#   From: 2010.05.17/outbox.cif.g08.bks.cpg/sg24_9_cif.got.tgz:17653.got - 2010.06.04 00:33:39.
