data_PCOD9336195
_publ_section_title
;
Structure prediction by ZEFSAII (Michael W. Deem and Ramdas Pophale) SiO2 
 PCOD9336195
Probable space group: I 21 21 21
;
_chemical_formula_sum "Si O2"
_cell_formula_units_Z 20
_cell_length_a 4.590169
_cell_length_b 17.222539
_cell_length_c 10.636696
_cell_angle_alpha 90.000000
_cell_angle_beta 90.000000
_cell_angle_gamma 90.000000
_cell_volume 840.877244
_symmetry_space_group_name_H-M "I 21 21 21"
_symmetry_group_IT_number 24
_symmetry_cell_setting 'orthorhombic'
loop_
_space_group_symop_operation_xyz
x,y,z
-x,1/2-y,z
x,-y,1/2-z
1/2-x,y,-z
1/2+x,1/2+y,1/2+z
1/2-x,-y,1/2+z
1/2+x,1/2-y,-z
-x,1/2+y,1/2-z
loop_
_atom_site_type_symbol
_atom_site_label
_atom_site_fract_x
_atom_site_fract_y
_atom_site_fract_z
Si Si1 0.739535 0.110559 0.243044
Si Si2 0.750000 0.805896 0.500000
Si Si3 0.779851 0.500000 0.250000
Si Si4 0.000000 0.250000 0.589807
O O1 0.872755 0.143935 0.114503
O O2 0.457073 0.061297 0.198281
O O3 0.636043 0.181283 0.328203
O O4 0.980413 0.057322 0.313588
O O5 0.500000 0.750000 0.447903
O O6 0.750000 0.283028 0.500000
#
# Coordination Sequence:
#
# PCOD9336195 Si02
#       4
#     8   4   4   4
#     4  11  24  48  69 104 137 179 238 275 351 395
#     4  12  24  42  80 100 134 174 230 306 328 402
#     4  10  24  46  68  98 146 176 218 292 334 422
#     4  12  26  46  74  98 138 188 230 280 332 418
#
# _framework density 23.784682
#
# number of rings (size 3 to 8) (size 9 to 14) (size 15 to 20)
#    0.000    0.800    2.000    4.800    2.800    0.000 
#   36.000    0.000    0.000    0.000    0.000    0.000 
#    0.000    0.000    0.000    0.000    0.000    0.000 
#
# Total GULP energy -55743.871348 kJ/mol
# GULP energy per Si atom -5574.387135 kJ/mol
# Density = 2.373055 g / cm^3
# Si number density = 23.784682 Si / 1000 Ang^3
#
#
#
# Elastic Constant Matrix: (Units=GPa)
#
#
# Indices 1 2 3 4 5 6 
#
# 1 120.2025 36.1759 6.3605 0.0000 0.0000 0.0000
# 2 36.1759 121.0599 30.5452 0.0000 0.0000 0.0000
# 3 6.3605 30.5452 73.8770 0.0000 0.0000 0.0000
# 4 0.0000 0.0000 0.0000 -3.3950 0.0000 0.0000
# 5 0.0000 0.0000 0.0000 0.0000 16.6209 0.0000
# 6 0.0000 0.0000 0.0000 0.0000 0.0000 41.1158
#
#
#
# Elastic Compliance Matrix: (Units=1/GPa)
#
#
# Indices 1 2 3 4 5 6 
#
# 1 0.009151 -0.002831 0.000383 0.000000 0.000000 0.000000
# 2 -0.002831 0.010098 -0.003932 0.000000 0.000000 0.000000
# 3 0.000383 -0.003932 0.015129 0.000000 0.000000 0.000000
# 4 0.000000 0.000000 0.000000 -0.294554 0.000000 0.000000
# 5 0.000000 0.000000 0.000000 0.000000 0.060165 0.000000
# 6 0.000000 0.000000 0.000000 0.000000 0.000000 0.024322
#
#
# Mechanical properties :
#
#
# Convention : Reuss Voigt Hill
#
# Bulk Modulus (GPa) = 46.25752 51.25585 48.75668
# Shear Modulus (GPa) = -32.10826 27.00555 -2.55135
#
# Velocity S-wave (km/s) = -3.67816 3.37325 -1.03683
# Velocity P-wave (km/s) = 1.20507 6.06370 4.37154
#
# Compressibility (1/GPa) = 0.02161811
#
# Stress axis : x y z
#
# Youngs Moduli (GPa) = 109.27647 99.02583 66.10002
#
# Poissons Ratio (x) = 0.28036 -0.02530
# Poissons Ratio (y) = 0.30938 0.25987
# Poissons Ratio (z) = -0.04182 0.38932
#
# Static dielectric constant tensor:
#      x y z
#    x 1.915250 0.000000 0.000000 
#    y 0.000000 1.913580 0.000000 
#    z 0.000000 0.000000 1.823570 
# 
# From -- ./inp_files/27.got.cif
#   From: 2010.05.17/outbox.cif.g08.bks.cpg/sg24_1_cif.got.tgz:27.got - 2010.06.04 00:33:39.
