data_PCOD9336750
_publ_section_title
;
Structure prediction by ZEFSAII (Michael W. Deem and Ramdas Pophale) SiO2 
 PCOD9336750
Probable space group: I 21 21 21
;
_chemical_formula_sum "Si O2"
_cell_formula_units_Z 48
_cell_length_a 12.348593
_cell_length_b 9.557242
_cell_length_c 17.814830
_cell_angle_alpha 90.000000
_cell_angle_beta 90.000000
_cell_angle_gamma 90.000000
_cell_volume 2102.479366
_symmetry_space_group_name_H-M "I 21 21 21"
_symmetry_group_IT_number 24
_symmetry_cell_setting 'orthorhombic'
loop_
_space_group_symop_operation_xyz
x,y,z
-x,1/2-y,z
x,-y,1/2-z
1/2-x,y,-z
1/2+x,1/2+y,1/2+z
1/2-x,-y,1/2+z
1/2+x,1/2-y,-z
-x,1/2+y,1/2-z
loop_
_atom_site_type_symbol
_atom_site_label
_atom_site_fract_x
_atom_site_fract_y
_atom_site_fract_z
Si Si1 0.143057 0.414986 0.045095
Si Si2 0.302144 0.394938 0.679043
Si Si3 0.205365 0.896249 0.407234
Si Si4 0.911222 0.647492 0.264134
Si Si5 0.547903 0.891933 0.180578
Si Si6 0.570743 0.518576 0.462170
O O1 0.135593 0.525644 0.112508
O O2 0.164019 0.257852 0.071987
O O3 0.250000 0.457547 0.000000
O O4 0.037726 0.413748 0.993845
O O5 0.299026 0.500000 0.750000
O O6 0.358348 0.247853 0.701460
O O7 0.174872 0.376226 0.659238
O O8 0.332632 0.898932 0.421735
O O9 0.138954 0.008207 0.458952
O O10 0.180214 0.906230 0.320483
O O11 0.969379 0.500000 0.250000
O O12 0.000000 0.750000 0.300754
O O13 0.500000 0.750000 0.212570
O O14 0.539786 0.000000 0.250000
O O15 0.477326 0.922740 0.104987
#
# Coordination Sequence:
#
# PCOD9336750 Si02
#       6
#     8   8   8   8   8   8
#     4  12  22  44  74 109 154 203 253 321 387 473
#     4  11  25  47  73 112 148 201 259 319 393 460
#     4  11  26  43  77 110 154 203 264 320 381 474
#     4  12  28  49  78 113 153 202 261 320 388 468
#     4  11  28  47  75 110 159 207 260 325 394 469
#     4  11  25  45  70 115 149 204 258 323 388 452
#
# _framework density 22.830188
#
# number of rings (size 3 to 8) (size 9 to 14) (size 15 to 20)
#    0.000    0.667    5.000    2.000    7.000    1.333 
#    3.000    0.000    0.000    0.000    0.000    0.000 
#    0.000    0.000    0.000    0.000    0.000    0.000 
#
# Total GULP energy -133825.222275 kJ/mol
# GULP energy per Si atom -5576.050928 kJ/mol
# Density = 2.277823 g / cm^3
# Si number density = 22.830188 Si / 1000 Ang^3
#
#
#
# Elastic Constant Matrix: (Units=GPa)
#
#
# Indices 1 2 3 4 5 6 
#
# 1 170.9693 46.8827 39.7051 0.0000 0.0000 0.0000
# 2 46.8827 99.1965 28.5466 0.0000 0.0000 0.0000
# 3 39.7051 28.5466 85.7470 0.0000 0.0000 0.0000
# 4 0.0000 0.0000 0.0000 29.7886 0.0000 0.0000
# 5 0.0000 0.0000 0.0000 0.0000 28.6880 0.0000
# 6 0.0000 0.0000 0.0000 0.0000 0.0000 22.9208
#
#
#
# Elastic Compliance Matrix: (Units=1/GPa)
#
#
# Indices 1 2 3 4 5 6 
#
# 1 0.007145 -0.002682 -0.002416 0.000000 0.000000 0.000000
# 2 -0.002682 0.012156 -0.002805 0.000000 0.000000 0.000000
# 3 -0.002416 -0.002805 0.013715 0.000000 0.000000 0.000000
# 4 0.000000 0.000000 0.000000 0.033570 0.000000 0.000000
# 5 0.000000 0.000000 0.000000 0.000000 0.034858 0.000000
# 6 0.000000 0.000000 0.000000 0.000000 0.000000 0.043629
#
#
# Mechanical properties :
#
#
# Convention : Reuss Voigt Hill
#
# Bulk Modulus (GPa) = 58.10435 65.13132 61.61783
# Shear Modulus (GPa) = 30.00940 32.33137 31.17039
#
# Velocity S-wave (km/s) = 3.62948 3.76728 3.69902
# Velocity P-wave (km/s) = 6.56278 6.89302 6.72993
#
# Compressibility (1/GPa) = 0.01721041
#
# Stress axis : x y z
#
# Youngs Moduli (GPa) = 139.94871 82.26561 72.91436
#
# Poissons Ratio (x) = 0.22063 0.17615
# Poissons Ratio (y) = 0.37533 0.20453
# Poissons Ratio (z) = 0.33810 0.23076
#
# Static dielectric constant tensor:
#      x y z
#    x 1.845240 0.000000 0.000000 
#    y 0.000000 1.980630 0.000000 
#    z 0.000000 0.000000 2.078500 
# 
# From -- ./inp_files/33661.got.cif
#   From: 2010.05.17/outbox.cif.g08.bks.cpg/sg24_17_cif.got.tgz:33661.got - 2010.06.04 00:33:39.
