data_PCOD9336633
_publ_section_title
;
Structure prediction by ZEFSAII (Michael W. Deem and Ramdas Pophale) SiO2 
 PCOD9336633
Probable space group: I 21 21 21
;
_chemical_formula_sum "Si O2"
_cell_formula_units_Z 40
_cell_length_a 15.427672
_cell_length_b 5.160993
_cell_length_c 22.385213
_cell_angle_alpha 90.000000
_cell_angle_beta 90.000000
_cell_angle_gamma 90.000000
_cell_volume 1782.357829
_symmetry_space_group_name_H-M "I 21 21 21"
_symmetry_group_IT_number 24
_symmetry_cell_setting 'orthorhombic'
loop_
_space_group_symop_operation_xyz
x,y,z
-x,1/2-y,z
x,-y,1/2-z
1/2-x,y,-z
1/2+x,1/2+y,1/2+z
1/2-x,-y,1/2+z
1/2+x,1/2-y,-z
-x,1/2+y,1/2-z
loop_
_atom_site_type_symbol
_atom_site_label
_atom_site_fract_x
_atom_site_fract_y
_atom_site_fract_z
Si Si1 0.409175 0.149866 0.018350
Si Si2 0.769090 0.584352 0.816130
Si Si3 0.912920 0.108782 0.316045
Si Si4 0.306842 0.681142 0.592918
Si Si5 0.149970 0.359725 0.584979
O O1 0.500000 0.250000 0.991883
O O2 0.395050 0.371556 0.068516
O O3 0.395039 0.868152 0.047113
O O4 0.339646 0.176329 0.965520
O O5 0.793771 0.500000 0.750000
O O6 0.674390 0.719383 0.810770
O O7 0.752769 0.354172 0.863564
O O8 0.840479 0.768529 0.846688
O O9 0.000000 0.250000 0.335571
O O10 0.929358 0.000000 0.250000
O O11 0.886395 0.899392 0.365189
O O12 0.251544 0.429966 0.572312
#
# Coordination Sequence:
#
# PCOD9336633 Si02
#       5
#     8   8   8   8   8
#     4  12  28  46  72 105 145 183 232 290 360 416
#     4  11  23  44  71 100 135 182 242 283 352 411
#     4  11  24  37  60  97 149 193 234 285 341 417
#     4  11  26  42  69 100 142 185 237 283 349 421
#     4  11  26  47  72 102 138 182 236 291 342 419
#
# _framework density 22.442184000000001
#
# number of rings (size 3 to 8) (size 9 to 14) (size 15 to 20)
#    0.000    0.800    4.000    1.800   11.200    0.000 
#    0.000    0.000    0.000    2.400    0.000    0.000 
#    0.000    0.000    0.000    0.000    0.000    0.000 
#
# Total GULP energy -111716.937383 kJ/mol
# GULP energy per Si atom -5585.846869 kJ/mol
# Density = 2.239110 g / cm^3
# Si number density = 22.442184 Si / 1000 Ang^3
#
#
#
# Elastic Constant Matrix: (Units=GPa)
#
#
# Indices 1 2 3 4 5 6 
#
# 1 32.5595 4.3037 8.1670 0.0000 0.0000 0.0000
# 2 4.3037 98.2509 18.2468 0.0000 0.0000 0.0000
# 3 8.1670 18.2468 78.1642 0.0000 0.0000 0.0000
# 4 0.0000 0.0000 0.0000 28.7460 0.0000 0.0000
# 5 0.0000 0.0000 0.0000 0.0000 16.5823 0.0000
# 6 0.0000 0.0000 0.0000 0.0000 0.0000 36.3386
#
#
#
# Elastic Compliance Matrix: (Units=1/GPa)
#
#
# Indices 1 2 3 4 5 6 
#
# 1 0.031601 -0.000806 -0.003114 0.000000 0.000000 0.000000
# 2 -0.000806 0.010660 -0.002404 0.000000 0.000000 0.000000
# 3 -0.003114 -0.002404 0.013680 0.000000 0.000000 0.000000
# 4 0.000000 0.000000 0.000000 0.034787 0.000000 0.000000
# 5 0.000000 0.000000 0.000000 0.000000 0.060305 0.000000
# 6 0.000000 0.000000 0.000000 0.000000 0.000000 0.027519
#
#
# Mechanical properties :
#
#
# Convention : Reuss Voigt Hill
#
# Bulk Modulus (GPa) = 23.09849 30.04551 26.57200
# Shear Modulus (GPa) = 24.31544 28.21720 26.26632
#
# Velocity S-wave (km/s) = 3.29518 3.54973 3.42482
# Velocity P-wave (km/s) = 4.97920 5.49707 5.24453
#
# Compressibility (1/GPa) = 0.04329288
#
# Stress axis : x y z
#
# Youngs Moduli (GPa) = 31.64501 93.81015 73.09859
#
# Poissons Ratio (x) = 0.07561 0.22760
# Poissons Ratio (y) = 0.02550 0.17575
# Poissons Ratio (z) = 0.09853 0.22554
#
# Static dielectric constant tensor:
#      x y z
#    x 1.918180 0.000000 0.000000 
#    y 0.000000 1.935840 0.000000 
#    z 0.000000 0.000000 1.842760 
# 
# From -- ./inp_files/23729.got.cif
#   From: 2010.05.17/outbox.cif.g08.bks.cpg/sg24_12_cif.got.tgz:23729.got - 2010.06.04 00:33:39.
