data_PCOD9336092
_publ_section_title
;
Structure prediction by ZEFSAII (Michael W. Deem and Ramdas Pophale) SiO2 
 PCOD9336092
Probable space group: I 21 21 21
;
_chemical_formula_sum "Si O2"
_cell_formula_units_Z 36
_cell_length_a 15.225284
_cell_length_b 5.615640
_cell_length_c 19.763871
_cell_angle_alpha 90.000000
_cell_angle_beta 90.000000
_cell_angle_gamma 90.000000
_cell_volume 1689.805315
_symmetry_space_group_name_H-M "I 21 21 21"
_symmetry_group_IT_number 24
_symmetry_cell_setting 'orthorhombic'
loop_
_space_group_symop_operation_xyz
x,y,z
-x,1/2-y,z
x,-y,1/2-z
1/2-x,y,-z
1/2+x,1/2+y,1/2+z
1/2-x,-y,1/2+z
1/2+x,1/2-y,-z
-x,1/2+y,1/2-z
loop_
_atom_site_type_symbol
_atom_site_label
_atom_site_fract_x
_atom_site_fract_y
_atom_site_fract_z
Si Si1 0.244451 0.055013 0.123621
Si Si2 0.000000 0.750000 0.841301
Si Si3 0.050860 0.995459 0.078872
Si Si4 0.750000 0.901823 0.500000
Si Si5 0.880665 0.232651 0.547646
Si Si6 0.644908 0.500000 0.250000
O O1 0.258451 0.255863 0.067968
O O2 0.140672 0.008422 0.122498
O O3 0.299772 0.836949 0.091117
O O4 0.290537 0.116350 0.194612
O O5 0.944211 0.894673 0.897867
O O6 0.924211 0.651955 0.793727
O O7 0.000000 0.750000 0.098123
O O8 0.078778 0.939123 0.000166
O O9 0.000000 0.250000 0.083727
O O10 0.838489 0.052597 0.495338
#
# Coordination Sequence:
#
# PCOD9336092 Si02
#       6
#     8   4   8   4   8   4
#     4  11  24  43  65  99 142 198 237 299 372 442
#     4  10  24  42  64 102 140 192 232 310 358 454
#     4  12  24  42  71 112 139 184 247 315 367 422
#     4  12  20  38  72  98 142 194 240 296 368 442
#     4  11  22  38  66 103 144 178 239 302 366 438
#     4  10  26  48  64  98 150 194 248 284 384 450
#
# _framework density 21.304228999999999
#
# number of rings (size 3 to 8) (size 9 to 14) (size 15 to 20)
#    0.000    0.889    5.556    1.333    3.111    0.000 
#    4.000    1.111    0.000    0.000    0.000    0.000 
#    0.000    0.000    0.000    0.000    0.000    0.000 
#
# Total GULP energy -100215.307062 kJ/mol
# GULP energy per Si atom -5567.517059 kJ/mol
# Density = 2.125574 g / cm^3
# Si number density = 21.304229 Si / 1000 Ang^3
#
#
#
# Elastic Constant Matrix: (Units=GPa)
#
#
# Indices 1 2 3 4 5 6 
#
# 1 165.0851 60.7780 75.5379 0.0000 0.0000 0.0000
# 2 60.7780 83.4545 35.0685 0.0000 0.0000 0.0000
# 3 75.5379 35.0685 136.0278 0.0000 0.0000 0.0000
# 4 0.0000 0.0000 0.0000 9.9699 0.0000 0.0000
# 5 0.0000 0.0000 0.0000 0.0000 51.4691 0.0000
# 6 0.0000 0.0000 0.0000 0.0000 0.0000 49.4363
#
#
#
# Elastic Compliance Matrix: (Units=1/GPa)
#
#
# Indices 1 2 3 4 5 6 
#
# 1 0.009979 -0.005539 -0.004113 0.000000 0.000000 0.000000
# 2 -0.005539 0.016513 -0.001181 0.000000 0.000000 0.000000
# 3 -0.004113 -0.001181 0.009940 0.000000 0.000000 0.000000
# 4 0.000000 0.000000 0.000000 0.100302 0.000000 0.000000
# 5 0.000000 0.000000 0.000000 0.000000 0.019429 0.000000
# 6 0.000000 0.000000 0.000000 0.000000 0.000000 0.020228
#
#
# Mechanical properties :
#
#
# Convention : Reuss Voigt Hill
#
# Bulk Modulus (GPa) = 67.72899 80.81514 74.27207
# Shear Modulus (GPa) = 24.63302 36.38728 30.51015
#
# Velocity S-wave (km/s) = 3.40406 4.13726 3.78844
# Velocity P-wave (km/s) = 6.87826 7.79992 7.35354
#
# Compressibility (1/GPa) = 0.01476473
#
# Stress axis : x y z
#
# Youngs Moduli (GPa) = 100.21175 60.55914 100.60137
#
# Poissons Ratio (x) = 0.33543 0.41382
# Poissons Ratio (y) = 0.55506 0.11884
# Poissons Ratio (z) = 0.41222 0.07154
#
# Static dielectric constant tensor:
#      x y z
#    x 1.902080 0.000000 0.000000 
#    y 0.000000 1.834990 0.000000 
#    z 0.000000 0.000000 1.701270 
# 
# From -- ./inp_files/33586.got.cif
#   From: 2010.05.17/outbox.cif.g08.bks.cpg/sg24_17_cif.got.tgz:33586.got - 2010.06.04 00:33:39.
