data_PCOD9336594
_publ_section_title
;
Structure prediction by ZEFSAII (Michael W. Deem and Ramdas Pophale) SiO2 
 PCOD9336594
Probable space group: I 21 21 21
;
_chemical_formula_sum "Si O2"
_cell_formula_units_Z 36
_cell_length_a 11.102112
_cell_length_b 10.985871
_cell_length_c 12.928040
_cell_angle_alpha 90.000000
_cell_angle_beta 90.000000
_cell_angle_gamma 90.000000
_cell_volume 1576.786113
_symmetry_space_group_name_H-M "I 21 21 21"
_symmetry_group_IT_number 24
_symmetry_cell_setting 'orthorhombic'
loop_
_space_group_symop_operation_xyz
x,y,z
-x,1/2-y,z
x,-y,1/2-z
1/2-x,y,-z
1/2+x,1/2+y,1/2+z
1/2-x,-y,1/2+z
1/2+x,1/2-y,-z
-x,1/2+y,1/2-z
loop_
_atom_site_type_symbol
_atom_site_label
_atom_site_fract_x
_atom_site_fract_y
_atom_site_fract_z
Si Si1 0.818468 0.209205 0.180964
Si Si2 0.965211 0.443154 0.111587
Si Si3 0.086508 0.000000 0.750000
Si Si4 0.224663 0.149498 0.379954
Si Si5 0.432303 0.630566 0.409051
O O1 0.863380 0.335995 0.126963
O O2 0.784031 0.240569 0.298729
O O3 0.704878 0.157704 0.117877
O O4 0.926311 0.112978 0.178168
O O5 0.895809 0.567892 0.132855
O O6 0.030923 0.460212 0.000341
O O7 0.169507 0.935836 0.834975
O O8 0.001051 0.904558 0.694595
O O9 0.250000 0.177952 0.500000
O O10 0.500000 0.750000 0.448996
#
# Coordination Sequence:
#
# PCOD9336594 Si02
#       5
#     8   8   4   8   8
#     4  11  24  41  67 101 141 177 228 292 340 410
#     4  11  23  39  73 103 130 182 238 287 335 413
#     4  12  24  40  70 100 136 186 234 288 340 426
#     4  12  23  43  72  99 137 186 229 281 353 417
#     4  12  22  40  69 104 136 180 240 282 342 414
#
# _framework density 22.831251000000002
#
# number of rings (size 3 to 8) (size 9 to 14) (size 15 to 20)
#    0.000    0.444    8.889    0.667    0.000    0.000 
#    8.000    4.444    0.000    0.000    0.000    0.000 
#    0.000    0.000    0.000    0.000    0.000    0.000 
#
# Total GULP energy -100601.994140 kJ/mol
# GULP energy per Si atom -5588.999674 kJ/mol
# Density = 2.277929 g / cm^3
# Si number density = 22.831251 Si / 1000 Ang^3
#
#
#
# Elastic Constant Matrix: (Units=GPa)
#
#
# Indices 1 2 3 4 5 6 
#
# 1 145.2430 14.8979 51.1139 0.0000 0.0000 0.0000
# 2 14.8979 14.8597 20.0789 0.0000 0.0000 0.0000
# 3 51.1139 20.0789 159.6622 0.0000 0.0000 0.0000
# 4 0.0000 0.0000 0.0000 33.1358 0.0000 0.0000
# 5 0.0000 0.0000 0.0000 0.0000 40.1219 0.0000
# 6 0.0000 0.0000 0.0000 0.0000 0.0000 23.4083
#
#
#
# Elastic Compliance Matrix: (Units=1/GPa)
#
#
# Indices 1 2 3 4 5 6 
#
# 1 0.008126 -0.005580 -0.001900 0.000000 0.000000 0.000000
# 2 -0.005580 0.084904 -0.008891 0.000000 0.000000 0.000000
# 3 -0.001900 -0.008891 0.007990 0.000000 0.000000 0.000000
# 4 0.000000 0.000000 0.000000 0.030179 0.000000 0.000000
# 5 0.000000 0.000000 0.000000 0.000000 0.024924 0.000000
# 6 0.000000 0.000000 0.000000 0.000000 0.000000 0.042720
#
#
# Mechanical properties :
#
#
# Convention : Reuss Voigt Hill
#
# Bulk Modulus (GPa) = 14.64591 54.66070 34.65330
# Shear Modulus (GPa) = 19.65845 34.91148 27.28497
#
# Velocity S-wave (km/s) = 2.93752 3.91463 3.46073
# Velocity P-wave (km/s) = 4.23487 6.66525 5.58389
#
# Compressibility (1/GPa) = 0.06827847
#
# Stress axis : x y z
#
# Youngs Moduli (GPa) = 123.06345 11.77794 125.16386
#
# Poissons Ratio (x) = 0.06572 0.23777
# Poissons Ratio (y) = 0.68668 1.11285
# Poissons Ratio (z) = 0.23378 0.10472
#
# Static dielectric constant tensor:
#      x y z
#    x 1.808580 0.000000 0.000000 
#    y 0.000000 1.901860 0.000000 
#    z 0.000000 0.000000 2.307980 
# 
# From -- ./inp_files/19210.got.cif
#   From: 2010.05.17/outbox.cif.g08.bks.cpg/sg24_10_cif.got.tgz:19210.got - 2010.06.04 00:33:39.
