data_PCOD9336707
_publ_section_title
;
Structure prediction by ZEFSAII (Michael W. Deem and Ramdas Pophale) SiO2 
 PCOD9336707
Probable space group: I 21 21 21
;
_chemical_formula_sum "Si O2"
_cell_formula_units_Z 24
_cell_length_a 8.244379
_cell_length_b 5.189996
_cell_length_c 20.608070
_cell_angle_alpha 90.000000
_cell_angle_beta 90.000000
_cell_angle_gamma 90.000000
_cell_volume 881.784159
_symmetry_space_group_name_H-M "I 21 21 21"
_symmetry_group_IT_number 24
_symmetry_cell_setting 'orthorhombic'
loop_
_space_group_symop_operation_xyz
x,y,z
-x,1/2-y,z
x,-y,1/2-z
1/2-x,y,-z
1/2+x,1/2+y,1/2+z
1/2-x,-y,1/2+z
1/2+x,1/2-y,-z
-x,1/2+y,1/2-z
loop_
_atom_site_type_symbol
_atom_site_label
_atom_site_fract_x
_atom_site_fract_y
_atom_site_fract_z
Si Si1 0.328791 0.397732 0.676747
Si Si2 0.057286 0.495944 0.000319
Si Si3 0.854267 0.606668 0.635010
O O1 0.500000 0.250000 0.668661
O O2 0.325396 0.500000 0.750000
O O3 0.274956 0.655637 0.636431
O O4 0.206085 0.161080 0.663208
O O5 0.940171 0.474665 0.934888
O O6 0.000000 0.250000 0.037641
O O7 0.250000 0.503633 0.000000
O O8 0.000000 0.750000 0.034009
O O9 0.000000 0.750000 0.672353
#
# Coordination Sequence:
#
# PCOD9336707 Si02
#       3
#     8   8   8
#     4  12  25  46  74 107 152 201 249 305 370 443
#     4  11  24  48  76 106 147 190 247 313 382 450
#     4  11  24  46  72 109 149 195 250 304 374 443
#
# _framework density 27.217542999999999
#
# number of rings (size 3 to 8) (size 9 to 14) (size 15 to 20)
#    0.000    0.667    0.000   10.000    0.000    2.667 
#    0.000   45.000    0.000    0.000    0.000    0.000 
#    0.000    0.000    0.000    0.000    0.000    0.000 
#
# Total GULP energy -66990.204679 kJ/mol
# GULP energy per Si atom -5582.517057 kJ/mol
# Density = 2.715559 g / cm^3
# Si number density = 27.217543 Si / 1000 Ang^3
#
#
#
# Elastic Constant Matrix: (Units=GPa)
#
#
# Indices 1 2 3 4 5 6 
#
# 1 221.3210 119.6701 96.9939 0.0000 0.0000 0.0000
# 2 119.6701 322.2828 84.5399 0.0000 0.0000 0.0000
# 3 96.9939 84.5399 177.8174 0.0000 0.0000 0.0000
# 4 0.0000 0.0000 0.0000 421.0414 0.0000 0.0000
# 5 0.0000 0.0000 0.0000 0.0000 40.9758 0.0000
# 6 0.0000 0.0000 0.0000 0.0000 0.0000 84.9855
#
#
#
# Elastic Compliance Matrix: (Units=1/GPa)
#
#
# Indices 1 2 3 4 5 6 
#
# 1 0.006701 -0.001747 -0.002824 0.000000 0.000000 0.000000
# 2 -0.001747 0.004001 -0.000949 0.000000 0.000000 0.000000
# 3 -0.002824 -0.000949 0.007616 0.000000 0.000000 0.000000
# 4 0.000000 0.000000 0.000000 0.002375 0.000000 0.000000
# 5 0.000000 0.000000 0.000000 0.000000 0.024405 0.000000
# 6 0.000000 0.000000 0.000000 0.000000 0.000000 0.011767
#
#
# Mechanical properties :
#
#
# Convention : Reuss Voigt Hill
#
# Bulk Modulus (GPa) = 137.44251 147.09211 142.26731
# Shear Modulus (GPa) = 71.09349 137.41503 104.25426
#
# Velocity S-wave (km/s) = 5.11636 7.11318 6.19574
# Velocity P-wave (km/s) = 9.24718 11.02830 10.17678
#
# Compressibility (1/GPa) = 0.00727577
#
# Stress axis : x y z
#
# Youngs Moduli (GPa) = 149.23375 249.96361 131.31078
#
# Poissons Ratio (x) = 0.43676 0.37088
# Poissons Ratio (y) = 0.26075 0.12460
# Poissons Ratio (z) = 0.42150 0.23719
#
# Static dielectric constant tensor:
#      x y z
#    x 2.202900 0.000000 0.000000 
#    y 0.000000 2.127450 0.000000 
#    z 0.000000 0.000000 2.225950 
# 
# From -- ./inp_files/8091.got.cif
#   From: 2010.05.17/outbox.cif.g08.bks.cpg/sg24_5_cif.got.tgz:8091.got - 2010.06.04 00:33:39.
