data_PCOD9336145
_publ_section_title
;
Structure prediction by ZEFSAII (Michael W. Deem and Ramdas Pophale) SiO2 
 PCOD9336145
Probable space group: I 21 21 21
;
_chemical_formula_sum "Si O2"
_cell_formula_units_Z 40
_cell_length_a 8.013756
_cell_length_b 11.912532
_cell_length_c 20.275428
_cell_angle_alpha 90.000000
_cell_angle_beta 90.000000
_cell_angle_gamma 90.000000
_cell_volume 1935.575989
_symmetry_space_group_name_H-M "I 21 21 21"
_symmetry_group_IT_number 24
_symmetry_cell_setting 'orthorhombic'
loop_
_space_group_symop_operation_xyz
x,y,z
-x,1/2-y,z
x,-y,1/2-z
1/2-x,y,-z
1/2+x,1/2+y,1/2+z
1/2-x,-y,1/2+z
1/2+x,1/2-y,-z
-x,1/2+y,1/2-z
loop_
_atom_site_type_symbol
_atom_site_label
_atom_site_fract_x
_atom_site_fract_y
_atom_site_fract_z
Si Si1 0.057550 0.369435 0.985477
Si Si2 0.860800 0.436785 0.441593
Si Si3 0.641132 0.000000 0.250000
Si Si4 0.000000 0.750000 0.142391
Si Si5 0.106275 0.928419 0.648570
Si Si6 0.189158 0.739659 0.270841
O O1 0.000000 0.250000 0.012507
O O2 0.006780 0.375116 0.908927
O O3 0.250000 0.383118 0.000000
O O4 0.956922 0.466045 0.020876
O O5 0.750000 0.379784 0.500000
O O6 0.989240 0.356371 0.404671
O O7 0.746502 0.498196 0.387454
O O8 0.513344 0.011086 0.310630
O O9 0.745427 0.888713 0.269117
O O10 0.845325 0.737413 0.193075
O O11 0.190800 0.830302 0.693743
O O12 0.000000 0.750000 0.300077
#
# Coordination Sequence:
#
# PCOD9336145 Si02
#       6
#     8   8   4   4   8   8
#     4  11  24  41  68 101 132 180 233 290 354 416
#     4  10  24  45  67  97 134 189 226 292 345 425
#     4  12  24  40  68 102 130 186 222 290 366 406
#     4  10  24  44  66  96 138 174 246 266 372 410
#     4  11  24  44  68  99 143 175 240 292 356 424
#     4  10  26  41  67 101 136 185 227 298 356 428
#
# _framework density 20.665682
#
# number of rings (size 3 to 8) (size 9 to 14) (size 15 to 20)
#    0.600    0.800    0.000    4.800    5.600    3.200 
#    3.600    0.000    0.000    0.000    0.000    0.000 
#    0.000    0.000    0.000    0.000    0.000    0.000 
#
# Total GULP energy -111563.078360 kJ/mol
# GULP energy per Si atom -5578.153918 kJ/mol
# Density = 2.061865 g / cm^3
# Si number density = 20.665682 Si / 1000 Ang^3
#
#
#
# Elastic Constant Matrix: (Units=GPa)
#
#
# Indices 1 2 3 4 5 6 
#
# 1 105.3501 32.6054 43.6698 0.0000 0.0000 0.0000
# 2 32.6054 78.6109 57.6293 0.0000 0.0000 0.0000
# 3 43.6698 57.6293 113.3418 0.0000 0.0000 0.0000
# 4 0.0000 0.0000 0.0000 25.1124 0.0000 0.0000
# 5 0.0000 0.0000 0.0000 0.0000 30.3519 0.0000
# 6 0.0000 0.0000 0.0000 0.0000 0.0000 26.5498
#
#
#
# Elastic Compliance Matrix: (Units=1/GPa)
#
#
# Indices 1 2 3 4 5 6 
#
# 1 0.011583 -0.002443 -0.003221 0.000000 0.000000 0.000000
# 2 -0.002443 0.020796 -0.009632 0.000000 0.000000 0.000000
# 3 -0.003221 -0.009632 0.014961 0.000000 0.000000 0.000000
# 4 0.000000 0.000000 0.000000 0.039821 0.000000 0.000000
# 5 0.000000 0.000000 0.000000 0.000000 0.032947 0.000000
# 6 0.000000 0.000000 0.000000 0.000000 0.000000 0.037665
#
#
# Mechanical properties :
#
#
# Convention : Reuss Voigt Hill
#
# Bulk Modulus (GPa) = 59.70927 62.79020 61.24974
# Shear Modulus (GPa) = 25.78003 27.29604 26.53804
#
# Velocity S-wave (km/s) = 3.53580 3.63828 3.58741
# Velocity P-wave (km/s) = 6.75462 6.93536 6.84558
#
# Compressibility (1/GPa) = 0.01674782
#
# Stress axis : x y z
#
# Youngs Moduli (GPa) = 86.33040 48.08687 66.83891
#
# Poissons Ratio (x) = 0.11750 0.21526
# Poissons Ratio (y) = 0.21094 0.64381
# Poissons Ratio (z) = 0.27804 0.46319
#
# Static dielectric constant tensor:
#      x y z
#    x 1.802070 0.000000 0.000000 
#    y 0.000000 1.725890 0.000000 
#    z 0.000000 0.000000 1.785650 
# 
# From -- ./inp_files/29290.got.cif
#   From: 2010.05.17/outbox.cif.g08.bks.cpg/sg24_15_cif.got.tgz:29290.got - 2010.06.04 00:33:39.
