data_PCOD9336388
_publ_section_title
;
Structure prediction by ZEFSAII (Michael W. Deem and Ramdas Pophale) SiO2 
 PCOD9336388
Probable space group: I 21 21 21
;
_chemical_formula_sum "Si O2"
_cell_formula_units_Z 56
_cell_length_a 14.930155
_cell_length_b 11.393053
_cell_length_c 14.687942
_cell_angle_alpha 90.000000
_cell_angle_beta 90.000000
_cell_angle_gamma 90.000000
_cell_volume 2498.419628
_symmetry_space_group_name_H-M "I 21 21 21"
_symmetry_group_IT_number 24
_symmetry_cell_setting 'orthorhombic'
loop_
_space_group_symop_operation_xyz
x,y,z
-x,1/2-y,z
x,-y,1/2-z
1/2-x,y,-z
1/2+x,1/2+y,1/2+z
1/2-x,-y,1/2+z
1/2+x,1/2-y,-z
-x,1/2+y,1/2-z
loop_
_atom_site_type_symbol
_atom_site_label
_atom_site_fract_x
_atom_site_fract_y
_atom_site_fract_z
Si Si1 0.336234 0.501775 0.453723
Si Si2 0.000000 0.750000 0.411658
Si Si3 0.176267 0.894027 0.942176
Si Si4 0.316666 0.306432 0.304591
Si Si5 0.528413 0.585387 0.425283
Si Si6 0.141909 0.637859 0.272968
Si Si7 0.098230 0.704140 0.073383
Si Si8 0.000000 0.250000 0.771284
O O1 0.250000 0.561743 0.500000
O O2 0.300204 0.409582 0.378621
O O3 0.420515 0.572228 0.416389
O O4 0.383186 0.423212 0.532253
O O5 0.042610 0.845257 0.480468
O O6 0.076439 0.686376 0.351009
O O7 0.199079 0.821460 0.850473
O O8 0.087192 0.968956 0.925351
O O9 0.250000 0.967437 0.000000
O O10 0.157312 0.792892 0.015926
O O11 0.248581 0.333585 0.221895
O O12 0.422630 0.312238 0.285792
O O13 0.552823 0.661561 0.337350
O O14 0.129433 0.500000 0.250000
O O15 0.115466 0.704343 0.179960
O O16 0.000000 0.750000 0.055481
#
# Coordination Sequence:
#
# PCOD9336388 Si02
#       8
#     8   4   8   8   8   8   8   4
#     4  11  21  38  69  99 126 168 217 274 335 388
#     4  11  28  46  63 100 138 174 229 276 338 415
#     4  11  22  42  71  97 131 172 220 269 331 392
#     4  11  24  42  67 106 131 165 225 282 326 399
#     4  11  26  46  64  90 134 187 222 263 334 402
#     4  12  25  41  69 104 135 172 221 283 348 395
#     4  11  19  38  63  99 133 162 217 281 324 393
#     4  11  28  44  61  92 142 180 219 272 322 395
#
# _framework density 22.414169000000001
#
# number of rings (size 3 to 8) (size 9 to 14) (size 15 to 20)
#    0.000    0.857    5.000    2.571    4.000    2.857 
#    0.000    2.857    0.000    0.000    0.000    0.000 
#    0.000    0.000    0.000    0.000    0.000    0.000 
#
# Total GULP energy -156397.533571 kJ/mol
# GULP energy per Si atom -5585.626199 kJ/mol
# Density = 2.236315 g / cm^3
# Si number density = 22.414169 Si / 1000 Ang^3
#
#
#
# Elastic Constant Matrix: (Units=GPa)
#
#
# Indices 1 2 3 4 5 6 
#
# 1 129.0030 25.3166 16.2072 0.0000 0.0000 0.0000
# 2 25.3166 76.6531 14.2987 0.0000 0.0000 0.0000
# 3 16.2072 14.2987 61.3614 0.0000 0.0000 0.0000
# 4 0.0000 0.0000 0.0000 17.4110 0.0000 0.0000
# 5 0.0000 0.0000 0.0000 0.0000 20.9526 0.0000
# 6 0.0000 0.0000 0.0000 0.0000 0.0000 21.1791
#
#
#
# Elastic Compliance Matrix: (Units=1/GPa)
#
#
# Indices 1 2 3 4 5 6 
#
# 1 0.008446 -0.002481 -0.001653 0.000000 0.000000 0.000000
# 2 -0.002481 0.014368 -0.002693 0.000000 0.000000 0.000000
# 3 -0.001653 -0.002693 0.017361 0.000000 0.000000 0.000000
# 4 0.000000 0.000000 0.000000 0.057435 0.000000 0.000000
# 5 0.000000 0.000000 0.000000 0.000000 0.047727 0.000000
# 6 0.000000 0.000000 0.000000 0.000000 0.000000 0.047216
#
#
# Mechanical properties :
#
#
# Convention : Reuss Voigt Hill
#
# Bulk Modulus (GPa) = 37.70524 42.07360 39.88942
# Shear Modulus (GPa) = 23.25077 25.98822 24.61950
#
# Velocity S-wave (km/s) = 3.22425 3.40877 3.31779
# Velocity P-wave (km/s) = 5.54253 5.85702 5.70194
#
# Compressibility (1/GPa) = 0.02652151
#
# Stress axis : x y z
#
# Youngs Moduli (GPa) = 118.39437 69.60118 57.60081
#
# Poissons Ratio (x) = 0.17270 0.09520
# Poissons Ratio (y) = 0.29377 0.15510
# Poissons Ratio (z) = 0.19567 0.18741
#
# Static dielectric constant tensor:
#      x y z
#    x 1.975180 0.000000 0.000000 
#    y 0.000000 1.817360 0.000000 
#    z 0.000000 0.000000 1.844900 
# 
# From -- ./inp_files/26537.got.cif
#   From: 2010.05.17/outbox.cif.g08.bks.cpg/sg24_14_cif.got.tgz:26537.got - 2010.06.04 00:33:39.
