data_PCOD9336609
_publ_section_title
;
Structure prediction by ZEFSAII (Michael W. Deem and Ramdas Pophale) SiO2 
 PCOD9336609
Probable space group: I 21 21 21
;
_chemical_formula_sum "Si O2"
_cell_formula_units_Z 48
_cell_length_a 10.133996
_cell_length_b 12.285629
_cell_length_c 19.910759
_cell_angle_alpha 90.000000
_cell_angle_beta 90.000000
_cell_angle_gamma 90.000000
_cell_volume 2478.939574
_symmetry_space_group_name_H-M "I 21 21 21"
_symmetry_group_IT_number 24
_symmetry_cell_setting 'orthorhombic'
loop_
_space_group_symop_operation_xyz
x,y,z
-x,1/2-y,z
x,-y,1/2-z
1/2-x,y,-z
1/2+x,1/2+y,1/2+z
1/2-x,-y,1/2+z
1/2+x,1/2-y,-z
-x,1/2+y,1/2-z
loop_
_atom_site_type_symbol
_atom_site_label
_atom_site_fract_x
_atom_site_fract_y
_atom_site_fract_z
Si Si1 0.799358 0.839035 0.571453
Si Si2 0.657484 0.266101 0.662776
Si Si3 0.294422 0.411081 0.426879
Si Si4 0.352007 0.795965 0.682616
Si Si5 0.457632 0.029128 0.040982
Si Si6 0.171079 0.999742 0.099228
O O1 0.750000 0.793783 0.500000
O O2 0.745747 0.766916 0.631694
O O3 0.046236 0.632720 0.561699
O O4 0.743303 0.963508 0.579521
O O5 0.500000 0.250000 0.659818
O O6 0.736424 0.166562 0.629425
O O7 0.692640 0.280656 0.740893
O O8 0.681227 0.375696 0.621426
O O9 0.250000 0.369972 0.500000
O O10 0.452357 0.429369 0.431439
O O11 0.500000 0.750000 0.675023
O O12 0.360206 0.921392 0.660820
O O13 0.315042 0.032584 0.072869
O O14 0.432478 0.017198 0.961452
#
# Coordination Sequence:
#
# PCOD9336609 Si02
#       6
#     8   8   8   8   8   8
#     4   9  20  41  65  93 121 163 218 259 316 379
#     4  11  25  41  65  93 130 173 212 270 328 394
#     4   9  20  41  65  93 121 163 218 259 316 379
#     4  11  25  41  65  93 130 173 212 270 328 394
#     4   9  21  40  65  94 121 169 211 269 313 379
#     4  11  23  42  61  98 130 162 215 268 329 375
#
# _framework density 19.363116999999999
#
# number of rings (size 3 to 8) (size 9 to 14) (size 15 to 20)
#    1.000    1.000    0.000    2.500    7.000    2.000 
#    0.000    5.000    0.000    0.000    0.000    0.000 
#    0.000    0.000    0.000    0.000    0.000    0.000 
#
# Total GULP energy -133859.499395 kJ/mol
# GULP energy per Si atom -5577.479141 kJ/mol
# Density = 1.931905 g / cm^3
# Si number density = 19.363117 Si / 1000 Ang^3
#
#
#
# Elastic Constant Matrix: (Units=GPa)
#
#
# Indices 1 2 3 4 5 6 
#
# 1 87.0755 15.4129 21.5382 0.0000 0.0000 0.0000
# 2 15.4129 79.2738 37.5569 0.0000 0.0000 0.0000
# 3 21.5382 37.5569 96.7856 0.0000 0.0000 0.0000
# 4 0.0000 0.0000 0.0000 18.9354 0.0000 0.0000
# 5 0.0000 0.0000 0.0000 0.0000 29.7226 0.0000
# 6 0.0000 0.0000 0.0000 0.0000 0.0000 24.8116
#
#
#
# Elastic Compliance Matrix: (Units=1/GPa)
#
#
# Indices 1 2 3 4 5 6 
#
# 1 0.012268 -0.001338 -0.002211 0.000000 0.000000 0.000000
# 2 -0.001338 0.015602 -0.005756 0.000000 0.000000 0.000000
# 3 -0.002211 -0.005756 0.013058 0.000000 0.000000 0.000000
# 4 0.000000 0.000000 0.000000 0.052811 0.000000 0.000000
# 5 0.000000 0.000000 0.000000 0.000000 0.033644 0.000000
# 6 0.000000 0.000000 0.000000 0.000000 0.000000 0.040304
#
#
# Mechanical properties :
#
#
# Convention : Reuss Voigt Hill
#
# Bulk Modulus (GPa) = 44.80826 45.79455 45.30140
# Shear Modulus (GPa) = 25.80829 27.26905 26.53867
#
# Velocity S-wave (km/s) = 3.65479 3.75680 3.70615
# Velocity P-wave (km/s) = 6.40323 6.52072 6.46224
#
# Compressibility (1/GPa) = 0.02231731
#
# Stress axis : x y z
#
# Youngs Moduli (GPa) = 81.51318 64.09520 76.58215
#
# Poissons Ratio (x) = 0.08574 0.16932
# Poissons Ratio (y) = 0.10904 0.44084
# Poissons Ratio (z) = 0.18022 0.36896
#
# Static dielectric constant tensor:
#      x y z
#    x 1.653670 0.000000 0.000000 
#    y 0.000000 1.712290 0.000000 
#    z 0.000000 0.000000 1.650910 
# 
# From -- ./inp_files/30194.got.cif
#   From: 2010.05.17/outbox.cif.g08.bks.cpg/sg24_16_cif.got.tgz:30194.got - 2010.06.04 00:33:39.
