data_PCOD9336645
_publ_section_title
;
Structure prediction by ZEFSAII (Michael W. Deem and Ramdas Pophale) SiO2 
 PCOD9336645
Probable space group: I 21 21 21
;
_chemical_formula_sum "Si O2"
_cell_formula_units_Z 48
_cell_length_a 14.954274
_cell_length_b 5.164038
_cell_length_c 26.461356
_cell_angle_alpha 90.000000
_cell_angle_beta 90.000000
_cell_angle_gamma 90.000000
_cell_volume 2043.463378
_symmetry_space_group_name_H-M "I 21 21 21"
_symmetry_group_IT_number 24
_symmetry_cell_setting 'orthorhombic'
loop_
_space_group_symop_operation_xyz
x,y,z
-x,1/2-y,z
x,-y,1/2-z
1/2-x,y,-z
1/2+x,1/2+y,1/2+z
1/2-x,-y,1/2+z
1/2+x,1/2-y,-z
-x,1/2+y,1/2-z
loop_
_atom_site_type_symbol
_atom_site_label
_atom_site_fract_x
_atom_site_fract_y
_atom_site_fract_z
Si Si1 0.400253 0.365184 0.115885
Si Si2 0.303803 0.861230 0.149001
Si Si3 0.283091 0.000000 0.750000
Si Si4 0.347332 0.155141 0.562524
Si Si5 0.394154 0.679435 0.502408
Si Si6 0.417843 0.606821 0.697737
Si Si7 0.000000 0.750000 0.127095
O O1 0.500000 0.250000 0.120422
O O2 0.379839 0.646308 0.138974
O O3 0.376797 0.377459 0.056507
O O4 0.338505 0.153339 0.142959
O O5 0.231728 0.829195 0.103551
O O6 0.268308 0.839609 0.206687
O O7 0.340554 0.203003 0.784289
O O8 0.366154 0.430213 0.535598
O O9 0.439816 0.076850 0.590666
O O10 0.339853 0.927860 0.521860
O O11 0.500000 0.750000 0.504428
O O12 0.500000 0.750000 0.672390
O O13 0.455194 0.500000 0.750000
O O14 0.418395 0.363539 0.661094
#
# Coordination Sequence:
#
# PCOD9336645 Si02
#       7
#     8   8   4   8   8   8   4
#     4  11  27  53  82 105 140 189 247 320 403 459
#     4  12  28  48  76 114 143 193 251 316 377 445
#     4  12  30  46  72 104 158 194 256 320 376 422
#     4  12  25  41  70 113 157 197 244 290 348 437
#     4  11  23  45  72 106 153 202 243 294 361 444
#     4  12  22  42  62  98 146 217 252 281 337 429
#     4  12  26  38  68 104 162 206 254 270 346 434
#
# _framework density 23.489530999999999
#
# number of rings (size 3 to 8) (size 9 to 14) (size 15 to 20)
#    0.000    0.333    3.333    4.500    9.333    6.667 
#    0.000    1.667    0.000    0.000    0.000    0.000 
#    0.000    0.000    0.000    0.000    0.000    0.000 
#
# Total GULP energy -134027.627074 kJ/mol
# GULP energy per Si atom -5584.484461 kJ/mol
# Density = 2.343607 g / cm^3
# Si number density = 23.489531 Si / 1000 Ang^3
#
#
#
# Elastic Constant Matrix: (Units=GPa)
#
#
# Indices 1 2 3 4 5 6 
#
# 1 80.0638 11.4532 42.9676 0.0000 0.0000 0.0000
# 2 11.4532 94.5648 24.9959 0.0000 0.0000 0.0000
# 3 42.9676 24.9959 104.5964 0.0000 0.0000 0.0000
# 4 0.0000 0.0000 0.0000 32.9235 0.0000 0.0000
# 5 0.0000 0.0000 0.0000 0.0000 21.7961 0.0000
# 6 0.0000 0.0000 0.0000 0.0000 0.0000 36.1700
#
#
#
# Elastic Compliance Matrix: (Units=1/GPa)
#
#
# Indices 1 2 3 4 5 6 
#
# 1 0.016026 -0.000214 -0.006532 0.000000 0.000000 0.000000
# 2 -0.000214 0.011291 -0.002610 0.000000 0.000000 0.000000
# 3 -0.006532 -0.002610 0.012868 0.000000 0.000000 0.000000
# 4 0.000000 0.000000 0.000000 0.030373 0.000000 0.000000
# 5 0.000000 0.000000 0.000000 0.000000 0.045880 0.000000
# 6 0.000000 0.000000 0.000000 0.000000 0.000000 0.027647
#
#
# Mechanical properties :
#
#
# Convention : Reuss Voigt Hill
#
# Bulk Modulus (GPa) = 46.57408 48.67316 47.62362
# Shear Modulus (GPa) = 29.41938 31.49845 30.45891
#
# Velocity S-wave (km/s) = 3.54283 3.66588 3.60488
# Velocity P-wave (km/s) = 6.05030 6.21968 6.13558
#
# Compressibility (1/GPa) = 0.02147117
#
# Stress axis : x y z
#
# Youngs Moduli (GPa) = 62.39707 88.56891 77.71367
#
# Poissons Ratio (x) = 0.01899 0.50765
# Poissons Ratio (y) = 0.01338 0.20284
# Poissons Ratio (z) = 0.40760 0.23118
#
# Static dielectric constant tensor:
#      x y z
#    x 1.792410 0.000000 0.000000 
#    y 0.000000 1.837140 0.000000 
#    z 0.000000 0.000000 1.866920 
# 
# From -- ./inp_files/37371.got.cif
#   From: 2010.05.17/outbox.cif.g08.bks.cpg/sg24_19_cif.got.tgz:37371.got - 2010.06.04 00:33:39.
