data_PCOD9336774
_publ_section_title
;
Structure prediction by ZEFSAII (Michael W. Deem and Ramdas Pophale) SiO2 
 PCOD9336774
Probable space group: I 21 21 21
;
_chemical_formula_sum "Si O2"
_cell_formula_units_Z 40
_cell_length_a 27.124613
_cell_length_b 11.756993
_cell_length_c 4.914310
_cell_angle_alpha 90.000000
_cell_angle_beta 90.000000
_cell_angle_gamma 90.000000
_cell_volume 1567.192552
_symmetry_space_group_name_H-M "I 21 21 21"
_symmetry_group_IT_number 24
_symmetry_cell_setting 'orthorhombic'
loop_
_space_group_symop_operation_xyz
x,y,z
-x,1/2-y,z
x,-y,1/2-z
1/2-x,y,-z
1/2+x,1/2+y,1/2+z
1/2-x,-y,1/2+z
1/2+x,1/2-y,-z
-x,1/2+y,1/2-z
loop_
_atom_site_type_symbol
_atom_site_label
_atom_site_fract_x
_atom_site_fract_y
_atom_site_fract_z
Si Si1 0.333640 0.000000 0.250000
Si Si2 0.088865 0.891963 0.418680
Si Si3 0.676969 0.000000 0.250000
Si Si4 0.387700 0.500000 0.750000
Si Si5 0.750000 0.646216 0.000000
Si Si6 0.750000 0.812647 0.500000
Si Si7 0.951005 0.816145 0.162520
Si Si8 0.002110 0.500000 0.750000
O O1 0.296177 0.064171 0.449714
O O2 0.368702 0.896778 0.356508
O O3 0.085830 0.789913 0.202779
O O4 0.036398 0.928808 0.557683
O O5 0.103535 0.000000 0.250000
O O6 0.708718 0.100764 0.116530
O O7 0.644199 0.045204 0.500652
O O8 0.423968 0.403446 0.861460
O O9 0.737580 0.729273 0.747973
O O10 0.000000 0.750000 0.235752
O O11 0.968239 0.900580 0.916736
#
# Coordination Sequence:
#
# PCOD9336774 Si02
#       8
#     4   8   4   4   4   4   8   4
#     4  11  30  52  81 131 170 211 291 358 436 529
#     4  11  26  51  80 120 167 223 287 360 431 521
#     4  12  28  56  77 126 162 214 287 342 420 512
#     4  12  29  48  84 124 170 220 290 352 417 524
#     4  12  28  52  90 126 170 228 280 350 448 530
#     4  12  28  54  90 116 174 228 274 358 438 522
#     4  12  26  51  80 116 167 221 281 349 431 503
#     4  11  25  52  76 119 166 227 286 354 431 515
#
# _framework density 25.523344999999999
#
# number of rings (size 3 to 8) (size 9 to 14) (size 15 to 20)
#    0.000    0.400    2.000    4.800    7.000    5.600 
#    0.000    0.000    0.000    0.000    0.000    0.000 
#    0.000    0.000    0.000    0.000    0.000    0.000 
#
# Total GULP energy -111587.974770 kJ/mol
# GULP energy per Si atom -5579.398738 kJ/mol
# Density = 2.546525 g / cm^3
# Si number density = 25.523345 Si / 1000 Ang^3
#
#
#
# Elastic Constant Matrix: (Units=GPa)
#
#
# Indices 1 2 3 4 5 6 
#
# 1 147.3386 74.3088 75.6493 0.0000 0.0002 0.0000
# 2 74.3088 169.1529 59.2066 0.0000 0.0000 0.0000
# 3 75.6493 59.2066 146.9118 0.0000 -0.0006 -0.0001
# 4 0.0000 0.0000 0.0000 69.2893 0.0000 0.0000
# 5 0.0002 0.0000 -0.0006 0.0000 197.4130 0.0000
# 6 0.0000 0.0000 -0.0001 0.0000 0.0000 15.0088
#
#
#
# Elastic Compliance Matrix: (Units=1/GPa)
#
#
# Indices 1 2 3 4 5 6 
#
# 1 0.010508 -0.003169 -0.004134 0.000000 0.000000 0.000000
# 2 -0.003169 0.007839 -0.001527 0.000000 0.000000 0.000000
# 3 -0.004134 -0.001527 0.009551 0.000000 0.000000 0.000000
# 4 0.000000 0.000000 0.000000 0.014432 0.000000 0.000000
# 5 0.000000 0.000000 0.000000 0.000000 0.005066 0.000000
# 6 0.000000 0.000000 0.000000 0.000000 0.000000 0.066627
#
#
# Mechanical properties :
#
#
# Convention : Reuss Voigt Hill
#
# Bulk Modulus (GPa) = 97.68152 97.97029 97.82590
# Shear Modulus (GPa) = 37.01117 73.29147 55.15132
#
# Velocity S-wave (km/s) = 3.81214 5.36449 4.65350
# Velocity P-wave (km/s) = 7.59809 8.76575 8.20272
#
# Compressibility (1/GPa) = 0.01023735
#
# Stress axis : x y z
#
# Youngs Moduli (GPa) = 95.16749 127.57444 104.70432
#
# Poissons Ratio (x) = 0.40432 0.43280
# Poissons Ratio (y) = 0.30161 0.15989
# Poissons Ratio (z) = 0.39338 0.19481
#
# Static dielectric constant tensor:
#      x y z
#    x 2.073580 0.000000 0.000000 
#    y 0.000000 1.773260 0.000000 
#    z 0.000000 0.000000 2.370000 
# 
# From -- ./inp_files/6975.got.cif
#   From: 2010.05.17/outbox.cif.g08.bks.cpg/sg24_4_cif.got.tgz:6975.got - 2010.06.04 00:33:39.
