data_PCOD9336634
_publ_section_title
;
Structure prediction by ZEFSAII (Michael W. Deem and Ramdas Pophale) SiO2 
 PCOD9336634
Probable space group: I 21 21 21
;
_chemical_formula_sum "Si O2"
_cell_formula_units_Z 24
_cell_length_a 16.714099
_cell_length_b 5.160846
_cell_length_c 13.254550
_cell_angle_alpha 90.000000
_cell_angle_beta 90.000000
_cell_angle_gamma 90.000000
_cell_volume 1143.322783
_symmetry_space_group_name_H-M "I 21 21 21"
_symmetry_group_IT_number 24
_symmetry_cell_setting 'orthorhombic'
loop_
_space_group_symop_operation_xyz
x,y,z
-x,1/2-y,z
x,-y,1/2-z
1/2-x,y,-z
1/2+x,1/2+y,1/2+z
1/2-x,-y,1/2+z
1/2+x,1/2-y,-z
-x,1/2+y,1/2-z
loop_
_atom_site_type_symbol
_atom_site_label
_atom_site_fract_x
_atom_site_fract_y
_atom_site_fract_z
Si Si1 0.823762 0.000000 0.250000
Si Si2 0.557076 0.000315 0.562173
Si Si3 0.907239 0.829970 0.849017
Si Si4 0.212303 0.000000 0.750000
O O1 0.880147 0.014537 0.347668
O O2 0.769172 0.746475 0.263890
O O3 0.500000 0.750000 0.567350
O O4 0.500000 0.250000 0.569309
O O5 0.600716 0.019009 0.453764
O O6 0.848180 0.584935 0.839864
O O7 0.000000 0.750000 0.842574
O O8 0.891037 0.000000 0.750000
#
# Coordination Sequence:
#
# PCOD9336634 Si02
#       4
#     4   8   8   4
#     4  12  26  48  66 106 144 184 226 286 362 424
#     4  11  25  45  76 101 133 186 237 292 340 415
#     4  11  23  44  71  99 133 178 236 285 337 409
#     4  12  26  44  68 100 148 184 222 288 356 418
#
# _framework density 20.991447000000001
#
# number of rings (size 3 to 8) (size 9 to 14) (size 15 to 20)
#    0.000    0.667    3.333    4.000    4.667    1.333 
#    6.000    0.000    0.000    0.000    0.000    0.000 
#    0.000    0.000    0.000    0.000    0.000    0.000 
#
# Total GULP energy -67102.407647 kJ/mol
# GULP energy per Si atom -5591.867304 kJ/mol
# Density = 2.094367 g / cm^3
# Si number density = 20.991447 Si / 1000 Ang^3
#
#
#
# Elastic Constant Matrix: (Units=GPa)
#
#
# Indices 1 2 3 4 5 6 
#
# 1 132.3245 83.4747 91.1669 0.0000 0.0000 0.0000
# 2 83.4747 178.1908 61.5392 0.0000 0.0000 0.0000
# 3 91.1669 61.5392 186.2381 0.0000 0.0000 0.0000
# 4 0.0000 0.0000 0.0000 42.0165 0.0000 0.0000
# 5 0.0000 0.0000 0.0000 0.0000 -10.6094 0.0000
# 6 0.0000 0.0000 0.0000 0.0000 0.0000 61.4334
#
#
#
# Elastic Compliance Matrix: (Units=1/GPa)
#
#
# Indices 1 2 3 4 5 6 
#
# 1 0.014354 -0.004851 -0.005424 0.000000 0.000000 0.000000
# 2 -0.004851 0.007974 -0.000260 0.000000 0.000000 0.000000
# 3 -0.005424 -0.000260 0.008110 0.000000 0.000000 0.000000
# 4 0.000000 0.000000 0.000000 0.023800 0.000000 0.000000
# 5 0.000000 0.000000 0.000000 0.000000 -0.094256 0.000000
# 6 0.000000 0.000000 0.000000 0.000000 0.000000 0.016278
#
#
# Mechanical properties :
#
#
# Convention : Reuss Voigt Hill
#
# Bulk Modulus (GPa) = 106.73692 107.67945 107.20819
# Shear Modulus (GPa) = 11012.59723 35.93960 5524.26842
#
# Velocity S-wave (km/s) = 72.50945 4.14225 51.35552
# Velocity P-wave (km/s) = 84.03046 8.61892 59.73024
#
# Compressibility (1/GPa) = 0.00936883
#
# Stress axis : x y z
#
# Youngs Moduli (GPa) = 69.66610 125.40066 123.29812
#
# Poissons Ratio (x) = 0.60835 0.66872
# Poissons Ratio (y) = 0.33797 0.03209
# Poissons Ratio (z) = 0.37784 0.03264
#
# Static dielectric constant tensor:
#      x y z
#    x 1.700720 0.000000 0.000000 
#    y 0.000000 1.793350 0.000000 
#    z 0.000000 0.000000 1.762150 
# 
# From -- ./inp_files/2934.got.cif
#   From: 2010.05.17/outbox.cif.g08.bks.cpg/sg24_2_cif.got.tgz:2934.got - 2010.06.04 00:33:39.
