data_PCOD9336508
_publ_section_title
;
Structure prediction by ZEFSAII (Michael W. Deem and Ramdas Pophale) SiO2 
 PCOD9336508
Probable space group: I 21 21 21
;
_chemical_formula_sum "Si O2"
_cell_formula_units_Z 44
_cell_length_a 7.602469
_cell_length_b 20.181188
_cell_length_c 15.632705
_cell_angle_alpha 90.000000
_cell_angle_beta 90.000000
_cell_angle_gamma 90.000000
_cell_volume 2398.476781
_symmetry_space_group_name_H-M "I 21 21 21"
_symmetry_group_IT_number 24
_symmetry_cell_setting 'orthorhombic'
loop_
_space_group_symop_operation_xyz
x,y,z
-x,1/2-y,z
x,-y,1/2-z
1/2-x,y,-z
1/2+x,1/2+y,1/2+z
1/2-x,-y,1/2+z
1/2+x,1/2-y,-z
-x,1/2+y,1/2-z
loop_
_atom_site_type_symbol
_atom_site_label
_atom_site_fract_x
_atom_site_fract_y
_atom_site_fract_z
Si Si1 0.910697 0.943938 0.957825
Si Si2 0.209994 0.932047 0.692713
Si Si3 0.488699 0.173567 0.740472
Si Si4 0.750000 0.471554 0.000000
Si Si5 0.819188 0.925179 0.761235
Si Si6 0.060354 0.179494 0.461615
O O1 0.885480 0.926470 0.859269
O O2 0.750000 0.982918 0.000000
O O3 0.083234 0.983640 0.979775
O O4 0.929634 0.876555 0.009260
O O5 0.328560 0.871738 0.726371
O O6 0.265680 0.937036 0.592805
O O7 0.998675 0.919599 0.704744
O O8 0.242757 0.000000 0.750000
O O9 0.500000 0.250000 0.773877
O O10 0.670458 0.131049 0.752036
O O11 0.445910 0.180492 0.640012
O O12 0.743337 0.000000 0.750000
O O13 0.250000 0.164134 0.500000
O O14 0.000000 0.250000 0.496412
#
# Coordination Sequence:
#
# PCOD9336508 Si02
#       6
#     8   8   8   4   8   8
#     4  12  22  37  60  93 127 164 204 259 316 390
#     4  11  23  43  68  96 129 168 214 278 322 393
#     4  11  25  42  63  92 130 175 214 266 327 386
#     4  12  24  40  66  96 124 162 216 270 338 370
#     4  11  23  42  64  95 129 169 213 264 328 385
#     4  11  22  36  56  90 130 169 207 252 317 402
#
# _framework density 18.344975999999999
#
# number of rings (size 3 to 8) (size 9 to 14) (size 15 to 20)
#    0.000    0.727    6.364    3.273    5.091    0.727 
#    0.000    0.000    4.000    0.000    0.000    0.000 
#    0.000    0.000    0.000    0.000    0.000    0.000 
#
# Total GULP energy -122610.780723 kJ/mol
# GULP energy per Si atom -5573.217306 kJ/mol
# Density = 1.830322 g / cm^3
# Si number density = 18.344976 Si / 1000 Ang^3
#
#
#
# Elastic Constant Matrix: (Units=GPa)
#
#
# Indices 1 2 3 4 5 6 
#
# 1 107.1978 58.2339 -2.5774 0.0000 0.0000 0.0000
# 2 58.2339 124.4746 27.3547 0.0000 0.0000 0.0000
# 3 -2.5774 27.3547 76.2561 0.0000 0.0000 0.0000
# 4 0.0000 0.0000 0.0000 31.8498 0.0000 0.0000
# 5 0.0000 0.0000 0.0000 0.0000 25.3718 0.0000
# 6 0.0000 0.0000 0.0000 0.0000 0.0000 6.0226
#
#
#
# Elastic Compliance Matrix: (Units=1/GPa)
#
#
# Indices 1 2 3 4 5 6 
#
# 1 0.013057 -0.006736 0.002858 0.000000 0.000000 0.000000
# 2 -0.006736 0.012197 -0.004603 0.000000 0.000000 0.000000
# 3 0.002858 -0.004603 0.014861 0.000000 0.000000 0.000000
# 4 0.000000 0.000000 0.000000 0.031397 0.000000 0.000000
# 5 0.000000 0.000000 0.000000 0.000000 0.039414 0.000000
# 6 0.000000 0.000000 0.000000 0.000000 0.000000 0.166042
#
#
# Mechanical properties :
#
#
# Convention : Reuss Voigt Hill
#
# Bulk Modulus (GPa) = 43.19299 52.66120 47.92709
# Shear Modulus (GPa) = 16.57557 27.64333 22.10945
#
# Velocity S-wave (km/s) = 3.00917 3.88604 3.47537
# Velocity P-wave (km/s) = 5.97239 6.99310 6.50280
#
# Compressibility (1/GPa) = 0.02315191
#
# Stress axis : x y z
#
# Youngs Moduli (GPa) = 76.58860 81.98804 67.28800
#
# Poissons Ratio (x) = 0.55231 -0.19230
# Poissons Ratio (y) = 0.51594 0.30973
# Poissons Ratio (z) = -0.21888 0.37739
#
# Static dielectric constant tensor:
#      x y z
#    x 1.569580 0.000000 0.000000 
#    y 0.000000 1.644070 0.000000 
#    z 0.000000 0.000000 1.664260 
# 
# From -- ./inp_files/24728.got.cif
#   From: 2010.05.17/outbox.cif.g08.bks.cpg/sg24_13_cif.got.tgz:24728.got - 2010.06.04 00:33:39.
