data_PCOD9336953
_publ_section_title
;
Structure prediction by ZEFSAII (Michael W. Deem and Ramdas Pophale) SiO2 
 PCOD9336953
Probable space group: I 21 21 21
;
_chemical_formula_sum "Si O2"
_cell_formula_units_Z 32
_cell_length_a 4.997665
_cell_length_b 16.072836
_cell_length_c 16.277793
_cell_angle_alpha 90.000000
_cell_angle_beta 90.000000
_cell_angle_gamma 90.000000
_cell_volume 1307.540580
_symmetry_space_group_name_H-M "I 21 21 21"
_symmetry_group_IT_number 24
_symmetry_cell_setting 'orthorhombic'
loop_
_space_group_symop_operation_xyz
x,y,z
-x,1/2-y,z
x,-y,1/2-z
1/2-x,y,-z
1/2+x,1/2+y,1/2+z
1/2-x,-y,1/2+z
1/2+x,1/2-y,-z
-x,1/2+y,1/2-z
loop_
_atom_site_type_symbol
_atom_site_label
_atom_site_fract_x
_atom_site_fract_y
_atom_site_fract_z
Si Si1 0.750000 0.057149 0.000000
Si Si2 0.602523 0.386779 0.138331
Si Si3 0.888183 0.550818 0.125941
Si Si4 0.592605 0.163149 0.767163
Si Si5 0.750000 0.310554 0.500000
O O1 0.961244 0.112630 0.949857
O O2 0.586926 0.998373 0.936263
O O3 0.664166 0.484507 0.151593
O O4 0.392337 0.346646 0.201138
O O5 0.888686 0.345804 0.155707
O O6 0.035073 0.589375 0.203819
O O7 0.760558 0.627321 0.076986
O O8 0.500000 0.250000 0.727846
O O9 0.500000 0.250000 0.497366
#
# Coordination Sequence:
#
# PCOD9336953 Si02
#       5
#     4   8   8   8   4
#     4  12  25  50  80 115 138 200 260 324 347 454
#     4  12  27  50  81 109 147 205 262 305 372 454
#     4  12  27  47  80 113 151 199 260 306 378 466
#     4  12  30  50  76 115 158 198 249 324 386 442
#     4  12  27  44  72 115 162 198 232 314 399 456
#
# _framework density 24.473427000000001
#
# number of rings (size 3 to 8) (size 9 to 14) (size 15 to 20)
#    0.000    0.000    5.000    3.000    7.000    2.000 
#    0.000    2.500    0.000    0.000    0.000    0.000 
#    0.000    0.000    0.000    0.000    0.000    0.000 
#
# Total GULP energy -89662.210209 kJ/mol
# GULP energy per Si atom -5603.888138 kJ/mol
# Density = 2.441772 g / cm^3
# Si number density = 24.473427 Si / 1000 Ang^3
#
#
#
# Elastic Constant Matrix: (Units=GPa)
#
#
# Indices 1 2 3 4 5 6 
#
# 1 123.6575 38.9472 12.2908 0.0000 0.0000 0.0000
# 2 38.9472 83.9004 12.9953 0.0000 0.0000 0.0000
# 3 12.2908 12.9953 80.7079 0.0000 0.0000 0.0000
# 4 0.0000 0.0000 0.0000 42.0609 0.0000 0.0000
# 5 0.0000 0.0000 0.0000 0.0000 31.1070 0.0000
# 6 0.0000 0.0000 0.0000 0.0000 0.0000 43.0865
#
#
#
# Elastic Compliance Matrix: (Units=1/GPa)
#
#
# Indices 1 2 3 4 5 6 
#
# 1 0.009517 -0.004300 -0.000757 0.000000 0.000000 0.000000
# 2 -0.004300 0.014167 -0.001626 0.000000 0.000000 0.000000
# 3 -0.000757 -0.001626 0.012767 0.000000 0.000000 0.000000
# 4 0.000000 0.000000 0.000000 0.023775 0.000000 0.000000
# 5 0.000000 0.000000 0.000000 0.000000 0.032147 0.000000
# 6 0.000000 0.000000 0.000000 0.000000 0.000000 0.023209
#
#
# Mechanical properties :
#
#
# Convention : Reuss Voigt Hill
#
# Bulk Modulus (GPa) = 43.31977 46.30358 44.81167
# Shear Modulus (GPa) = 36.59145 38.18639 37.38892
#
# Velocity S-wave (km/s) = 3.87091 3.95437 3.91287
# Velocity P-wave (km/s) = 6.14148 6.30955 6.22608
#
# Compressibility (1/GPa) = 0.02308415
#
# Stress axis : x y z
#
# Youngs Moduli (GPa) = 105.08027 70.58628 78.32408
#
# Poissons Ratio (x) = 0.30355 0.05928
# Poissons Ratio (y) = 0.45189 0.12737
# Poissons Ratio (z) = 0.07953 0.11479
#
# Static dielectric constant tensor:
#      x y z
#    x 1.910310 0.000000 0.000000 
#    y 0.000000 1.963970 0.000000 
#    z 0.000000 0.000000 1.987810 
# 
# From -- ./inp_files/28509.got.cif
#   From: 2010.05.17/outbox.cif.g08.bks.cpg/sg24_15_cif.got.tgz:28509.got - 2010.06.04 00:33:39.
