data_PCOD9336071
_publ_section_title
;
Structure prediction by ZEFSAII (Michael W. Deem and Ramdas Pophale) SiO2 
 PCOD9336071
Probable space group: I 21 21 21
;
_chemical_formula_sum "Si O2"
_cell_formula_units_Z 60
_cell_length_a 7.966115
_cell_length_b 22.610226
_cell_length_c 15.751435
_cell_angle_alpha 90.000000
_cell_angle_beta 90.000000
_cell_angle_gamma 90.000000
_cell_volume 2837.080119
_symmetry_space_group_name_H-M "I 21 21 21"
_symmetry_group_IT_number 24
_symmetry_cell_setting 'orthorhombic'
loop_
_space_group_symop_operation_xyz
x,y,z
-x,1/2-y,z
x,-y,1/2-z
1/2-x,y,-z
1/2+x,1/2+y,1/2+z
1/2-x,-y,1/2+z
1/2+x,1/2-y,-z
-x,1/2+y,1/2-z
loop_
_atom_site_type_symbol
_atom_site_label
_atom_site_fract_x
_atom_site_fract_y
_atom_site_fract_z
Si Si1 0.296255 0.020037 0.591130
Si Si2 0.296649 0.246983 0.729337
Si Si3 0.659311 0.791705 0.407729
Si Si4 0.199379 0.156139 0.408156
Si Si5 0.304944 0.483235 0.589780
Si Si6 0.320092 0.638834 0.854565
Si Si7 0.672592 0.910670 0.301344
Si Si8 0.083898 0.000000 0.750000
O O1 0.250000 0.993553 0.500000
O O2 0.241207 0.088633 0.590996
O O3 0.495825 0.018743 0.601389
O O4 0.198922 0.991288 0.667902
O O5 0.500000 0.250000 0.727147
O O6 0.246785 0.257780 0.826934
O O7 0.242310 0.189186 0.677381
O O8 0.229951 0.300212 0.668543
O O9 0.500000 0.750000 0.424521
O O10 0.750000 0.797708 0.500000
O O11 0.629478 0.857209 0.365994
O O12 0.250000 0.182725 0.500000
O O13 0.996513 0.153510 0.398371
O O14 0.250000 0.507150 0.500000
O O15 0.239751 0.415746 0.595855
O O16 0.230438 0.529585 0.654070
O O17 0.324891 0.611182 0.759141
O O18 0.520605 0.938257 0.246456
#
# Coordination Sequence:
#
# PCOD9336071 Si02
#       8
#     8   8   8   8   8   8   8   4
#     4  10  24  39  59  98 134 173 217 278 344 396
#     4   9  19  39  65  92 126 172 221 271 334 398
#     4  11  25  45  67  98 132 174 230 289 345 406
#     4   9  19  37  62  91 131 169 212 275 335 398
#     4  11  21  38  64  90 130 172 223 269 329 414
#     4   9  19  36  61  88 124 169 219 258 327 396
#     4  11  23  42  68  95 126 182 229 276 340 414
#     4  12  24  40  70  96 142 172 226 284 346 408
#
# _framework density 21.148503000000002
#
# number of rings (size 3 to 8) (size 9 to 14) (size 15 to 20)
#    0.000    1.867    1.333    1.600    5.600    0.533 
#    0.000    5.333    0.000    0.000    0.000    0.000 
#    0.000    0.000    0.000    0.000    0.000    0.000 
#
# Total GULP energy -167026.893590 kJ/mol
# GULP energy per Si atom -5567.563120 kJ/mol
# Density = 2.110037 g / cm^3
# Si number density = 21.148503 Si / 1000 Ang^3
#
#
#
# Elastic Constant Matrix: (Units=GPa)
#
#
# Indices 1 2 3 4 5 6 
#
# 1 64.5423 23.5547 46.0083 0.0000 0.0000 0.0000
# 2 23.5547 71.8942 33.0621 0.0000 0.0000 0.0000
# 3 46.0083 33.0621 139.1629 0.0001 0.0000 0.0000
# 4 0.0000 0.0000 0.0001 34.0863 0.0000 0.0000
# 5 0.0000 0.0000 0.0000 0.0000 38.4839 0.0000
# 6 0.0000 0.0000 0.0000 0.0000 0.0000 19.0151
#
#
#
# Elastic Compliance Matrix: (Units=1/GPa)
#
#
# Indices 1 2 3 4 5 6 
#
# 1 0.021348 -0.004208 -0.006058 0.000000 0.000000 0.000000
# 2 -0.004208 0.016445 -0.002516 0.000000 0.000000 0.000000
# 3 -0.006058 -0.002516 0.009786 0.000000 0.000000 0.000000
# 4 0.000000 0.000000 0.000000 0.029337 0.000000 0.000000
# 5 0.000000 0.000000 0.000000 0.000000 0.025985 0.000000
# 6 0.000000 0.000000 0.000000 0.000000 0.000000 0.052590
#
#
# Mechanical properties :
#
#
# Convention : Reuss Voigt Hill
#
# Bulk Modulus (GPa) = 45.42304 53.42774 49.42539
# Shear Modulus (GPa) = 26.54018 29.84867 28.19442
#
# Velocity S-wave (km/s) = 3.54636 3.76092 3.65521
# Velocity P-wave (km/s) = 6.18819 6.64660 6.42149
#
# Compressibility (1/GPa) = 0.02201526
#
# Stress axis : x y z
#
# Youngs Moduli (GPa) = 46.84294 60.80882 102.18362
#
# Poissons Ratio (x) = 0.25590 0.61903
# Poissons Ratio (y) = 0.19713 0.25706
# Poissons Ratio (z) = 0.28377 0.15297
#
# Static dielectric constant tensor:
#      x y z
#    x 1.796470 0.000000 0.000000 
#    y 0.000000 1.795310 0.000000 
#    z 0.000000 0.000000 1.783360 
# 
# From -- ./inp_files/25186.got.cif
#   From: 2010.05.17/outbox.cif.g08.bks.cpg/sg24_13_cif.got.tgz:25186.got - 2010.06.04 00:33:39.
