data_PCOD9336049
_publ_section_title
;
Structure prediction by ZEFSAII (Michael W. Deem and Ramdas Pophale) SiO2 
 PCOD9336049
Probable space group: I 21 21 21
;
_chemical_formula_sum "Si O2"
_cell_formula_units_Z 40
_cell_length_a 11.876406
_cell_length_b 15.230318
_cell_length_c 8.355176
_cell_angle_alpha 90.000000
_cell_angle_beta 90.000000
_cell_angle_gamma 90.000000
_cell_volume 1511.296267
_symmetry_space_group_name_H-M "I 21 21 21"
_symmetry_group_IT_number 24
_symmetry_cell_setting 'orthorhombic'
loop_
_space_group_symop_operation_xyz
x,y,z
-x,1/2-y,z
x,-y,1/2-z
1/2-x,y,-z
1/2+x,1/2+y,1/2+z
1/2-x,-y,1/2+z
1/2+x,1/2-y,-z
-x,1/2+y,1/2-z
loop_
_atom_site_type_symbol
_atom_site_label
_atom_site_fract_x
_atom_site_fract_y
_atom_site_fract_z
Si Si1 0.776322 0.162262 0.222220
Si Si2 0.074432 0.588682 0.555689
Si Si3 0.516952 0.099631 0.605641
Si Si4 0.416406 0.901593 0.212095
Si Si5 0.700315 0.634576 0.679419
O O1 0.667955 0.099380 0.200433
O O2 0.859829 0.138134 0.365462
O O3 0.760146 0.265680 0.213984
O O4 0.858525 0.144228 0.073552
O O5 0.042456 0.500528 0.454488
O O6 0.966410 0.639698 0.626515
O O7 0.461224 0.140177 0.447776
O O8 0.424897 0.115247 0.749220
O O9 0.284986 0.914331 0.200988
O O10 0.466025 0.000000 0.250000
O O11 0.750000 0.611785 0.500000
#
# Coordination Sequence:
#
# PCOD9336049 Si02
#       5
#     8   8   8   8   8
#     4  11  24  47  74 110 156 206 273 331 418 491
#     4  10  23  47  76 107 146 210 261 334 401 499
#     4  11  25  46  76 111 154 202 276 332 403 499
#     4  10  25  46  73 107 153 202 266 332 410 485
#     4  12  25  48  74 112 159 213 266 337 420 505
#
# _framework density 26.467347
#
# number of rings (size 3 to 8) (size 9 to 14) (size 15 to 20)
#    0.000    1.200    2.000    3.000    0.000   17.600 
#   10.800    0.000    0.000    0.000    0.000    0.000 
#    0.000    0.000    0.000    0.000    0.000    0.000 
#
# Total GULP energy -111356.483718 kJ/mol
# GULP energy per Si atom -5567.824186 kJ/mol
# Density = 2.640711 g / cm^3
# Si number density = 26.467347 Si / 1000 Ang^3
#
#
#
# Elastic Constant Matrix: (Units=GPa)
#
#
# Indices 1 2 3 4 5 6 
#
# 1 186.5963 23.1323 27.9886 0.0000 0.0000 0.0000
# 2 23.1323 109.0677 14.5161 0.0000 0.0000 0.0000
# 3 27.9886 14.5161 80.8628 0.0000 0.0000 0.0000
# 4 0.0000 0.0000 0.0000 7.8432 0.0000 0.0000
# 5 0.0000 0.0000 0.0000 0.0000 52.8528 0.0000
# 6 0.0000 0.0000 0.0000 0.0000 0.0000 -148.2243
#
#
#
# Elastic Compliance Matrix: (Units=1/GPa)
#
#
# Indices 1 2 3 4 5 6 
#
# 1 0.005753 -0.000978 -0.001816 0.000000 0.000000 0.000000
# 2 -0.000978 0.009559 -0.001377 0.000000 0.000000 0.000000
# 3 -0.001816 -0.001377 0.013242 0.000000 0.000000 0.000000
# 4 0.000000 0.000000 0.000000 0.127500 0.000000 0.000000
# 5 0.000000 0.000000 0.000000 0.000000 0.018920 0.000000
# 6 0.000000 0.000000 0.000000 0.000000 0.000000 -0.006747
#
#
# Mechanical properties :
#
#
# Convention : Reuss Voigt Hill
#
# Bulk Modulus (GPa) = 49.47623 56.42233 52.94928
# Shear Modulus (GPa) = 27.27646 3.22030 15.24838
#
# Velocity S-wave (km/s) = 3.21373 1.10424 2.40285
# Velocity P-wave (km/s) = 5.70129 4.79477 5.26756
#
# Compressibility (1/GPa) = 0.02021173
#
# Stress axis : x y z
#
# Youngs Moduli (GPa) = 173.82876 104.60838 75.51558
#
# Poissons Ratio (x) = 0.10236 0.13710
# Poissons Ratio (y) = 0.17009 0.10402
# Poissons Ratio (z) = 0.31559 0.14409
#
# Static dielectric constant tensor:
#      x y z
#    x 2.200310 0.000000 0.000000 
#    y 0.000000 2.376570 0.000000 
#    z 0.000000 0.000000 2.459210 
# 
# From -- ./inp_files/10717.got.cif
#   From: 2010.05.17/outbox.cif.g08.bks.cpg/sg24_6_cif.got.tgz:10717.got - 2010.06.04 00:33:39.
