data_PCOD9336663
_publ_section_title
;
Structure prediction by ZEFSAII (Michael W. Deem and Ramdas Pophale) SiO2 
 PCOD9336663
Probable space group: I 21 21 21
;
_chemical_formula_sum "Si O2"
_cell_formula_units_Z 32
_cell_length_a 12.774317
_cell_length_b 9.301149
_cell_length_c 9.866076
_cell_angle_alpha 90.000000
_cell_angle_beta 90.000000
_cell_angle_gamma 90.000000
_cell_volume 1172.245967
_symmetry_space_group_name_H-M "I 21 21 21"
_symmetry_group_IT_number 24
_symmetry_cell_setting 'orthorhombic'
loop_
_space_group_symop_operation_xyz
x,y,z
-x,1/2-y,z
x,-y,1/2-z
1/2-x,y,-z
1/2+x,1/2+y,1/2+z
1/2-x,-y,1/2+z
1/2+x,1/2-y,-z
-x,1/2+y,1/2-z
loop_
_atom_site_type_symbol
_atom_site_label
_atom_site_fract_x
_atom_site_fract_y
_atom_site_fract_z
Si Si1 0.864155 0.197262 0.522446
Si Si2 0.893570 0.176333 0.230541
Si Si3 0.989482 0.540016 0.595045
Si Si4 0.331784 0.760593 0.341233
O O1 0.750000 0.121493 0.500000
O O2 0.873169 0.263628 0.372421
O O3 0.857573 0.260328 0.676106
O O4 0.965724 0.095766 0.519282
O O5 0.786808 0.210490 0.150332
O O6 0.000000 0.250000 0.175613
O O7 0.901101 0.000000 0.250000
O O8 0.995193 0.500000 0.750000
O O9 0.870866 0.594335 0.584433
O O10 0.085031 0.652353 0.591507
#
# Coordination Sequence:
#
# PCOD9336663 Si02
#       4
#     8   8   8   8
#     4   9  18  35  61  91 121 164 216 265 327 395
#     4  11  24  41  63  85 131 178 218 261 334 399
#     4   9  17  30  60  93 124 149 209 276 318 373
#     4   9  18  35  60  93 119 160 208 268 320 392
#
# _framework density 27.298026
#
# number of rings (size 3 to 8) (size 9 to 14) (size 15 to 20)
#    0.000    2.500    0.000    3.750    7.000    1.000 
#    4.500    0.000    0.000    0.000    0.000    0.000 
#    0.000    0.000    0.000    0.000    0.000    0.000 
#
# Total GULP energy -89076.894058 kJ/mol
# GULP energy per Si atom -5567.305879 kJ/mol
# Density = 2.723589 g / cm^3
# Si number density = 27.298026 Si / 1000 Ang^3
#
#
#
# Elastic Constant Matrix: (Units=GPa)
#
#
# Indices 1 2 3 4 5 6 
#
# 1 277.5439 89.6172 52.7770 0.0000 0.0000 0.0000
# 2 89.6172 81.7610 9.8924 0.0000 0.0000 0.0000
# 3 52.7770 9.8924 116.7215 0.0000 0.0000 0.0000
# 4 0.0000 0.0000 0.0000 25.0224 0.0000 0.0000
# 5 0.0000 0.0000 0.0000 0.0000 67.1361 0.0000
# 6 0.0000 0.0000 0.0000 0.0000 0.0000 36.4085
#
#
#
# Elastic Compliance Matrix: (Units=1/GPa)
#
#
# Indices 1 2 3 4 5 6 
#
# 1 0.006094 -0.006412 -0.002212 0.000000 0.000000 0.000000
# 2 -0.006412 0.019104 0.001280 0.000000 0.000000 0.000000
# 3 -0.002212 0.001280 0.009459 0.000000 0.000000 0.000000
# 4 0.000000 0.000000 0.000000 0.039964 0.000000 0.000000
# 5 0.000000 0.000000 0.000000 0.000000 0.014895 0.000000
# 6 0.000000 0.000000 0.000000 0.000000 0.000000 0.027466
#
#
# Mechanical properties :
#
#
# Convention : Reuss Voigt Hill
#
# Bulk Modulus (GPa) = 50.07678 86.73329 68.40503
# Shear Modulus (GPa) = 36.14628 47.29605 41.72117
#
# Velocity S-wave (km/s) = 3.64281 4.16694 3.91366
# Velocity P-wave (km/s) = 6.00648 7.41572 6.74799
#
# Compressibility (1/GPa) = 0.01996934
#
# Stress axis : x y z
#
# Youngs Moduli (GPa) = 164.09408 52.34515 105.71807
#
# Poissons Ratio (x) = 0.33564 0.23386
# Poissons Ratio (y) = 1.05217 -0.13533
# Poissons Ratio (z) = 0.36299 -0.06701
#
# Static dielectric constant tensor:
#      x y z
#    x 2.131620 0.000000 0.000000 
#    y 0.000000 2.468530 0.000000 
#    z 0.000000 0.000000 2.169210 
# 
# From -- ./inp_files/19124.got.cif
#   From: 2010.05.17/outbox.cif.g08.bks.cpg/sg24_10_cif.got.tgz:19124.got - 2010.06.04 00:33:39.
