data_PCOD9336766
_publ_section_title
;
Structure prediction by ZEFSAII (Michael W. Deem and Ramdas Pophale) SiO2 
 PCOD9336766
Probable space group: I 21 21 21
;
_chemical_formula_sum "Si O2"
_cell_formula_units_Z 40
_cell_length_a 20.848240
_cell_length_b 7.967482
_cell_length_c 10.004284
_cell_angle_alpha 90.000000
_cell_angle_beta 90.000000
_cell_angle_gamma 90.000000
_cell_volume 1661.791376
_symmetry_space_group_name_H-M "I 21 21 21"
_symmetry_group_IT_number 24
_symmetry_cell_setting 'orthorhombic'
loop_
_space_group_symop_operation_xyz
x,y,z
-x,1/2-y,z
x,-y,1/2-z
1/2-x,y,-z
1/2+x,1/2+y,1/2+z
1/2-x,-y,1/2+z
1/2+x,1/2-y,-z
-x,1/2+y,1/2-z
loop_
_atom_site_type_symbol
_atom_site_label
_atom_site_fract_x
_atom_site_fract_y
_atom_site_fract_z
Si Si1 0.906326 0.000000 0.750000
Si Si2 0.921399 0.342542 0.655619
Si Si3 0.956545 0.522090 0.408008
Si Si4 0.799700 0.000000 0.250000
Si Si5 0.232355 0.843227 0.845140
Si Si6 0.397239 0.369708 0.970699
O O1 0.945190 0.162602 0.704599
O O2 0.874074 0.932453 0.615251
O O3 0.937550 0.500000 0.750000
O O4 0.938041 0.367910 0.500877
O O5 0.844239 0.329118 0.664040
O O6 0.948575 0.500000 0.250000
O O7 0.910003 0.671092 0.459673
O O8 0.030966 0.562946 0.438424
O O9 0.761166 0.835743 0.201052
O O10 0.846291 0.935181 0.366475
O O11 0.252974 0.000000 0.750000
O O12 0.250000 0.875739 0.000000
#
# Coordination Sequence:
#
# PCOD9336766 Si02
#       6
#     4   8   8   4   8   8
#     4  12  25  44  76 112 152 198 259 318 392 478
#     4  11  25  48  74 108 154 202 258 319 384 469
#     4  11  26  47  77 112 160 204 261 322 398 481
#     4  12  27  52  76 114 164 202 265 336 386 484
#     4  11  28  47  77 112 148 211 261 320 397 458
#     4  11  27  45  76 115 151 214 256 322 407 466
#
# _framework density 24.070409000000001
#
# number of rings (size 3 to 8) (size 9 to 14) (size 15 to 20)
#    0.000    0.800    3.000    1.800    9.800    1.600 
#    0.000    0.000    0.000    0.000    0.000    0.000 
#    0.000    0.000    0.000    0.000    0.000    0.000 
#
# Total GULP energy -112065.314856 kJ/mol
# GULP energy per Si atom -5603.265743 kJ/mol
# Density = 2.401562 g / cm^3
# Si number density = 24.070409 Si / 1000 Ang^3
#
#
#
# Elastic Constant Matrix: (Units=GPa)
#
#
# Indices 1 2 3 4 5 6 
#
# 1 107.4606 63.0113 49.2693 0.0000 0.0000 0.0000
# 2 63.0113 191.0535 90.6197 0.0000 0.0000 0.0000
# 3 49.2693 90.6197 232.9574 0.0000 0.0000 0.0000
# 4 0.0000 0.0000 0.0000 48.6103 0.0000 0.0000
# 5 0.0000 0.0000 0.0000 0.0000 17.8785 0.0000
# 6 0.0000 0.0000 0.0000 0.0000 0.0000 9.0138
#
#
#
# Elastic Compliance Matrix: (Units=1/GPa)
#
#
# Indices 1 2 3 4 5 6 
#
# 1 0.011806 -0.003322 -0.001205 0.000000 0.000000 0.000000
# 2 -0.003322 0.007353 -0.002158 0.000000 0.000000 0.000000
# 3 -0.001205 -0.002158 0.005387 0.000000 0.000000 0.000000
# 4 0.000000 0.000000 0.000000 0.020572 0.000000 0.000000
# 5 0.000000 0.000000 0.000000 0.000000 0.055933 0.000000
# 6 0.000000 0.000000 0.000000 0.000000 0.000000 0.110941
#
#
# Mechanical properties :
#
#
# Convention : Reuss Voigt Hill
#
# Bulk Modulus (GPa) = 89.47095 104.14132 96.80613
# Shear Modulus (GPa) = 21.82578 37.00527 29.41553
#
# Velocity S-wave (km/s) = 3.01449 3.92519 3.49959
# Velocity P-wave (km/s) = 7.02620 7.99388 7.52561
#
# Compressibility (1/GPa) = 0.01117681
#
# Stress axis : x y z
#
# Youngs Moduli (GPa) = 84.70145 135.99201 185.64106
#
# Poissons Ratio (x) = 0.45183 0.22361
# Poissons Ratio (y) = 0.28142 0.40057
# Poissons Ratio (z) = 0.10202 0.29344
#
# Static dielectric constant tensor:
#      x y z
#    x 1.919120 0.000000 0.000000 
#    y 0.000000 1.992090 0.000000 
#    z 0.000000 0.000000 1.946320 
# 
# From -- ./inp_files/15661.got.cif
#   From: 2010.05.17/outbox.cif.g08.bks.cpg/sg24_8_cif.got.tgz:15661.got - 2010.06.04 00:33:39.
