data_PCOD9336312
_publ_section_title
;
Structure prediction by ZEFSAII (Michael W. Deem and Ramdas Pophale) SiO2 
 PCOD9336312
Probable space group: I 21 21 21
;
_chemical_formula_sum "Si O2"
_cell_formula_units_Z 24
_cell_length_a 7.141189
_cell_length_b 13.733509
_cell_length_c 10.069014
_cell_angle_alpha 90.000000
_cell_angle_beta 90.000000
_cell_angle_gamma 90.000000
_cell_volume 987.504284
_symmetry_space_group_name_H-M "I 21 21 21"
_symmetry_group_IT_number 24
_symmetry_cell_setting 'orthorhombic'
loop_
_space_group_symop_operation_xyz
x,y,z
-x,1/2-y,z
x,-y,1/2-z
1/2-x,y,-z
1/2+x,1/2+y,1/2+z
1/2-x,-y,1/2+z
1/2+x,1/2-y,-z
-x,1/2+y,1/2-z
loop_
_atom_site_type_symbol
_atom_site_label
_atom_site_fract_x
_atom_site_fract_y
_atom_site_fract_z
Si Si1 0.254324 0.908499 0.343070
Si Si2 0.351022 0.545613 0.377665
Si Si3 0.500000 0.750000 0.790787
Si Si4 0.750000 0.863643 0.000000
O O1 0.250000 0.927853 0.500000
O O2 0.477430 0.892699 0.323652
O O3 0.115226 0.824235 0.300144
O O4 0.209314 0.000000 0.250000
O O5 0.243499 0.500000 0.250000
O O6 0.250000 0.598694 0.500000
O O7 0.404363 0.442967 0.450085
O O8 0.652950 0.800767 0.886736
#
# Coordination Sequence:
#
# PCOD9336312 Si02
#       4
#     8   8   4   4
#     4  11  26  50  80 117 162 215 268 334 414 486
#     4   9  22  43  76 106 146 212 266 313 393 483
#     4  12  28  46  80 124 166 206 280 346 402 488
#     4  10  26  44  76 116 160 216 270 332 408 482
#
# _framework density 24.303692000000002
#
# number of rings (size 3 to 8) (size 9 to 14) (size 15 to 20)
#    1.000    0.667    0.000    2.000   16.333    0.000 
#   12.000    0.000    3.667    0.000    0.000    0.000 
#    0.000    0.000    0.000    0.000    0.000    0.000 
#
# Total GULP energy -66882.827226 kJ/mol
# GULP energy per Si atom -5573.568935 kJ/mol
# Density = 2.424838 g / cm^3
# Si number density = 24.303692 Si / 1000 Ang^3
#
#
#
# Elastic Constant Matrix: (Units=GPa)
#
#
# Indices 1 2 3 4 5 6 
#
# 1 143.7978 65.2264 59.5896 0.0000 0.0000 0.0000
# 2 65.2264 111.8091 61.3456 0.0002 -0.0001 0.0000
# 3 59.5896 61.3456 184.9645 0.0003 -0.0002 -0.0001
# 4 0.0000 0.0002 0.0003 28.0214 -0.0001 -0.0001
# 5 0.0000 -0.0001 -0.0002 -0.0001 54.7845 0.0000
# 6 0.0000 0.0000 -0.0001 -0.0001 0.0000 39.4747
#
#
#
# Elastic Compliance Matrix: (Units=1/GPa)
#
#
# Indices 1 2 3 4 5 6 
#
# 1 0.009804 -0.004873 -0.001542 0.000000 0.000000 0.000000
# 2 -0.004873 0.013356 -0.002860 0.000000 0.000000 0.000000
# 3 -0.001542 -0.002860 0.006852 0.000000 0.000000 0.000000
# 4 0.000000 0.000000 0.000000 0.035687 0.000000 0.000000
# 5 0.000000 0.000000 0.000000 0.000000 0.018253 0.000000
# 6 0.000000 0.000000 0.000000 0.000000 0.000000 0.025333
#
#
# Mechanical properties :
#
#
# Convention : Reuss Voigt Hill
#
# Bulk Modulus (GPa) = 87.25050 90.32160 88.78605
# Shear Modulus (GPa) = 37.97827 41.41678 39.69752
#
# Velocity S-wave (km/s) = 3.95733 4.13260 4.04591
# Velocity P-wave (km/s) = 7.54047 7.74697 7.64442
#
# Compressibility (1/GPa) = 0.01146125
#
# Stress axis : x y z
#
# Youngs Moduli (GPa) = 102.00209 74.87509 145.94887
#
# Poissons Ratio (x) = 0.36487 0.22509
# Poissons Ratio (y) = 0.49706 0.41735
# Poissons Ratio (z) = 0.15731 0.21411
#
# Static dielectric constant tensor:
#      x y z
#    x 2.114480 0.000000 0.000000 
#    y 0.000000 1.930790 0.000000 
#    z 0.000000 0.000000 2.093260 
# 
# From -- ./inp_files/8607.got.cif
#   From: 2010.05.17/outbox.cif.g08.bks.cpg/sg24_5_cif.got.tgz:8607.got - 2010.06.04 00:33:39.
