data_PCOD9336085
_publ_section_title
;
Structure prediction by ZEFSAII (Michael W. Deem and Ramdas Pophale) SiO2 
 PCOD9336085
Probable space group: I 21 21 21
;
_chemical_formula_sum "Si O2"
_cell_formula_units_Z 48
_cell_length_a 18.189857
_cell_length_b 4.988533
_cell_length_c 24.515954
_cell_angle_alpha 90.000000
_cell_angle_beta 90.000000
_cell_angle_gamma 90.000000
_cell_volume 2224.594874
_symmetry_space_group_name_H-M "I 21 21 21"
_symmetry_group_IT_number 24
_symmetry_cell_setting 'orthorhombic'
loop_
_space_group_symop_operation_xyz
x,y,z
-x,1/2-y,z
x,-y,1/2-z
1/2-x,y,-z
1/2+x,1/2+y,1/2+z
1/2-x,-y,1/2+z
1/2+x,1/2-y,-z
-x,1/2+y,1/2-z
loop_
_atom_site_type_symbol
_atom_site_label
_atom_site_fract_x
_atom_site_fract_y
_atom_site_fract_z
Si Si1 0.315173 0.209204 0.536727
Si Si2 0.571684 0.126581 0.459401
Si Si3 0.237598 0.066982 0.813432
Si Si4 0.500000 0.250000 0.948730
Si Si5 0.846792 0.234423 0.102299
Si Si6 0.854635 0.935507 0.850058
Si Si7 0.500000 0.250000 0.287094
O O1 0.250000 0.319377 0.500000
O O2 0.380263 0.162800 0.493140
O O3 0.336560 0.428412 0.582579
O O4 0.298620 0.924313 0.562751
O O5 0.500000 0.250000 0.431643
O O6 0.622937 0.004797 0.412755
O O7 0.538876 0.949345 0.508295
O O8 0.312471 0.187017 0.839707
O O9 0.178247 0.301995 0.822284
O O10 0.246248 0.000000 0.750000
O O11 0.204711 0.803761 0.843624
O O12 0.568849 0.322892 0.909391
O O13 0.929002 0.841971 0.820768
O O14 0.522890 0.500000 0.250000
#
# Coordination Sequence:
#
# PCOD9336085 Si02
#       7
#     8   8   8   4   8   8   4
#     4  11  22  38  62  94 129 165 214 254 319 393
#     4  11  22  39  61  95 133 171 201 261 320 398
#     4  12  26  46  67  93 127 173 226 276 322 372
#     4  10  24  41  66  98 138 163 216 258 334 396
#     4  11  23  41  65  93 126 171 209 269 325 382
#     4  12  26  42  65  94 130 172 219 265 322 389
#     4  12  24  41  62  88 122 169 220 276 318 364
#
# _framework density 21.576964
#
# number of rings (size 3 to 8) (size 9 to 14) (size 15 to 20)
#    0.000    0.667    2.500    6.500    2.333    2.000 
#    0.000    0.000    0.000    6.000    0.000    0.000 
#    0.000    0.000    0.000    0.000    0.000    0.000 
#
# Total GULP energy -134030.509987 kJ/mol
# GULP energy per Si atom -5584.604583 kJ/mol
# Density = 2.152785 g / cm^3
# Si number density = 21.576964 Si / 1000 Ang^3
#
#
#
# Elastic Constant Matrix: (Units=GPa)
#
#
# Indices 1 2 3 4 5 6 
#
# 1 107.7481 20.8534 78.2620 0.0000 0.0000 0.0000
# 2 20.8534 86.0926 28.3032 0.0000 0.0000 0.0000
# 3 78.2620 28.3032 117.2971 0.0000 0.0000 0.0000
# 4 0.0000 0.0000 0.0000 28.8212 0.0000 0.0000
# 5 0.0000 0.0000 0.0000 0.0000 96.6744 0.0000
# 6 0.0000 0.0000 0.0000 0.0000 0.0000 29.8675
#
#
#
# Elastic Compliance Matrix: (Units=1/GPa)
#
#
# Indices 1 2 3 4 5 6 
#
# 1 0.018024 -0.000448 -0.011918 0.000000 0.000000 0.000000
# 2 -0.000448 0.012627 -0.002748 0.000000 0.000000 0.000000
# 3 -0.011918 -0.002748 0.017140 0.000000 0.000000 0.000000
# 4 0.000000 0.000000 0.000000 0.034697 0.000000 0.000000
# 5 0.000000 0.000000 0.000000 0.000000 0.010344 0.000000
# 6 0.000000 0.000000 0.000000 0.000000 0.000000 0.033481
#
#
# Mechanical properties :
#
#
# Convention : Reuss Voigt Hill
#
# Bulk Modulus (GPa) = 56.93445 62.88612 59.91029
# Shear Modulus (GPa) = 30.78910 43.32056 37.05483
#
# Velocity S-wave (km/s) = 3.78159 4.48562 4.14857
# Velocity P-wave (km/s) = 6.74620 7.48572 7.12556
#
# Compressibility (1/GPa) = 0.01756406
#
# Stress axis : x y z
#
# Youngs Moduli (GPa) = 55.48194 79.19335 58.34274
#
# Poissons Ratio (x) = 0.03546 0.69531
# Poissons Ratio (y) = 0.02484 0.16033
# Poissons Ratio (z) = 0.66122 0.21764
#
# Static dielectric constant tensor:
#      x y z
#    x 1.870350 0.000000 0.000000 
#    y 0.000000 1.795010 0.000000 
#    z 0.000000 0.000000 1.805110 
# 
# From -- ./inp_files/35967.got.cif
#   From: 2010.05.17/outbox.cif.g08.bks.cpg/sg24_18_cif.got.tgz:35967.got - 2010.06.04 00:33:39.
