data_PCOD9336098
_publ_section_title
;
Structure prediction by ZEFSAII (Michael W. Deem and Ramdas Pophale) SiO2 
 PCOD9336098
Probable space group: I 21 21 21
;
_chemical_formula_sum "Si O2"
_cell_formula_units_Z 28
_cell_length_a 21.823727
_cell_length_b 4.803277
_cell_length_c 11.543122
_cell_angle_alpha 90.000000
_cell_angle_beta 90.000000
_cell_angle_gamma 90.000000
_cell_volume 1210.012450
_symmetry_space_group_name_H-M "I 21 21 21"
_symmetry_group_IT_number 24
_symmetry_cell_setting 'orthorhombic'
loop_
_space_group_symop_operation_xyz
x,y,z
-x,1/2-y,z
x,-y,1/2-z
1/2-x,y,-z
1/2+x,1/2+y,1/2+z
1/2-x,-y,1/2+z
1/2+x,1/2-y,-z
-x,1/2+y,1/2-z
loop_
_atom_site_type_symbol
_atom_site_label
_atom_site_fract_x
_atom_site_fract_y
_atom_site_fract_z
Si Si1 0.250000 0.560298 0.000000
Si Si2 0.841566 0.256292 0.830194
Si Si3 0.927998 0.303966 0.026971
Si Si4 0.137012 0.302579 0.363957
O O1 0.209828 0.366919 0.915557
O O2 0.296251 0.737501 0.920484
O O3 0.815847 0.500000 0.750000
O O4 0.897314 0.384855 0.905027
O O5 0.862255 0.000000 0.750000
O O6 0.000000 0.250000 0.028603
O O7 0.901489 0.517223 0.123918
O O8 0.899713 0.003787 0.050939
O O9 0.142590 0.500000 0.250000
#
# Coordination Sequence:
#
# PCOD9336098 Si02
#       4
#     4   8   8   8
#     4  10  24  42  66 100 140 174 224 282 338 416
#     4  11  24  41  66  98 134 183 231 281 347 412
#     4  11  25  44  65  95 134 176 231 287 335 404
#     4  11  24  42  68  98 133 179 223 277 345 406
#
# _framework density 23.140259
#
# number of rings (size 3 to 8) (size 9 to 14) (size 15 to 20)
#    0.000    1.143    0.000    6.000    0.000   18.286 
#    0.000    0.000    0.000    0.000    0.000    0.000 
#    0.000    0.000    0.000    0.000    0.000    0.000 
#
# Total GULP energy -78205.592711 kJ/mol
# GULP energy per Si atom -5586.113765 kJ/mol
# Density = 2.308759 g / cm^3
# Si number density = 23.140259 Si / 1000 Ang^3
#
#
#
# Elastic Constant Matrix: (Units=GPa)
#
#
# Indices 1 2 3 4 5 6 
#
# 1 181.8409 33.9172 60.3533 0.0000 0.0000 0.0000
# 2 33.9172 115.1580 31.7499 0.0000 0.0000 0.0000
# 3 60.3533 31.7499 126.9793 0.0000 0.0000 0.0000
# 4 0.0000 0.0000 0.0000 36.2380 0.0000 0.0000
# 5 0.0000 0.0000 0.0000 0.0000 11.4226 0.0000
# 6 0.0000 0.0000 0.0000 0.0000 0.0000 22.6383
#
#
#
# Elastic Compliance Matrix: (Units=1/GPa)
#
#
# Indices 1 2 3 4 5 6 
#
# 1 0.006673 -0.001172 -0.002879 0.000000 0.000000 0.000000
# 2 -0.001172 0.009532 -0.001827 0.000000 0.000000 0.000000
# 3 -0.002879 -0.001827 0.009700 0.000000 0.000000 0.000000
# 4 0.000000 0.000000 0.000000 0.027595 0.000000 0.000000
# 5 0.000000 0.000000 0.000000 0.000000 0.087546 0.000000
# 6 0.000000 0.000000 0.000000 0.000000 0.000000 0.044173
#
#
# Mechanical properties :
#
#
# Convention : Reuss Voigt Hill
#
# Bulk Modulus (GPa) = 70.66254 75.11325 72.88790
# Shear Modulus (GPa) = 24.79025 33.92362 29.35694
#
# Velocity S-wave (km/s) = 3.27663 3.83299 3.56568
# Velocity P-wave (km/s) = 6.70209 7.21939 6.96554
#
# Compressibility (1/GPa) = 0.01415177
#
# Stress axis : x y z
#
# Youngs Moduli (GPa) = 149.84924 104.90507 103.08922
#
# Poissons Ratio (x) = 0.12292 0.29678
# Poissons Ratio (y) = 0.17559 0.18830
# Poissons Ratio (z) = 0.43140 0.19161
#
# Static dielectric constant tensor:
#      x y z
#    x 1.901650 0.000000 0.000000 
#    y 0.000000 1.850520 0.000000 
#    z 0.000000 0.000000 2.178370 
# 
# From -- ./inp_files/1877.got.cif
#   From: 2010.05.17/outbox.cif.g08.bks.cpg/sg24_1_cif.got.tgz:1877.got - 2010.06.04 00:33:39.
