data_PCOD9336920
_publ_section_title
;
Structure prediction by ZEFSAII (Michael W. Deem and Ramdas Pophale) SiO2 
 PCOD9336920
Probable space group: I 21 21 21
;
_chemical_formula_sum "Si O2"
_cell_formula_units_Z 40
_cell_length_a 6.308423
_cell_length_b 17.995569
_cell_length_c 16.433032
_cell_angle_alpha 90.000000
_cell_angle_beta 90.000000
_cell_angle_gamma 90.000000
_cell_volume 1865.537960
_symmetry_space_group_name_H-M "I 21 21 21"
_symmetry_group_IT_number 24
_symmetry_cell_setting 'orthorhombic'
loop_
_space_group_symop_operation_xyz
x,y,z
-x,1/2-y,z
x,-y,1/2-z
1/2-x,y,-z
1/2+x,1/2+y,1/2+z
1/2-x,-y,1/2+z
1/2+x,1/2-y,-z
-x,1/2+y,1/2-z
loop_
_atom_site_type_symbol
_atom_site_label
_atom_site_fract_x
_atom_site_fract_y
_atom_site_fract_z
Si Si1 0.035800 0.403250 0.864447
Si Si2 0.777340 0.500000 0.250000
Si Si3 0.906192 0.949852 0.930618
Si Si4 0.250000 0.152354 0.500000
Si Si5 0.500000 0.250000 0.042522
Si Si6 0.347648 0.607773 0.781505
Si Si7 0.500000 0.250000 0.629350
O O1 0.861950 0.448142 0.809938
O O2 0.069793 0.462226 0.936412
O O3 0.979421 0.323931 0.902193
O O4 0.244075 0.394591 0.807656
O O5 0.938306 0.559874 0.210694
O O6 0.815203 0.931157 0.842722
O O7 0.111336 0.903076 0.946694
O O8 0.750000 0.921839 0.000000
O O9 0.356043 0.204177 0.567207
O O10 0.250000 0.255732 0.000000
O O11 0.381822 0.690828 0.813664
#
# Coordination Sequence:
#
# PCOD9336920 Si02
#       7
#     8   4   8   4   4   8   4
#     4  12  28  48  80 110 155 204 268 328 398 479
#     4  12  24  48  76 110 142 206 264 318 394 474
#     4  12  24  46  73 107 145 196 249 317 378 472
#     4  12  26  44  70 106 146 194 240 308 398 454
#     4  12  34  57  83 124 166 222 278 344 416 483
#     4  12  26  47  71 112 154 196 257 320 397 479
#     4  12  26  43  71 106 154 188 242 312 394 467
#
# _framework density 21.441535999999999
#
# number of rings (size 3 to 8) (size 9 to 14) (size 15 to 20)
#    0.000    0.000    6.000    3.000    7.000    0.000 
#    0.000    0.000    0.000    0.000    0.000    0.000 
#    0.000    0.000    0.000    0.000    0.000    0.000 
#
# Total GULP energy -111571.128281 kJ/mol
# GULP energy per Si atom -5578.556414 kJ/mol
# Density = 2.139273 g / cm^3
# Si number density = 21.441536 Si / 1000 Ang^3
#
#
#
# Elastic Constant Matrix: (Units=GPa)
#
#
# Indices 1 2 3 4 5 6 
#
# 1 113.9745 64.6862 52.4863 0.0000 0.0000 0.0000
# 2 64.6862 196.5698 53.3783 0.0000 0.0000 0.0000
# 3 52.4863 53.3783 62.8965 0.0000 0.0000 0.0000
# 4 0.0000 0.0000 0.0000 -0.5232 0.0000 0.0000
# 5 0.0000 0.0000 0.0000 0.0000 9.0188 0.0000
# 6 0.0000 0.0000 0.0000 0.0000 0.0000 -8.1865
#
#
#
# Elastic Compliance Matrix: (Units=1/GPa)
#
#
# Indices 1 2 3 4 5 6 
#
# 1 0.014816 -0.001973 -0.010690 0.000000 0.000000 0.000000
# 2 -0.001973 0.006873 -0.004187 0.000000 0.000000 0.000000
# 3 -0.010690 -0.004187 0.028373 0.000000 0.000000 0.000000
# 4 0.000000 0.000000 0.000000 -1.911424 0.000000 0.000000
# 5 0.000000 0.000000 0.000000 0.000000 0.110879 0.000000
# 6 0.000000 0.000000 0.000000 0.000000 0.000000 -0.122153
#
#
# Mechanical properties :
#
#
# Convention : Reuss Voigt Hill
#
# Bulk Modulus (GPa) = 61.11127 79.39360 70.25244
# Shear Modulus (GPa) = -2.72705 13.58784 5.43039
#
# Velocity S-wave (km/s) = -1.12899 2.52010 1.59316
# Velocity P-wave (km/s) = 5.18302 6.75102 6.01830
#
# Compressibility (1/GPa) = 0.01636359
#
# Stress axis : x y z
#
# Youngs Moduli (GPa) = 67.49317 145.48760 35.24499
#
# Poissons Ratio (x) = 0.28703 0.37676
# Poissons Ratio (y) = 0.13316 0.14757
# Poissons Ratio (z) = 0.72148 0.60914
#
# Static dielectric constant tensor:
#      x y z
#    x 1.891580 0.000000 0.000000 
#    y 0.000000 1.763710 0.000000 
#    z 0.000000 0.000000 1.747870 
# 
# From -- ./inp_files/4565.got.cif
#   From: 2010.05.17/outbox.cif.g08.bks.cpg/sg24_3_cif.got.tgz:4565.got - 2010.06.04 00:33:39.
