data_PCOD9336180
_publ_section_title
;
Structure prediction by ZEFSAII (Michael W. Deem and Ramdas Pophale) SiO2 
 PCOD9336180
Probable space group: I 21 21 21
;
_chemical_formula_sum "Si O2"
_cell_formula_units_Z 48
_cell_length_a 25.913303
_cell_length_b 11.602657
_cell_length_c 7.635471
_cell_angle_alpha 90.000000
_cell_angle_beta 90.000000
_cell_angle_gamma 90.000000
_cell_volume 2295.704888
_symmetry_space_group_name_H-M "I 21 21 21"
_symmetry_group_IT_number 24
_symmetry_cell_setting 'orthorhombic'
loop_
_space_group_symop_operation_xyz
x,y,z
-x,1/2-y,z
x,-y,1/2-z
1/2-x,y,-z
1/2+x,1/2+y,1/2+z
1/2-x,-y,1/2+z
1/2+x,1/2-y,-z
-x,1/2+y,1/2-z
loop_
_atom_site_type_symbol
_atom_site_label
_atom_site_fract_x
_atom_site_fract_y
_atom_site_fract_z
Si Si1 0.946207 0.923312 0.519901
Si Si2 0.616229 0.354717 0.475629
Si Si3 0.750000 0.343355 0.000000
Si Si4 0.209018 0.275643 0.659957
Si Si5 0.049562 0.327154 0.348026
Si Si6 0.352070 0.500000 0.250000
Si Si7 0.822437 0.500000 0.250000
Si Si8 0.465137 0.000000 0.250000
O O1 0.942467 0.834809 0.360573
O O2 0.892213 0.934096 0.621313
O O3 0.956285 0.046732 0.428042
O O4 0.995256 0.913548 0.649211
O O5 0.664326 0.320414 0.357061
O O6 0.594472 0.235079 0.548130
O O7 0.640011 0.419171 0.640173
O O8 0.572505 0.428909 0.378448
O O9 0.732114 0.256860 0.152913
O O10 0.788596 0.428348 0.108309
O O11 0.250000 0.264625 0.500000
O O12 0.183580 0.402581 0.662037
O O13 0.000000 0.250000 0.380148
#
# Coordination Sequence:
#
# PCOD9336180 Si02
#       8
#     8   8   4   8   8   4   4   4
#     4  10  24  45  68 101 144 185 237 287 357 431
#     4  12  25  45  70 102 142 180 236 295 356 425
#     4  12  26  50  76 100 142 186 232 306 364 416
#     4  12  27  50  71 106 141 190 241 300 363 426
#     4  11  23  43  69 100 142 185 230 292 348 426
#     4  11  26  46  72 101 141 188 240 295 352 434
#     4  12  26  45  74 105 133 184 241 294 360 430
#     4  11  24  43  70 104 140 186 233 289 362 436
#
# _framework density 20.908611000000001
#
# number of rings (size 3 to 8) (size 9 to 14) (size 15 to 20)
#    0.000    0.667    5.000    2.000    5.833    1.333 
#    0.000    0.000    0.000    0.000    0.000    0.000 
#    0.000    0.000    0.000    0.000    0.000    0.000 
#
# Total GULP energy -134070.539765 kJ/mol
# GULP energy per Si atom -5586.272490 kJ/mol
# Density = 2.086102 g / cm^3
# Si number density = 20.908611 Si / 1000 Ang^3
#
#
#
# Elastic Constant Matrix: (Units=GPa)
#
#
# Indices 1 2 3 4 5 6 
#
# 1 96.5446 21.5827 57.6825 0.0000 0.0000 0.0000
# 2 21.5827 46.4700 13.8263 0.0000 0.0000 0.0000
# 3 57.6825 13.8263 128.8736 0.0000 0.0000 0.0000
# 4 0.0000 0.0000 0.0000 43.1255 0.0000 0.0000
# 5 0.0000 0.0000 0.0000 0.0000 10.5292 0.0000
# 6 0.0000 0.0000 0.0000 0.0000 0.0000 -108.6575
#
#
#
# Elastic Compliance Matrix: (Units=1/GPa)
#
#
# Indices 1 2 3 4 5 6 
#
# 1 0.015277 -0.005228 -0.006277 0.000000 0.000000 0.000000
# 2 -0.005228 0.024018 -0.000237 0.000000 0.000000 0.000000
# 3 -0.006277 -0.000237 0.010594 0.000000 0.000000 0.000000
# 4 0.000000 0.000000 0.000000 0.023188 0.000000 0.000000
# 5 0.000000 0.000000 0.000000 0.000000 0.094974 0.000000
# 6 0.000000 0.000000 0.000000 0.000000 0.000000 -0.009203
#
#
# Mechanical properties :
#
#
# Convention : Reuss Voigt Hill
#
# Bulk Modulus (GPa) = 37.87014 50.89680 44.38347
# Shear Modulus (GPa) = 26.15991 0.91926 13.53958
#
# Velocity S-wave (km/s) = 3.54100 0.66378 2.54748
# Velocity P-wave (km/s) = 5.90507 4.99828 5.47050
#
# Compressibility (1/GPa) = 0.02640603
#
# Stress axis : x y z
#
# Youngs Moduli (GPa) = 65.45876 41.63600 94.38930
#
# Poissons Ratio (x) = 0.21766 0.59247
# Poissons Ratio (y) = 0.34219 0.02236
# Poissons Ratio (z) = 0.41088 0.00986
#
# Static dielectric constant tensor:
#      x y z
#    x 1.780710 0.000000 0.000000 
#    y 0.000000 1.832500 0.000000 
#    z 0.000000 0.000000 2.223420 
# 
# From -- ./inp_files/15894.got.cif
#   From: 2010.05.17/outbox.cif.g08.bks.cpg/sg24_8_cif.got.tgz:15894.got - 2010.06.04 00:33:39.
