data_PCOD9336280
_publ_section_title
;
Structure prediction by ZEFSAII (Michael W. Deem and Ramdas Pophale) SiO2 
 PCOD9336280
Probable space group: I 21 21 21
;
_chemical_formula_sum "Si O2"
_cell_formula_units_Z 24
_cell_length_a 13.160035
_cell_length_b 10.833043
_cell_length_c 7.399650
_cell_angle_alpha 90.000000
_cell_angle_beta 90.000000
_cell_angle_gamma 90.000000
_cell_volume 1054.917968
_symmetry_space_group_name_H-M "I 21 21 21"
_symmetry_group_IT_number 24
_symmetry_cell_setting 'orthorhombic'
loop_
_space_group_symop_operation_xyz
x,y,z
-x,1/2-y,z
x,-y,1/2-z
1/2-x,y,-z
1/2+x,1/2+y,1/2+z
1/2-x,-y,1/2+z
1/2+x,1/2-y,-z
-x,1/2+y,1/2-z
loop_
_atom_site_type_symbol
_atom_site_label
_atom_site_fract_x
_atom_site_fract_y
_atom_site_fract_z
Si Si1 0.500000 0.750000 0.955437
Si Si2 0.443432 0.871392 0.296047
Si Si3 0.250000 0.825588 0.500000
Si Si4 0.811153 0.137483 0.314960
O O1 0.424324 0.819718 0.094079
O O2 0.431266 0.656568 0.846319
O O3 0.500000 0.750000 0.378337
O O4 0.346596 0.898557 0.420474
O O5 0.500904 0.000000 0.250000
O O6 0.280346 0.736879 0.665198
O O7 0.750000 0.154662 0.500000
O O8 0.789362 0.000000 0.250000
#
# Coordination Sequence:
#
# PCOD9336280 Si02
#       4
#     4   8   4   8
#     4  10  26  42  70 108 150 182 256 314 362 446
#     4  10  25  47  74 106 150 195 255 306 375 452
#     4  12  26  42  76 108 150 200 248 312 388 438
#     4  12  25  46  74 111 151 199 256 313 377 458
#
# _framework density 22.750585000000001
#
# number of rings (size 3 to 8) (size 9 to 14) (size 15 to 20)
#    1.000    0.000    5.000    0.000    7.000    5.333 
#    0.000    0.000    0.000    0.000    0.000    0.000 
#    0.000    0.000    0.000    0.000    0.000    0.000 
#
# Total GULP energy -66873.103438 kJ/mol
# GULP energy per Si atom -5572.758620 kJ/mol
# Density = 2.269880 g / cm^3
# Si number density = 22.750585 Si / 1000 Ang^3
#
#
#
# Elastic Constant Matrix: (Units=GPa)
#
#
# Indices 1 2 3 4 5 6 
#
# 1 89.5106 20.5735 34.6753 0.0000 0.0000 0.0000
# 2 20.5735 103.5826 16.7398 0.0000 0.0000 0.0000
# 3 34.6753 16.7398 113.2827 0.0000 0.0000 0.0000
# 4 0.0000 0.0000 0.0000 20.8281 0.0000 0.0000
# 5 0.0000 0.0000 0.0000 0.0000 33.0957 0.0000
# 6 0.0000 0.0000 0.0000 0.0000 0.0000 14.4200
#
#
#
# Elastic Compliance Matrix: (Units=1/GPa)
#
#
# Indices 1 2 3 4 5 6 
#
# 1 0.013066 -0.001996 -0.003704 0.000000 0.000000 0.000000
# 2 -0.001996 0.010195 -0.000895 0.000000 0.000000 0.000000
# 3 -0.003704 -0.000895 0.010094 0.000000 0.000000 0.000000
# 4 0.000000 0.000000 0.000000 0.048012 0.000000 0.000000
# 5 0.000000 0.000000 0.000000 0.000000 0.030215 0.000000
# 6 0.000000 0.000000 0.000000 0.000000 0.000000 0.069348
#
#
# Mechanical properties :
#
#
# Convention : Reuss Voigt Hill
#
# Bulk Modulus (GPa) = 49.59758 50.03922 49.81840
# Shear Modulus (GPa) = 24.89500 29.29458 27.09479
#
# Velocity S-wave (km/s) = 3.31155 3.59226 3.45476
# Velocity P-wave (km/s) = 6.03901 6.26484 6.15296
#
# Compressibility (1/GPa) = 0.02016227
#
# Stress axis : x y z
#
# Youngs Moduli (GPa) = 76.53589 98.08359 99.07183
#
# Poissons Ratio (x) = 0.19582 0.36700
# Poissons Ratio (y) = 0.15280 0.08872
# Poissons Ratio (z) = 0.28352 0.08783
#
# Static dielectric constant tensor:
#      x y z
#    x 1.927390 0.000000 0.000000 
#    y 0.000000 1.916260 0.000000 
#    z 0.000000 0.000000 1.824340 
# 
# From -- ./inp_files/10043.got.cif
#   From: 2010.05.17/outbox.cif.g08.bks.cpg/sg24_6_cif.got.tgz:10043.got - 2010.06.04 00:33:39.
