data_PCOD9336987
_publ_section_title
;
Structure prediction by ZEFSAII (Michael W. Deem and Ramdas Pophale) SiO2 
 PCOD9336987
Probable space group: I 21 21 21
;
_chemical_formula_sum "Si O2"
_cell_formula_units_Z 32
_cell_length_a 12.674736
_cell_length_b 7.260754
_cell_length_c 12.958781
_cell_angle_alpha 90.000000
_cell_angle_beta 90.000000
_cell_angle_gamma 90.000000
_cell_volume 1192.572514
_symmetry_space_group_name_H-M "I 21 21 21"
_symmetry_group_IT_number 24
_symmetry_cell_setting 'orthorhombic'
loop_
_space_group_symop_operation_xyz
x,y,z
-x,1/2-y,z
x,-y,1/2-z
1/2-x,y,-z
1/2+x,1/2+y,1/2+z
1/2-x,-y,1/2+z
1/2+x,1/2-y,-z
-x,1/2+y,1/2-z
loop_
_atom_site_type_symbol
_atom_site_label
_atom_site_fract_x
_atom_site_fract_y
_atom_site_fract_z
Si Si1 0.731439 0.763094 0.354402
Si Si2 0.250000 0.595156 0.000000
Si Si3 0.602657 0.576876 0.061818
Si Si4 0.057264 0.500000 0.750000
Si Si5 0.056265 0.924920 0.351019
O O1 0.674836 0.604702 0.422256
O O2 0.832018 0.656757 0.310475
O O3 0.777048 0.944629 0.411772
O O4 0.636630 0.837138 0.283844
O O5 0.169816 0.735443 0.943967
O O6 0.484067 0.948272 0.151681
O O7 0.562399 0.564448 0.944518
O O8 0.000000 0.750000 0.398866
O O9 0.999375 0.000000 0.250000
#
# Coordination Sequence:
#
# PCOD9336987 Si02
#       5
#     8   4   8   4   8
#     4  12  28  55  81 131 175 224 295 368 435 528
#     4  12  26  50  84 122 182 232 268 360 466 498
#     4  12  28  56  80 134 175 224 293 371 430 526
#     4  12  32  50  98 126 180 232 296 372 444 510
#     4  12  29  56  84 117 179 230 290 359 440 531
#
# _framework density 26.832750999999998
#
# number of rings (size 3 to 8) (size 9 to 14) (size 15 to 20)
#    0.000    0.000    5.000    2.250   14.000    0.000 
#    0.000    0.000    0.000    0.000    0.000    0.000 
#    0.000    0.000    0.000    0.000    0.000    0.000 
#
# Total GULP energy -89544.832792 kJ/mol
# GULP energy per Si atom -5596.552049 kJ/mol
# Density = 2.677168 g / cm^3
# Si number density = 26.832751 Si / 1000 Ang^3
#
#
#
# Elastic Constant Matrix: (Units=GPa)
#
#
# Indices 1 2 3 4 5 6 
#
# 1 127.6877 57.3450 46.7712 0.0000 0.0000 0.0000
# 2 57.3450 204.1520 62.3260 0.0000 0.0000 0.0000
# 3 46.7712 62.3260 110.5598 0.0000 0.0000 0.0000
# 4 0.0000 0.0000 0.0000 65.0714 0.0000 0.0000
# 5 0.0000 0.0000 0.0000 0.0000 32.7428 0.0000
# 6 0.0000 0.0000 0.0000 0.0000 0.0000 43.7608
#
#
#
# Elastic Compliance Matrix: (Units=1/GPa)
#
#
# Indices 1 2 3 4 5 6 
#
# 1 0.009782 -0.001793 -0.003128 0.000000 0.000000 0.000000
# 2 -0.001793 0.006245 -0.002762 0.000000 0.000000 0.000000
# 3 -0.003128 -0.002762 0.011925 0.000000 0.000000 0.000000
# 4 0.000000 0.000000 0.000000 0.015368 0.000000 0.000000
# 5 0.000000 0.000000 0.000000 0.000000 0.030541 0.000000
# 6 0.000000 0.000000 0.000000 0.000000 0.000000 0.022852
#
#
# Mechanical properties :
#
#
# Convention : Reuss Voigt Hill
#
# Bulk Modulus (GPa) = 79.44503 86.14265 82.79384
# Shear Modulus (GPa) = 43.00180 46.71216 44.85698
#
# Velocity S-wave (km/s) = 4.00757 4.17689 4.09311
# Velocity P-wave (km/s) = 7.14744 7.44548 7.29798
#
# Compressibility (1/GPa) = 0.01258732
#
# Stress axis : x y z
#
# Youngs Moduli (GPa) = 102.22360 160.12291 83.85703
#
# Poissons Ratio (x) = 0.28710 0.26227
# Poissons Ratio (y) = 0.18329 0.23162
# Poissons Ratio (z) = 0.31971 0.44228
#
# Static dielectric constant tensor:
#      x y z
#    x 2.140820 0.000000 0.000000 
#    y 0.000000 2.065670 0.000000 
#    z 0.000000 0.000000 2.068240 
# 
# From -- ./inp_files/26832.got.cif
#   From: 2010.05.17/outbox.cif.g08.bks.cpg/sg24_14_cif.got.tgz:26832.got - 2010.06.04 00:33:39.
