data_PCOD9336877
_publ_section_title
;
Structure prediction by ZEFSAII (Michael W. Deem and Ramdas Pophale) SiO2 
 PCOD9336877
Probable space group: I 21 21 21
;
_chemical_formula_sum "Si O2"
_cell_formula_units_Z 56
_cell_length_a 12.340898
_cell_length_b 15.495276
_cell_length_c 13.251568
_cell_angle_alpha 90.000000
_cell_angle_beta 90.000000
_cell_angle_gamma 90.000000
_cell_volume 2534.039315
_symmetry_space_group_name_H-M "I 21 21 21"
_symmetry_group_IT_number 24
_symmetry_cell_setting 'orthorhombic'
loop_
_space_group_symop_operation_xyz
x,y,z
-x,1/2-y,z
x,-y,1/2-z
1/2-x,y,-z
1/2+x,1/2+y,1/2+z
1/2-x,-y,1/2+z
1/2+x,1/2-y,-z
-x,1/2+y,1/2-z
loop_
_atom_site_type_symbol
_atom_site_label
_atom_site_fract_x
_atom_site_fract_y
_atom_site_fract_z
Si Si1 0.671626 0.598991 0.214896
Si Si2 0.048478 0.338146 0.627836
Si Si3 0.261367 0.628720 0.268538
Si Si4 0.081305 0.500000 0.250000
Si Si5 0.795810 0.708038 0.386920
Si Si6 0.454075 0.926835 0.564199
Si Si7 0.250000 0.044185 0.500000
Si Si8 0.361436 0.517452 0.437778
O O1 0.670891 0.500000 0.250000
O O2 0.549447 0.632004 0.200104
O O3 0.731330 0.651463 0.303293
O O4 0.726213 0.598284 0.102527
O O5 0.158145 0.323341 0.691882
O O6 0.082471 0.422974 0.564609
O O7 0.000000 0.250000 0.579391
O O8 0.161112 0.578329 0.219879
O O9 0.211861 0.695563 0.347405
O O10 0.329620 0.558389 0.331215
O O11 0.007110 0.476737 0.156818
O O12 0.750000 0.703606 0.500000
O O13 0.911804 0.663897 0.396145
O O14 0.353433 0.982471 0.521076
O O15 0.548904 0.919551 0.483576
O O16 0.250000 0.513670 0.500000
#
# Coordination Sequence:
#
# PCOD9336877 Si02
#       8
#     8   8   8   4   8   8   4   8
#     4  12  23  44  73 105 154 198 249 321 390 463
#     4  12  25  44  73 110 143 198 260 312 372 453
#     4  12  25  47  74 109 154 201 256 313 389 473
#     4  12  26  48  72 102 152 212 250 308 398 468
#     4  12  27  46  74 118 154 188 253 332 390 453
#     4  12  24  45  74 107 148 198 258 316 389 462
#     4  12  24  44  74 110 146 208 254 314 404 460
#     4  12  24  48  77 102 151 207 251 310 385 472
#
# _framework density 22.099105999999999
#
# number of rings (size 3 to 8) (size 9 to 14) (size 15 to 20)
#    0.000    0.000    7.857    2.143    2.000    0.571 
#    1.286    0.000    0.000    0.000    0.000    0.000 
#    0.000    0.000    0.000    0.000    0.000    0.000 
#
# Total GULP energy -156596.278466 kJ/mol
# GULP energy per Si atom -5592.724231 kJ/mol
# Density = 2.204881 g / cm^3
# Si number density = 22.099106 Si / 1000 Ang^3
#
#
#
# Elastic Constant Matrix: (Units=GPa)
#
#
# Indices 1 2 3 4 5 6 
#
# 1 137.3162 40.2868 35.3119 0.0000 0.0000 0.0000
# 2 40.2868 103.6223 17.0115 0.0000 0.0000 0.0000
# 3 35.3119 17.0115 75.0162 0.0000 0.0000 0.0000
# 4 0.0000 0.0000 0.0000 23.5377 0.0000 0.0000
# 5 0.0000 0.0000 0.0000 0.0000 111.5170 0.0000
# 6 0.0000 0.0000 0.0000 0.0000 0.0000 52.4673
#
#
#
# Elastic Compliance Matrix: (Units=1/GPa)
#
#
# Indices 1 2 3 4 5 6 
#
# 1 0.009070 -0.002935 -0.003604 0.000000 0.000000 0.000000
# 2 -0.002935 0.010973 -0.001107 0.000000 0.000000 0.000000
# 3 -0.003604 -0.001107 0.015278 0.000000 0.000000 0.000000
# 4 0.000000 0.000000 0.000000 0.042485 0.000000 0.000000
# 5 0.000000 0.000000 0.000000 0.000000 0.008967 0.000000
# 6 0.000000 0.000000 0.000000 0.000000 0.000000 0.019060
#
#
# Mechanical properties :
#
#
# Convention : Reuss Voigt Hill
#
# Bulk Modulus (GPa) = 49.92530 55.68612 52.80571
# Shear Modulus (GPa) = 39.12321 52.39402 45.75861
#
# Velocity S-wave (km/s) = 4.21212 4.87444 4.55533
# Velocity P-wave (km/s) = 6.80416 7.54541 7.18435
#
# Compressibility (1/GPa) = 0.02002993
#
# Stress axis : x y z
#
# Youngs Moduli (GPa) = 110.25001 91.13165 65.45352
#
# Poissons Ratio (x) = 0.26745 0.23590
# Poissons Ratio (y) = 0.32355 0.07245
# Poissons Ratio (z) = 0.39735 0.10088
#
# Static dielectric constant tensor:
#      x y z
#    x 1.796270 0.000000 0.000000 
#    y 0.000000 1.373370 0.000000 
#    z 0.000000 0.000000 1.722980 
# 
# From -- ./inp_files/25857.got.cif
#   From: 2010.05.17/outbox.cif.g08.bks.cpg/sg24_13_cif.got.tgz:25857.got - 2010.06.04 00:33:39.
