data_PCOD9336201
_publ_section_title
;
Structure prediction by ZEFSAII (Michael W. Deem and Ramdas Pophale) SiO2 
 PCOD9336201
Probable space group: I 21 21 21
;
_chemical_formula_sum "Si O2"
_cell_formula_units_Z 44
_cell_length_a 27.481391
_cell_length_b 9.660462
_cell_length_c 8.118029
_cell_angle_alpha 90.000000
_cell_angle_beta 90.000000
_cell_angle_gamma 90.000000
_cell_volume 2155.198153
_symmetry_space_group_name_H-M "I 21 21 21"
_symmetry_group_IT_number 24
_symmetry_cell_setting 'orthorhombic'
loop_
_space_group_symop_operation_xyz
x,y,z
-x,1/2-y,z
x,-y,1/2-z
1/2-x,y,-z
1/2+x,1/2+y,1/2+z
1/2-x,-y,1/2+z
1/2+x,1/2-y,-z
-x,1/2+y,1/2-z
loop_
_atom_site_type_symbol
_atom_site_label
_atom_site_fract_x
_atom_site_fract_y
_atom_site_fract_z
Si Si1 0.052121 0.697788 0.162982
Si Si2 0.963235 0.500000 0.750000
Si Si3 0.550828 0.916598 0.472787
Si Si4 0.852059 0.843010 0.722478
Si Si5 0.118593 0.127180 0.513216
Si Si6 0.302816 0.084837 0.078302
O O1 0.063411 0.571324 0.039037
O O2 0.046735 0.658721 0.352894
O O3 0.000000 0.750000 0.104670
O O4 0.093190 0.812677 0.146783
O O5 0.925949 0.417661 0.633089
O O6 0.000790 0.581012 0.630517
O O7 0.594676 0.860255 0.361386
O O8 0.855664 0.753763 0.890084
O O9 0.820022 0.742050 0.608097
O O10 0.834032 0.000000 0.750000
O O11 0.155202 0.001368 0.485065
O O12 0.300943 0.000000 0.250000
O O13 0.250000 0.079481 0.000000
#
# Coordination Sequence:
#
# PCOD9336201 Si02
#       6
#     8   4   8   8   8   8
#     4  11  23  38  53  93 143 181 220 280 329 404
#     4  12  20  40  64  96 132 196 228 266 328 440
#     4  11  24  35  60  94 139 180 224 268 344 404
#     4  11  21  41  67  97 128 172 227 274 335 429
#     4  11  22  41  65  94 134 177 237 273 339 409
#     4  10  24  46  71  98 125 171 233 296 346 405
#
# _framework density 20.415756999999999
#
# number of rings (size 3 to 8) (size 9 to 14) (size 15 to 20)
#    0.000    1.091    7.273    0.000    2.545    1.455 
#    0.000    3.636    4.000    0.000    0.000    0.000 
#    0.000    0.000    0.000    0.000    0.000    0.000 
#
# Total GULP energy -122852.736927 kJ/mol
# GULP energy per Si atom -5584.215315 kJ/mol
# Density = 2.036929 g / cm^3
# Si number density = 20.415757 Si / 1000 Ang^3
#
#
#
# Elastic Constant Matrix: (Units=GPa)
#
#
# Indices 1 2 3 4 5 6 
#
# 1 120.6295 71.6085 28.7019 0.0000 0.0000 0.0000
# 2 71.6085 141.0203 23.1954 0.0000 0.0000 0.0000
# 3 28.7019 23.1954 26.9203 0.0000 0.0000 0.0000
# 4 0.0000 0.0000 0.0000 17.9746 0.0000 0.0000
# 5 0.0000 0.0000 0.0000 0.0000 38.6008 0.0000
# 6 0.0000 0.0000 0.0000 0.0000 0.0000 28.8333
#
#
#
# Elastic Compliance Matrix: (Units=1/GPa)
#
#
# Indices 1 2 3 4 5 6 
#
# 1 0.013914 -0.005389 -0.010191 0.000000 0.000000 0.000000
# 2 -0.005389 0.010349 -0.003172 0.000000 0.000000 0.000000
# 3 -0.010191 -0.003172 0.050745 0.000000 0.000000 0.000000
# 4 0.000000 0.000000 0.000000 0.055634 0.000000 0.000000
# 5 0.000000 0.000000 0.000000 0.000000 0.025906 0.000000
# 6 0.000000 0.000000 0.000000 0.000000 0.000000 0.034682
#
#
# Mechanical properties :
#
#
# Convention : Reuss Voigt Hill
#
# Bulk Modulus (GPa) = 26.66350 59.50909 43.08630
# Shear Modulus (GPa) = 20.72660 28.08602 24.40631
#
# Velocity S-wave (km/s) = 3.18972 3.71307 3.46130
# Velocity P-wave (km/s) = 5.16278 6.89887 6.09298
#
# Compressibility (1/GPa) = 0.03750445
#
# Stress axis : x y z
#
# Youngs Moduli (GPa) = 71.87172 96.62491 19.70628
#
# Poissons Ratio (x) = 0.52070 0.20083
# Poissons Ratio (y) = 0.38731 0.06250
# Poissons Ratio (z) = 0.73246 0.30647
#
# Static dielectric constant tensor:
#      x y z
#    x 1.711410 0.000000 0.000000 
#    y 0.000000 1.795880 0.000000 
#    z 0.000000 0.000000 1.746450 
# 
# From -- ./inp_files/16723.got.cif
#   From: 2010.05.17/outbox.cif.g08.bks.cpg/sg24_9_cif.got.tgz:16723.got - 2010.06.04 00:33:39.
