data_PCOD9336102
_publ_section_title
;
Structure prediction by ZEFSAII (Michael W. Deem and Ramdas Pophale) SiO2 
 PCOD9336102
Probable space group: I 21 21 21
;
_chemical_formula_sum "Si O2"
_cell_formula_units_Z 52
_cell_length_a 12.127803
_cell_length_b 14.086695
_cell_length_c 16.014583
_cell_angle_alpha 90.000000
_cell_angle_beta 90.000000
_cell_angle_gamma 90.000000
_cell_volume 2735.941959
_symmetry_space_group_name_H-M "I 21 21 21"
_symmetry_group_IT_number 24
_symmetry_cell_setting 'orthorhombic'
loop_
_space_group_symop_operation_xyz
x,y,z
-x,1/2-y,z
x,-y,1/2-z
1/2-x,y,-z
1/2+x,1/2+y,1/2+z
1/2-x,-y,1/2+z
1/2+x,1/2-y,-z
-x,1/2+y,1/2-z
loop_
_atom_site_type_symbol
_atom_site_label
_atom_site_fract_x
_atom_site_fract_y
_atom_site_fract_z
Si Si1 0.913947 0.484027 0.651324
Si Si2 0.661548 0.584075 0.877398
Si Si3 0.168121 0.700838 0.098680
Si Si4 0.000000 0.250000 0.108587
Si Si5 0.032564 0.392193 0.255342
Si Si6 0.620586 0.593277 0.506848
Si Si7 0.916517 0.837816 0.923680
O O1 0.922020 0.500000 0.750000
O O2 0.790538 0.440702 0.635579
O O3 0.921480 0.571837 0.586538
O O4 0.014168 0.418374 0.621459
O O5 0.654657 0.687131 0.920480
O O6 0.592755 0.596989 0.791402
O O7 0.606797 0.500677 0.933446
O O8 0.097903 0.667816 0.176499
O O9 0.297130 0.683826 0.115895
O O10 0.119904 0.644523 0.019459
O O11 0.956464 0.167951 0.171096
O O12 0.922931 0.312087 0.049341
O O13 0.074969 0.500000 0.250000
O O14 0.750000 0.603088 0.500000
O O15 0.000000 0.750000 0.922612
#
# Coordination Sequence:
#
# PCOD9336102 Si02
#       7
#     8   8   8   4   8   8   8
#     4  11  24  41  68  95 131 177 227 277 328 399
#     4  11  20  40  69 103 127 163 225 291 328 384
#     4  11  23  37  65  98 133 171 214 281 345 397
#     4  12  24  42  66  98 136 176 214 280 340 396
#     4  12  23  38  66 101 133 166 221 278 335 403
#     4  10  24  42  67  96 133 177 223 275 341 399
#     4  11  22  40  61  93 133 169 212 272 341 393
#
# _framework density 19.006250000000001
#
# number of rings (size 3 to 8) (size 9 to 14) (size 15 to 20)
#    0.000    0.923    4.615    3.231    6.462    0.615 
#    1.385    1.538    0.000    0.000    0.000    0.000 
#    0.000    0.000    0.000    0.000    0.000    0.000 
#
# Total GULP energy -145044.820543 kJ/mol
# GULP energy per Si atom -5578.646944 kJ/mol
# Density = 1.896299 g / cm^3
# Si number density = 19.006250 Si / 1000 Ang^3
#
#
#
# Elastic Constant Matrix: (Units=GPa)
#
#
# Indices 1 2 3 4 5 6 
#
# 1 105.2480 42.1571 30.4991 0.0000 0.0000 0.0000
# 2 42.1571 116.3878 58.2400 0.0000 0.0000 0.0000
# 3 30.4991 58.2400 111.0676 0.0000 0.0000 0.0000
# 4 0.0000 0.0000 0.0000 28.7681 0.0000 0.0000
# 5 0.0000 0.0000 0.0000 0.0000 15.3005 0.0000
# 6 0.0000 0.0000 0.0000 0.0000 0.0000 29.0780
#
#
#
# Elastic Compliance Matrix: (Units=1/GPa)
#
#
# Indices 1 2 3 4 5 6 
#
# 1 0.011249 -0.003428 -0.001291 0.000000 0.000000 0.000000
# 2 -0.003428 0.012693 -0.005714 0.000000 0.000000 0.000000
# 3 -0.001291 -0.005714 0.012355 0.000000 0.000000 0.000000
# 4 0.000000 0.000000 0.000000 0.034761 0.000000 0.000000
# 5 0.000000 0.000000 0.000000 0.000000 0.065357 0.000000
# 6 0.000000 0.000000 0.000000 0.000000 0.000000 0.034390
#
#
# Mechanical properties :
#
#
# Convention : Reuss Voigt Hill
#
# Bulk Modulus (GPa) = 64.81495 66.05511 65.43503
# Shear Modulus (GPa) = 25.40447 28.08312 26.74380
#
# Velocity S-wave (km/s) = 3.65997 3.84809 3.75521
# Velocity P-wave (km/s) = 7.21363 7.38740 7.30103
#
# Compressibility (1/GPa) = 0.01542854
#
# Stress axis : x y z
#
# Youngs Moduli (GPa) = 88.89869 78.78205 80.94174
#
# Poissons Ratio (x) = 0.27009 0.10451
# Poissons Ratio (y) = 0.30477 0.46254
# Poissons Ratio (z) = 0.11479 0.45020
#
# Static dielectric constant tensor:
#      x y z
#    x 1.674130 0.000000 0.000000 
#    y 0.000000 1.739470 0.000000 
#    z 0.000000 0.000000 1.715650 
# 
# From -- ./inp_files/30311.got.cif
#   From: 2010.05.17/outbox.cif.g08.bks.cpg/sg24_16_cif.got.tgz:30311.got - 2010.06.04 00:33:39.
