data_PCOD9336144
_publ_section_title
;
Structure prediction by ZEFSAII (Michael W. Deem and Ramdas Pophale) SiO2 
 PCOD9336144
Probable space group: I 21 21 21
;
_chemical_formula_sum "Si O2"
_cell_formula_units_Z 56
_cell_length_a 14.577399
_cell_length_b 14.817308
_cell_length_c 13.047297
_cell_angle_alpha 90.000000
_cell_angle_beta 90.000000
_cell_angle_gamma 90.000000
_cell_volume 2818.187589
_symmetry_space_group_name_H-M "I 21 21 21"
_symmetry_group_IT_number 24
_symmetry_cell_setting 'orthorhombic'
loop_
_space_group_symop_operation_xyz
x,y,z
-x,1/2-y,z
x,-y,1/2-z
1/2-x,y,-z
1/2+x,1/2+y,1/2+z
1/2-x,-y,1/2+z
1/2+x,1/2-y,-z
-x,1/2+y,1/2-z
loop_
_atom_site_type_symbol
_atom_site_label
_atom_site_fract_x
_atom_site_fract_y
_atom_site_fract_z
Si Si1 0.903586 0.407207 0.317087
Si Si2 0.750000 0.007745 0.000000
Si Si3 0.469809 0.037610 0.464961
Si Si4 0.306154 0.910071 0.185472
Si Si5 0.394089 0.745282 0.297462
Si Si6 0.422718 0.361899 0.996600
Si Si7 0.000000 0.250000 0.187690
Si Si8 0.356110 0.421199 0.331846
O O1 0.907425 0.500000 0.250000
O O2 0.960527 0.427422 0.419707
O O3 0.797575 0.387373 0.347052
O O4 0.943406 0.321756 0.255254
O O5 0.662437 0.070973 0.985626
O O6 0.770222 0.947511 0.901182
O O7 0.378551 0.067142 0.404129
O O8 0.555519 0.081570 0.405431
O O9 0.493597 0.929366 0.469540
O O10 0.346141 0.836772 0.264616
O O11 0.298019 0.000000 0.250000
O O12 0.500000 0.750000 0.263951
O O13 0.399082 0.710280 0.414401
O O14 0.344517 0.668488 0.231924
O O15 0.440781 0.310472 0.891333
O O16 0.374509 0.500000 0.250000
#
# Coordination Sequence:
#
# PCOD9336144 Si02
#       8
#     8   4   8   8   8   8   4   8
#     4  11  26  46  64 100 138 188 232 280 357 424
#     4  10  24  44  66 104 142 178 232 292 354 420
#     4  11  21  46  69  95 135 185 230 285 352 411
#     4  11  25  42  69 101 141 181 229 299 343 419
#     4  12  22  41  71 108 135 174 239 294 353 408
#     4  11  24  43  75 104 132 190 239 291 350 412
#     4  12  26  46  70  98 144 184 240 288 354 428
#     4  11  22  43  69 103 141 176 233 288 358 413
#
# _framework density 19.870926999999998
#
# number of rings (size 3 to 8) (size 9 to 14) (size 15 to 20)
#    0.000    0.857    6.429    1.714    2.000    1.143 
#   12.857    0.000    0.000    0.000    0.000    0.000 
#    0.000    0.000    0.000    0.000    0.000    0.000 
#
# Total GULP energy -156372.781049 kJ/mol
# GULP energy per Si atom -5584.742180 kJ/mol
# Density = 1.982570 g / cm^3
# Si number density = 19.870927 Si / 1000 Ang^3
#
#
#
# Elastic Constant Matrix: (Units=GPa)
#
#
# Indices 1 2 3 4 5 6 
#
# 1 83.9758 47.3398 47.1686 0.0000 0.0000 0.0000
# 2 47.3398 117.7566 46.6763 0.0000 0.0000 0.0000
# 3 47.1686 46.6763 129.5642 0.0000 0.0000 0.0000
# 4 0.0000 0.0000 0.0000 106.5235 0.0000 0.0000
# 5 0.0000 0.0000 0.0000 0.0000 34.9348 0.0000
# 6 0.0000 0.0000 0.0000 0.0000 0.0000 34.8001
#
#
#
# Elastic Compliance Matrix: (Units=1/GPa)
#
#
# Indices 1 2 3 4 5 6 
#
# 1 0.017337 -0.005212 -0.004434 0.000000 0.000000 0.000000
# 2 -0.005212 0.011474 -0.002236 0.000000 0.000000 0.000000
# 3 -0.004434 -0.002236 0.010138 0.000000 0.000000 0.000000
# 4 0.000000 0.000000 0.000000 0.009388 0.000000 0.000000
# 5 0.000000 0.000000 0.000000 0.000000 0.028625 0.000000
# 6 0.000000 0.000000 0.000000 0.000000 0.000000 0.028736
#
#
# Mechanical properties :
#
#
# Convention : Reuss Voigt Hill
#
# Bulk Modulus (GPa) = 65.85663 68.18511 67.02087
# Shear Modulus (GPa) = 37.16862 47.92580 42.54721
#
# Velocity S-wave (km/s) = 4.32962 4.91639 4.63231
# Velocity P-wave (km/s) = 7.62944 8.16189 7.90015
#
# Compressibility (1/GPa) = 0.01518450
#
# Stress axis : x y z
#
# Youngs Moduli (GPa) = 57.68028 87.15540 98.63985
#
# Poissons Ratio (x) = 0.45427 0.43736
# Poissons Ratio (y) = 0.30064 0.22056
# Poissons Ratio (z) = 0.25575 0.19488
#
# Static dielectric constant tensor:
#      x y z
#    x 1.707500 0.000000 0.000000 
#    y 0.000000 1.669660 0.000000 
#    z 0.000000 0.000000 1.677640 
# 
# From -- ./inp_files/20911.got.cif
#   From: 2010.05.17/outbox.cif.g08.bks.cpg/sg24_11_cif.got.tgz:20911.got - 2010.06.04 00:33:39.
