data_PCOD9336720
_publ_section_title
;
Structure prediction by ZEFSAII (Michael W. Deem and Ramdas Pophale) SiO2 
 PCOD9336720
Probable space group: I 21 21 21
;
_chemical_formula_sum "Si O2"
_cell_formula_units_Z 32
_cell_length_a 31.460751
_cell_length_b 8.804238
_cell_length_c 5.122422
_cell_angle_alpha 90.000000
_cell_angle_beta 90.000000
_cell_angle_gamma 90.000000
_cell_volume 1418.849115
_symmetry_space_group_name_H-M "I 21 21 21"
_symmetry_group_IT_number 24
_symmetry_cell_setting 'orthorhombic'
loop_
_space_group_symop_operation_xyz
x,y,z
-x,1/2-y,z
x,-y,1/2-z
1/2-x,y,-z
1/2+x,1/2+y,1/2+z
1/2-x,-y,1/2+z
1/2+x,1/2-y,-z
-x,1/2+y,1/2-z
loop_
_atom_site_type_symbol
_atom_site_label
_atom_site_fract_x
_atom_site_fract_y
_atom_site_fract_z
Si Si1 0.032079 0.109231 0.002647
Si Si2 0.375707 0.170874 0.147251
Si Si3 0.165647 0.397309 0.504723
Si Si4 0.711073 0.324196 0.821997
O O1 0.000000 0.250000 0.997135
O O2 0.026195 0.000000 0.250000
O O3 0.079816 0.178421 0.001168
O O4 0.027848 0.000000 0.750000
O O5 0.372260 0.292219 0.381851
O O6 0.372991 0.000000 0.250000
O O7 0.333833 0.189029 0.972521
O O8 0.155795 0.500000 0.250000
O O9 0.202758 0.281422 0.425544
O O10 0.178193 0.500000 0.750000
O O11 0.717725 0.500000 0.750000
O O12 0.750000 0.273981 0.000000
#
# Coordination Sequence:
#
# PCOD9336720 Si02
#       4
#     8   8   8   8
#     4  11  26  49  78 113 153 196 249 316 381 453
#     4  11  24  48  78 106 152 204 254 304 375 450
#     4  12  27  49  72 112 153 197 249 317 378 437
#     4  12  26  47  79 111 146 203 261 309 358 460
#
# _framework density 22.553491000000001
#
# number of rings (size 3 to 8) (size 9 to 14) (size 15 to 20)
#    0.000    0.500    5.000    2.250    3.500    1.000 
#    9.000    0.000    0.000    0.000    0.000    0.000 
#    0.000    0.000    0.000    0.000    0.000    0.000 
#
# Total GULP energy -89581.178784 kJ/mol
# GULP energy per Si atom -5598.823674 kJ/mol
# Density = 2.250216 g / cm^3
# Si number density = 22.553491 Si / 1000 Ang^3
#
#
#
# Elastic Constant Matrix: (Units=GPa)
#
#
# Indices 1 2 3 4 5 6 
#
# 1 162.9789 49.2709 54.0217 -0.0001 0.0000 0.0000
# 2 49.2709 152.0699 74.6447 -0.0002 0.0000 0.0001
# 3 54.0217 74.6447 165.4475 -0.0002 0.0000 0.0001
# 4 -0.0001 -0.0002 -0.0002 50.5742 0.0000 0.0001
# 5 0.0000 0.0000 0.0000 0.0000 23.4264 0.0000
# 6 0.0000 0.0001 0.0001 0.0001 0.0000 -36.7516
#
#
#
# Elastic Compliance Matrix: (Units=1/GPa)
#
#
# Indices 1 2 3 4 5 6 
#
# 1 0.007138 -0.001501 -0.001653 0.000000 0.000000 0.000000
# 2 -0.001501 0.008762 -0.003463 0.000000 0.000000 0.000000
# 3 -0.001653 -0.003463 0.008146 0.000000 0.000000 0.000000
# 4 0.000000 0.000000 0.000000 0.019773 0.000000 0.000000
# 5 0.000000 0.000000 0.000000 0.000000 0.042687 0.000000
# 6 0.000000 0.000000 0.000000 0.000000 0.000000 -0.027210
#
#
# Mechanical properties :
#
#
# Convention : Reuss Voigt Hill
#
# Bulk Modulus (GPa) = 92.49581 92.93011 92.71296
# Shear Modulus (GPa) = 65.67288 27.62040 46.64664
#
# Velocity S-wave (km/s) = 5.40203 3.50331 4.55275
# Velocity P-wave (km/s) = 8.94483 7.59329 8.29663
#
# Compressibility (1/GPa) = 0.01081130
#
# Stress axis : x y z
#
# Youngs Moduli (GPa) = 140.10368 114.12732 122.75225
#
# Poissons Ratio (x) = 0.17131 0.20295
# Poissons Ratio (y) = 0.21030 0.42510
# Poissons Ratio (z) = 0.23164 0.39523
#
# Static dielectric constant tensor:
#      x y z
#    x 1.826840 0.000000 0.000000 
#    y 0.000000 1.851200 0.000000 
#    z 0.000000 0.000000 1.945410 
# 
# From -- ./inp_files/1148.got.cif
#   From: 2010.05.17/outbox.cif.g08.bks.cpg/sg24_1_cif.got.tgz:1148.got - 2010.06.04 00:33:39.
