data_PCOD9336712
_publ_section_title
;
Structure prediction by ZEFSAII (Michael W. Deem and Ramdas Pophale) SiO2 
 PCOD9336712
Probable space group: I 21 21 21
;
_chemical_formula_sum "Si O2"
_cell_formula_units_Z 48
_cell_length_a 27.201788
_cell_length_b 14.609484
_cell_length_c 5.140632
_cell_angle_alpha 90.000000
_cell_angle_beta 90.000000
_cell_angle_gamma 90.000000
_cell_volume 2042.908164
_symmetry_space_group_name_H-M "I 21 21 21"
_symmetry_group_IT_number 24
_symmetry_cell_setting 'orthorhombic'
loop_
_space_group_symop_operation_xyz
x,y,z
-x,1/2-y,z
x,-y,1/2-z
1/2-x,y,-z
1/2+x,1/2+y,1/2+z
1/2-x,-y,1/2+z
1/2+x,1/2-y,-z
-x,1/2+y,1/2-z
loop_
_atom_site_type_symbol
_atom_site_label
_atom_site_fract_x
_atom_site_fract_y
_atom_site_fract_z
Si Si1 0.216926 0.500000 0.750000
Si Si2 0.351117 0.403113 0.917092
Si Si3 0.250000 0.065021 0.000000
Si Si4 0.097096 0.835979 0.827725
Si Si5 0.000000 0.250000 0.485071
Si Si6 0.660992 0.302612 0.821126
Si Si7 0.036020 0.404962 0.100069
Si Si8 0.038911 0.000000 0.750000
O O1 0.250000 0.481644 0.500000
O O2 0.319727 0.419416 0.175331
O O3 0.348033 0.500000 0.750000
O O4 0.329906 0.307348 0.813931
O O5 0.408184 0.385980 0.978754
O O6 0.206338 0.132368 0.099429
O O7 0.263121 0.000000 0.250000
O O8 0.119255 0.826113 0.539266
O O9 0.075518 0.935487 0.906799
O O10 0.139536 0.819560 0.035688
O O11 0.050242 0.769084 0.860449
O O12 0.986166 0.167888 0.293777
O O13 0.038980 0.500000 0.250000
O O14 0.997244 0.426570 0.877760
#
# Coordination Sequence:
#
# PCOD9336712 Si02
#       8
#     4   8   4   8   4   8   8   4
#     4  12  27  48  78 112 152 196 254 321 396 470
#     4  11  27  49  80 116 164 206 259 327 392 488
#     4  12  30  60  88 118 156 206 272 352 414 480
#     4  12  29  47  79 117 165 208 275 322 400 470
#     4  12  24  48  74 116 170 214 264 322 386 480
#     4  12  30  52  84 118 156 214 269 340 409 479
#     4  11  24  47  71 111 159 213 265 311 389 461
#     4  12  27  42  78 110 158 222 264 333 380 480
#
# _framework density 23.495919000000001
#
# number of rings (size 3 to 8) (size 9 to 14) (size 15 to 20)
#    0.000    0.333    4.167    2.500    9.333    0.667 
#    1.500    0.000    0.000    0.000    0.000    0.000 
#    0.000    0.000    0.000    0.000    0.000    0.000 
#
# Total GULP energy -134168.867517 kJ/mol
# GULP energy per Si atom -5590.369480 kJ/mol
# Density = 2.344244 g / cm^3
# Si number density = 23.495919 Si / 1000 Ang^3
#
#
#
# Elastic Constant Matrix: (Units=GPa)
#
#
# Indices 1 2 3 4 5 6 
#
# 1 87.5057 39.5339 7.6014 0.0000 0.0001 0.0000
# 2 39.5339 141.4731 17.1132 0.0000 0.0000 0.0000
# 3 7.6014 17.1132 67.4100 0.0000 0.0004 0.0000
# 4 0.0000 0.0000 0.0000 40.3833 0.0000 0.0000
# 5 0.0001 0.0000 0.0004 0.0000 53.5159 0.0000
# 6 0.0000 0.0000 0.0000 0.0000 0.0000 45.2951
#
#
#
# Elastic Compliance Matrix: (Units=1/GPa)
#
#
# Indices 1 2 3 4 5 6 
#
# 1 0.013100 -0.003592 -0.000565 0.000000 0.000000 0.000000
# 2 -0.003592 0.008278 -0.001696 0.000000 0.000000 0.000000
# 3 -0.000565 -0.001696 0.015329 0.000000 0.000000 0.000000
# 4 0.000000 0.000000 0.000000 0.024763 0.000000 0.000000
# 5 0.000000 0.000000 0.000000 0.000000 0.018686 0.000000
# 6 0.000000 0.000000 0.000000 0.000000 0.000000 0.022077
#
#
# Mechanical properties :
#
#
# Convention : Reuss Voigt Hill
#
# Bulk Modulus (GPa) = 40.00210 47.20952 43.60581
# Shear Modulus (GPa) = 40.89204 43.31487 42.10346
#
# Velocity S-wave (km/s) = 4.17632 4.29827 4.23773
# Velocity P-wave (km/s) = 6.34962 6.69102 6.52255
#
# Compressibility (1/GPa) = 0.02499869
#
# Stress axis : x y z
#
# Youngs Moduli (GPa) = 76.33659 120.80905 65.23597
#
# Poissons Ratio (x) = 0.43398 0.03687
# Poissons Ratio (y) = 0.27423 0.11066
# Poissons Ratio (z) = 0.04315 0.20493
#
# Static dielectric constant tensor:
#      x y z
#    x 1.896010 0.000000 0.000000 
#    y 0.000000 2.045140 0.000000 
#    z 0.000000 0.000000 1.869470 
# 
# From -- ./inp_files/7172.got.cif
#   From: 2010.05.17/outbox.cif.g08.bks.cpg/sg24_4_cif.got.tgz:7172.got - 2010.06.04 00:33:39.
