data_PCOD9336172
_publ_section_title
;
Structure prediction by ZEFSAII (Michael W. Deem and Ramdas Pophale) SiO2 
 PCOD9336172
Probable space group: I 21 21 21
;
_chemical_formula_sum "Si O2"
_cell_formula_units_Z 28
_cell_length_a 8.824292
_cell_length_b 4.981880
_cell_length_c 26.354007
_cell_angle_alpha 90.000000
_cell_angle_beta 90.000000
_cell_angle_gamma 90.000000
_cell_volume 1158.563361
_symmetry_space_group_name_H-M "I 21 21 21"
_symmetry_group_IT_number 24
_symmetry_cell_setting 'orthorhombic'
loop_
_space_group_symop_operation_xyz
x,y,z
-x,1/2-y,z
x,-y,1/2-z
1/2-x,y,-z
1/2+x,1/2+y,1/2+z
1/2-x,-y,1/2+z
1/2+x,1/2-y,-z
-x,1/2+y,1/2-z
loop_
_atom_site_type_symbol
_atom_site_label
_atom_site_fract_x
_atom_site_fract_y
_atom_site_fract_z
Si Si1 0.668926 0.304037 0.899463
Si Si2 0.321623 0.697912 0.055195
Si Si3 0.907350 0.000000 0.750000
Si Si4 0.374247 0.555152 0.806482
O O1 0.500000 0.250000 0.921499
O O2 0.732874 0.599057 0.907557
O O3 0.782698 0.101761 0.927438
O O4 0.654751 0.201410 0.841698
O O5 0.500000 0.750000 0.055260
O O6 0.250000 0.745676 0.000000
O O7 0.796271 0.858915 0.791372
O O8 0.000000 0.750000 0.728034
O O9 0.500000 0.750000 0.830430
O O10 0.436906 0.500000 0.750000
#
# Coordination Sequence:
#
# PCOD9336172 Si02
#       4
#     8   8   4   8
#     4  12  25  45  74 109 144 191 246 297 360 432
#     4  12  27  49  75 107 147 187 239 301 371 437
#     4  10  26  42  66 100 142 184 236 300 356 402
#     4  10  24  44  75 102 150 194 253 284 359 423
#
# _framework density 24.167863000000001
#
# number of rings (size 3 to 8) (size 9 to 14) (size 15 to 20)
#    0.857    0.000    0.000    6.857    2.000    5.714 
#    0.000    0.000    0.000    0.000    0.000    0.000 
#    0.000    0.000    0.000    0.000    0.000    0.000 
#
# Total GULP energy -78231.728714 kJ/mol
# GULP energy per Si atom -5587.980622 kJ/mol
# Density = 2.411286 g / cm^3
# Si number density = 24.167863 Si / 1000 Ang^3
#
#
#
# Elastic Constant Matrix: (Units=GPa)
#
#
# Indices 1 2 3 4 5 6 
#
# 1 155.5019 14.8103 17.2990 0.0000 0.0000 0.0000
# 2 14.8103 64.4772 1.1796 0.0000 0.0000 0.0000
# 3 17.2990 1.1796 112.0339 0.0000 0.0000 0.0000
# 4 0.0000 0.0000 0.0000 17.2766 0.0000 0.0000
# 5 0.0000 0.0000 0.0000 0.0000 26.0467 0.0000
# 6 0.0000 0.0000 0.0000 0.0000 0.0000 56.0076
#
#
#
# Elastic Compliance Matrix: (Units=1/GPa)
#
#
# Indices 1 2 3 4 5 6 
#
# 1 0.006688 -0.001518 -0.001017 0.000000 0.000000 0.000000
# 2 -0.001518 0.015857 0.000067 0.000000 0.000000 0.000000
# 3 -0.001017 0.000067 0.009082 0.000000 0.000000 0.000000
# 4 0.000000 0.000000 0.000000 0.057882 0.000000 0.000000
# 5 0.000000 0.000000 0.000000 0.000000 0.038393 0.000000
# 6 0.000000 0.000000 0.000000 0.000000 0.000000 0.017855
#
#
# Mechanical properties :
#
#
# Convention : Reuss Voigt Hill
#
# Bulk Modulus (GPa) = 37.46280 44.28787 40.87533
# Shear Modulus (GPa) = 31.33059 39.78112 35.55586
#
# Velocity S-wave (km/s) = 3.60443 4.06154 3.83979
# Velocity P-wave (km/s) = 5.73212 6.35292 6.05049
#
# Compressibility (1/GPa) = 0.02669315
#
# Stress axis : x y z
#
# Youngs Moduli (GPa) = 149.51141 63.06460 110.10600
#
# Poissons Ratio (x) = 0.09571 0.11195
# Poissons Ratio (y) = 0.22692 -0.00742
# Poissons Ratio (z) = 0.15202 -0.00425
#
# Static dielectric constant tensor:
#      x y z
#    x 1.979530 0.000000 0.000000 
#    y 0.000000 1.959120 0.000000 
#    z 0.000000 0.000000 1.936050 
# 
# From -- ./inp_files/38088.got.cif
#   From: 2010.05.17/outbox.cif.g08.bks.cpg/sg24_20_cif.got.tgz:38088.got - 2010.06.04 00:33:39.
