data_PCOD9336857
_publ_section_title
;
Structure prediction by ZEFSAII (Michael W. Deem and Ramdas Pophale) SiO2 
 PCOD9336857
Probable space group: I 21 21 21
;
_chemical_formula_sum "Si O2"
_cell_formula_units_Z 24
_cell_length_a 9.388132
_cell_length_b 15.674970
_cell_length_c 7.261476
_cell_angle_alpha 90.000000
_cell_angle_beta 90.000000
_cell_angle_gamma 90.000000
_cell_volume 1068.589277
_symmetry_space_group_name_H-M "I 21 21 21"
_symmetry_group_IT_number 24
_symmetry_cell_setting 'orthorhombic'
loop_
_space_group_symop_operation_xyz
x,y,z
-x,1/2-y,z
x,-y,1/2-z
1/2-x,y,-z
1/2+x,1/2+y,1/2+z
1/2-x,-y,1/2+z
1/2+x,1/2-y,-z
-x,1/2+y,1/2-z
loop_
_atom_site_type_symbol
_atom_site_label
_atom_site_fract_x
_atom_site_fract_y
_atom_site_fract_z
Si Si1 0.960485 0.581197 0.628833
Si Si2 0.250000 0.219945 0.000000
Si Si3 0.256500 0.654087 0.800758
Si Si4 0.043997 0.500000 0.250000
O O1 0.914840 0.500000 0.750000
O O2 0.855081 0.660663 0.616010
O O3 0.109646 0.616814 0.713334
O O4 0.967692 0.544608 0.420839
O O5 0.179252 0.282651 0.148998
O O6 0.356690 0.573281 0.833324
O O7 0.250000 0.697767 0.000000
#
# Coordination Sequence:
#
# PCOD9336857 Si02
#       4
#     8   4   8   4
#     4  12  26  48  75 108 149 195 245 299 370 441
#     4  12  30  46  70 116 156 182 242 316 366 428
#     4  12  23  47  77 106 142 194 252 296 358 434
#     4  12  22  44  80 108 136 200 244 298 358 440
#
# _framework density 22.459517000000002
#
# number of rings (size 3 to 8) (size 9 to 14) (size 15 to 20)
#    0.000    0.000    8.333    1.000    2.333    2.667 
#    6.000    0.000    0.000    0.000    0.000    0.000 
#    0.000    0.000    0.000    0.000    0.000    0.000 
#
# Total GULP energy -67089.440094 kJ/mol
# GULP energy per Si atom -5590.786674 kJ/mol
# Density = 2.240840 g / cm^3
# Si number density = 22.459517 Si / 1000 Ang^3
#
#
#
# Elastic Constant Matrix: (Units=GPa)
#
#
# Indices 1 2 3 4 5 6 
#
# 1 13.0920 14.8433 -9.9609 0.0000 0.0000 0.0000
# 2 14.8433 98.7992 14.4278 0.0000 0.0000 0.0000
# 3 -9.9609 14.4278 143.4048 -0.0001 -0.0001 0.0005
# 4 0.0000 0.0000 -0.0001 59.6238 0.0000 0.0002
# 5 0.0000 0.0000 -0.0001 0.0000 18.0473 -0.0001
# 6 0.0000 0.0000 0.0005 0.0002 -0.0001 -64.7580
#
#
#
# Elastic Compliance Matrix: (Units=1/GPa)
#
#
# Indices 1 2 3 4 5 6 
#
# 1 0.101823 -0.016574 0.008740 0.000000 0.000000 0.000000
# 2 -0.016574 0.012970 -0.002456 0.000000 0.000000 0.000000
# 3 0.008740 -0.002456 0.007827 0.000000 0.000000 0.000000
# 4 0.000000 0.000000 0.000000 0.016772 0.000000 0.000000
# 5 0.000000 0.000000 0.000000 0.000000 0.055410 0.000000
# 6 0.000000 0.000000 0.000000 0.000000 0.000000 -0.015442
#
#
# Mechanical properties :
#
#
# Convention : Reuss Voigt Hill
#
# Bulk Modulus (GPa) = 9.79998 32.65738 21.22868
# Shear Modulus (GPa) = 21.37169 18.31500 19.84335
#
# Velocity S-wave (km/s) = 3.08809 2.85874 2.97562
# Velocity P-wave (km/s) = 4.13376 5.04664 4.61284
#
# Compressibility (1/GPa) = 0.10204101
#
# Stress axis : x y z
#
# Youngs Moduli (GPa) = 9.82094 77.09960 127.75519
#
# Poissons Ratio (x) = 1.27785 -1.11660
# Poissons Ratio (y) = 0.16277 0.31379
# Poissons Ratio (z) = -0.08584 0.18937
#
# Static dielectric constant tensor:
#      x y z
#    x 1.855220 0.000000 0.000000 
#    y 0.000000 1.771390 0.000000 
#    z 0.000000 0.000000 2.092860 
# 
# From -- ./inp_files/8541.got.cif
#   From: 2010.05.17/outbox.cif.g08.bks.cpg/sg24_5_cif.got.tgz:8541.got - 2010.06.04 00:33:39.
