data_PCOD9336673
_publ_section_title
;
Structure prediction by ZEFSAII (Michael W. Deem and Ramdas Pophale) SiO2 
 PCOD9336673
Probable space group: I 21 21 21
;
_chemical_formula_sum "Si O2"
_cell_formula_units_Z 36
_cell_length_a 13.686830
_cell_length_b 5.058496
_cell_length_c 22.838810
_cell_angle_alpha 90.000000
_cell_angle_beta 90.000000
_cell_angle_gamma 90.000000
_cell_volume 1581.239867
_symmetry_space_group_name_H-M "I 21 21 21"
_symmetry_group_IT_number 24
_symmetry_cell_setting 'orthorhombic'
loop_
_space_group_symop_operation_xyz
x,y,z
-x,1/2-y,z
x,-y,1/2-z
1/2-x,y,-z
1/2+x,1/2+y,1/2+z
1/2-x,-y,1/2+z
1/2+x,1/2-y,-z
-x,1/2+y,1/2-z
loop_
_atom_site_type_symbol
_atom_site_label
_atom_site_fract_x
_atom_site_fract_y
_atom_site_fract_z
Si Si1 0.168543 0.021679 0.948461
Si Si2 0.092291 0.557631 0.379531
Si Si3 0.427162 0.500000 0.250000
Si Si4 0.308595 0.504591 0.372162
Si Si5 0.500000 0.750000 0.982897
Si Si6 0.000000 0.250000 0.287719
O O1 0.198294 0.782797 0.903529
O O2 0.139427 0.290559 0.915477
O O3 0.250000 0.058988 0.000000
O O4 0.071472 0.924373 0.979869
O O5 0.201968 0.649916 0.372642
O O6 0.086344 0.332523 0.330221
O O7 0.000000 0.750000 0.368785
O O8 0.068872 0.426960 0.441230
O O9 0.500000 0.250000 0.248053
O O10 0.359865 0.489709 0.308803
O O11 0.972447 0.500000 0.250000
#
# Coordination Sequence:
#
# PCOD9336673 Si02
#       6
#     8   8   4   8   4   4
#     4  12  26  48  75 115 154 198 255 310 395 467
#     4  11  25  47  73 114 155 191 247 318 395 470
#     4  12  30  58  78 110 154 210 276 326 364 448
#     4  12  29  49  78 111 153 204 262 319 385 455
#     4  11  26  44  74 108 158 196 241 320 384 474
#     4  11  24  42  68 104 148 190 251 294 386 458
#
# _framework density 22.766942
#
# number of rings (size 3 to 8) (size 9 to 14) (size 15 to 20)
#    0.000    0.444    3.333    3.333   12.444    0.000 
#    2.000    0.000    0.000    0.000    0.000    0.000 
#    0.000    0.000    0.000    0.000    0.000    0.000 
#
# Total GULP energy -100640.930663 kJ/mol
# GULP energy per Si atom -5591.162815 kJ/mol
# Density = 2.271512 g / cm^3
# Si number density = 22.766942 Si / 1000 Ang^3
#
#
#
# Elastic Constant Matrix: (Units=GPa)
#
#
# Indices 1 2 3 4 5 6 
#
# 1 106.7628 1.0338 38.9228 0.0000 0.0000 0.0000
# 2 1.0338 106.7711 39.0305 0.0000 0.0000 0.0000
# 3 38.9228 39.0305 147.9444 0.0000 0.0000 0.0000
# 4 0.0000 0.0000 0.0000 1987.4427 0.0000 0.0000
# 5 0.0000 0.0000 0.0000 0.0000 -72.3134 0.0000
# 6 0.0000 0.0000 0.0000 0.0000 0.0000 35.2920
#
#
#
# Elastic Compliance Matrix: (Units=1/GPa)
#
#
# Indices 1 2 3 4 5 6 
#
# 1 0.010456 0.001001 -0.003015 0.000000 0.000000 0.000000
# 2 0.001001 0.010461 -0.003023 0.000000 0.000000 0.000000
# 3 -0.003015 -0.003023 0.008350 0.000000 0.000000 0.000000
# 4 0.000000 0.000000 0.000000 0.000503 0.000000 0.000000
# 5 0.000000 0.000000 0.000000 0.000000 -0.013829 0.000000
# 6 0.000000 0.000000 0.000000 0.000000 0.000000 0.028335
#
#
# Mechanical properties :
#
#
# Convention : Reuss Voigt Hill
#
# Bulk Modulus (GPa) = 52.10270 57.71695 54.90982
# Shear Modulus (GPa) = 82.30585 408.91700 245.61142
#
# Velocity S-wave (km/s) = 6.01913 13.41640 10.39783
# Velocity P-wave (km/s) = 8.44047 16.29129 12.97397
#
# Compressibility (1/GPa) = 0.01919286
#
# Stress axis : x y z
#
# Youngs Moduli (GPa) = 95.63862 95.59056 119.75942
#
# Poissons Ratio (x) = -0.09567 0.36107
# Poissons Ratio (y) = -0.09572 0.36206
# Poissons Ratio (z) = 0.28834 0.28899
#
# Static dielectric constant tensor:
#      x y z
#    x 0.713800 0.000000 0.000000 
#    y 0.000000 2.715200 0.000000 
#    z 0.000000 0.000000 1.861010 
# 
# From -- ./inp_files/5397.got.cif
#   From: 2010.05.17/outbox.cif.g08.bks.cpg/sg24_3_cif.got.tgz:5397.got - 2010.06.04 00:33:39.
