data_PCOD9336908
_publ_section_title
;
Structure prediction by ZEFSAII (Michael W. Deem and Ramdas Pophale) SiO2 
 PCOD9336908
Probable space group: I 21 21 21
;
_chemical_formula_sum "Si O2"
_cell_formula_units_Z 20
_cell_length_a 28.791603
_cell_length_b 5.867231
_cell_length_c 5.013517
_cell_angle_alpha 90.000000
_cell_angle_beta 90.000000
_cell_angle_gamma 90.000000
_cell_volume 846.918314
_symmetry_space_group_name_H-M "I 21 21 21"
_symmetry_group_IT_number 24
_symmetry_cell_setting 'orthorhombic'
loop_
_space_group_symop_operation_xyz
x,y,z
-x,1/2-y,z
x,-y,1/2-z
1/2-x,y,-z
1/2+x,1/2+y,1/2+z
1/2-x,-y,1/2+z
1/2+x,1/2-y,-z
-x,1/2+y,1/2-z
loop_
_atom_site_type_symbol
_atom_site_label
_atom_site_fract_x
_atom_site_fract_y
_atom_site_fract_z
Si Si1 0.343263 0.858198 0.492177
Si Si2 0.913557 0.000000 0.250000
Si Si3 0.250000 0.364122 0.000000
Si Si4 0.523687 0.000000 0.250000
O O1 0.379939 0.682303 0.609903
O O2 0.294913 0.759955 0.381432
O O3 0.328468 0.000000 0.750000
O O4 0.364918 0.000000 0.250000
O O5 0.946117 0.074705 0.493067
O O6 0.270149 0.500000 0.750000
O O7 0.500000 0.750000 0.323865
#
# Coordination Sequence:
#
# PCOD9336908 Si02
#       4
#     8   4   4   4
#     4  12  26  45  74 109 153 207 259 319 383 467
#     4  12  28  50  79 116 150 200 261 334 394 482
#     4  12  24  44  68 104 158 206 258 312 382 450
#     4  12  30  54  83 116 158 204 261 340 424 496
#
# _framework density 23.615027999999999
#
# number of rings (size 3 to 8) (size 9 to 14) (size 15 to 20)
#    0.000    0.000    2.000    7.200   11.200    0.000 
#    0.000    0.000    0.000    0.000    0.000    0.000 
#    0.000    0.000    0.000    0.000    0.000    0.000 
#
# Total GULP energy -55842.990139 kJ/mol
# GULP energy per Si atom -5584.299014 kJ/mol
# Density = 2.356128 g / cm^3
# Si number density = 23.615028 Si / 1000 Ang^3
#
#
#
# Elastic Constant Matrix: (Units=GPa)
#
#
# Indices 1 2 3 4 5 6 
#
# 1 95.3296 46.0780 27.3855 0.0003 -0.0004 0.0000
# 2 46.0780 107.0134 37.9020 0.0007 -0.0002 -0.0001
# 3 27.3855 37.9020 148.5091 0.0006 -0.0001 0.0000
# 4 0.0003 0.0007 0.0006 65.3636 -0.0002 0.0000
# 5 -0.0004 -0.0002 -0.0001 -0.0002 84.4792 0.0006
# 6 0.0000 -0.0001 0.0000 0.0000 0.0006 36.4087
#
#
#
# Elastic Compliance Matrix: (Units=1/GPa)
#
#
# Indices 1 2 3 4 5 6 
#
# 1 0.013408 -0.005384 -0.001098 0.000000 0.000000 0.000000
# 2 -0.005384 0.012435 -0.002181 0.000000 0.000000 0.000000
# 3 -0.001098 -0.002181 0.007493 0.000000 0.000000 0.000000
# 4 0.000000 0.000000 0.000000 0.015299 0.000000 0.000000
# 5 0.000000 0.000000 0.000000 0.000000 0.011837 0.000000
# 6 0.000000 0.000000 0.000000 0.000000 0.000000 0.027466
#
#
# Mechanical properties :
#
#
# Convention : Reuss Voigt Hill
#
# Bulk Modulus (GPa) = 62.46382 63.73144 63.09763
# Shear Modulus (GPa) = 45.20738 53.21607 49.21172
#
# Velocity S-wave (km/s) = 4.38007 4.75224 4.56994
# Velocity P-wave (km/s) = 7.21723 7.56029 7.39075
#
# Compressibility (1/GPa) = 0.01600927
#
# Stress axis : x y z
#
# Youngs Moduli (GPa) = 74.58286 80.41576 133.46291
#
# Poissons Ratio (x) = 0.43297 0.14658
# Poissons Ratio (y) = 0.40157 0.29106
# Poissons Ratio (z) = 0.08192 0.17538
#
# Static dielectric constant tensor:
#      x y z
#    x 1.881250 0.000000 0.000000 
#    y 0.000000 2.010670 0.000000 
#    z 0.000000 0.000000 1.849260 
# 
# From -- ./inp_files/267.got.cif
#   From: 2010.05.17/outbox.cif.g08.bks.cpg/sg24_1_cif.got.tgz:267.got - 2010.06.04 00:33:39.
