data_PCOD9336133
_publ_section_title
;
Structure prediction by ZEFSAII (Michael W. Deem and Ramdas Pophale) SiO2 
 PCOD9336133
Probable space group: I 21 21 21
;
_chemical_formula_sum "Si O2"
_cell_formula_units_Z 52
_cell_length_a 7.709630
_cell_length_b 19.010321
_cell_length_c 15.758493
_cell_angle_alpha 90.000000
_cell_angle_beta 90.000000
_cell_angle_gamma 90.000000
_cell_volume 2309.604778
_symmetry_space_group_name_H-M "I 21 21 21"
_symmetry_group_IT_number 24
_symmetry_cell_setting 'orthorhombic'
loop_
_space_group_symop_operation_xyz
x,y,z
-x,1/2-y,z
x,-y,1/2-z
1/2-x,y,-z
1/2+x,1/2+y,1/2+z
1/2-x,-y,1/2+z
1/2+x,1/2-y,-z
-x,1/2+y,1/2-z
loop_
_atom_site_type_symbol
_atom_site_label
_atom_site_fract_x
_atom_site_fract_y
_atom_site_fract_z
Si Si1 0.583970 0.644690 0.165760
Si Si2 0.542304 0.179217 0.508321
Si Si3 0.899290 0.552368 0.117031
Si Si4 0.000000 0.750000 0.694582
Si Si5 0.280676 0.537188 0.165610
Si Si6 0.750000 0.429360 0.000000
Si Si7 0.983177 0.826017 0.536200
Si Si8 0.750000 0.056229 0.000000
O O1 0.574846 0.685313 0.076631
O O2 0.733003 0.585787 0.162984
O O3 0.602396 0.698427 0.243032
O O4 0.394800 0.607392 0.163528
O O5 0.500000 0.250000 0.559927
O O6 0.750000 0.172146 0.500000
O O7 0.467358 0.109464 0.549740
O O8 0.073130 0.544418 0.172003
O O9 0.845161 0.483388 0.064255
O O10 0.098309 0.699447 0.626187
O O11 0.346132 0.500000 0.250000
O O12 0.305930 0.491442 0.079244
O O13 0.848688 0.371848 0.941078
O O14 0.000000 0.750000 0.491906
O O15 0.893832 0.885028 0.479086
#
# Coordination Sequence:
#
# PCOD9336133 Si02
#       8
#     8   8   8   4   8   4   8   4
#     4  12  23  45  68 100 149 189 237 305 375 451
#     4  12  23  41  71 104 145 193 247 299 376 476
#     4  12  25  42  73 112 141 191 251 313 390 454
#     4  10  26  44  66 102 144 202 246 288 380 454
#     4  12  27  44  71 110 143 193 246 314 385 444
#     4  12  21  44  74 105 138 184 266 318 371 460
#     4  10  24  43  72 100 135 195 252 299 376 440
#     4  12  21  48  72  99 148 190 244 314 373 458
#
# _framework density 22.514675
#
# number of rings (size 3 to 8) (size 9 to 14) (size 15 to 20)
#    0.462    0.000    5.385    4.154    0.000    1.846 
#    0.000    0.000    0.000    0.000    0.000    0.000 
#    0.000    0.000    0.000    0.000    0.000    0.000 
#
# Total GULP energy -144763.856970 kJ/mol
# GULP energy per Si atom -5567.840653 kJ/mol
# Density = 2.246343 g / cm^3
# Si number density = 22.514675 Si / 1000 Ang^3
#
#
#
# Elastic Constant Matrix: (Units=GPa)
#
#
# Indices 1 2 3 4 5 6 
#
# 1 95.5554 47.8769 6.3385 0.0000 0.0000 0.0000
# 2 47.8769 158.8471 29.2588 0.0000 0.0000 0.0000
# 3 6.3385 29.2588 54.3684 0.0000 0.0000 0.0000
# 4 0.0000 0.0000 0.0000 -37.6473 0.0000 0.0000
# 5 0.0000 0.0000 0.0000 0.0000 -3.9840 0.0000
# 6 0.0000 0.0000 0.0000 0.0000 0.0000 27.8799
#
#
#
# Elastic Compliance Matrix: (Units=1/GPa)
#
#
# Indices 1 2 3 4 5 6 
#
# 1 0.012346 -0.003836 0.000625 0.000000 0.000000 0.000000
# 2 -0.003836 0.008180 -0.003955 0.000000 0.000000 0.000000
# 3 0.000625 -0.003955 0.020449 0.000000 0.000000 0.000000
# 4 0.000000 0.000000 0.000000 -0.026562 0.000000 0.000000
# 5 0.000000 0.000000 0.000000 0.000000 -0.251005 0.000000
# 6 0.000000 0.000000 0.000000 0.000000 0.000000 0.035868
#
#
# Mechanical properties :
#
#
# Convention : Reuss Voigt Hill
#
# Bulk Modulus (GPa) = 37.53412 52.85768 45.19590
# Shear Modulus (GPa) = -28.16703 12.26951 -7.94876
#
# Velocity S-wave (km/s) = -3.54086 2.33696 -1.88100
# Velocity P-wave (km/s) = 0.09879 5.55066 3.92429
#
# Compressibility (1/GPa) = 0.02664243
#
# Stress axis : x y z
#
# Youngs Moduli (GPa) = 80.99961 122.24828 48.90323
#
# Poissons Ratio (x) = 0.46897 -0.03057
# Poissons Ratio (y) = 0.31073 0.19341
# Poissons Ratio (z) = -0.05064 0.48348
#
# Static dielectric constant tensor:
#      x y z
#    x 2.783290 0.000000 0.000000 
#    y 0.000000 2.015510 0.000000 
#    z 0.000000 0.000000 1.949330 
# 
# From -- ./inp_files/29665.got.cif
#   From: 2010.05.17/outbox.cif.g08.bks.cpg/sg24_15_cif.got.tgz:29665.got - 2010.06.04 00:33:39.
