data_PCOD9336969
_publ_section_title
;
Structure prediction by ZEFSAII (Michael W. Deem and Ramdas Pophale) SiO2 
 PCOD9336969
Probable space group: I 21 21 21
;
_chemical_formula_sum "Si O2"
_cell_formula_units_Z 32
_cell_length_a 9.290854
_cell_length_b 11.593314
_cell_length_c 13.663215
_cell_angle_alpha 90.000000
_cell_angle_beta 90.000000
_cell_angle_gamma 90.000000
_cell_volume 1471.689314
_symmetry_space_group_name_H-M "I 21 21 21"
_symmetry_group_IT_number 24
_symmetry_cell_setting 'orthorhombic'
loop_
_space_group_symop_operation_xyz
x,y,z
-x,1/2-y,z
x,-y,1/2-z
1/2-x,y,-z
1/2+x,1/2+y,1/2+z
1/2-x,-y,1/2+z
1/2+x,1/2-y,-z
-x,1/2+y,1/2-z
loop_
_atom_site_type_symbol
_atom_site_label
_atom_site_fract_x
_atom_site_fract_y
_atom_site_fract_z
Si Si1 0.009879 0.114819 0.414513
Si Si2 0.746069 0.034868 0.137856
Si Si3 0.250000 0.256805 0.000000
Si Si4 0.413881 0.050958 0.080989
Si Si5 0.308861 0.000000 0.750000
O O1 0.089563 0.085820 0.311898
O O2 0.000000 0.250000 0.429610
O O3 0.094619 0.051482 0.501913
O O4 0.852222 0.056096 0.414069
O O5 0.788182 0.158808 0.090899
O O6 0.574798 0.037141 0.121294
O O7 0.767693 0.000000 0.250000
O O8 0.378971 0.169686 0.025812
O O9 0.298291 0.050129 0.168159
#
# Coordination Sequence:
#
# PCOD9336969 Si02
#       5
#     8   8   4   8   4
#     4  12  28  51  75 114 163 209 263 336 407 473
#     4  12  27  48  80 115 153 209 266 331 402 471
#     4  12  26  50  84 116 158 210 274 330 392 494
#     4  12  26  50  79 115 156 211 263 333 399 473
#     4  12  26  46  80 114 152 208 274 324 400 472
#
# _framework density 21.743722000000002
#
# number of rings (size 3 to 8) (size 9 to 14) (size 15 to 20)
#    0.000    0.000    7.500    0.750    3.500    4.000 
#    0.000    0.000    0.000    0.000    0.000    0.000 
#    0.000    0.000    0.000    0.000    0.000    0.000 
#
# Total GULP energy -89335.555880 kJ/mol
# GULP energy per Si atom -5583.472242 kJ/mol
# Density = 2.169423 g / cm^3
# Si number density = 21.743722 Si / 1000 Ang^3
#
#
#
# Elastic Constant Matrix: (Units=GPa)
#
#
# Indices 1 2 3 4 5 6 
#
# 1 164.0285 64.6546 44.1310 0.0000 0.0000 0.0000
# 2 64.6546 207.4931 77.0050 0.0000 0.0000 0.0000
# 3 44.1310 77.0050 154.4017 0.0000 0.0000 0.0000
# 4 0.0000 0.0000 0.0000 7.5048 0.0000 0.0000
# 5 0.0000 0.0000 0.0000 0.0000 54.6769 0.0000
# 6 0.0000 0.0000 0.0000 0.0000 0.0000 -56.6074
#
#
#
# Elastic Compliance Matrix: (Units=1/GPa)
#
#
# Indices 1 2 3 4 5 6 
#
# 1 0.007109 -0.001793 -0.001138 0.000000 0.000000 0.000000
# 2 -0.001793 0.006366 -0.002663 0.000000 0.000000 0.000000
# 3 -0.001138 -0.002663 0.008130 0.000000 0.000000 0.000000
# 4 0.000000 0.000000 0.000000 0.133247 0.000000 0.000000
# 5 0.000000 0.000000 0.000000 0.000000 0.018289 0.000000
# 6 0.000000 0.000000 0.000000 0.000000 0.000000 -0.017666
#
#
# Mechanical properties :
#
#
# Convention : Reuss Voigt Hill
#
# Bulk Modulus (GPa) = 95.98189 99.72274 97.85232
# Shear Modulus (GPa) = 29.38824 23.79038 26.58931
#
# Velocity S-wave (km/s) = 3.68036 3.31135 3.50072
# Velocity P-wave (km/s) = 7.89293 7.78347 7.83839
#
# Compressibility (1/GPa) = 0.01041863
#
# Stress axis : x y z
#
# Youngs Moduli (GPa) = 140.65969 157.07762 123.00549
#
# Poissons Ratio (x) = 0.28164 0.13995
# Poissons Ratio (y) = 0.25221 0.32751
# Poissons Ratio (z) = 0.16004 0.41823
#
# Static dielectric constant tensor:
#      x y z
#    x 1.838190 0.000000 0.000000 
#    y 0.000000 1.736880 0.000000 
#    z 0.000000 0.000000 2.076310 
# 
# From -- ./inp_files/10288.got.cif
#   From: 2010.05.17/outbox.cif.g08.bks.cpg/sg24_6_cif.got.tgz:10288.got - 2010.06.04 00:33:39.
