data_PCOD9336305
_publ_section_title
;
Structure prediction by ZEFSAII (Michael W. Deem and Ramdas Pophale) SiO2 
 PCOD9336305
Probable space group: I 21 21 21
;
_chemical_formula_sum "Si O2"
_cell_formula_units_Z 32
_cell_length_a 5.496260
_cell_length_b 7.589067
_cell_length_c 27.411574
_cell_angle_alpha 90.000000
_cell_angle_beta 90.000000
_cell_angle_gamma 90.000000
_cell_volume 1143.377468
_symmetry_space_group_name_H-M "I 21 21 21"
_symmetry_group_IT_number 24
_symmetry_cell_setting 'orthorhombic'
loop_
_space_group_symop_operation_xyz
x,y,z
-x,1/2-y,z
x,-y,1/2-z
1/2-x,y,-z
1/2+x,1/2+y,1/2+z
1/2-x,-y,1/2+z
1/2+x,1/2-y,-z
-x,1/2+y,1/2-z
loop_
_atom_site_type_symbol
_atom_site_label
_atom_site_fract_x
_atom_site_fract_y
_atom_site_fract_z
Si Si1 0.937911 0.500000 0.750000
Si Si2 0.006818 0.930772 0.920130
Si Si3 0.750000 0.165549 0.000000
Si Si4 0.776203 0.670703 0.345084
Si Si5 0.678678 0.911421 0.830052
O O1 0.131706 0.589407 0.786255
O O2 0.768523 0.598544 0.711148
O O3 0.818633 0.871084 0.878812
O O4 0.000000 0.750000 0.951472
O O5 0.876987 0.067934 0.955171
O O6 0.231704 0.021261 0.890447
O O7 0.500000 0.250000 0.977849
O O8 0.500000 0.750000 0.352706
O O9 0.089039 0.617623 0.341325
O O10 0.500000 0.750000 0.820397
#
# Coordination Sequence:
#
# PCOD9336305 Si02
#       5
#     4   8   4   8   8
#     4  10  26  44  68 118 164 222 286 340 414 488
#     4  11  27  54  85 118 162 218 279 341 430 521
#     4  12  34  56  92 132 168 208 280 364 444 524
#     4  11  26  47  78 116 171 224 283 351 422 494
#     4  11  24  44  77 109 161 218 278 340 409 498
#
# _framework density 27.987257
#
# number of rings (size 3 to 8) (size 9 to 14) (size 15 to 20)
#    0.000    1.000    2.500    0.750    7.000   11.000 
#    0.000    3.750    0.000    0.000    0.000    0.000 
#    0.000    0.000    0.000    0.000    0.000    0.000 
#
# Total GULP energy -89302.763966 kJ/mol
# GULP energy per Si atom -5581.422748 kJ/mol
# Density = 2.792356 g / cm^3
# Si number density = 27.987257 Si / 1000 Ang^3
#
#
#
# Elastic Constant Matrix: (Units=GPa)
#
#
# Indices 1 2 3 4 5 6 
#
# 1 254.5854 116.3712 37.5642 0.0000 0.0000 0.0000
# 2 116.3712 220.6263 42.5459 0.0000 0.0000 0.0000
# 3 37.5642 42.5459 122.3420 0.0000 0.0000 0.0000
# 4 0.0000 0.0000 0.0000 13.2088 0.0000 0.0000
# 5 0.0000 0.0000 0.0000 0.0000 266.1009 0.0000
# 6 0.0000 0.0000 0.0000 0.0000 0.0000 76.5586
#
#
#
# Elastic Compliance Matrix: (Units=1/GPa)
#
#
# Indices 1 2 3 4 5 6 
#
# 1 0.005230 -0.002625 -0.000693 0.000000 0.000000 0.000000
# 2 -0.002625 0.006176 -0.001342 0.000000 0.000000 0.000000
# 3 -0.000693 -0.001342 0.008853 0.000000 0.000000 0.000000
# 4 0.000000 0.000000 0.000000 0.075707 0.000000 0.000000
# 5 0.000000 0.000000 0.000000 0.000000 0.003758 0.000000
# 6 0.000000 0.000000 0.000000 0.000000 0.000000 0.013062
#
#
# Mechanical properties :
#
#
# Convention : Reuss Voigt Hill
#
# Bulk Modulus (GPa) = 91.41034 110.05737 100.73386
# Shear Modulus (GPa) = 39.76065 97.91182 68.83624
#
# Velocity S-wave (km/s) = 3.77327 5.92118 4.96477
# Velocity P-wave (km/s) = 7.19136 9.28206 8.30278
#
# Compressibility (1/GPa) = 0.01093968
#
# Stress axis : x y z
#
# Youngs Moduli (GPa) = 191.20066 161.92004 112.95362
#
# Poissons Ratio (x) = 0.42504 0.07827
# Poissons Ratio (y) = 0.50191 0.15155
# Poissons Ratio (z) = 0.13250 0.21726
#
# Static dielectric constant tensor:
#      x y z
#    x 2.231030 0.000000 0.000000 
#    y 0.000000 2.165990 0.000000 
#    z 0.000000 0.000000 1.990890 
# 
# From -- ./inp_files/1319.got.cif
#   From: 2010.05.17/outbox.cif.g08.bks.cpg/sg24_1_cif.got.tgz:1319.got - 2010.06.04 00:33:39.
