data_PCOD9336385
_publ_section_title
;
Structure prediction by ZEFSAII (Michael W. Deem and Ramdas Pophale) SiO2 
 PCOD9336385
Probable space group: I 21 21 21
;
_chemical_formula_sum "Si O2"
_cell_formula_units_Z 48
_cell_length_a 9.540109
_cell_length_b 11.500075
_cell_length_c 22.521288
_cell_angle_alpha 90.000000
_cell_angle_beta 90.000000
_cell_angle_gamma 90.000000
_cell_volume 2470.854851
_symmetry_space_group_name_H-M "I 21 21 21"
_symmetry_group_IT_number 24
_symmetry_cell_setting 'orthorhombic'
loop_
_space_group_symop_operation_xyz
x,y,z
-x,1/2-y,z
x,-y,1/2-z
1/2-x,y,-z
1/2+x,1/2+y,1/2+z
1/2-x,-y,1/2+z
1/2+x,1/2-y,-z
-x,1/2+y,1/2-z
loop_
_atom_site_type_symbol
_atom_site_label
_atom_site_fract_x
_atom_site_fract_y
_atom_site_fract_z
Si Si1 0.729375 0.495843 0.822305
Si Si2 0.832627 0.748940 0.851853
Si Si3 0.772399 0.965933 0.930522
Si Si4 0.048265 0.630678 0.365797
Si Si5 0.729900 0.869417 0.271250
Si Si6 0.001016 0.621449 0.626322
O O1 0.737990 0.500000 0.750000
O O2 0.764983 0.621669 0.850438
O O3 0.580414 0.447045 0.843398
O O4 0.849441 0.413818 0.849988
O O5 0.767553 0.842575 0.896898
O O6 0.806183 0.795926 0.785774
O O7 0.000000 0.750000 0.862281
O O8 0.654313 0.051906 0.903753
O O9 0.921537 0.027068 0.914830
O O10 0.750000 0.952260 0.000000
O O11 0.138040 0.672963 0.308759
O O12 0.000000 0.750000 0.396923
O O13 0.598641 0.872671 0.315274
O O14 0.760247 0.000000 0.250000
O O15 0.000000 0.750000 0.598737
#
# Coordination Sequence:
#
# PCOD9336385 Si02
#       6
#     8   8   8   8   8   8
#     4  12  23  37  65 106 133 167 209 267 346 420
#     4  12  22  42  69  98 132 172 227 275 337 408
#     4  11  26  48  67  89 134 185 234 286 330 384
#     4  11  24  43  64 100 139 170 217 275 347 408
#     4  11  19  37  64  95 137 173 203 270 346 415
#     4  11  21  39  66  97 129 173 225 274 333 396
#
# _framework density 19.426476000000001
#
# number of rings (size 3 to 8) (size 9 to 14) (size 15 to 20)
#    0.000    0.667    5.000    6.500    0.000    1.333 
#    3.000    0.833    0.000    0.000    0.000    0.000 
#    0.000    0.000    0.000    0.000    0.000    0.000 
#
# Total GULP energy -134169.499459 kJ/mol
# GULP energy per Si atom -5590.395811 kJ/mol
# Density = 1.938226 g / cm^3
# Si number density = 19.426476 Si / 1000 Ang^3
#
#
#
# Elastic Constant Matrix: (Units=GPa)
#
#
# Indices 1 2 3 4 5 6 
#
# 1 99.8161 13.4518 31.2168 0.0000 0.0000 0.0000
# 2 13.4518 113.4870 28.6506 0.0000 0.0000 0.0000
# 3 31.2168 28.6506 93.2425 0.0000 0.0000 0.0000
# 4 0.0000 0.0000 0.0000 7.7725 0.0000 0.0000
# 5 0.0000 0.0000 0.0000 0.0000 6.7801 0.0000
# 6 0.0000 0.0000 0.0000 0.0000 0.0000 38.9329
#
#
#
# Elastic Compliance Matrix: (Units=1/GPa)
#
#
# Indices 1 2 3 4 5 6 
#
# 1 0.011208 -0.000413 -0.003625 0.000000 0.000000 0.000000
# 2 -0.000413 0.009568 -0.002802 0.000000 0.000000 0.000000
# 3 -0.003625 -0.002802 0.012799 0.000000 0.000000 0.000000
# 4 0.000000 0.000000 0.000000 0.128659 0.000000 0.000000
# 5 0.000000 0.000000 0.000000 0.000000 0.147491 0.000000
# 6 0.000000 0.000000 0.000000 0.000000 0.000000 0.025685
#
#
# Mechanical properties :
#
#
# Convention : Reuss Voigt Hill
#
# Bulk Modulus (GPa) = 50.26449 50.35377 50.30913
# Shear Modulus (GPa) = 14.05591 26.24552 20.15071
#
# Velocity S-wave (km/s) = 2.69280 3.67961 3.22418
# Velocity P-wave (km/s) = 5.96645 6.63544 6.30982
#
# Compressibility (1/GPa) = 0.01989476
#
# Stress axis : x y z
#
# Youngs Moduli (GPa) = 89.22270 104.51686 78.12933
#
# Poissons Ratio (x) = 0.04319 0.28324
# Poissons Ratio (y) = 0.03687 0.21888
# Poissons Ratio (z) = 0.32346 0.29281
#
# Static dielectric constant tensor:
#      x y z
#    x 1.682980 0.000000 0.000000 
#    y 0.000000 1.758180 0.000000 
#    z 0.000000 0.000000 1.649020 
# 
# From -- ./inp_files/11272.got.cif
#   From: 2010.05.17/outbox.cif.g08.bks.cpg/sg24_6_cif.got.tgz:11272.got - 2010.06.04 00:33:39.
