data_PCOD9336158
_publ_section_title
;
Structure prediction by ZEFSAII (Michael W. Deem and Ramdas Pophale) SiO2 
 PCOD9336158
Probable space group: I 21 21 21
;
_chemical_formula_sum "Si O2"
_cell_formula_units_Z 56
_cell_length_a 8.375700
_cell_length_b 15.469861
_cell_length_c 20.538504
_cell_angle_alpha 90.000000
_cell_angle_beta 90.000000
_cell_angle_gamma 90.000000
_cell_volume 2661.192751
_symmetry_space_group_name_H-M "I 21 21 21"
_symmetry_group_IT_number 24
_symmetry_cell_setting 'orthorhombic'
loop_
_space_group_symop_operation_xyz
x,y,z
-x,1/2-y,z
x,-y,1/2-z
1/2-x,y,-z
1/2+x,1/2+y,1/2+z
1/2-x,-y,1/2+z
1/2+x,1/2-y,-z
-x,1/2+y,1/2-z
loop_
_atom_site_type_symbol
_atom_site_label
_atom_site_fract_x
_atom_site_fract_y
_atom_site_fract_z
Si Si1 0.631549 0.921665 0.639514
Si Si2 0.750000 0.867156 0.000000
Si Si3 0.319079 0.720494 0.864073
Si Si4 0.556479 0.994934 0.077203
Si Si5 0.179445 0.605426 0.752548
Si Si6 0.640272 0.613712 0.183148
Si Si7 0.558509 0.846305 0.507201
Si Si8 0.404603 0.000000 0.750000
O O1 0.768418 0.982172 0.607205
O O2 0.740292 0.861400 0.686243
O O3 0.534790 0.877011 0.581584
O O4 0.512537 0.965717 0.690714
O O5 0.705766 0.812361 0.937009
O O6 0.899637 0.926719 0.979013
O O7 0.500000 0.750000 0.854180
O O8 0.275575 0.645575 0.812697
O O9 0.199086 0.799522 0.850944
O O10 0.442453 0.951604 0.130883
O O11 0.493612 0.082275 0.043432
O O12 0.181511 0.500000 0.750000
O O13 0.997478 0.631187 0.764105
O O14 0.789449 0.571724 0.219351
O O15 0.500000 0.750000 0.495499
O O16 0.750000 0.847497 0.500000
#
# Coordination Sequence:
#
# PCOD9336158 Si02
#       8
#     8   4   8   8   8   8   8   4
#     4  11  21  41  71  99 134 194 228 291 352 413
#     4  12  24  46  74  98 138 188 232 282 372 424
#     4  12  30  44  69 108 143 179 239 303 352 428
#     4  11  22  45  76  99 134 193 237 285 366 433
#     4  12  22  45  72  95 142 189 229 284 351 425
#     4  12  25  45  68 107 139 183 234 292 355 423
#     4  10  24  44  69 103 138 179 236 293 349 419
#     4  12  24  40  70 102 144 180 236 288 352 434
#
# _framework density 21.043195999999998
#
# number of rings (size 3 to 8) (size 9 to 14) (size 15 to 20)
#    0.000    0.571    6.429    1.286    4.000    2.857 
#    0.000    7.143    0.000    0.000    0.000    0.000 
#    0.000    0.000    0.000    0.000    0.000    0.000 
#
# Total GULP energy -156496.518959 kJ/mol
# GULP energy per Si atom -5589.161391 kJ/mol
# Density = 2.099530 g / cm^3
# Si number density = 21.043196 Si / 1000 Ang^3
#
#
#
# Elastic Constant Matrix: (Units=GPa)
#
#
# Indices 1 2 3 4 5 6 
#
# 1 92.7081 42.5821 35.6737 0.0000 0.0000 0.0000
# 2 42.5821 125.6729 60.0755 0.0000 0.0000 0.0000
# 3 35.6737 60.0755 118.9453 0.0000 0.0000 0.0000
# 4 0.0000 0.0000 0.0000 35.5728 0.0000 0.0000
# 5 0.0000 0.0000 0.0000 0.0000 24.7335 0.0000
# 6 0.0000 0.0000 0.0000 0.0000 0.0000 37.8458
#
#
#
# Elastic Compliance Matrix: (Units=1/GPa)
#
#
# Indices 1 2 3 4 5 6 
#
# 1 0.013214 -0.003405 -0.002243 0.000000 0.000000 0.000000
# 2 -0.003405 0.011367 -0.004720 0.000000 0.000000 0.000000
# 3 -0.002243 -0.004720 0.011464 0.000000 0.000000 0.000000
# 4 0.000000 0.000000 0.000000 0.028111 0.000000 0.000000
# 5 0.000000 0.000000 0.000000 0.000000 0.040431 0.000000
# 6 0.000000 0.000000 0.000000 0.000000 0.000000 0.026423
#
#
# Mechanical properties :
#
#
# Convention : Reuss Voigt Hill
#
# Bulk Modulus (GPa) = 65.32356 68.22098 66.77227
# Shear Modulus (GPa) = 31.87771 32.89673 32.38722
#
# Velocity S-wave (km/s) = 3.89636 3.95814 3.92737
# Velocity P-wave (km/s) = 7.16604 7.30610 7.23641
#
# Compressibility (1/GPa) = 0.01530841
#
# Stress axis : x y z
#
# Youngs Moduli (GPa) = 75.67925 87.97277 87.22984
#
# Poissons Ratio (x) = 0.29953 0.19568
# Poissons Ratio (y) = 0.25768 0.41173
# Poissons Ratio (z) = 0.16977 0.41523
#
# Static dielectric constant tensor:
#      x y z
#    x 1.764930 0.000000 0.000000 
#    y 0.000000 1.789240 0.000000 
#    z 0.000000 0.000000 1.800020 
# 
# From -- ./inp_files/32860.got.cif
#   From: 2010.05.17/outbox.cif.g08.bks.cpg/sg24_17_cif.got.tgz:32860.got - 2010.06.04 00:33:39.
