data_PCOD9336420
_publ_section_title
;
Structure prediction by ZEFSAII (Michael W. Deem and Ramdas Pophale) SiO2 
 PCOD9336420
Probable space group: I 21 21 21
;
_chemical_formula_sum "Si O2"
_cell_formula_units_Z 56
_cell_length_a 14.989702
_cell_length_b 9.441579
_cell_length_c 16.911119
_cell_angle_alpha 90.000000
_cell_angle_beta 90.000000
_cell_angle_gamma 90.000000
_cell_volume 2393.370733
_symmetry_space_group_name_H-M "I 21 21 21"
_symmetry_group_IT_number 24
_symmetry_cell_setting 'orthorhombic'
loop_
_space_group_symop_operation_xyz
x,y,z
-x,1/2-y,z
x,-y,1/2-z
1/2-x,y,-z
1/2+x,1/2+y,1/2+z
1/2-x,-y,1/2+z
1/2+x,1/2-y,-z
-x,1/2+y,1/2-z
loop_
_atom_site_type_symbol
_atom_site_label
_atom_site_fract_x
_atom_site_fract_y
_atom_site_fract_z
Si Si1 0.916208 0.638788 0.690972
Si Si2 0.345453 0.907827 0.960354
Si Si3 0.722219 0.838240 0.232972
Si Si4 0.898860 0.194506 0.336508
Si Si5 0.090151 0.699190 0.907058
Si Si6 0.150016 0.490134 0.020341
Si Si7 0.903811 0.314402 0.990546
O O1 0.925844 0.500000 0.750000
O O2 0.827084 0.726251 0.712292
O O3 0.900526 0.614274 0.596999
O O4 0.000000 0.750000 0.695657
O O5 0.398834 0.808095 0.021113
O O6 0.387044 0.059940 0.949752
O O7 0.250000 0.926087 0.000000
O O8 0.349883 0.824492 0.879789
O O9 0.829552 0.834506 0.234058
O O10 0.674512 0.802748 0.149626
O O11 0.694694 0.000000 0.250000
O O12 0.000000 0.250000 0.322439
O O13 0.887070 0.062330 0.399011
O O14 0.000000 0.750000 0.865280
O O15 0.087951 0.546779 0.948803
O O16 0.250000 0.547058 0.000000
O O17 0.154777 0.322147 0.012356
O O18 0.000000 0.250000 0.999422
#
# Coordination Sequence:
#
# PCOD9336420 Si02
#       7
#     8   8   8   8   8   8   8
#     4  11  25  43  66  98 136 178 220 263 327 400
#     4  11  20  38  64  94 128 165 209 269 332 398
#     4  12  24  42  65  94 132 176 225 271 321 389
#     4  11  23  43  68  94 124 170 228 271 321 390
#     4  11  20  37  64  95 128 166 210 262 326 396
#     4  11  20  38  63 100 131 165 213 273 339 395
#     4  11  23  38  60  98 135 166 206 270 347 392
#
# _framework density 23.397963000000001
#
# number of rings (size 3 to 8) (size 9 to 14) (size 15 to 20)
#    0.000    0.857    2.857    7.286    0.000    3.429 
#    0.000    1.429    0.000    0.857    0.000    0.000 
#    0.000    0.000    0.000    0.000    0.000    0.000 
#
# Total GULP energy -156313.750940 kJ/mol
# GULP energy per Si atom -5582.633962 kJ/mol
# Density = 2.334471 g / cm^3
# Si number density = 23.397963 Si / 1000 Ang^3
#
#
#
# Elastic Constant Matrix: (Units=GPa)
#
#
# Indices 1 2 3 4 5 6 
#
# 1 136.3199 19.2065 10.4108 0.0000 0.0000 0.0000
# 2 19.2065 149.1059 13.9655 0.0000 0.0000 0.0000
# 3 10.4108 13.9655 12.7438 0.0000 0.0000 0.0000
# 4 0.0000 0.0000 0.0000 -15.8935 0.0000 0.0000
# 5 0.0000 0.0000 0.0000 0.0000 18.4998 0.0000
# 6 0.0000 0.0000 0.0000 0.0000 0.0000 34.1000
#
#
#
# Elastic Compliance Matrix: (Units=1/GPa)
#
#
# Indices 1 2 3 4 5 6 
#
# 1 0.007852 -0.000458 -0.005913 0.000000 0.000000 0.000000
# 2 -0.000458 0.007500 -0.007846 0.000000 0.000000 0.000000
# 3 -0.005913 -0.007846 0.091898 0.000000 0.000000 0.000000
# 4 0.000000 0.000000 0.000000 -0.062919 0.000000 0.000000
# 5 0.000000 0.000000 0.000000 0.000000 0.054055 0.000000
# 6 0.000000 0.000000 0.000000 0.000000 0.000000 0.029326
#
#
# Mechanical properties :
#
#
# Convention : Reuss Voigt Hill
#
# Bulk Modulus (GPa) = 12.68752 42.81501 27.75127
# Shear Modulus (GPa) = 27.40986 24.31370 25.86178
#
# Velocity S-wave (km/s) = 3.42638 3.22706 3.32821
# Velocity P-wave (km/s) = 4.59213 5.67658 5.16291
#
# Compressibility (1/GPa) = 0.07881760
#
# Stress axis : x y z
#
# Youngs Moduli (GPa) = 127.36059 133.32584 10.88167
#
# Poissons Ratio (x) = 0.06101 0.06434
# Poissons Ratio (y) = 0.05828 0.08537
# Poissons Ratio (z) = 0.75307 1.04603
#
# Static dielectric constant tensor:
#      x y z
#    x 1.941900 0.000000 0.000000 
#    y 0.000000 1.886470 0.000000 
#    z 0.000000 0.000000 1.920310 
# 
# From -- ./inp_files/32843.got.cif
#   From: 2010.05.17/outbox.cif.g08.bks.cpg/sg24_17_cif.got.tgz:32843.got - 2010.06.04 00:33:39.
