data_PCOD9336731
_publ_section_title
;
Structure prediction by ZEFSAII (Michael W. Deem and Ramdas Pophale) SiO2 
 PCOD9336731
Probable space group: I 21 21 21
;
_chemical_formula_sum "Si O2"
_cell_formula_units_Z 20
_cell_length_a 30.556765
_cell_length_b 5.144048
_cell_length_c 5.168556
_cell_angle_alpha 90.000000
_cell_angle_beta 90.000000
_cell_angle_gamma 90.000000
_cell_volume 812.421883
_symmetry_space_group_name_H-M "I 21 21 21"
_symmetry_group_IT_number 24
_symmetry_cell_setting 'orthorhombic'
loop_
_space_group_symop_operation_xyz
x,y,z
-x,1/2-y,z
x,-y,1/2-z
1/2-x,y,-z
1/2+x,1/2+y,1/2+z
1/2-x,-y,1/2+z
1/2+x,1/2-y,-z
-x,1/2+y,1/2-z
loop_
_atom_site_type_symbol
_atom_site_label
_atom_site_fract_x
_atom_site_fract_y
_atom_site_fract_z
Si Si1 0.778583 0.000000 0.750000
Si Si2 0.925283 0.000000 0.750000
Si Si3 0.500000 0.750000 0.581724
Si Si4 0.650525 0.750435 0.932298
O O1 0.750000 0.919220 0.500000
O O2 0.810426 0.225134 0.640344
O O3 0.894283 0.188597 0.583227
O O4 0.957658 0.826315 0.581131
O O5 0.510853 0.500000 0.750000
O O6 0.649996 0.500000 0.750000
O O7 0.656861 0.000000 0.750000
#
# Coordination Sequence:
#
# PCOD9336731 Si02
#       4
#     4   4   4   8
#     4  11  24  54  86 126 164 222 274 342 408 503
#     4  11  28  48  80 116 160 220 278 340 414 485
#     4  12  28  48  76 116 158 214 280 344 406 486
#     4  11  27  52  80 120 165 215 270 340 415 492
#
# _framework density 24.617750999999998
#
# number of rings (size 3 to 8) (size 9 to 14) (size 15 to 20)
#    0.000    0.800    2.000    2.400    0.000   22.400 
#    7.200    0.000    0.000    0.000    0.000    0.000 
#    0.000    0.000    0.000    0.000    0.000    0.000 
#
# Total GULP energy -56115.512375 kJ/mol
# GULP energy per Si atom -5611.551237 kJ/mol
# Density = 2.456172 g / cm^3
# Si number density = 24.617751 Si / 1000 Ang^3
#
#
#
# Elastic Constant Matrix: (Units=GPa)
#
#
# Indices 1 2 3 4 5 6 
#
# 1 225.4496 94.8630 138.7844 0.0001 0.0000 0.0000
# 2 94.8630 232.6159 127.2301 0.0001 0.0001 0.0001
# 3 138.7844 127.2301 213.2687 0.0001 0.0001 0.0000
# 4 0.0001 0.0001 0.0001 48.6365 0.0001 0.0001
# 5 0.0000 0.0001 0.0001 0.0001 153.5500 0.0000
# 6 0.0000 0.0001 0.0000 0.0001 0.0000 -12.7790
#
#
#
# Elastic Compliance Matrix: (Units=1/GPa)
#
#
# Indices 1 2 3 4 5 6 
#
# 1 0.007451 -0.000574 -0.004507 0.000000 0.000000 0.000000
# 2 -0.000574 0.006425 -0.003460 0.000000 0.000000 0.000000
# 3 -0.004507 -0.003460 0.009686 0.000000 0.000000 0.000000
# 4 0.000000 0.000000 0.000000 0.020561 0.000000 0.000000
# 5 0.000000 0.000000 0.000000 0.000000 0.006513 0.000000
# 6 0.000000 0.000000 0.000000 0.000000 0.000000 -0.078253
#
#
# Mechanical properties :
#
#
# Convention : Reuss Voigt Hill
#
# Bulk Modulus (GPa) = 154.27738 154.78770 154.53254
# Shear Modulus (GPa) = -596.86203 58.57860 -269.14172
#
# Velocity S-wave (km/s) = -15.58776 4.88333 -10.46736
# Velocity P-wave (km/s) = 16.16062 9.73698 9.12022
#
# Compressibility (1/GPa) = 0.00648183
#
# Stress axis : x y z
#
# Youngs Moduli (GPa) = 134.20644 155.63622 103.24682
#
# Poissons Ratio (x) = 0.08930 0.46529
# Poissons Ratio (y) = 0.07701 0.35721
# Poissons Ratio (z) = 0.60481 0.53846
#
# Static dielectric constant tensor:
#      x y z
#    x 1.971810 0.000000 0.000000 
#    y 0.000000 1.875460 0.000000 
#    z 0.000000 0.000000 2.137160 
# 
# From -- ./inp_files/381.got.cif
#   From: 2010.05.17/outbox.cif.g08.bks.cpg/sg24_1_cif.got.tgz:381.got - 2010.06.04 00:33:39.
