data_PCOD9336125
_publ_section_title
;
Structure prediction by ZEFSAII (Michael W. Deem and Ramdas Pophale) SiO2 
 PCOD9336125
Probable space group: I 21 21 21
;
_chemical_formula_sum "Si O2"
_cell_formula_units_Z 40
_cell_length_a 9.901955
_cell_length_b 8.920976
_cell_length_c 23.078736
_cell_angle_alpha 90.000000
_cell_angle_beta 90.000000
_cell_angle_gamma 90.000000
_cell_volume 2038.662520
_symmetry_space_group_name_H-M "I 21 21 21"
_symmetry_group_IT_number 24
_symmetry_cell_setting 'orthorhombic'
loop_
_space_group_symop_operation_xyz
x,y,z
-x,1/2-y,z
x,-y,1/2-z
1/2-x,y,-z
1/2+x,1/2+y,1/2+z
1/2-x,-y,1/2+z
1/2+x,1/2-y,-z
-x,1/2+y,1/2-z
loop_
_atom_site_type_symbol
_atom_site_label
_atom_site_fract_x
_atom_site_fract_y
_atom_site_fract_z
Si Si1 0.088464 0.598875 0.012861
Si Si2 0.737565 0.429505 0.186728
Si Si3 0.497433 0.428868 0.099619
Si Si4 0.483672 0.570628 0.856180
Si Si5 0.722686 0.069367 0.192460
O O1 0.022706 0.496452 0.963389
O O2 0.000000 0.750000 0.010090
O O3 0.250000 0.618090 0.000000
O O4 0.061868 0.538033 0.077639
O O5 0.711774 0.500000 0.250000
O O6 0.626703 0.472902 0.138224
O O7 0.735414 0.249126 0.194197
O O8 0.879467 0.488800 0.162344
O O9 0.500000 0.250000 0.094812
O O10 0.368615 0.472222 0.137885
O O11 0.500000 0.750000 0.850164
O O12 0.365786 0.509155 0.815779
O O13 0.657779 0.000000 0.250000
#
# Coordination Sequence:
#
# PCOD9336125 Si02
#       5
#     8   8   8   8   8
#     4  11  25  44  68  97 130 168 217 266 321 382
#     4  11  24  41  64  97 128 166 214 261 319 385
#     4  10  24  43  65  94 128 168 212 262 321 381
#     4  11  24  41  63  93 128 168 213 261 322 376
#     4  11  22  41  65  91 128 168 211 264 320 380
#
# _framework density 19.620705000000001
#
# number of rings (size 3 to 8) (size 9 to 14) (size 15 to 20)
#    0.000    1.200    2.000    3.000    5.600    3.200 
#    0.000    0.000    0.000    0.000    0.000    0.000 
#    0.000    0.000    0.000    0.000    0.000    0.000 
#
# Total GULP energy -111732.719089 kJ/mol
# GULP energy per Si atom -5586.635954 kJ/mol
# Density = 1.957605 g / cm^3
# Si number density = 19.620705 Si / 1000 Ang^3
#
#
#
# Elastic Constant Matrix: (Units=GPa)
#
#
# Indices 1 2 3 4 5 6 
#
# 1 87.0194 8.2871 12.8273 0.0000 0.0000 0.0000
# 2 8.2871 35.2087 27.7372 0.0000 0.0000 0.0000
# 3 12.8273 27.7372 125.3849 0.0000 0.0000 0.0000
# 4 0.0000 0.0000 0.0000 34.9819 0.0000 0.0000
# 5 0.0000 0.0000 0.0000 0.0000 19.8628 0.0000
# 6 0.0000 0.0000 0.0000 0.0000 0.0000 15.3975
#
#
#
# Elastic Compliance Matrix: (Units=1/GPa)
#
#
# Indices 1 2 3 4 5 6 
#
# 1 0.011808 -0.002213 -0.000718 0.000000 0.000000 0.000000
# 2 -0.002213 0.034811 -0.007474 0.000000 0.000000 0.000000
# 3 -0.000718 -0.007474 0.009702 0.000000 0.000000 0.000000
# 4 0.000000 0.000000 0.000000 0.028586 0.000000 0.000000
# 5 0.000000 0.000000 0.000000 0.000000 0.050345 0.000000
# 6 0.000000 0.000000 0.000000 0.000000 0.000000 0.064946
#
#
# Mechanical properties :
#
#
# Convention : Reuss Voigt Hill
#
# Bulk Modulus (GPa) = 28.16133 38.36846 33.26490
# Shear Modulus (GPa) = 21.47320 27.29919 24.38620
#
# Velocity S-wave (km/s) = 3.31178 3.73412 3.52928
# Velocity P-wave (km/s) = 5.38590 6.17973 5.79642
#
# Compressibility (1/GPa) = 0.03550969
#
# Stress axis : x y z
#
# Youngs Moduli (GPa) = 84.68568 28.72631 103.06733
#
# Poissons Ratio (x) = 0.06358 0.07404
# Poissons Ratio (y) = 0.18744 0.77037
# Poissons Ratio (z) = 0.06084 0.21471
#
# Static dielectric constant tensor:
#      x y z
#    x 1.703370 0.000000 0.000000 
#    y 0.000000 1.676890 0.000000 
#    z 0.000000 0.000000 1.836050 
# 
# From -- ./inp_files/9233.got.cif
#   From: 2010.05.17/outbox.cif.g08.bks.cpg/sg24_5_cif.got.tgz:9233.got - 2010.06.04 00:33:39.
