data_PCOD9336788
_publ_section_title
;
Structure prediction by ZEFSAII (Michael W. Deem and Ramdas Pophale) SiO2 
 PCOD9336788
Probable space group: I 21 21 21
;
_chemical_formula_sum "Si O2"
_cell_formula_units_Z 40
_cell_length_a 8.934727
_cell_length_b 14.336249
_cell_length_c 10.630745
_cell_angle_alpha 90.000000
_cell_angle_beta 90.000000
_cell_angle_gamma 90.000000
_cell_volume 1361.697134
_symmetry_space_group_name_H-M "I 21 21 21"
_symmetry_group_IT_number 24
_symmetry_cell_setting 'orthorhombic'
loop_
_space_group_symop_operation_xyz
x,y,z
-x,1/2-y,z
x,-y,1/2-z
1/2-x,y,-z
1/2+x,1/2+y,1/2+z
1/2-x,-y,1/2+z
1/2+x,1/2-y,-z
-x,1/2+y,1/2-z
loop_
_atom_site_type_symbol
_atom_site_label
_atom_site_fract_x
_atom_site_fract_y
_atom_site_fract_z
Si Si1 0.918332 0.874939 0.425479
Si Si2 0.351068 0.200587 0.595125
Si Si3 0.995652 0.459880 0.572685
Si Si4 0.222794 0.913240 0.318882
Si Si5 0.629265 0.172913 0.212951
O O1 0.753915 0.663180 0.210697
O O2 0.904795 0.636139 0.398192
O O3 0.811277 0.846288 0.309133
O O4 0.892711 0.828542 0.560849
O O5 0.500000 0.250000 0.634976
O O6 0.250000 0.261241 0.500000
O O7 0.406692 0.115902 0.508316
O O8 0.867257 0.534998 0.622692
O O9 0.092638 0.517000 0.471500
O O10 0.081561 0.590919 0.812729
O O11 0.142805 0.000000 0.250000
O O12 0.500000 0.250000 0.247466
#
# Coordination Sequence:
#
# PCOD9336788 Si02
#       5
#     8   8   8   8   8
#     4  11  26  51  80 124 166 224 287 344 428 525
#     4  12  28  50  79 127 168 219 272 361 431 510
#     4  12  25  52  90 118 168 229 294 350 430 526
#     4  12  24  48  87 119 163 223 298 338 428 520
#     4  11  28  53  82 124 172 221 281 363 438 503
#
# _framework density 29.375107
#
# number of rings (size 3 to 8) (size 9 to 14) (size 15 to 20)
#    0.000    0.400    4.000    3.000    2.800    7.200 
#   18.000    0.000    0.000    0.000    0.000    0.000 
#    0.000    0.000    0.000    0.000    0.000    0.000 
#
# Total GULP energy -111512.308525 kJ/mol
# GULP energy per Si atom -5575.615426 kJ/mol
# Density = 2.930825 g / cm^3
# Si number density = 29.375107 Si / 1000 Ang^3
#
#
#
# Elastic Constant Matrix: (Units=GPa)
#
#
# Indices 1 2 3 4 5 6 
#
# 1 216.3488 84.4853 112.4363 0.0001 0.0000 0.0000
# 2 84.4853 101.9116 58.8822 -0.0001 0.0000 -0.0002
# 3 112.4363 58.8822 144.3034 -0.0002 0.0000 -0.0005
# 4 0.0001 -0.0001 -0.0002 41.0155 0.0000 -0.0004
# 5 0.0000 0.0000 0.0000 0.0000 57.2323 0.0001
# 6 0.0000 -0.0002 -0.0005 -0.0004 0.0001 -96.2026
#
#
#
# Elastic Compliance Matrix: (Units=1/GPa)
#
#
# Indices 1 2 3 4 5 6 
#
# 1 0.009124 -0.004522 -0.005263 0.000000 0.000000 0.000000
# 2 -0.004522 0.015081 -0.002630 0.000000 0.000000 0.000000
# 3 -0.005263 -0.002630 0.012104 0.000000 0.000000 0.000000
# 4 0.000000 0.000000 0.000000 0.024381 0.000000 0.000000
# 5 0.000000 0.000000 0.000000 0.000000 0.017473 0.000000
# 6 0.000000 0.000000 0.000000 0.000000 0.000000 -0.010395
#
#
# Mechanical properties :
#
#
# Convention : Reuss Voigt Hill
#
# Bulk Modulus (GPa) = 87.13077 108.24127 97.68602
# Shear Modulus (GPa) = 51.85360 14.19305 33.02333
#
# Velocity S-wave (km/s) = 4.20601 2.20049 3.35654
# Velocity P-wave (km/s) = 7.30159 6.58666 6.95332
#
# Compressibility (1/GPa) = 0.01147700
#
# Stress axis : x y z
#
# Youngs Moduli (GPa) = 109.60575 66.30813 82.61644
#
# Poissons Ratio (x) = 0.29987 0.43485
# Poissons Ratio (y) = 0.49568 0.21728
# Poissons Ratio (z) = 0.57691 0.17439
#
# Static dielectric constant tensor:
#      x y z
#    x 2.446960 0.000000 0.000000 
#    y 0.000000 2.574790 0.000000 
#    z 0.000000 0.000000 2.596520 
# 
# From -- ./inp_files/19424.got.cif
#   From: 2010.05.17/outbox.cif.g08.bks.cpg/sg24_10_cif.got.tgz:19424.got - 2010.06.04 00:33:39.
