data_PCOD9336738
_publ_section_title
;
Structure prediction by ZEFSAII (Michael W. Deem and Ramdas Pophale) SiO2 
 PCOD9336738
Probable space group: I 21 21 21
;
_chemical_formula_sum "Si O2"
_cell_formula_units_Z 36
_cell_length_a 8.860001
_cell_length_b 18.467258
_cell_length_c 9.332302
_cell_angle_alpha 90.000000
_cell_angle_beta 90.000000
_cell_angle_gamma 90.000000
_cell_volume 1526.950547
_symmetry_space_group_name_H-M "I 21 21 21"
_symmetry_group_IT_number 24
_symmetry_cell_setting 'orthorhombic'
loop_
_space_group_symop_operation_xyz
x,y,z
-x,1/2-y,z
x,-y,1/2-z
1/2-x,y,-z
1/2+x,1/2+y,1/2+z
1/2-x,-y,1/2+z
1/2+x,1/2-y,-z
-x,1/2+y,1/2-z
loop_
_atom_site_type_symbol
_atom_site_label
_atom_site_fract_x
_atom_site_fract_y
_atom_site_fract_z
Si Si1 0.635686 0.500000 0.250000
Si Si2 0.918720 0.973000 0.024721
Si Si3 0.325534 0.272357 0.345887
Si Si4 0.615646 0.115564 0.783011
Si Si5 0.307643 0.852811 0.658382
O O1 0.525857 0.482280 0.387192
O O2 0.741919 0.432759 0.202360
O O3 0.882000 0.046946 0.111134
O O4 0.970618 0.913740 0.139628
O O5 0.750000 0.945765 0.000000
O O6 0.500000 0.250000 0.358439
O O7 0.250000 0.282084 0.500000
O O8 0.269960 0.342464 0.251958
O O9 0.254763 0.203242 0.270785
O O10 0.485865 0.162505 0.851507
O O11 0.250000 0.839700 0.500000
#
# Coordination Sequence:
#
# PCOD9336738 Si02
#       5
#     4   8   8   8   8
#     4  12  26  46  78 120 154 208 270 312 420 460
#     4  11  25  42  79 112 151 200 253 333 386 472
#     4  12  30  50  77 111 154 210 264 326 399 480
#     4  11  25  49  73 109 154 200 257 324 391 463
#     4  12  28  48  74 112 154 209 256 328 391 470
#
# _framework density 23.5764
#
# number of rings (size 3 to 8) (size 9 to 14) (size 15 to 20)
#    0.000    0.444    2.222    5.333   12.444    2.667 
#    0.000    0.000    0.000    0.000    0.000    0.000 
#    0.000    0.000    0.000    0.000    0.000    0.000 
#
# Total GULP energy -100479.205150 kJ/mol
# GULP energy per Si atom -5582.178064 kJ/mol
# Density = 2.352274 g / cm^3
# Si number density = 23.576400 Si / 1000 Ang^3
#
#
#
# Elastic Constant Matrix: (Units=GPa)
#
#
# Indices 1 2 3 4 5 6 
#
# 1 131.3118 8.8553 21.5793 0.0000 0.0000 0.0000
# 2 8.8553 97.0892 15.1642 0.0001 0.0001 0.0000
# 3 21.5793 15.1642 86.6500 0.0002 0.0003 0.0000
# 4 0.0000 0.0001 0.0002 38.5580 0.0001 -0.0001
# 5 0.0000 0.0001 0.0003 0.0001 40.9435 0.0000
# 6 0.0000 0.0000 0.0000 -0.0001 0.0000 44.2636
#
#
#
# Elastic Compliance Matrix: (Units=1/GPa)
#
#
# Indices 1 2 3 4 5 6 
#
# 1 0.007958 -0.000428 -0.001907 0.000000 0.000000 0.000000
# 2 -0.000428 0.010612 -0.001751 0.000000 0.000000 0.000000
# 3 -0.001907 -0.001751 0.012322 0.000000 0.000000 0.000000
# 4 0.000000 0.000000 0.000000 0.025935 0.000000 0.000000
# 5 0.000000 0.000000 0.000000 0.000000 0.024424 0.000000
# 6 0.000000 0.000000 0.000000 0.000000 0.000000 0.022592
#
#
# Mechanical properties :
#
#
# Convention : Reuss Voigt Hill
#
# Bulk Modulus (GPa) = 44.01225 45.13874 44.57549
# Shear Modulus (GPa) = 41.81048 42.71651 42.26350
#
# Velocity S-wave (km/s) = 4.21575 4.26118 4.23853
# Velocity P-wave (km/s) = 6.51193 6.58768 6.54991
#
# Compressibility (1/GPa) = 0.02272095
#
# Stress axis : x y z
#
# Youngs Moduli (GPa) = 125.66453 94.23059 81.15608
#
# Poissons Ratio (x) = 0.04033 0.15476
# Poissons Ratio (y) = 0.05378 0.14207
# Poissons Ratio (z) = 0.23963 0.16496
#
# Static dielectric constant tensor:
#      x y z
#    x 1.948090 0.000000 0.000000 
#    y 0.000000 1.636750 0.000000 
#    z 0.000000 0.000000 2.041060 
# 
# From -- ./inp_files/9055.got.cif
#   From: 2010.05.17/outbox.cif.g08.bks.cpg/sg24_5_cif.got.tgz:9055.got - 2010.06.04 00:33:39.
