data_PCOD9336762
_publ_section_title
;
Structure prediction by ZEFSAII (Michael W. Deem and Ramdas Pophale) SiO2 
 PCOD9336762
Probable space group: I 21 21 21
;
_chemical_formula_sum "Si O2"
_cell_formula_units_Z 32
_cell_length_a 8.318119
_cell_length_b 15.444525
_cell_length_c 10.371614
_cell_angle_alpha 90.000000
_cell_angle_beta 90.000000
_cell_angle_gamma 90.000000
_cell_volume 1332.434995
_symmetry_space_group_name_H-M "I 21 21 21"
_symmetry_group_IT_number 24
_symmetry_cell_setting 'orthorhombic'
loop_
_space_group_symop_operation_xyz
x,y,z
-x,1/2-y,z
x,-y,1/2-z
1/2-x,y,-z
1/2+x,1/2+y,1/2+z
1/2-x,-y,1/2+z
1/2+x,1/2-y,-z
-x,1/2+y,1/2-z
loop_
_atom_site_type_symbol
_atom_site_label
_atom_site_fract_x
_atom_site_fract_y
_atom_site_fract_z
Si Si1 0.037340 0.146864 0.101459
Si Si2 0.656488 0.000000 0.750000
Si Si3 0.063338 0.157450 0.538001
Si Si4 0.250000 0.442848 0.500000
Si Si5 0.103816 0.904001 0.684885
O O1 0.218992 0.129745 0.146467
O O2 0.000000 0.250000 0.108298
O O3 0.016017 0.112877 0.953040
O O4 0.939844 0.083571 0.197525
O O5 0.776341 0.013458 0.633468
O O6 0.250000 0.140755 0.500000
O O7 0.046163 0.151389 0.692621
O O8 0.000000 0.250000 0.493772
O O9 0.926420 0.097905 0.476584
O O10 0.119426 0.000000 0.750000
#
# Coordination Sequence:
#
# PCOD9336762 Si02
#       5
#     8   4   8   4   8
#     4  11  26  48  81 120 165 219 283 358 425 511
#     4  12  28  50  76 118 166 214 288 352 422 518
#     4  12  27  49  77 113 159 209 273 342 414 498
#     4  12  30  48  78 116 158 214 268 344 418 502
#     4  11  25  46  79 114 162 224 274 337 431 506
#
# _framework density 24.016179000000001
#
# number of rings (size 3 to 8) (size 9 to 14) (size 15 to 20)
#    0.000    0.500    2.500    3.750   12.250    4.000 
#    0.000    0.000    0.000    0.000    0.000    0.000 
#    0.000    0.000    0.000    0.000    0.000    0.000 
#
# Total GULP energy -89221.496200 kJ/mol
# GULP energy per Si atom -5576.343512 kJ/mol
# Density = 2.396152 g / cm^3
# Si number density = 24.016179 Si / 1000 Ang^3
#
#
#
# Elastic Constant Matrix: (Units=GPa)
#
#
# Indices 1 2 3 4 5 6 
#
# 1 136.9056 55.2666 35.9248 -0.0001 0.0000 0.0001
# 2 55.2666 176.3166 61.2083 -0.0004 0.0000 0.0005
# 3 35.9248 61.2083 197.8931 -0.0003 0.0000 0.0007
# 4 -0.0001 -0.0004 -0.0003 52.0241 0.0000 0.0007
# 5 0.0000 0.0000 0.0000 0.0000 23.2539 -0.0001
# 6 0.0001 0.0005 0.0007 0.0007 -0.0001 -5.1396
#
#
#
# Elastic Compliance Matrix: (Units=1/GPa)
#
#
# Indices 1 2 3 4 5 6 
#
# 1 0.008475 -0.002378 -0.000803 0.000000 0.000000 0.000000
# 2 -0.002378 0.007021 -0.001740 0.000000 0.000000 0.000000
# 3 -0.000803 -0.001740 0.005737 0.000000 0.000000 0.000001
# 4 0.000000 0.000000 0.000000 0.019222 0.000000 0.000003
# 5 0.000000 0.000000 0.000000 0.000000 0.043004 0.000000
# 6 0.000000 0.000000 0.000001 0.000003 0.000000 -0.194567
#
#
# Mechanical properties :
#
#
# Convention : Reuss Voigt Hill
#
# Bulk Modulus (GPa) = 87.78402 90.65718 89.22060
# Shear Modulus (GPa) = -51.29791 37.94204 -6.67794
#
# Velocity S-wave (km/s) = -4.62667 3.97905 -1.66932
# Velocity P-wave (km/s) = 2.84428 7.67729 5.78924
#
# Compressibility (1/GPa) = 0.01139159
#
# Stress axis : x y z
#
# Youngs Moduli (GPa) = 117.99606 142.43159 174.30148
#
# Poissons Ratio (x) = 0.33865 0.13998
# Poissons Ratio (y) = 0.28055 0.30327
# Poissons Ratio (z) = 0.09476 0.24782
#
# Static dielectric constant tensor:
#      x y z
#    x 1.527300 0.000000 0.000000 
#    y 0.000000 2.130380 0.000000 
#    z 0.000000 0.000000 1.947780 
# 
# From -- ./inp_files/18029.got.cif
#   From: 2010.05.17/outbox.cif.g08.bks.cpg/sg24_10_cif.got.tgz:18029.got - 2010.06.04 00:33:39.
