data_PCOD9336792
_publ_section_title
;
Structure prediction by ZEFSAII (Michael W. Deem and Ramdas Pophale) SiO2 
 PCOD9336792
Probable space group: I 21 21 21
;
_chemical_formula_sum "Si O2"
_cell_formula_units_Z 24
_cell_length_a 7.377153
_cell_length_b 5.196474
_cell_length_c 26.047338
_cell_angle_alpha 90.000000
_cell_angle_beta 90.000000
_cell_angle_gamma 90.000000
_cell_volume 998.529489
_symmetry_space_group_name_H-M "I 21 21 21"
_symmetry_group_IT_number 24
_symmetry_cell_setting 'orthorhombic'
loop_
_space_group_symop_operation_xyz
x,y,z
-x,1/2-y,z
x,-y,1/2-z
1/2-x,y,-z
1/2+x,1/2+y,1/2+z
1/2-x,-y,1/2+z
1/2+x,1/2-y,-z
-x,1/2+y,1/2-z
loop_
_atom_site_type_symbol
_atom_site_label
_atom_site_fract_x
_atom_site_fract_y
_atom_site_fract_z
Si Si1 0.297799 0.869504 0.895657
Si Si2 0.778634 0.747600 0.218584
Si Si3 0.000000 0.750000 0.449585
Si Si4 0.000000 0.750000 0.978145
O O1 0.500000 0.750000 0.895536
O O2 0.221087 0.797451 0.840170
O O3 0.171610 0.767805 0.940711
O O4 0.336603 0.168596 0.910963
O O5 0.720150 0.500000 0.250000
O O6 0.000000 0.750000 0.217680
O O7 0.722513 0.000000 0.250000
O O8 0.013692 0.507467 0.487725
#
# Coordination Sequence:
#
# PCOD9336792 Si02
#       4
#     8   8   4   4
#     4  11  27  45  73 101 142 187 237 292 359 420
#     4   9  20  37  65  97 131 172 229 286 350 416
#     4  12  28  44  72 106 142 194 238 290 356 426
#     4  12  30  46  68 106 148 188 246 294 350 430
#
# _framework density 24.035345
#
# number of rings (size 3 to 8) (size 9 to 14) (size 15 to 20)
#    0.000    1.333    1.667    1.000   21.000    0.000 
#    0.000    1.667    0.000    0.000    0.000    0.000 
#    0.000    0.000    0.000    0.000    0.000    0.000 
#
# Total GULP energy -67077.699195 kJ/mol
# GULP energy per Si atom -5589.808266 kJ/mol
# Density = 2.398064 g / cm^3
# Si number density = 24.035345 Si / 1000 Ang^3
#
#
#
# Elastic Constant Matrix: (Units=GPa)
#
#
# Indices 1 2 3 4 5 6 
#
# 1 92.0248 28.8896 33.1569 0.0000 0.0000 0.0000
# 2 28.8896 214.6770 129.5978 0.0000 0.0000 0.0000
# 3 33.1569 129.5978 258.8570 0.0000 0.0000 0.0000
# 4 0.0000 0.0000 0.0000 36.7007 0.0000 0.0000
# 5 0.0000 0.0000 0.0000 0.0000 -14.0996 0.0000
# 6 0.0000 0.0000 0.0000 0.0000 0.0000 7.0334
#
#
#
# Elastic Compliance Matrix: (Units=1/GPa)
#
#
# Indices 1 2 3 4 5 6 
#
# 1 0.011525 -0.000946 -0.001003 0.000000 0.000000 0.000000
# 2 -0.000946 0.006753 -0.003260 0.000000 0.000000 0.000000
# 3 -0.001003 -0.003260 0.005624 0.000000 0.000000 0.000000
# 4 0.000000 0.000000 0.000000 0.027247 0.000000 0.000000
# 5 0.000000 0.000000 0.000000 0.000000 -0.070924 0.000000
# 6 0.000000 0.000000 0.000000 0.000000 0.000000 0.142179
#
#
# Mechanical properties :
#
#
# Convention : Reuss Voigt Hill
#
# Bulk Modulus (GPa) = 74.15528 105.42747 89.79138
# Shear Modulus (GPa) = 36.41237 30.85453 33.63345
#
# Velocity S-wave (km/s) = 3.89646 3.58678 3.74482
# Velocity P-wave (km/s) = 7.15282 7.81742 7.49249
#
# Compressibility (1/GPa) = 0.01348522
#
# Stress axis : x y z
#
# Youngs Moduli (GPa) = 86.76946 148.07277 177.81786
#
# Poissons Ratio (x) = 0.14001 0.17832
# Poissons Ratio (y) = 0.08204 0.57969
# Poissons Ratio (z) = 0.08701 0.48272
#
# Static dielectric constant tensor:
#      x y z
#    x 2.013610 0.000000 0.000000 
#    y 0.000000 1.963500 0.000000 
#    z 0.000000 0.000000 1.961850 
# 
# From -- ./inp_files/16145.got.cif
#   From: 2010.05.17/outbox.cif.g08.bks.cpg/sg24_9_cif.got.tgz:16145.got - 2010.06.04 00:33:39.
