data_PCOD9336149
_publ_section_title
;
Structure prediction by ZEFSAII (Michael W. Deem and Ramdas Pophale) SiO2 
 PCOD9336149
Probable space group: I 21 21 21
;
_chemical_formula_sum "Si O2"
_cell_formula_units_Z 40
_cell_length_a 5.411918
_cell_length_b 18.898962
_cell_length_c 16.522822
_cell_angle_alpha 90.000000
_cell_angle_beta 90.000000
_cell_angle_gamma 90.000000
_cell_volume 1689.948164
_symmetry_space_group_name_H-M "I 21 21 21"
_symmetry_group_IT_number 24
_symmetry_cell_setting 'orthorhombic'
loop_
_space_group_symop_operation_xyz
x,y,z
-x,1/2-y,z
x,-y,1/2-z
1/2-x,y,-z
1/2+x,1/2+y,1/2+z
1/2-x,-y,1/2+z
1/2+x,1/2-y,-z
-x,1/2+y,1/2-z
loop_
_atom_site_type_symbol
_atom_site_label
_atom_site_fract_x
_atom_site_fract_y
_atom_site_fract_z
Si Si1 0.250000 0.840742 0.500000
Si Si2 0.902804 0.444978 0.881968
Si Si3 0.250000 0.343999 0.500000
Si Si4 0.731364 0.000000 0.750000
Si Si5 0.000000 0.750000 0.130099
Si Si6 0.250000 0.062495 0.500000
Si Si7 0.443586 0.863778 0.744787
Si Si8 0.500000 0.250000 0.868680
O O1 0.450145 0.893501 0.458949
O O2 0.318660 0.789498 0.572089
O O3 0.753288 0.399300 0.815420
O O4 0.753718 0.510181 0.921993
O O5 0.121669 0.476129 0.829502
O O6 0.304751 0.292279 0.575518
O O7 0.499458 0.391239 0.494078
O O8 0.584686 0.930958 0.777405
O O9 0.134171 0.809902 0.185051
O O10 0.608278 0.811581 0.688169
#
# Coordination Sequence:
#
# PCOD9336149 Si02
#       8
#     4   8   4   4   4   4   8   4
#     4   9  20  40  64  98 139 178 236 292 365 450
#     4  10  24  44  67 109 143 186 243 310 377 438
#     4  12  27  50  80 106 151 204 254 312 377 444
#     4  12  24  40  74 106 142 198 240 306 378 456
#     4  11  26  52  72 105 150 200 260 313 378 458
#     4  11  27  48  80 114 148 198 254 316 380 462
#     4  10  24  46  69 104 143 184 246 309 374 441
#     4   9  20  40  68  95 138 180 226 299 364 444
#
# _framework density 23.669364999999999
#
# number of rings (size 3 to 8) (size 9 to 14) (size 15 to 20)
#    0.000    1.600    0.000    2.400   11.200    0.000 
#    7.200    0.000    0.000    0.000    0.000    0.000 
#    0.000    0.000    0.000    0.000    0.000    0.000 
#
# Total GULP energy -111612.131970 kJ/mol
# GULP energy per Si atom -5580.606599 kJ/mol
# Density = 2.361549 g / cm^3
# Si number density = 23.669365 Si / 1000 Ang^3
#
#
#
# Elastic Constant Matrix: (Units=GPa)
#
#
# Indices 1 2 3 4 5 6 
#
# 1 66.9529 62.4608 29.5481 0.0000 0.0000 0.0000
# 2 62.4608 200.7224 78.0792 0.0000 0.0000 0.0000
# 3 29.5481 78.0792 106.8135 0.0000 0.0000 0.0000
# 4 0.0000 0.0000 0.0000 178.7055 0.0000 0.0000
# 5 0.0000 0.0000 0.0000 0.0000 -13.4824 0.0000
# 6 0.0000 0.0000 0.0000 0.0000 0.0000 -22.3527
#
#
#
# Elastic Compliance Matrix: (Units=1/GPa)
#
#
# Indices 1 2 3 4 5 6 
#
# 1 0.021206 -0.006032 -0.001457 0.000000 0.000000 0.000000
# 2 -0.006032 0.008677 -0.004674 0.000000 0.000000 0.000000
# 3 -0.001457 -0.004674 0.013182 0.000000 0.000000 0.000000
# 4 0.000000 0.000000 0.000000 0.005596 0.000000 0.000000
# 5 0.000000 0.000000 0.000000 0.000000 -0.074171 0.000000
# 6 0.000000 0.000000 0.000000 0.000000 0.000000 -0.044737
#
#
# Mechanical properties :
#
#
# Convention : Reuss Voigt Hill
#
# Bulk Modulus (GPa) = 53.36510 79.40721 66.38616
# Shear Modulus (GPa) = -126.02982 42.20079 -41.91452
#
# Velocity S-wave (km/s) = -7.30490 4.22705 -4.21269
# Velocity P-wave (km/s) = 6.96805 7.57927 2.10851
#
# Compressibility (1/GPa) = 0.01873884
#
# Stress axis : x y z
#
# Youngs Moduli (GPa) = 47.15556 115.24162 75.86099
#
# Poissons Ratio (x) = 0.69517 0.11052
# Poissons Ratio (y) = 0.28446 0.35460
# Poissons Ratio (z) = 0.06870 0.53868
#
# Static dielectric constant tensor:
#      x y z
#    x 1.935670 0.000000 0.000000 
#    y 0.000000 1.946790 0.000000 
#    z 0.000000 0.000000 1.977700 
# 
# From -- ./inp_files/28667.got.cif
#   From: 2010.05.17/outbox.cif.g08.bks.cpg/sg24_15_cif.got.tgz:28667.got - 2010.06.04 00:33:39.
