data_PCOD9336610
_publ_section_title
;
Structure prediction by ZEFSAII (Michael W. Deem and Ramdas Pophale) SiO2 
 PCOD9336610
Probable space group: I 21 21 21
;
_chemical_formula_sum "Si O2"
_cell_formula_units_Z 40
_cell_length_a 7.364417
_cell_length_b 9.182551
_cell_length_c 23.963057
_cell_angle_alpha 90.000000
_cell_angle_beta 90.000000
_cell_angle_gamma 90.000000
_cell_volume 1620.480994
_symmetry_space_group_name_H-M "I 21 21 21"
_symmetry_group_IT_number 24
_symmetry_cell_setting 'orthorhombic'
loop_
_space_group_symop_operation_xyz
x,y,z
-x,1/2-y,z
x,-y,1/2-z
1/2-x,y,-z
1/2+x,1/2+y,1/2+z
1/2-x,-y,1/2+z
1/2+x,1/2-y,-z
-x,1/2+y,1/2-z
loop_
_atom_site_type_symbol
_atom_site_label
_atom_site_fract_x
_atom_site_fract_y
_atom_site_fract_z
Si Si1 0.830227 0.493851 0.577716
Si Si2 0.000000 0.250000 0.995729
Si Si3 0.104055 0.479198 0.075461
Si Si4 0.816577 0.073081 0.307901
Si Si5 0.250000 0.263049 0.500000
Si Si6 0.260651 0.094558 0.304257
O O1 0.927840 0.621542 0.544178
O O2 0.613464 0.518199 0.579899
O O3 0.855324 0.349679 0.540427
O O4 0.867799 0.469047 0.642625
O O5 0.867782 0.165717 0.039848
O O6 0.207044 0.485236 0.134333
O O7 0.155003 0.626122 0.042813
O O8 0.722670 0.230767 0.306961
O O9 0.038656 0.083537 0.307502
O O10 0.763925 0.000000 0.250000
O O11 0.311225 0.000000 0.250000
#
# Coordination Sequence:
#
# PCOD9336610 Si02
#       6
#     8   4   8   8   4   8
#     4  11  23  42  64  97 135 181 225 284 338 416
#     4  12  26  40  64  98 136 178 226 278 348 402
#     4  11  24  40  62  97 139 180 220 287 343 408
#     4   9  18  34  57  92 131 170 220 276 346 397
#     4  12  22  40  70  90 138 186 224 262 352 412
#     4   9  18  35  61  89 128 173 220 282 339 394
#
# _framework density 24.684028000000001
#
# number of rings (size 3 to 8) (size 9 to 14) (size 15 to 20)
#    0.000    1.600    4.000    0.600    2.800    4.800 
#    0.000    0.000    0.000    2.400    0.000    0.000 
#    0.000    0.000    0.000    0.000    0.000    0.000 
#
# Total GULP energy -111791.034044 kJ/mol
# GULP energy per Si atom -5589.551702 kJ/mol
# Density = 2.462785 g / cm^3
# Si number density = 24.684028 Si / 1000 Ang^3
#
#
#
# Elastic Constant Matrix: (Units=GPa)
#
#
# Indices 1 2 3 4 5 6 
#
# 1 73.3085 37.6823 33.6375 0.0000 0.0000 0.0000
# 2 37.6823 220.3625 139.4856 0.0000 0.0000 0.0000
# 3 33.6375 139.4856 288.4880 0.0000 0.0000 0.0000
# 4 0.0000 0.0000 0.0000 23.8787 0.0000 0.0000
# 5 0.0000 0.0000 0.0000 0.0000 16.8507 0.0000
# 6 0.0000 0.0000 0.0000 0.0000 0.0000 38.8888
#
#
#
# Elastic Compliance Matrix: (Units=1/GPa)
#
#
# Indices 1 2 3 4 5 6 
#
# 1 0.015063 -0.002110 -0.000736 0.000000 0.000000 0.000000
# 2 -0.002110 0.006835 -0.003059 0.000000 0.000000 0.000000
# 3 -0.000736 -0.003059 0.005031 0.000000 0.000000 0.000000
# 4 0.000000 0.000000 0.000000 0.041878 0.000000 0.000000
# 5 0.000000 0.000000 0.000000 0.000000 0.059345 0.000000
# 6 0.000000 0.000000 0.000000 0.000000 0.000000 0.025714
#
#
# Mechanical properties :
#
#
# Convention : Reuss Voigt Hill
#
# Bulk Modulus (GPa) = 66.13871 111.52997 88.83434
# Shear Modulus (GPa) = 29.28840 40.68055 34.98447
#
# Velocity S-wave (km/s) = 3.44834 4.06402 3.76878
# Velocity P-wave (km/s) = 6.53507 8.20383 7.41653
#
# Compressibility (1/GPa) = 0.01511974
#
# Stress axis : x y z
#
# Youngs Moduli (GPa) = 66.38645 146.30896 198.76404
#
# Poissons Ratio (x) = 0.30868 0.14634
# Poissons Ratio (y) = 0.14006 0.60796
# Poissons Ratio (z) = 0.04888 0.44751
#
# Static dielectric constant tensor:
#      x y z
#    x 2.208440 0.000000 0.000000 
#    y 0.000000 1.895970 0.000000 
#    z 0.000000 0.000000 1.949930 
# 
# From -- ./inp_files/9335.got.cif
#   From: 2010.05.17/outbox.cif.g08.bks.cpg/sg24_5_cif.got.tgz:9335.got - 2010.06.04 00:33:39.
