data_PCOD9336050
_publ_section_title
;
Structure prediction by ZEFSAII (Michael W. Deem and Ramdas Pophale) SiO2 
 PCOD9336050
Probable space group: I 21 21 21
;
_chemical_formula_sum "Si O2"
_cell_formula_units_Z 44
_cell_length_a 8.315921
_cell_length_b 8.764259
_cell_length_c 26.186113
_cell_angle_alpha 90.000000
_cell_angle_beta 90.000000
_cell_angle_gamma 90.000000
_cell_volume 1908.519475
_symmetry_space_group_name_H-M "I 21 21 21"
_symmetry_group_IT_number 24
_symmetry_cell_setting 'orthorhombic'
loop_
_space_group_symop_operation_xyz
x,y,z
-x,1/2-y,z
x,-y,1/2-z
1/2-x,y,-z
1/2+x,1/2+y,1/2+z
1/2-x,-y,1/2+z
1/2+x,1/2-y,-z
-x,1/2+y,1/2-z
loop_
_atom_site_type_symbol
_atom_site_label
_atom_site_fract_x
_atom_site_fract_y
_atom_site_fract_z
Si Si1 0.590474 0.022152 0.575232
Si Si2 0.138291 0.132815 0.902456
Si Si3 0.500000 0.750000 0.179228
Si Si4 0.169093 0.304588 0.172589
Si Si5 0.744370 0.320388 0.404992
Si Si6 0.618586 0.000000 0.250000
Si Si7 0.750000 0.815657 0.500000
O O1 0.714008 0.162637 0.566978
O O2 0.414439 0.090106 0.587903
O O3 0.641249 0.920165 0.624348
O O4 0.608667 0.919229 0.524655
O O5 0.255061 0.154993 0.854226
O O6 0.200977 0.210283 0.953555
O O7 0.000000 0.250000 0.886591
O O8 0.114948 0.955376 0.915908
O O9 0.666035 0.740366 0.147396
O O10 0.511152 0.899302 0.213119
O O11 0.274578 0.387932 0.214914
O O12 0.000000 0.250000 0.194558
#
# Coordination Sequence:
#
# PCOD9336050 Si02
#       7
#     8   8   4   8   8   4   4
#     4  10  23  48  73 102 147 188 242 306 362 437
#     4  11  25  42  74  99 145 189 236 295 371 436
#     4  12  28  46  70 106 148 188 254 298 380 450
#     4  11  23  46  71 100 141 185 241 300 374 436
#     4  11  24  46  74  98 145 200 233 297 376 433
#     4  12  28  44  74 110 142 188 254 316 370 452
#     4  10  26  44  70 112 136 182 256 294 356 446
#
# _framework density 23.054518999999999
#
# number of rings (size 3 to 8) (size 9 to 14) (size 15 to 20)
#    0.000    1.091    3.636    1.091    8.909    2.182 
#    3.273    0.000    0.000    0.000    0.000    0.000 
#    0.000    0.000    0.000    0.000    0.000    0.000 
#
# Total GULP energy -122721.381812 kJ/mol
# GULP energy per Si atom -5578.244628 kJ/mol
# Density = 2.300205 g / cm^3
# Si number density = 23.054519 Si / 1000 Ang^3
#
#
#
# Elastic Constant Matrix: (Units=GPa)
#
#
# Indices 1 2 3 4 5 6 
#
# 1 55.5128 0.8188 12.4964 0.0000 0.0000 0.0000
# 2 0.8188 110.8375 7.5827 0.0000 0.0000 0.0000
# 3 12.4964 7.5827 79.9248 0.0000 0.0000 0.0000
# 4 0.0000 0.0000 0.0000 11.2785 0.0000 0.0000
# 5 0.0000 0.0000 0.0000 0.0000 -92.5414 0.0000
# 6 0.0000 0.0000 0.0000 0.0000 0.0000 45.2378
#
#
#
# Elastic Compliance Matrix: (Units=1/GPa)
#
#
# Indices 1 2 3 4 5 6 
#
# 1 0.018671 0.000062 -0.002925 0.000000 0.000000 0.000000
# 2 0.000062 0.009081 -0.000871 0.000000 0.000000 0.000000
# 3 -0.002925 -0.000871 0.013052 0.000000 0.000000 0.000000
# 4 0.000000 0.000000 0.000000 0.088664 0.000000 0.000000
# 5 0.000000 0.000000 0.000000 0.000000 -0.010806 0.000000
# 6 0.000000 0.000000 0.000000 0.000000 0.000000 0.022105
#
#
# Mechanical properties :
#
#
# Convention : Reuss Voigt Hill
#
# Bulk Modulus (GPa) = 29.99766 32.00788 31.00277
# Shear Modulus (GPa) = 31.37770 7.82012 19.59891
#
# Velocity S-wave (km/s) = 3.69321 1.84374 2.91883
# Velocity P-wave (km/s) = 5.58804 4.29490 4.98359
#
# Compressibility (1/GPa) = 0.03333594
#
# Stress axis : x y z
#
# Youngs Moduli (GPa) = 53.55772 110.11555 76.61788
#
# Poissons Ratio (x) = -0.00685 0.22412
# Poissons Ratio (y) = -0.00333 0.06676
# Poissons Ratio (z) = 0.15667 0.09594
#
# Static dielectric constant tensor:
#      x y z
#    x 2.288340 0.000000 0.000000 
#    y 0.000000 1.905250 0.000000 
#    z 0.000000 0.000000 2.152640 
# 
# From -- ./inp_files/38243.got.cif
#   From: 2010.05.17/outbox.cif.g08.bks.cpg/sg24_20_cif.got.tgz:38243.got - 2010.06.04 00:33:39.
