data_PCOD9336657
_publ_section_title
;
Structure prediction by ZEFSAII (Michael W. Deem and Ramdas Pophale) SiO2 
 PCOD9336657
Probable space group: I 21 21 21
;
_chemical_formula_sum "Si O2"
_cell_formula_units_Z 56
_cell_length_a 13.416830
_cell_length_b 21.767314
_cell_length_c 9.169740
_cell_angle_alpha 90.000000
_cell_angle_beta 90.000000
_cell_angle_gamma 90.000000
_cell_volume 2678.007451
_symmetry_space_group_name_H-M "I 21 21 21"
_symmetry_group_IT_number 24
_symmetry_cell_setting 'orthorhombic'
loop_
_space_group_symop_operation_xyz
x,y,z
-x,1/2-y,z
x,-y,1/2-z
1/2-x,y,-z
1/2+x,1/2+y,1/2+z
1/2-x,-y,1/2+z
1/2+x,1/2-y,-z
-x,1/2+y,1/2-z
loop_
_atom_site_type_symbol
_atom_site_label
_atom_site_fract_x
_atom_site_fract_y
_atom_site_fract_z
Si Si1 0.538371 0.688293 0.655749
Si Si2 0.480026 0.593629 0.415736
Si Si3 0.192110 0.057865 0.844356
Si Si4 0.618951 0.853938 0.891843
Si Si5 0.241152 0.196034 0.824629
Si Si6 0.644871 0.990201 0.921539
Si Si7 0.840339 0.821635 0.792186
O O1 0.500000 0.750000 0.581221
O O2 0.536384 0.636977 0.532458
O O3 0.460813 0.669788 0.778680
O O4 0.644854 0.701586 0.726020
O O5 0.572039 0.555788 0.350755
O O6 0.411609 0.546455 0.504436
O O7 0.411253 0.635057 0.307818
O O8 0.209887 0.127004 0.783929
O O9 0.228520 0.000000 0.750000
O O10 0.250000 0.055243 0.000000
O O11 0.594124 0.923894 0.935982
O O12 0.728821 0.850754 0.815553
O O13 0.620196 0.817254 0.042884
O O14 0.176029 0.253376 0.771682
O O15 0.250000 0.200224 0.000000
O O16 0.657396 0.000000 0.750000
O O17 0.750000 0.984706 0.000000
#
# Coordination Sequence:
#
# PCOD9336657 Si02
#       7
#     8   8   8   8   8   8   8
#     4  12  23  44  75 102 135 185 241 288 349 425
#     4  12  27  43  75 101 137 187 242 292 350 429
#     4  11  27  51  71 104 140 186 243 298 352 428
#     4  11  25  45  64 107 149 182 227 290 349 431
#     4  11  23  48  77 100 139 187 239 290 356 422
#     4  12  25  41  68 101 144 188 226 282 360 423
#     4  11  25  46  70 104 149 178 231 294 360 417
#
# _framework density 20.911069999999999
#
# number of rings (size 3 to 8) (size 9 to 14) (size 15 to 20)
#    0.000    0.571    7.143    1.714    2.000    1.714 
#    5.143    0.000    0.000    0.000    0.000    0.000 
#    0.000    0.000    0.000    0.000    0.000    0.000 
#
# Total GULP energy -156430.364416 kJ/mol
# GULP energy per Si atom -5586.798729 kJ/mol
# Density = 2.086348 g / cm^3
# Si number density = 20.911070 Si / 1000 Ang^3
#
#
#
# Elastic Constant Matrix: (Units=GPa)
#
#
# Indices 1 2 3 4 5 6 
#
# 1 86.1516 16.9116 41.8128 0.0000 0.0000 0.0001
# 2 16.9116 146.0732 52.4093 0.0001 0.0000 0.0002
# 3 41.8128 52.4093 59.9875 0.0004 0.0001 0.0010
# 4 0.0000 0.0001 0.0004 35.8750 -0.0001 0.0005
# 5 0.0000 0.0000 0.0001 -0.0001 0.6501 -0.0001
# 6 0.0001 0.0002 0.0010 0.0005 -0.0001 14.3527
#
#
#
# Elastic Compliance Matrix: (Units=1/GPa)
#
#
# Indices 1 2 3 4 5 6 
#
# 1 0.018808 0.003679 -0.016324 0.000000 0.000002 0.000001
# 2 0.003679 0.010691 -0.011905 0.000000 0.000002 0.000001
# 3 -0.016324 -0.011905 0.038450 0.000000 -0.000005 -0.000002
# 4 0.000000 0.000000 0.000000 0.027875 0.000003 -0.000001
# 5 0.000002 0.000002 -0.000005 0.000003 1.538204 0.000007
# 6 0.000001 0.000001 -0.000002 -0.000001 0.000007 0.069673
#
#
# Mechanical properties :
#
#
# Convention : Reuss Voigt Hill
#
# Bulk Modulus (GPa) = 53.05353 57.16440 55.10897
# Shear Modulus (GPa) = 2.84239 22.24747 12.54493
#
# Velocity S-wave (km/s) = 1.16714 3.26530 2.45198
# Velocity P-wave (km/s) = 5.21943 6.45078 5.86749
#
# Compressibility (1/GPa) = 0.01884889
#
# Stress axis : x y z
#
# Youngs Moduli (GPa) = 53.16898 93.53283 26.00783
#
# Poissons Ratio (x) = -0.34415 0.42456
# Poissons Ratio (y) = -0.19563 0.30964
# Poissons Ratio (z) = 0.86794 1.11355
#
# Static dielectric constant tensor:
#      x y z
#    x 1.790840 0.000000 0.000000 
#    y 0.000000 1.870630 0.000000 
#    z 0.000000 0.000000 1.734570 
# 
# From -- ./inp_files/13159.got.cif
#   From: 2010.05.17/outbox.cif.g08.bks.cpg/sg24_7_cif.got.tgz:13159.got - 2010.06.04 00:33:39.
