data_PCOD9336491
_publ_section_title
;
Structure prediction by ZEFSAII (Michael W. Deem and Ramdas Pophale) SiO2 
 PCOD9336491
Probable space group: I 21 21 21
;
_chemical_formula_sum "Si O2"
_cell_formula_units_Z 48
_cell_length_a 17.058317
_cell_length_b 9.801658
_cell_length_c 12.833264
_cell_angle_alpha 90.000000
_cell_angle_beta 90.000000
_cell_angle_gamma 90.000000
_cell_volume 2145.719037
_symmetry_space_group_name_H-M "I 21 21 21"
_symmetry_group_IT_number 24
_symmetry_cell_setting 'orthorhombic'
loop_
_space_group_symop_operation_xyz
x,y,z
-x,1/2-y,z
x,-y,1/2-z
1/2-x,y,-z
1/2+x,1/2+y,1/2+z
1/2-x,-y,1/2+z
1/2+x,1/2-y,-z
-x,1/2+y,1/2-z
loop_
_atom_site_type_symbol
_atom_site_label
_atom_site_fract_x
_atom_site_fract_y
_atom_site_fract_z
Si Si1 0.361013 0.424702 0.451062
Si Si2 0.822195 0.227709 0.921151
Si Si3 0.869713 0.465917 0.565925
Si Si4 0.092363 0.762747 0.123393
Si Si5 0.985223 0.882095 0.802422
Si Si6 0.741171 0.262484 0.313825
O O1 0.368399 0.586168 0.438513
O O2 0.379181 0.376970 0.567288
O O3 0.429467 0.337055 0.394350
O O4 0.285366 0.363784 0.390233
O O5 0.857943 0.374105 0.951102
O O6 0.798046 0.241453 0.799088
O O7 0.750000 0.209129 0.000000
O O8 0.893818 0.384219 0.461553
O O9 0.795391 0.391760 0.622095
O O10 0.939537 0.450575 0.648887
O O11 0.165562 0.782110 0.202141
O O12 0.000000 0.750000 0.152460
O O13 0.000000 0.750000 0.734281
O O14 0.937080 0.000000 0.750000
#
# Coordination Sequence:
#
# PCOD9336491 Si02
#       6
#     8   8   8   8   8   8
#     4  11  22  40  63  95 129 160 213 261 321 387
#     4  12  25  40  62  93 126 162 214 273 324 373
#     4  11  22  40  63  95 129 160 213 261 321 387
#     4  11  21  44  67  96 124 170 218 261 312 396
#     4  12  22  36  60  96 135 165 206 258 333 391
#     4  11  22  40  69  92 120 171 217 259 317 385
#
# _framework density 22.370124000000001
#
# number of rings (size 3 to 8) (size 9 to 14) (size 15 to 20)
#    0.000    0.667    5.000    7.000    2.333    0.000 
#    0.000    0.000    3.667    6.000    0.000    0.000 
#    0.000    0.000    0.000    0.000    0.000    0.000 
#
# Total GULP energy -133738.688902 kJ/mol
# GULP energy per Si atom -5572.445371 kJ/mol
# Density = 2.231921 g / cm^3
# Si number density = 22.370124 Si / 1000 Ang^3
#
#
#
# Elastic Constant Matrix: (Units=GPa)
#
#
# Indices 1 2 3 4 5 6 
#
# 1 127.4005 4.6272 -12.6001 0.0000 0.0000 0.0000
# 2 4.6272 160.2182 0.4797 0.0000 0.0000 0.0000
# 3 -12.6001 0.4797 16.5377 0.0000 0.0000 0.0000
# 4 0.0000 0.0000 0.0000 10.7227 0.0000 0.0000
# 5 0.0000 0.0000 0.0000 0.0000 22.3684 0.0000
# 6 0.0000 0.0000 0.0000 0.0000 0.0000 21.5517
#
#
#
# Elastic Compliance Matrix: (Units=1/GPa)
#
#
# Indices 1 2 3 4 5 6 
#
# 1 0.008500 -0.000265 0.006484 0.000000 0.000000 0.000000
# 2 -0.000265 0.006250 -0.000383 0.000000 0.000000 0.000000
# 3 0.006484 -0.000383 0.065419 0.000000 0.000000 0.000000
# 4 0.000000 0.000000 0.000000 0.093260 0.000000 0.000000
# 5 0.000000 0.000000 0.000000 0.000000 0.044706 0.000000
# 6 0.000000 0.000000 0.000000 0.000000 0.000000 0.046400
#
#
# Mechanical properties :
#
#
# Convention : Reuss Voigt Hill
#
# Bulk Modulus (GPa) = 10.88832 32.13001 21.50917
# Shear Modulus (GPa) = 17.63806 31.70519 24.67163
#
# Velocity S-wave (km/s) = 2.81101 3.76879 3.32457
# Velocity P-wave (km/s) = 3.92602 5.77343 4.93691
#
# Compressibility (1/GPa) = 0.09184149
#
# Stress axis : x y z
#
# Youngs Moduli (GPa) = 117.64484 159.99266 15.28604
#
# Poissons Ratio (x) = 0.04238 -0.09911
# Poissons Ratio (y) = 0.03116 0.00586
# Poissons Ratio (z) = -0.76281 0.06130
#
# Static dielectric constant tensor:
#      x y z
#    x 1.872600 0.000000 0.000000 
#    y 0.000000 1.947920 0.000000 
#    z 0.000000 0.000000 1.871520 
# 
# From -- ./inp_files/27021.got.cif
#   From: 2010.05.17/outbox.cif.g08.bks.cpg/sg24_14_cif.got.tgz:27021.got - 2010.06.04 00:33:39.
