data_PCOD9336794
_publ_section_title
;
Structure prediction by ZEFSAII (Michael W. Deem and Ramdas Pophale) SiO2 
 PCOD9336794
Probable space group: I 21 21 21
;
_chemical_formula_sum "Si O2"
_cell_formula_units_Z 28
_cell_length_a 5.011806
_cell_length_b 13.132751
_cell_length_c 18.234738
_cell_angle_alpha 90.000000
_cell_angle_beta 90.000000
_cell_angle_gamma 90.000000
_cell_volume 1200.188578
_symmetry_space_group_name_H-M "I 21 21 21"
_symmetry_group_IT_number 24
_symmetry_cell_setting 'orthorhombic'
loop_
_space_group_symop_operation_xyz
x,y,z
-x,1/2-y,z
x,-y,1/2-z
1/2-x,y,-z
1/2+x,1/2+y,1/2+z
1/2-x,-y,1/2+z
1/2+x,1/2-y,-z
-x,1/2+y,1/2-z
loop_
_atom_site_type_symbol
_atom_site_label
_atom_site_fract_x
_atom_site_fract_y
_atom_site_fract_z
Si Si1 0.421515 0.131407 0.294930
Si Si2 0.250000 0.991886 0.500000
Si Si3 0.947423 0.869660 0.627491
Si Si4 0.920484 0.961859 0.126428
O O1 0.500000 0.250000 0.298643
O O2 0.450643 0.104551 0.209302
O O3 0.133495 0.092567 0.320801
O O4 0.638362 0.082266 0.349125
O O5 0.404374 0.924703 0.439744
O O6 0.036196 0.056338 0.454195
O O7 0.000000 0.750000 0.617994
O O8 0.645234 0.915903 0.628560
#
# Coordination Sequence:
#
# PCOD9336794 Si02
#       4
#     8   4   8   8
#     4  11  27  51  81 113 146 203 267 317 372 452
#     4  12  28  46  76 114 156 200 244 318 394 466
#     4  11  28  47  80 116 156 199 254 315 393 463
#     4  12  26  50  78 111 154 201 251 320 383 452
#
# _framework density 23.329668999999999
#
# number of rings (size 3 to 8) (size 9 to 14) (size 15 to 20)
#    0.000    0.571    2.857    2.571   12.000    0.000 
#    0.000    2.857    0.000    0.000    0.000    0.000 
#    0.000    0.000    0.000    0.000    0.000    0.000 
#
# Total GULP energy -78216.011363 kJ/mol
# GULP energy per Si atom -5586.857954 kJ/mol
# Density = 2.327657 g / cm^3
# Si number density = 23.329669 Si / 1000 Ang^3
#
#
#
# Elastic Constant Matrix: (Units=GPa)
#
#
# Indices 1 2 3 4 5 6 
#
# 1 114.5377 28.1563 36.1448 0.0000 0.0000 0.0000
# 2 28.1563 98.1696 40.0942 0.0000 0.0000 0.0000
# 3 36.1448 40.0942 180.7263 0.0000 0.0000 0.0000
# 4 0.0000 0.0000 0.0000 31.5975 0.0000 0.0000
# 5 0.0000 0.0000 0.0000 0.0000 48.0903 0.0000
# 6 0.0000 0.0000 0.0000 0.0000 0.0000 32.5959
#
#
#
# Elastic Compliance Matrix: (Units=1/GPa)
#
#
# Indices 1 2 3 4 5 6 
#
# 1 0.009731 -0.002195 -0.001459 0.000000 0.000000 0.000000
# 2 -0.002195 0.011696 -0.002156 0.000000 0.000000 0.000000
# 3 -0.001459 -0.002156 0.006303 0.000000 0.000000 0.000000
# 4 0.000000 0.000000 0.000000 0.031648 0.000000 0.000000
# 5 0.000000 0.000000 0.000000 0.000000 0.020794 0.000000
# 6 0.000000 0.000000 0.000000 0.000000 0.000000 0.030679
#
#
# Mechanical properties :
#
#
# Convention : Reuss Voigt Hill
#
# Bulk Modulus (GPa) = 62.07102 66.91382 64.49242
# Shear Modulus (GPa) = 39.11080 41.72596 40.41838
#
# Velocity S-wave (km/s) = 4.09888 4.23370 4.16683
# Velocity P-wave (km/s) = 7.00463 7.25555 7.13120
#
# Compressibility (1/GPa) = 0.01611058
#
# Stress axis : x y z
#
# Youngs Moduli (GPa) = 102.76646 85.49570 158.64587
#
# Poissons Ratio (x) = 0.18766 0.23149
# Poissons Ratio (y) = 0.22557 0.34202
# Poissons Ratio (z) = 0.14995 0.18432
#
# Static dielectric constant tensor:
#      x y z
#    x 1.929070 0.000000 0.000000 
#    y 0.000000 2.009650 0.000000 
#    z 0.000000 0.000000 1.845990 
# 
# From -- ./inp_files/28476.got.cif
#   From: 2010.05.17/outbox.cif.g08.bks.cpg/sg24_15_cif.got.tgz:28476.got - 2010.06.04 00:33:39.
