data_PCOD9336567
_publ_section_title
;
Structure prediction by ZEFSAII (Michael W. Deem and Ramdas Pophale) SiO2 
 PCOD9336567
Probable space group: I 21 21 21
;
_chemical_formula_sum "Si O2"
_cell_formula_units_Z 56
_cell_length_a 5.724388
_cell_length_b 14.832516
_cell_length_c 29.435472
_cell_angle_alpha 90.000000
_cell_angle_beta 90.000000
_cell_angle_gamma 90.000000
_cell_volume 2499.279876
_symmetry_space_group_name_H-M "I 21 21 21"
_symmetry_group_IT_number 24
_symmetry_cell_setting 'orthorhombic'
loop_
_space_group_symop_operation_xyz
x,y,z
-x,1/2-y,z
x,-y,1/2-z
1/2-x,y,-z
1/2+x,1/2+y,1/2+z
1/2-x,-y,1/2+z
1/2+x,1/2-y,-z
-x,1/2+y,1/2-z
loop_
_atom_site_type_symbol
_atom_site_label
_atom_site_fract_x
_atom_site_fract_y
_atom_site_fract_z
Si Si1 0.301436 0.170674 0.402101
Si Si2 0.500000 0.750000 0.973560
Si Si3 0.968685 0.647434 0.368094
Si Si4 0.366603 0.000000 0.250000
Si Si5 0.450706 0.028770 0.090059
Si Si6 0.823444 0.823935 0.549396
Si Si7 0.749623 0.010038 0.176916
Si Si8 0.426284 0.849217 0.802306
O O1 0.500000 0.250000 0.406317
O O2 0.213136 0.166014 0.349975
O O3 0.082453 0.177638 0.436472
O O4 0.391008 0.073753 0.417144
O O5 0.250000 0.732226 0.000000
O O6 0.117757 0.658671 0.415154
O O7 0.051290 0.585232 0.325781
O O8 0.000000 0.750000 0.350628
O O9 0.741427 0.592753 0.385654
O O10 0.541439 0.967737 0.289454
O O11 0.222168 0.084307 0.270022
O O12 0.536429 0.082570 0.046275
O O13 0.656821 0.018426 0.126282
O O14 0.750000 0.792459 0.500000
O O15 0.000000 0.750000 0.569454
O O16 0.848358 0.911153 0.186689
O O17 0.500000 0.750000 0.785501
#
# Coordination Sequence:
#
# PCOD9336567 Si02
#       8
#     8   4   8   4   8   8   8   8
#     4  12  25  49  85 110 153 212 267 326 410 488
#     4  12  28  52  76 118 166 208 270 344 404 486
#     4  11  22  44  70  98 144 197 247 301 383 459
#     4  12  26  48  72 112 154 186 252 326 378 468
#     4  11  24  45  71 108 139 195 254 315 386 476
#     4  11  24  41  69 102 146 191 253 316 374 451
#     4  11  24  45  73 105 149 188 251 318 380 462
#     4  12  26  48  82 110 148 206 258 320 397 482
#
# _framework density 22.406455000000001
#
# number of rings (size 3 to 8) (size 9 to 14) (size 15 to 20)
#    0.000    0.571    5.714    1.714    0.000    0.000 
#    5.143   10.714    0.000    0.000    0.000    0.000 
#    0.000    0.000    0.000    0.000    0.000    0.000 
#
# Total GULP energy -156007.848711 kJ/mol
# GULP energy per Si atom -5571.708883 kJ/mol
# Density = 2.235546 g / cm^3
# Si number density = 22.406455 Si / 1000 Ang^3
#
#
#
# Elastic Constant Matrix: (Units=GPa)
#
#
# Indices 1 2 3 4 5 6 
#
# 1 93.1342 52.2447 32.6191 0.0000 0.0000 0.0000
# 2 52.2447 169.3727 21.1025 0.0000 0.0000 0.0000
# 3 32.6191 21.1025 70.8006 0.0000 0.0000 0.0000
# 4 0.0000 0.0000 0.0000 35.6986 0.0000 0.0000
# 5 0.0000 0.0000 0.0000 0.0000 49.5558 0.0000
# 6 0.0000 0.0000 0.0000 0.0000 0.0000 21.9621
#
#
#
# Elastic Compliance Matrix: (Units=1/GPa)
#
#
# Indices 1 2 3 4 5 6 
#
# 1 0.014921 -0.003891 -0.005715 0.000000 0.000000 0.000000
# 2 -0.003891 0.007146 -0.000338 0.000000 0.000000 0.000000
# 3 -0.005715 -0.000338 0.016858 0.000000 0.000000 0.000000
# 4 0.000000 0.000000 0.000000 0.028012 0.000000 0.000000
# 5 0.000000 0.000000 0.000000 0.000000 0.020179 0.000000
# 6 0.000000 0.000000 0.000000 0.000000 0.000000 0.045533
#
#
# Mechanical properties :
#
#
# Convention : Reuss Voigt Hill
#
# Bulk Modulus (GPa) = 52.52301 60.58223 56.55262
# Shear Modulus (GPa) = 31.46989 36.59940 34.03464
#
# Velocity S-wave (km/s) = 3.75173 4.04596 3.90162
# Velocity P-wave (km/s) = 6.50071 6.99449 6.75212
#
# Compressibility (1/GPa) = 0.01903927
#
# Stress axis : x y z
#
# Youngs Moduli (GPa) = 67.01873 139.93298 59.32007
#
# Poissons Ratio (x) = 0.54442 0.33901
# Poissons Ratio (y) = 0.26074 0.02002
# Poissons Ratio (z) = 0.38300 0.04723
#
# Static dielectric constant tensor:
#      x y z
#    x 1.678140 0.000000 0.000000 
#    y 0.000000 1.063830 0.000000 
#    z 0.000000 0.000000 1.830410 
# 
# From -- ./inp_files/37953.got.cif
#   From: 2010.05.17/outbox.cif.g08.bks.cpg/sg24_19_cif.got.tgz:37953.got - 2010.06.04 00:33:39.
