data_PCOD9336028
_publ_section_title
;
Structure prediction by ZEFSAII (Michael W. Deem and Ramdas Pophale) SiO2 
 PCOD9336028
Probable space group: I 21 21 21
;
_chemical_formula_sum "Si O2"
_cell_formula_units_Z 44
_cell_length_a 8.950206
_cell_length_b 8.275162
_cell_length_c 28.366563
_cell_angle_alpha 90.000000
_cell_angle_beta 90.000000
_cell_angle_gamma 90.000000
_cell_volume 2100.952599
_symmetry_space_group_name_H-M "I 21 21 21"
_symmetry_group_IT_number 24
_symmetry_cell_setting 'orthorhombic'
loop_
_space_group_symop_operation_xyz
x,y,z
-x,1/2-y,z
x,-y,1/2-z
1/2-x,y,-z
1/2+x,1/2+y,1/2+z
1/2-x,-y,1/2+z
1/2+x,1/2-y,-z
-x,1/2+y,1/2-z
loop_
_atom_site_type_symbol
_atom_site_label
_atom_site_fract_x
_atom_site_fract_y
_atom_site_fract_z
Si Si1 0.000000 0.250000 0.858747
Si Si2 0.720403 0.047169 0.376529
Si Si3 0.044687 0.905436 0.398920
Si Si4 0.176701 0.197867 0.449021
Si Si5 0.174595 0.754844 0.208334
Si Si6 0.725322 0.367221 0.806454
O O1 0.102713 0.397077 0.881708
O O2 0.110412 0.158556 0.824458
O O3 0.718983 0.186793 0.416537
O O4 0.728616 0.137788 0.325267
O O5 0.889732 0.986881 0.384726
O O6 0.123195 0.844364 0.351795
O O7 0.000000 0.750000 0.429655
O O8 0.158902 0.025519 0.423771
O O9 0.250000 0.189183 0.500000
O O10 0.000000 0.250000 0.452308
O O11 0.187456 0.739272 0.265039
O O12 0.000000 0.750000 0.194210
O O13 0.214067 0.942992 0.203929
#
# Coordination Sequence:
#
# PCOD9336028 Si02
#       6
#     4   8   8   8   8   8
#     4  12  28  40  60 102 142 188 218 298 356 406
#     4  11  23  44  70  96 141 183 238 285 357 419
#     4  11  20  44  71 102 133 177 236 286 339 420
#     4  10  23  45  75 103 132 180 234 293 358 438
#     4  11  22  40  70  97 128 186 242 281 332 420
#     4  11  24  39  64  99 136 180 228 281 347 404
#
# _framework density 20.942882999999998
#
# number of rings (size 3 to 8) (size 9 to 14) (size 15 to 20)
#    0.000    1.091    5.455    1.091    0.000    5.818 
#    0.000    3.636    4.000    0.000    0.000    0.000 
#    0.000    0.000    0.000    0.000    0.000    0.000 
#
# Total GULP energy -122473.029335 kJ/mol
# GULP energy per Si atom -5566.955879 kJ/mol
# Density = 2.089522 g / cm^3
# Si number density = 20.942883 Si / 1000 Ang^3
#
#
#
# Elastic Constant Matrix: (Units=GPa)
#
#
# Indices 1 2 3 4 5 6 
#
# 1 93.7276 36.7757 33.2918 0.0000 0.0000 0.0000
# 2 36.7757 131.4356 65.4775 0.0000 0.0000 0.0000
# 3 33.2918 65.4775 126.4827 0.0000 0.0000 0.0000
# 4 0.0000 0.0000 0.0000 -9.6632 0.0000 0.0000
# 5 0.0000 0.0000 0.0000 0.0000 35.9894 0.0000
# 6 0.0000 0.0000 0.0000 0.0000 0.0000 27.8238
#
#
#
# Elastic Compliance Matrix: (Units=1/GPa)
#
#
# Indices 1 2 3 4 5 6 
#
# 1 0.012338 -0.002472 -0.001968 0.000000 0.000000 0.000000
# 2 -0.002472 0.010747 -0.004913 0.000000 0.000000 0.000000
# 3 -0.001968 -0.004913 0.010968 0.000000 0.000000 0.000000
# 4 0.000000 0.000000 0.000000 -0.103485 0.000000 0.000000
# 5 0.000000 0.000000 0.000000 0.000000 0.027786 0.000000
# 6 0.000000 0.000000 0.000000 0.000000 0.000000 0.035940
#
#
# Mechanical properties :
#
#
# Convention : Reuss Voigt Hill
#
# Bulk Modulus (GPa) = 65.15754 69.19290 67.17522
# Shear Modulus (GPa) = 275.99909 25.23673 150.61791
#
# Velocity S-wave (km/s) = 11.49229 3.47512 8.48967
# Velocity P-wave (km/s) = 14.39710 7.01516 11.32451
#
# Compressibility (1/GPa) = 0.01534742
#
# Stress axis : x y z
#
# Youngs Moduli (GPa) = 81.04986 93.04495 91.17740
#
# Poissons Ratio (x) = 0.22999 0.17943
# Poissons Ratio (y) = 0.20034 0.44797
# Poissons Ratio (z) = 0.15950 0.45714
#
# Static dielectric constant tensor:
#      x y z
#    x 1.792710 0.000000 0.000000 
#    y 0.000000 2.077750 0.000000 
#    z 0.000000 0.000000 1.803890 
# 
# From -- ./inp_files/38239.got.cif
#   From: 2010.05.17/outbox.cif.g08.bks.cpg/sg24_20_cif.got.tgz:38239.got - 2010.06.04 00:33:39.
