data_PCOD9336902
_publ_section_title
;
Structure prediction by ZEFSAII (Michael W. Deem and Ramdas Pophale) SiO2 
 PCOD9336902
Probable space group: I 21 21 21
;
_chemical_formula_sum "Si O2"
_cell_formula_units_Z 24
_cell_length_a 21.443740
_cell_length_b 10.296168
_cell_length_c 5.019519
_cell_angle_alpha 90.000000
_cell_angle_beta 90.000000
_cell_angle_gamma 90.000000
_cell_volume 1108.251316
_symmetry_space_group_name_H-M "I 21 21 21"
_symmetry_group_IT_number 24
_symmetry_cell_setting 'orthorhombic'
loop_
_space_group_symop_operation_xyz
x,y,z
-x,1/2-y,z
x,-y,1/2-z
1/2-x,y,-z
1/2+x,1/2+y,1/2+z
1/2-x,-y,1/2+z
1/2+x,1/2-y,-z
-x,1/2+y,1/2-z
loop_
_atom_site_type_symbol
_atom_site_label
_atom_site_fract_x
_atom_site_fract_y
_atom_site_fract_z
Si Si1 0.203135 0.500000 0.750000
Si Si2 0.055978 0.846922 0.259754
Si Si3 0.750000 0.578519 0.000000
Si Si4 0.365533 0.230187 0.255473
O O1 0.250000 0.486226 0.500000
O O2 0.157684 0.376983 0.780234
O O3 0.109332 0.827629 0.480980
O O4 0.000000 0.750000 0.336687
O O5 0.038814 0.000000 0.250000
O O6 0.082058 0.796095 0.977626
O O7 0.722878 0.500000 0.750000
O O8 0.804539 0.658877 0.864527
#
# Coordination Sequence:
#
# PCOD9336902 Si02
#       4
#     4   8   4   8
#     4  12  26  46  72 110 144 188 230 282 360 432
#     4  12  28  49  74 104 140 189 243 294 352 416
#     4  12  24  42  72 104 140 182 226 294 364 424
#     4  12  26  46  73 104 145 181 238 292 352 428
#
# _framework density 21.655736999999998
#
# number of rings (size 3 to 8) (size 9 to 14) (size 15 to 20)
#    0.000    0.000    1.667    9.000    7.000    0.000 
#    0.000    0.000    0.000    0.000    0.000    0.000 
#    0.000    0.000    0.000    0.000    0.000    0.000 
#
# Total GULP energy -67194.849928 kJ/mol
# GULP energy per Si atom -5599.570827 kJ/mol
# Density = 2.160645 g / cm^3
# Si number density = 21.655737 Si / 1000 Ang^3
#
#
#
# Elastic Constant Matrix: (Units=GPa)
#
#
# Indices 1 2 3 4 5 6 
#
# 1 84.2430 65.1063 2.6822 0.0000 0.0000 0.0000
# 2 65.1063 186.3385 30.3803 0.0000 0.0000 0.0000
# 3 2.6822 30.3803 101.7773 0.0000 0.0000 0.0000
# 4 0.0000 0.0000 0.0000 29.7760 0.0000 0.0000
# 5 0.0000 0.0000 0.0000 0.0000 38.2048 0.0000
# 6 0.0000 0.0000 0.0000 0.0000 0.0000 21.4113
#
#
#
# Elastic Compliance Matrix: (Units=1/GPa)
#
#
# Indices 1 2 3 4 5 6 
#
# 1 0.016435 -0.005962 0.001346 0.000000 0.000000 0.000000
# 2 -0.005962 0.007804 -0.002172 0.000000 0.000000 0.000000
# 3 0.001346 -0.002172 0.010438 0.000000 0.000000 0.000000
# 4 0.000000 0.000000 0.000000 0.033584 0.000000 0.000000
# 5 0.000000 0.000000 0.000000 0.000000 0.026175 0.000000
# 6 0.000000 0.000000 0.000000 0.000000 0.000000 0.046704
#
#
# Mechanical properties :
#
#
# Convention : Reuss Voigt Hill
#
# Bulk Modulus (GPa) = 47.38929 63.18851 55.28890
# Shear Modulus (GPa) = 30.91191 36.15776 33.53484
#
# Velocity S-wave (km/s) = 3.78222 4.09058 3.93942
# Velocity P-wave (km/s) = 6.40345 7.18001 6.80282
#
# Compressibility (1/GPa) = 0.02110181
#
# Stress axis : x y z
#
# Youngs Moduli (GPa) = 60.84511 128.14200 95.80087
#
# Poissons Ratio (x) = 0.76398 -0.12900
# Poissons Ratio (y) = 0.36276 0.20811
# Poissons Ratio (z) = -0.08193 0.27836
#
# Static dielectric constant tensor:
#      x y z
#    x 1.811980 0.000000 0.000000 
#    y 0.000000 1.877950 0.000000 
#    z 0.000000 0.000000 1.805400 
# 
# From -- ./inp_files/5169.got.cif
#   From: 2010.05.17/outbox.cif.g08.bks.cpg/sg24_3_cif.got.tgz:5169.got - 2010.06.04 00:33:39.
