data_PCOD9336635
_publ_section_title
;
Structure prediction by ZEFSAII (Michael W. Deem and Ramdas Pophale) SiO2 
 PCOD9336635
Probable space group: I 21 21 21
;
_chemical_formula_sum "Si O2"
_cell_formula_units_Z 56
_cell_length_a 18.967723
_cell_length_b 9.790826
_cell_length_c 14.181975
_cell_angle_alpha 90.000000
_cell_angle_beta 90.000000
_cell_angle_gamma 90.000000
_cell_volume 2633.729975
_symmetry_space_group_name_H-M "I 21 21 21"
_symmetry_group_IT_number 24
_symmetry_cell_setting 'orthorhombic'
loop_
_space_group_symop_operation_xyz
x,y,z
-x,1/2-y,z
x,-y,1/2-z
1/2-x,y,-z
1/2+x,1/2+y,1/2+z
1/2-x,-y,1/2+z
1/2+x,1/2-y,-z
-x,1/2+y,1/2-z
loop_
_atom_site_type_symbol
_atom_site_label
_atom_site_fract_x
_atom_site_fract_y
_atom_site_fract_z
Si Si1 0.967720 0.400755 0.163891
Si Si2 0.798812 0.267172 0.910807
Si Si3 0.740052 0.214672 0.388874
Si Si4 0.369770 0.957465 0.141829
Si Si5 0.372231 0.502987 0.357966
Si Si6 0.311994 0.845874 0.736712
Si Si7 0.502533 0.094830 0.487986
O O1 0.990716 0.500000 0.250000
O O2 0.884946 0.370343 0.183050
O O3 0.000000 0.250000 0.163532
O O4 0.986120 0.484658 0.069542
O O5 0.833459 0.416449 0.912909
O O6 0.744419 0.265759 0.824594
O O7 0.858513 0.156230 0.892601
O O8 0.750000 0.239257 0.000000
O O9 0.750000 0.212920 0.500000
O O10 0.682521 0.329595 0.363014
O O11 0.703373 0.073793 0.359101
O O12 0.811003 0.263884 0.335151
O O13 0.441565 0.919642 0.089997
O O14 0.382133 0.000000 0.250000
O O15 0.398924 0.500000 0.250000
O O16 0.424604 0.433225 0.432672
O O17 0.284331 0.000000 0.750000
O O18 0.500000 0.250000 0.525988
#
# Coordination Sequence:
#
# PCOD9336635 Si02
#       7
#     8   8   8   8   8   8   8
#     4  11  28  51  76 110 147 198 250 300 360 437
#     4  12  24  41  70 105 143 180 237 308 366 437
#     4  12  24  43  73 106 140 187 244 296 373 446
#     4  12  23  45  71 104 142 188 245 298 368 444
#     4  12  26  48  68 105 148 185 242 308 380 443
#     4  11  23  44  72 103 143 188 237 296 361 434
#     4  12  28  47  74 104 147 201 246 304 372 451
#
# _framework density 21.262619999999998
#
# number of rings (size 3 to 8) (size 9 to 14) (size 15 to 20)
#    0.000    0.286    5.714    2.571    8.000    1.143 
#    2.571    0.000    0.000    0.000    0.000    0.000 
#    0.000    0.000    0.000    0.000    0.000    0.000 
#
# Total GULP energy -156578.241146 kJ/mol
# GULP energy per Si atom -5592.080041 kJ/mol
# Density = 2.121423 g / cm^3
# Si number density = 21.262620 Si / 1000 Ang^3
#
#
#
# Elastic Constant Matrix: (Units=GPa)
#
#
# Indices 1 2 3 4 5 6 
#
# 1 55.6164 22.4274 35.8239 0.0000 0.0000 0.0000
# 2 22.4274 98.1291 24.3444 0.0000 0.0000 0.0000
# 3 35.8239 24.3444 100.2143 0.0000 0.0000 0.0000
# 4 0.0000 0.0000 0.0000 22.8283 0.0000 0.0000
# 5 0.0000 0.0000 0.0000 0.0000 21.0940 0.0000
# 6 0.0000 0.0000 0.0000 0.0000 0.0000 32.1093
#
#
#
# Elastic Compliance Matrix: (Units=1/GPa)
#
#
# Indices 1 2 3 4 5 6 
#
# 1 0.024529 -0.003651 -0.007882 0.000000 0.000000 0.000000
# 2 -0.003651 0.011388 -0.001461 0.000000 0.000000 0.000000
# 3 -0.007882 -0.001461 0.013151 0.000000 0.000000 0.000000
# 4 0.000000 0.000000 0.000000 0.043805 0.000000 0.000000
# 5 0.000000 0.000000 0.000000 0.000000 0.047407 0.000000
# 6 0.000000 0.000000 0.000000 0.000000 0.000000 0.031144
#
#
# Mechanical properties :
#
#
# Convention : Reuss Voigt Hill
#
# Bulk Modulus (GPa) = 43.32676 46.57237 44.94957
# Shear Modulus (GPa) = 24.37779 26.63059 25.50419
#
# Velocity S-wave (km/s) = 3.38969 3.54285 3.46712
# Velocity P-wave (km/s) = 5.97839 6.21986 6.10032
#
# Compressibility (1/GPa) = 0.02308042
#
# Stress axis : x y z
#
# Youngs Moduli (GPa) = 40.76756 87.81510 76.03943
#
# Poissons Ratio (x) = 0.32060 0.59932
# Poissons Ratio (y) = 0.14884 0.11111
# Poissons Ratio (z) = 0.32132 0.12832
#
# Static dielectric constant tensor:
#      x y z
#    x 1.793300 0.000000 0.000000 
#    y 0.000000 1.745820 0.000000 
#    z 0.000000 0.000000 1.757280 
# 
# From -- ./inp_files/27556.got.cif
#   From: 2010.05.17/outbox.cif.g08.bks.cpg/sg24_14_cif.got.tgz:27556.got - 2010.06.04 00:33:39.
