data_PCOD9336396
_publ_section_title
;
Structure prediction by ZEFSAII (Michael W. Deem and Ramdas Pophale) SiO2 
 PCOD9336396
Probable space group: I 21 21 21
;
_chemical_formula_sum "Si O2"
_cell_formula_units_Z 56
_cell_length_a 20.808052
_cell_length_b 8.903412
_cell_length_c 14.406824
_cell_angle_alpha 90.000000
_cell_angle_beta 90.000000
_cell_angle_gamma 90.000000
_cell_volume 2669.046535
_symmetry_space_group_name_H-M "I 21 21 21"
_symmetry_group_IT_number 24
_symmetry_cell_setting 'orthorhombic'
loop_
_space_group_symop_operation_xyz
x,y,z
-x,1/2-y,z
x,-y,1/2-z
1/2-x,y,-z
1/2+x,1/2+y,1/2+z
1/2-x,-y,1/2+z
1/2+x,1/2-y,-z
-x,1/2+y,1/2-z
loop_
_atom_site_type_symbol
_atom_site_label
_atom_site_fract_x
_atom_site_fract_y
_atom_site_fract_z
Si Si1 0.757638 0.328788 0.762706
Si Si2 0.558728 0.165464 0.781643
Si Si3 0.433393 0.817203 0.047184
Si Si4 0.610569 0.175532 0.261529
Si Si5 0.846324 0.696736 0.404686
Si Si6 0.132914 0.145900 0.364036
Si Si7 0.934095 0.671008 0.574601
O O1 0.782580 0.500000 0.750000
O O2 0.813828 0.213401 0.743661
O O3 0.726131 0.308088 0.865345
O O4 0.699791 0.316902 0.687475
O O5 0.500000 0.250000 0.829014
O O6 0.618732 0.168664 0.850840
O O7 0.579254 0.269577 0.695430
O O8 0.542500 0.000000 0.750000
O O9 0.500000 0.750000 0.009344
O O10 0.415877 0.730954 0.140471
O O11 0.442532 0.992339 0.070586
O O12 0.377504 0.805571 0.970031
O O13 0.579524 0.268219 0.177168
O O14 0.597991 0.000000 0.250000
O O15 0.872873 0.535495 0.365763
O O16 0.871978 0.705001 0.509189
O O17 0.000000 0.750000 0.542009
#
# Coordination Sequence:
#
# PCOD9336396 Si02
#       7
#     8   8   8   8   8   8   8
#     4   9  19  40  64  89 121 157 197 238 289 355
#     4  11  20  30  50  80 118 157 193 236 289 348
#     4  11  23  41  64  90 119 155 199 248 300 354
#     4  12  26  42  60  85 119 160 203 250 298 349
#     4   9  20  38  61  87 117 153 194 240 294 354
#     4   9  20  38  61  87 117 153 194 240 294 354
#     4  11  23  41  64  90 119 155 199 248 300 354
#
# _framework density 20.981275
#
# number of rings (size 3 to 8) (size 9 to 14) (size 15 to 20)
#    0.000    1.714    0.000    5.571    0.000    8.000 
#    0.000    5.714    0.000    0.000    0.000    0.000 
#    0.000    0.000    0.000    0.000    0.000    0.000 
#
# Total GULP energy -156377.041899 kJ/mol
# GULP energy per Si atom -5584.894354 kJ/mol
# Density = 2.093352 g / cm^3
# Si number density = 20.981275 Si / 1000 Ang^3
#
#
#
# Elastic Constant Matrix: (Units=GPa)
#
#
# Indices 1 2 3 4 5 6 
#
# 1 55.9889 18.1188 14.1467 0.0000 0.0000 0.0000
# 2 18.1188 71.0838 21.4947 0.0000 0.0000 0.0000
# 3 14.1467 21.4947 106.2080 0.0000 0.0000 0.0000
# 4 0.0000 0.0000 0.0000 12.2262 0.0000 0.0000
# 5 0.0000 0.0000 0.0000 0.0000 25.6062 0.0000
# 6 0.0000 0.0000 0.0000 0.0000 0.0000 31.8639
#
#
#
# Elastic Compliance Matrix: (Units=1/GPa)
#
#
# Indices 1 2 3 4 5 6 
#
# 1 0.019756 -0.004516 -0.001717 0.000000 0.000000 0.000000
# 2 -0.004516 0.016017 -0.002640 0.000000 0.000000 0.000000
# 3 -0.001717 -0.002640 0.010179 0.000000 0.000000 0.000000
# 4 0.000000 0.000000 0.000000 0.081792 0.000000 0.000000
# 5 0.000000 0.000000 0.000000 0.000000 0.039053 0.000000
# 6 0.000000 0.000000 0.000000 0.000000 0.000000 0.031384
#
#
# Mechanical properties :
#
#
# Convention : Reuss Voigt Hill
#
# Bulk Modulus (GPa) = 35.45554 37.86679 36.66116
# Shear Modulus (GPa) = 22.18970 25.90728 24.04849
#
# Velocity S-wave (km/s) = 3.25560 3.51776 3.38921
# Velocity P-wave (km/s) = 5.57380 5.88103 5.72948
#
# Compressibility (1/GPa) = 0.02820434
#
# Stress axis : x y z
#
# Youngs Moduli (GPa) = 50.61699 62.43206 98.24572
#
# Poissons Ratio (x) = 0.28197 0.16873
# Poissons Ratio (y) = 0.22861 0.25938
# Poissons Ratio (z) = 0.08693 0.16483
#
# Static dielectric constant tensor:
#      x y z
#    x 1.800030 0.000000 0.000000 
#    y 0.000000 1.710970 0.000000 
#    z 0.000000 0.000000 1.774710 
# 
# From -- ./inp_files/27550.got.cif
#   From: 2010.05.17/outbox.cif.g08.bks.cpg/sg24_14_cif.got.tgz:27550.got - 2010.06.04 00:33:39.
