data_PCOD9336716
_publ_section_title
;
Structure prediction by ZEFSAII (Michael W. Deem and Ramdas Pophale) SiO2 
 PCOD9336716
Probable space group: I 21 21 21
;
_chemical_formula_sum "Si O2"
_cell_formula_units_Z 20
_cell_length_a 7.951109
_cell_length_b 23.485671
_cell_length_c 4.968186
_cell_angle_alpha 90.000000
_cell_angle_beta 90.000000
_cell_angle_gamma 90.000000
_cell_volume 927.744795
_symmetry_space_group_name_H-M "I 21 21 21"
_symmetry_group_IT_number 24
_symmetry_cell_setting 'orthorhombic'
loop_
_space_group_symop_operation_xyz
x,y,z
-x,1/2-y,z
x,-y,1/2-z
1/2-x,y,-z
1/2+x,1/2+y,1/2+z
1/2-x,-y,1/2+z
1/2+x,1/2-y,-z
-x,1/2+y,1/2-z
loop_
_atom_site_type_symbol
_atom_site_label
_atom_site_fract_x
_atom_site_fract_y
_atom_site_fract_z
Si Si1 0.750000 0.961209 0.500000
Si Si2 0.250000 0.819199 0.000000
Si Si3 0.250000 0.261962 0.000000
Si Si4 0.090631 0.637919 0.205064
O O1 0.890431 0.918390 0.384151
O O2 0.805677 0.000000 0.750000
O O3 0.291662 0.777865 0.249159
O O4 0.086230 0.856375 0.060531
O O5 0.110231 0.306273 0.108168
O O6 0.250000 0.638343 0.000000
#
# Coordination Sequence:
#
# PCOD9336716 Si02
#       4
#     4   4   4   8
#     4  11  24  47  80  98 134 189 240 307 370 406
#     4  12  28  41  70 106 152 187 232 284 340 434
#     4  11  26  40  66 108 150 194 222 273 348 422
#     4  11  26  44  72 105 142 188 241 285 351 426
#
# _framework density 21.557655
#
# number of rings (size 3 to 8) (size 9 to 14) (size 15 to 20)
#    0.000    0.800    4.000    1.200   16.800    0.000 
#    0.000    0.000    8.800    0.000    0.000    0.000 
#    0.000    0.000    0.000    0.000    0.000    0.000 
#
# Total GULP energy -55982.165005 kJ/mol
# GULP energy per Si atom -5598.216500 kJ/mol
# Density = 2.150859 g / cm^3
# Si number density = 21.557655 Si / 1000 Ang^3
#
#
#
# Elastic Constant Matrix: (Units=GPa)
#
#
# Indices 1 2 3 4 5 6 
#
# 1 172.0448 68.1182 68.9311 -0.0125 0.0083 -0.0025
# 2 68.1182 159.4637 87.6728 -0.0008 0.0031 -0.0013
# 3 68.9311 87.6728 175.6822 -0.0306 0.0099 -0.0046
# 4 -0.0125 -0.0008 -0.0306 46.1486 0.0048 -0.0010
# 5 0.0083 0.0031 0.0099 0.0048 38.4813 0.0007
# 6 -0.0025 -0.0013 -0.0046 -0.0010 0.0007 6.6590
#
#
#
# Elastic Compliance Matrix: (Units=1/GPa)
#
#
# Indices 1 2 3 4 5 6 
#
# 1 0.007398 -0.002156 -0.001827 0.000001 -0.000001 0.000001
# 2 -0.002156 0.009270 -0.003780 -0.000003 0.000001 -0.000002
# 3 -0.001827 -0.003780 0.008295 0.000005 -0.000001 0.000004
# 4 0.000001 -0.000003 0.000005 0.021669 -0.000003 0.000003
# 5 -0.000001 0.000001 -0.000001 -0.000003 0.025987 -0.000003
# 6 0.000001 -0.000002 0.000004 0.000003 -0.000003 0.150172
#
#
# Mechanical properties :
#
#
# Convention : Reuss Voigt Hill
#
# Bulk Modulus (GPa) = 105.95880 106.29276 106.12578
# Shear Modulus (GPa) = 20.70701 37.08903 28.89802
#
# Velocity S-wave (km/s) = 3.10262 4.15234 3.66525
# Velocity P-wave (km/s) = 7.87992 8.50897 8.20048
#
# Compressibility (1/GPa) = 0.00943763
#
# Stress axis : x y z
#
# Youngs Moduli (GPa) = 135.17309 107.87020 120.54739
#
# Poissons Ratio (x) = 0.23254 0.22022
# Poissons Ratio (y) = 0.29140 0.45573
# Poissons Ratio (z) = 0.24694 0.40780
#
# Static dielectric constant tensor:
#      x y z
#    x 1.881430 0.000000 -0.000020 
#    y 0.000000 1.768100 0.000000 
#    z -0.000020 0.000000 1.829150 
# 
# From -- ./inp_files/788.got.cif
#   From: 2010.05.17/outbox.cif.g08.bks.cpg/sg24_1_cif.got.tgz:788.got - 2010.06.04 00:33:39.
