data_PCOD9336505
_publ_section_title
;
Structure prediction by ZEFSAII (Michael W. Deem and Ramdas Pophale) SiO2 
 PCOD9336505
Probable space group: I 21 21 21
;
_chemical_formula_sum "Si O2"
_cell_formula_units_Z 48
_cell_length_a 8.920558
_cell_length_b 31.458032
_cell_length_c 9.862795
_cell_angle_alpha 90.000000
_cell_angle_beta 90.000000
_cell_angle_gamma 90.000000
_cell_volume 2767.729084
_symmetry_space_group_name_H-M "I 21 21 21"
_symmetry_group_IT_number 24
_symmetry_cell_setting 'orthorhombic'
loop_
_space_group_symop_operation_xyz
x,y,z
-x,1/2-y,z
x,-y,1/2-z
1/2-x,y,-z
1/2+x,1/2+y,1/2+z
1/2-x,-y,1/2+z
1/2+x,1/2-y,-z
-x,1/2+y,1/2-z
loop_
_atom_site_type_symbol
_atom_site_label
_atom_site_fract_x
_atom_site_fract_y
_atom_site_fract_z
Si Si1 0.077792 0.372543 0.793890
Si Si2 0.060100 0.637624 0.285688
Si Si3 0.573239 0.430083 0.984016
Si Si4 0.929223 0.204015 0.989204
Si Si5 0.429867 0.392260 0.508689
Si Si6 0.100686 0.511370 0.091146
O O1 0.260240 0.371780 0.795876
O O2 0.033228 0.328154 0.865644
O O3 0.018984 0.380675 0.642233
O O4 0.015150 0.409798 0.889044
O O5 0.024125 0.679140 0.373765
O O6 0.978696 0.598514 0.357753
O O7 0.017448 0.638599 0.128475
O O8 0.521184 0.477853 0.959483
O O9 0.750000 0.426674 0.000000
O O10 0.000000 0.250000 0.974788
O O11 0.750000 0.208165 0.000000
O O12 0.250000 0.388086 0.500000
O O13 0.453556 0.440565 0.560565
O O14 0.130823 0.500000 0.250000
O O15 0.250000 0.505533 0.000000
#
# Coordination Sequence:
#
# PCOD9336505 Si02
#       6
#     8   8   8   8   8   8
#     4   9  19  36  58  80 100 139 184 222 261 319
#     4   9  17  36  58  78 102 135 183 222 257 319
#     4  11  22  35  51  75 111 148 176 219 267 316
#     4   9  18  32  55  80 105 134 171 219 264 322
#     4   9  18  33  57  80 100 134 183 232 266 296
#     4  11  22  36  57  81 104 141 190 234 261 307
#
# _framework density 17.342738000000001
#
# number of rings (size 3 to 8) (size 9 to 14) (size 15 to 20)
#    0.000    2.333    1.667    2.500    4.667    2.667 
#    3.000    1.667    0.000    0.000    0.000    0.000 
#    0.000    0.000    0.000    0.000    0.000    0.000 
#
# Total GULP energy -133748.573204 kJ/mol
# GULP energy per Si atom -5572.857217 kJ/mol
# Density = 1.730327 g / cm^3
# Si number density = 17.342738 Si / 1000 Ang^3
#
#
#
# Elastic Constant Matrix: (Units=GPa)
#
#
# Indices 1 2 3 4 5 6 
#
# 1 27.5679 24.2357 23.5254 0.0000 0.0000 0.0000
# 2 24.2357 98.5823 68.2957 0.0000 0.0000 0.0000
# 3 23.5254 68.2957 176.8241 0.0001 0.0000 0.0000
# 4 0.0000 0.0000 0.0001 10.8595 0.0000 0.0000
# 5 0.0000 0.0000 0.0000 0.0000 2.6733 0.0000
# 6 0.0000 0.0000 0.0000 0.0000 0.0000 19.9773
#
#
#
# Elastic Compliance Matrix: (Units=1/GPa)
#
#
# Indices 1 2 3 4 5 6 
#
# 1 0.047038 -0.009869 -0.002446 0.000000 0.000000 0.000000
# 2 -0.009869 0.015920 -0.004836 0.000000 0.000000 0.000000
# 3 -0.002446 -0.004836 0.007849 0.000000 0.000000 0.000000
# 4 0.000000 0.000000 0.000000 0.092085 0.000000 0.000000
# 5 0.000000 0.000000 0.000000 0.000000 0.374064 0.000000
# 6 0.000000 0.000000 0.000000 0.000000 0.000000 0.050057
#
#
# Mechanical properties :
#
#
# Convention : Reuss Voigt Hill
#
# Bulk Modulus (GPa) = 27.39421 59.45420 43.42420
# Shear Modulus (GPa) = 7.89287 19.16319 13.52803
#
# Velocity S-wave (km/s) = 2.13565 3.32771 2.79595
# Velocity P-wave (km/s) = 4.68096 7.00865 5.95956
#
# Compressibility (1/GPa) = 0.03650406
#
# Stress axis : x y z
#
# Youngs Moduli (GPa) = 21.25942 62.81290 127.41097
#
# Poissons Ratio (x) = 0.61991 0.31169
# Poissons Ratio (y) = 0.20981 0.61615
# Poissons Ratio (z) = 0.05201 0.30376
#
# Static dielectric constant tensor:
#      x y z
#    x 1.573710 0.000000 0.000000 
#    y 0.000000 1.572680 0.000000 
#    z 0.000000 0.000000 1.627900 
# 
# From -- ./inp_files/9768.got.cif
#   From: 2010.05.17/outbox.cif.g08.bks.cpg/sg24_5_cif.got.tgz:9768.got - 2010.06.04 00:33:39.
