data_PCOD9336573
_publ_section_title
;
Structure prediction by ZEFSAII (Michael W. Deem and Ramdas Pophale) SiO2 
 PCOD9336573
Probable space group: I 21 21 21
;
_chemical_formula_sum "Si O2"
_cell_formula_units_Z 40
_cell_length_a 12.977421
_cell_length_b 9.387165
_cell_length_c 15.506592
_cell_angle_alpha 90.000000
_cell_angle_beta 90.000000
_cell_angle_gamma 90.000000
_cell_volume 1889.031524
_symmetry_space_group_name_H-M "I 21 21 21"
_symmetry_group_IT_number 24
_symmetry_cell_setting 'orthorhombic'
loop_
_space_group_symop_operation_xyz
x,y,z
-x,1/2-y,z
x,-y,1/2-z
1/2-x,y,-z
1/2+x,1/2+y,1/2+z
1/2-x,-y,1/2+z
1/2+x,1/2-y,-z
-x,1/2+y,1/2-z
loop_
_atom_site_type_symbol
_atom_site_label
_atom_site_fract_x
_atom_site_fract_y
_atom_site_fract_z
Si Si1 0.152887 0.650056 0.449489
Si Si2 0.066189 0.105066 0.669858
Si Si3 0.098280 0.338582 0.228682
Si Si4 0.689024 0.394842 0.668543
Si Si5 0.432701 0.042567 0.985181
O O1 0.250000 0.589897 0.500000
O O2 0.179699 0.672433 0.349031
O O3 0.119419 0.800942 0.491335
O O4 0.048815 0.557932 0.449208
O O5 0.189198 0.130395 0.669960
O O6 0.000000 0.250000 0.675063
O O7 0.041306 0.000000 0.750000
O O8 0.052267 0.027344 0.578131
O O9 0.074889 0.500000 0.250000
O O10 0.135941 0.254945 0.311708
O O11 0.000000 0.250000 0.196428
O O12 0.666612 0.500000 0.750000
O O13 0.640558 0.458976 0.581717
#
# Coordination Sequence:
#
# PCOD9336573 Si02
#       5
#     8   8   8   8   8
#     4  11  23  39  70 104 137 182 227 282 353 417
#     4  11  28  46  70  99 138 187 234 287 347 420
#     4  12  24  42  68 104 139 177 229 292 349 418
#     4  11  22  45  73  98 137 183 231 286 354 412
#     4  11  23  45  69  99 140 180 231 285 348 423
#
# _framework density 21.174869999999999
#
# number of rings (size 3 to 8) (size 9 to 14) (size 15 to 20)
#    0.000    0.800    4.000    3.600    5.600    4.800 
#    0.000    0.000    0.000    0.000    0.000    0.000 
#    0.000    0.000    0.000    0.000    0.000    0.000 
#
# Total GULP energy -111797.320119 kJ/mol
# GULP energy per Si atom -5589.866006 kJ/mol
# Density = 2.112668 g / cm^3
# Si number density = 21.174870 Si / 1000 Ang^3
#
#
#
# Elastic Constant Matrix: (Units=GPa)
#
#
# Indices 1 2 3 4 5 6 
#
# 1 107.3855 49.5054 37.9314 0.0000 0.0000 0.0000
# 2 49.5054 131.8969 65.6038 0.0000 0.0000 0.0000
# 3 37.9314 65.6038 147.1139 0.0000 0.0000 0.0000
# 4 0.0000 0.0000 0.0000 31.1609 0.0000 0.0000
# 5 0.0000 0.0000 0.0000 0.0000 31.9031 0.0000
# 6 0.0000 0.0000 0.0000 0.0000 0.0000 21.1234
#
#
#
# Elastic Compliance Matrix: (Units=1/GPa)
#
#
# Indices 1 2 3 4 5 6 
#
# 1 0.011460 -0.003639 -0.001332 0.000000 0.000000 0.000000
# 2 -0.003639 0.010898 -0.003922 0.000000 0.000000 0.000000
# 3 -0.001332 -0.003922 0.008890 0.000000 0.000000 0.000000
# 4 0.000000 0.000000 0.000000 0.032091 0.000000 0.000000
# 5 0.000000 0.000000 0.000000 0.000000 0.031345 0.000000
# 6 0.000000 0.000000 0.000000 0.000000 0.000000 0.047341
#
#
# Mechanical properties :
#
#
# Convention : Reuss Voigt Hill
#
# Bulk Modulus (GPa) = 74.27881 76.94194 75.61037
# Shear Modulus (GPa) = 30.43247 32.39454 31.41351
#
# Velocity S-wave (km/s) = 3.79515 3.91558 3.85584
# Velocity P-wave (km/s) = 7.37287 7.54041 7.45711
#
# Compressibility (1/GPa) = 0.01346279
#
# Stress axis : x y z
#
# Youngs Moduli (GPa) = 87.25740 91.75970 112.48915
#
# Poissons Ratio (x) = 0.33390 0.14986
# Poissons Ratio (y) = 0.31752 0.44114
# Poissons Ratio (z) = 0.11624 0.35985
#
# Static dielectric constant tensor:
#      x y z
#    x 1.802690 0.000000 0.000000 
#    y 0.000000 1.770440 0.000000 
#    z 0.000000 0.000000 1.821590 
# 
# From -- ./inp_files/13824.got.cif
#   From: 2010.05.17/outbox.cif.g08.bks.cpg/sg24_7_cif.got.tgz:13824.got - 2010.06.04 00:33:39.
