data_PCOD9336803
_publ_section_title
;
Structure prediction by ZEFSAII (Michael W. Deem and Ramdas Pophale) SiO2 
 PCOD9336803
Probable space group: I 21 21 21
;
_chemical_formula_sum "Si O2"
_cell_formula_units_Z 40
_cell_length_a 14.246407
_cell_length_b 14.240113
_cell_length_c 7.381714
_cell_angle_alpha 90.000000
_cell_angle_beta 90.000000
_cell_angle_gamma 90.000000
_cell_volume 1497.531608
_symmetry_space_group_name_H-M "I 21 21 21"
_symmetry_group_IT_number 24
_symmetry_cell_setting 'orthorhombic'
loop_
_space_group_symop_operation_xyz
x,y,z
-x,1/2-y,z
x,-y,1/2-z
1/2-x,y,-z
1/2+x,1/2+y,1/2+z
1/2-x,-y,1/2+z
1/2+x,1/2-y,-z
-x,1/2+y,1/2-z
loop_
_atom_site_type_symbol
_atom_site_label
_atom_site_fract_x
_atom_site_fract_y
_atom_site_fract_z
Si Si1 0.750000 0.494460 0.500000
Si Si2 0.392416 0.854921 0.346629
Si Si3 0.607584 0.145079 0.153371
Si Si4 0.750000 0.005540 0.500000
Si Si5 0.395071 0.642640 0.908006
Si Si6 0.104929 0.142640 0.408006
O O1 0.670017 0.562396 0.423113
O O2 0.807592 0.423354 0.367275
O O3 0.500000 0.867048 0.407752
O O4 0.360873 0.750000 0.399397
O O5 0.395367 0.856929 0.127918
O O6 0.604633 0.143071 0.372082
O O7 0.670016 0.062396 0.076887
O O8 0.807592 0.076646 0.367274
O O9 0.500000 0.613369 0.849890
O O10 0.379870 0.750000 0.847964
#
# Coordination Sequence:
#
# PCOD9336803 Si02
#       6
#     4   8   8   4   8   8
#     4  12  18  26  52  84 100 118 162 210 248 284
#     4   9  19  35  52  72 100 131 163 201 244 290
#     4   9  19  35  52  72 100 131 163 201 244 290
#     4  12  18  26  52  84 100 118 162 210 248 284
#     4   9  19  35  52  72 100 131 163 201 244 290
#     4   9  19  35  52  72 100 131 163 201 244 290
#
# _framework density 26.710622000000001
#
# number of rings (size 3 to 8) (size 9 to 14) (size 15 to 20)
#    0.000    2.400    0.000    6.000    0.000    3.200 
#    0.000    0.000    0.000   19.200    0.000   44.800 
#    0.000    0.000    0.000    0.000    0.000    0.000 
#
# Total GULP energy -112116.957188 kJ/mol
# GULP energy per Si atom -5605.847859 kJ/mol
# Density = 2.664983 g / cm^3
# Si number density = 26.710622 Si / 1000 Ang^3
#
#
#
# Elastic Constant Matrix: (Units=GPa)
#
#
# Indices 1 2 3 4 5 6 
#
# 1 184.9782 113.8671 -1.9723 0.0000 0.0000 0.0000
# 2 113.8671 189.7105 0.1290 0.0000 0.0000 0.0000
# 3 -1.9723 0.1290 64.2595 0.0000 0.0000 0.0000
# 4 0.0000 0.0000 0.0000 33.6469 0.0000 0.0000
# 5 0.0000 0.0000 0.0000 0.0000 27.3239 0.0000
# 6 0.0000 0.0000 0.0000 0.0000 0.0000 62.4529
#
#
#
# Elastic Compliance Matrix: (Units=1/GPa)
#
#
# Indices 1 2 3 4 5 6 
#
# 1 0.008579 -0.005149 0.000274 0.000000 0.000000 0.000000
# 2 -0.005149 0.008362 -0.000175 0.000000 0.000000 0.000000
# 3 0.000274 -0.000175 0.015571 0.000000 0.000000 0.000000
# 4 0.000000 0.000000 0.000000 0.029720 0.000000 0.000000
# 5 0.000000 0.000000 0.000000 0.000000 0.036598 0.000000
# 6 0.000000 0.000000 0.000000 0.000000 0.000000 0.016012
#
#
# Mechanical properties :
#
#
# Convention : Reuss Voigt Hill
#
# Bulk Modulus (GPa) = 44.62207 73.66621 59.14414
# Shear Modulus (GPa) = 37.76070 46.47970 42.12020
#
# Velocity S-wave (km/s) = 3.76399 4.17600 3.97534
# Velocity P-wave (km/s) = 5.96927 7.13381 6.57736
#
# Compressibility (1/GPa) = 0.02241044
#
# Stress axis : x y z
#
# Youngs Moduli (GPa) = 116.56803 119.58920 64.22336
#
# Poissons Ratio (x) = 0.61579 -0.01757
# Poissons Ratio (y) = 0.60024 0.01123
# Poissons Ratio (z) = -0.03190 0.02091
#
# Static dielectric constant tensor:
#      x y z
#    x 2.032760 0.000000 0.000000 
#    y 0.000000 2.036580 0.000000 
#    z 0.000000 0.000000 2.177010 
# 
# From -- ./inp_files/19452.got.cif
#   From: 2010.05.17/outbox.cif.g08.bks.cpg/sg24_10_cif.got.tgz:19452.got - 2010.06.04 00:33:39.
