data_PCOD9336001
_publ_section_title
;
Structure prediction by ZEFSAII (Michael W. Deem and Ramdas Pophale) SiO2 
 PCOD9336001
Probable space group: I 21 21 21
;
_chemical_formula_sum "Si O2"
_cell_formula_units_Z 56
_cell_length_a 14.166318
_cell_length_b 19.588759
_cell_length_c 8.606275
_cell_angle_alpha 90.000000
_cell_angle_beta 90.000000
_cell_angle_gamma 90.000000
_cell_volume 2388.246383
_symmetry_space_group_name_H-M "I 21 21 21"
_symmetry_group_IT_number 24
_symmetry_cell_setting 'orthorhombic'
loop_
_space_group_symop_operation_xyz
x,y,z
-x,1/2-y,z
x,-y,1/2-z
1/2-x,y,-z
1/2+x,1/2+y,1/2+z
1/2-x,-y,1/2+z
1/2+x,1/2-y,-z
-x,1/2+y,1/2-z
loop_
_atom_site_type_symbol
_atom_site_label
_atom_site_fract_x
_atom_site_fract_y
_atom_site_fract_z
Si Si1 0.917459 0.211543 0.827143
Si Si2 0.479178 0.976609 0.073547
Si Si3 0.897696 0.214545 0.299573
Si Si4 0.511104 0.883994 0.599609
Si Si5 0.347093 0.627155 0.069519
Si Si6 0.746392 0.682434 0.333265
Si Si7 0.162469 0.927362 0.180095
O O1 0.853749 0.154043 0.745229
O O2 0.845809 0.272518 0.856209
O O3 0.000000 0.250000 0.730950
O O4 0.973338 0.174648 0.968636
O O5 0.563681 0.922458 0.061724
O O6 0.458576 0.000000 0.250000
O O7 0.390744 0.944937 0.979598
O O8 0.515646 0.043816 0.984068
O O9 0.909654 0.140167 0.220705
O O10 0.862270 0.196468 0.469938
O O11 0.826649 0.261983 0.206283
O O12 0.000000 0.250000 0.300487
O O13 0.416634 0.893307 0.704158
O O14 0.250000 0.597696 0.000000
O O15 0.750000 0.644613 0.500000
O O16 0.753995 0.627246 0.196359
O O17 0.191826 0.000000 0.250000
#
# Coordination Sequence:
#
# PCOD9336001 Si02
#       7
#     8   8   8   8   8   8   8
#     4  12  25  42  69 104 146 189 250 311 384 455
#     4  11  23  45  70 104 147 200 251 311 385 461
#     4  12  22  41  70 101 140 191 243 306 380 449
#     4  11  21  41  70 103 138 194 245 299 377 462
#     4  12  25  44  63 101 146 185 248 310 379 457
#     4  12  23  41  75 108 149 193 253 318 385 465
#     4  10  23  44  78 106 145 197 258 307 384 459
#
# _framework density 23.448167000000002
#
# number of rings (size 3 to 8) (size 9 to 14) (size 15 to 20)
#    0.000    0.571    7.143    1.714    0.000    0.000 
#    5.143    0.000   12.571    0.000    0.000    0.000 
#    0.000    0.000    0.000    0.000    0.000    0.000 
#
# Total GULP energy -156263.692829 kJ/mol
# GULP energy per Si atom -5580.846172 kJ/mol
# Density = 2.339480 g / cm^3
# Si number density = 23.448167 Si / 1000 Ang^3
#
#
#
# Elastic Constant Matrix: (Units=GPa)
#
#
# Indices 1 2 3 4 5 6 
#
# 1 60.8826 33.8932 35.4160 0.0000 0.0000 0.0000
# 2 33.8932 116.4496 38.5805 0.0000 0.0000 0.0000
# 3 35.4160 38.5805 107.2436 0.0000 0.0000 0.0000
# 4 0.0000 0.0000 0.0000 44.4962 0.0000 0.0000
# 5 0.0000 0.0000 0.0000 0.0000 23.8833 0.0000
# 6 0.0000 0.0000 0.0000 0.0000 0.0000 -12.8230
#
#
#
# Elastic Compliance Matrix: (Units=1/GPa)
#
#
# Indices 1 2 3 4 5 6 
#
# 1 0.022309 -0.004601 -0.005712 0.000000 0.000000 0.000000
# 2 -0.004601 0.010698 -0.002329 0.000000 0.000000 0.000000
# 3 -0.005712 -0.002329 0.012049 0.000000 0.000000 0.000000
# 4 0.000000 0.000000 0.000000 0.022474 0.000000 0.000000
# 5 0.000000 0.000000 0.000000 0.000000 0.041870 0.000000
# 6 0.000000 0.000000 0.000000 0.000000 0.000000 -0.077985
#
#
# Mechanical properties :
#
#
# Convention : Reuss Voigt Hill
#
# Bulk Modulus (GPa) = 50.57721 55.59501 53.08611
# Shear Modulus (GPa) = 79.00093 22.89038 50.94566
#
# Velocity S-wave (km/s) = 5.81075 3.12783 4.66627
# Velocity P-wave (km/s) = 8.16312 6.06676 7.19173
#
# Compressibility (1/GPa) = 0.01977175
#
# Stress axis : x y z
#
# Youngs Moduli (GPa) = 44.82475 93.47396 82.99489
#
# Poissons Ratio (x) = 0.43004 0.47409
# Poissons Ratio (y) = 0.20622 0.19332
# Poissons Ratio (z) = 0.25605 0.21773
#
# Static dielectric constant tensor:
#      x y z
#    x 1.935010 0.000000 0.000000 
#    y 0.000000 1.871020 0.000000 
#    z 0.000000 0.000000 1.963760 
# 
# From -- ./inp_files/13177.got.cif
#   From: 2010.05.17/outbox.cif.g08.bks.cpg/sg24_7_cif.got.tgz:13177.got - 2010.06.04 00:33:39.
