data_PCOD9336233
_publ_section_title
;
Structure prediction by ZEFSAII (Michael W. Deem and Ramdas Pophale) SiO2 
 PCOD9336233
Probable space group: I 21 21 21
;
_chemical_formula_sum "Si O2"
_cell_formula_units_Z 36
_cell_length_a 10.731299
_cell_length_b 25.833844
_cell_length_c 6.018400
_cell_angle_alpha 90.000000
_cell_angle_beta 90.000000
_cell_angle_gamma 90.000000
_cell_volume 1668.485271
_symmetry_space_group_name_H-M "I 21 21 21"
_symmetry_group_IT_number 24
_symmetry_cell_setting 'orthorhombic'
loop_
_space_group_symop_operation_xyz
x,y,z
-x,1/2-y,z
x,-y,1/2-z
1/2-x,y,-z
1/2+x,1/2+y,1/2+z
1/2-x,-y,1/2+z
1/2+x,1/2-y,-z
-x,1/2+y,1/2-z
loop_
_atom_site_type_symbol
_atom_site_label
_atom_site_fract_x
_atom_site_fract_y
_atom_site_fract_z
Si Si1 0.250000 0.084150 0.500000
Si Si2 0.096341 0.000000 0.250000
Si Si3 0.890890 0.046394 0.924252
Si Si4 0.750000 0.158446 0.500000
Si Si5 0.999467 0.362375 0.655246
Si Si6 0.750000 0.788499 0.500000
Si Si7 0.000000 0.250000 0.857722
O O1 0.187093 0.046048 0.322254
O O2 0.365429 0.117748 0.416806
O O3 0.999188 0.978830 0.428881
O O4 0.952281 0.100440 0.850404
O O5 0.869270 0.000000 0.750000
O O6 0.750000 0.058621 0.000000
O O7 0.883734 0.130085 0.486807
O O8 0.755078 0.184957 0.749815
O O9 0.987674 0.302059 0.713762
O O10 0.876637 0.756050 0.496640
#
# Coordination Sequence:
#
# PCOD9336233 Si02
#       7
#     4   4   8   4   8   4   4
#     4  12  26  45  75 108 156 197 243 318 398 454
#     4  12  26  48  72 110 152 186 258 316 382 472
#     4  12  26  47  77 111 142 198 258 317 381 453
#     4  10  26  47  74 111 150 199 263 316 364 454
#     4  11  27  46  75 112 150 202 252 312 388 453
#     4  10  24  48  75 105 154 200 254 316 374 448
#     4  10  26  48  72 112 150 198 254 306 382 458
#
# _framework density 21.576454999999999
#
# number of rings (size 3 to 8) (size 9 to 14) (size 15 to 20)
#    0.000    0.889    3.333    1.333   10.889   10.667 
#    0.000    0.000    0.000    0.000    0.000    0.000 
#    0.000    0.000    0.000    0.000    0.000    0.000 
#
# Total GULP energy -100240.173480 kJ/mol
# GULP energy per Si atom -5568.898527 kJ/mol
# Density = 2.152735 g / cm^3
# Si number density = 21.576455 Si / 1000 Ang^3
#
#
#
# Elastic Constant Matrix: (Units=GPa)
#
#
# Indices 1 2 3 4 5 6 
#
# 1 263.4330 66.0415 51.5068 0.0005 0.0001 -0.0033
# 2 66.0415 143.0884 29.6321 0.0034 -0.0139 -0.0019
# 3 51.5068 29.6321 61.9942 0.0120 0.0303 -0.0086
# 4 0.0005 0.0034 0.0120 3.6159 0.0304 0.0016
# 5 0.0001 -0.0139 0.0303 0.0304 -1.5834 -0.0136
# 6 -0.0033 -0.0019 -0.0086 0.0016 -0.0136 62.7817
#
#
#
# Elastic Compliance Matrix: (Units=1/GPa)
#
#
# Indices 1 2 3 4 5 6 
#
# 1 0.004823 -0.001550 -0.003267 0.000012 -0.000048 0.000000
# 2 -0.001550 0.008254 -0.002658 0.000002 -0.000123 0.000000
# 3 -0.003267 -0.002658 0.020115 -0.000067 0.000407 0.000003
# 4 0.000012 0.000002 -0.000067 0.276513 0.005316 -0.000006
# 5 -0.000048 -0.000123 0.000407 0.005316 -0.631447 -0.000137
# 6 0.000000 0.000000 0.000003 -0.000006 -0.000137 0.015928
#
#
# Mechanical properties :
#
#
# Convention : Reuss Voigt Hill
#
# Bulk Modulus (GPa) = 54.81216 84.76405 69.78810
# Shear Modulus (GPa) = -17.55717 34.38518 8.41401
#
# Velocity S-wave (km/s) = -2.85567 3.99638 1.97689
# Velocity P-wave (km/s) = 3.81912 7.78880 6.13397
#
# Compressibility (1/GPa) = 0.01824413
#
# Stress axis : x y z
#
# Youngs Moduli (GPa) = 207.33117 121.14864 49.71485
#
# Poissons Ratio (x) = 0.18774 0.16240
# Poissons Ratio (y) = 0.32129 0.13214
# Poissons Ratio (z) = 0.67726 0.32200
#
# Static dielectric constant tensor:
#      x y z
#    x 1.754290 -0.000010 -0.000010 
#    y -0.000010 2.297690 0.000110 
#    z -0.000010 0.000110 1.905300 
# 
# From -- ./inp_files/2340.got.cif
#   From: 2010.05.17/outbox.cif.g08.bks.cpg/sg24_2_cif.got.tgz:2340.got - 2010.06.04 00:33:39.
