data_PCOD9336044
_publ_section_title
;
Structure prediction by ZEFSAII (Michael W. Deem and Ramdas Pophale) SiO2 
 PCOD9336044
Probable space group: I 21 21 21
;
_chemical_formula_sum "Si O2"
_cell_formula_units_Z 60
_cell_length_a 17.631027
_cell_length_b 26.198785
_cell_length_c 6.608242
_cell_angle_alpha 90.000000
_cell_angle_beta 90.000000
_cell_angle_gamma 90.000000
_cell_volume 3052.422880
_symmetry_space_group_name_H-M "I 21 21 21"
_symmetry_group_IT_number 24
_symmetry_cell_setting 'orthorhombic'
loop_
_space_group_symop_operation_xyz
x,y,z
-x,1/2-y,z
x,-y,1/2-z
1/2-x,y,-z
1/2+x,1/2+y,1/2+z
1/2-x,-y,1/2+z
1/2+x,1/2-y,-z
-x,1/2+y,1/2-z
loop_
_atom_site_type_symbol
_atom_site_label
_atom_site_fract_x
_atom_site_fract_y
_atom_site_fract_z
Si Si1 0.808410 0.555631 0.824262
Si Si2 0.435575 0.635435 0.395876
Si Si3 0.571959 0.061186 0.735350
Si Si4 0.945513 0.389206 0.549038
Si Si5 0.076208 0.717688 0.253116
Si Si6 0.661796 0.135197 0.485590
Si Si7 0.676263 0.688893 0.856285
Si Si8 0.750000 0.372772 0.000000
O O1 0.787551 0.500000 0.750000
O O2 0.892302 0.562441 0.903982
O O3 0.803784 0.592148 0.633161
O O4 0.750000 0.571625 0.000000
O O5 0.429312 0.587295 0.545067
O O6 0.507742 0.629624 0.245611
O O7 0.435486 0.686034 0.537992
O O8 0.363998 0.634245 0.246188
O O9 0.502212 0.088390 0.618009
O O10 0.643582 0.082503 0.605195
O O11 0.567827 0.000000 0.750000
O O12 0.889174 0.344377 0.469814
O O13 0.141980 0.759416 0.233561
O O14 0.000000 0.750000 0.207920
O O15 0.104888 0.675851 0.091715
O O16 0.750000 0.148731 0.500000
O O17 0.702931 0.658522 0.660305
O O18 0.750000 0.696477 0.000000
#
# Coordination Sequence:
#
# PCOD9336044 Si02
#       8
#     8   8   8   8   8   8   8   4
#     4  12  25  41  63  96 135 182 227 273 327 392
#     4  10  24  44  66  93 131 170 217 271 335 399
#     4  10  24  42  65 100 130 168 224 270 335 404
#     4  11  24  41  64  95 135 174 219 283 321 391
#     4  11  25  42  66  97 128 174 222 269 333 406
#     4  10  23  47  68  96 136 167 219 283 330 403
#     4  12  25  42  64  97 133 174 225 280 330 392
#     4  12  24  42  60  92 138 170 226 274 328 388
#
# _framework density 19.656517000000001
#
# number of rings (size 3 to 8) (size 9 to 14) (size 15 to 20)
#    0.000    1.067    3.333    2.800    5.600    8.000 
#    2.400    0.000    0.000    0.000    0.000    0.000 
#    0.000    0.000    0.000    0.000    0.000    0.000 
#
# Total GULP energy -167406.115127 kJ/mol
# GULP energy per Si atom -5580.203838 kJ/mol
# Density = 1.961178 g / cm^3
# Si number density = 19.656517 Si / 1000 Ang^3
#
#
#
# Elastic Constant Matrix: (Units=GPa)
#
#
# Indices 1 2 3 4 5 6 
#
# 1 116.8085 49.5390 69.5468 0.0000 0.0000 0.0000
# 2 49.5390 134.6601 60.9527 0.0000 0.0000 0.0000
# 3 69.5468 60.9527 148.8710 0.0000 0.0000 0.0000
# 4 0.0000 0.0000 0.0000 19.4598 0.0000 0.0000
# 5 0.0000 0.0000 0.0000 0.0000 15.1875 0.0000
# 6 0.0000 0.0000 0.0000 0.0000 0.0000 25.4959
#
#
#
# Elastic Compliance Matrix: (Units=1/GPa)
#
#
# Indices 1 2 3 4 5 6 
#
# 1 0.012457 -0.002392 -0.004840 0.000000 0.000000 0.000000
# 2 -0.002392 0.009575 -0.002803 0.000000 0.000000 0.000000
# 3 -0.004840 -0.002803 0.010126 0.000000 0.000000 0.000000
# 4 0.000000 0.000000 0.000000 0.051388 0.000000 0.000000
# 5 0.000000 0.000000 0.000000 0.000000 0.065844 0.000000
# 6 0.000000 0.000000 0.000000 0.000000 0.000000 0.039222
#
#
# Mechanical properties :
#
#
# Convention : Reuss Voigt Hill
#
# Bulk Modulus (GPa) = 82.72629 84.49075 83.60852
# Shear Modulus (GPa) = 23.50612 26.71539 25.11075
#
# Velocity S-wave (km/s) = 3.46185 3.69061 3.57806
# Velocity P-wave (km/s) = 7.62604 7.82545 7.72639
#
# Compressibility (1/GPa) = 0.01208806
#
# Stress axis : x y z
#
# Youngs Moduli (GPa) = 80.27429 104.44187 98.75618
#
# Poissons Ratio (x) = 0.24982 0.47800
# Poissons Ratio (y) = 0.19201 0.27679
# Poissons Ratio (z) = 0.38855 0.29273
#
# Static dielectric constant tensor:
#      x y z
#    x 1.737430 0.000000 0.000000 
#    y 0.000000 1.723900 0.000000 
#    z 0.000000 0.000000 1.699400 
# 
# From -- ./inp_files/5006.got.cif
#   From: 2010.05.17/outbox.cif.g08.bks.cpg/sg24_3_cif.got.tgz:5006.got - 2010.06.04 00:33:39.
