data_PCOD9336020
_publ_section_title
;
Structure prediction by ZEFSAII (Michael W. Deem and Ramdas Pophale) SiO2 
 PCOD9336020
Probable space group: I 21 21 21
;
_chemical_formula_sum "Si O2"
_cell_formula_units_Z 40
_cell_length_a 14.435143
_cell_length_b 14.820218
_cell_length_c 9.728952
_cell_angle_alpha 90.000000
_cell_angle_beta 90.000000
_cell_angle_gamma 90.000000
_cell_volume 2081.333830
_symmetry_space_group_name_H-M "I 21 21 21"
_symmetry_group_IT_number 24
_symmetry_cell_setting 'orthorhombic'
loop_
_space_group_symop_operation_xyz
x,y,z
-x,1/2-y,z
x,-y,1/2-z
1/2-x,y,-z
1/2+x,1/2+y,1/2+z
1/2-x,-y,1/2+z
1/2+x,1/2-y,-z
-x,1/2+y,1/2-z
loop_
_atom_site_type_symbol
_atom_site_label
_atom_site_fract_x
_atom_site_fract_y
_atom_site_fract_z
Si Si1 0.359571 0.167852 0.025168
Si Si2 0.000000 0.250000 0.195420
Si Si3 0.895830 0.715038 0.834586
Si Si4 0.584703 0.919023 0.856602
Si Si5 0.450693 0.977912 0.096593
Si Si6 0.750000 0.165098 0.500000
O O1 0.380082 0.215914 0.170834
O O2 0.396097 0.065073 0.041921
O O3 0.250000 0.169122 0.000000
O O4 0.417404 0.215060 0.903549
O O5 0.035610 0.331743 0.289905
O O6 0.888671 0.611410 0.884216
O O7 0.000000 0.750000 0.862184
O O8 0.821942 0.774354 0.914830
O O9 0.581047 0.000000 0.750000
O O10 0.530956 0.951424 0.992165
O O11 0.688580 0.893631 0.897258
O O12 0.486716 0.000000 0.250000
#
# Coordination Sequence:
#
# PCOD9336020 Si02
#       6
#     8   4   8   8   8   4
#     4  11  24  44  70 104 136 180 232 282 354 414
#     4  12  24  46  72 100 148 178 230 302 348 414
#     4  11  22  45  72  97 138 183 228 286 348 411
#     4  12  25  46  69 104 138 187 230 288 352 414
#     4  10  23  45  70  96 140 181 222 289 349 406
#     4  12  26  44  70 104 136 184 242 278 350 430
#
# _framework density 19.218444999999999
#
# number of rings (size 3 to 8) (size 9 to 14) (size 15 to 20)
#    0.000    0.800    5.000    2.400    1.400    0.800 
#   12.600    0.000    0.000    0.000    0.000    0.000 
#    0.000    0.000    0.000    0.000    0.000    0.000 
#
# Total GULP energy -111851.860334 kJ/mol
# GULP energy per Si atom -5592.593017 kJ/mol
# Density = 1.917470 g / cm^3
# Si number density = 19.218445 Si / 1000 Ang^3
#
#
#
# Elastic Constant Matrix: (Units=GPa)
#
#
# Indices 1 2 3 4 5 6 
#
# 1 154.7535 60.4560 74.1908 0.0000 0.0000 0.0000
# 2 60.4560 123.4577 66.5409 0.0000 0.0000 0.0000
# 3 74.1908 66.5409 110.2514 0.0000 0.0000 0.0000
# 4 0.0000 0.0000 0.0000 16.1034 0.0000 0.0000
# 5 0.0000 0.0000 0.0000 0.0000 31.5567 0.0000
# 6 0.0000 0.0000 0.0000 0.0000 0.0000 25.9494
#
#
#
# Elastic Compliance Matrix: (Units=1/GPa)
#
#
# Indices 1 2 3 4 5 6 
#
# 1 0.009816 -0.001848 -0.005490 0.000000 0.000000 0.000000
# 2 -0.001848 0.012353 -0.006212 0.000000 0.000000 0.000000
# 3 -0.005490 -0.006212 0.016514 0.000000 0.000000 0.000000
# 4 0.000000 0.000000 0.000000 0.062099 0.000000 0.000000
# 5 0.000000 0.000000 0.000000 0.000000 0.031689 0.000000
# 6 0.000000 0.000000 0.000000 0.000000 0.000000 0.038536
#
#
# Mechanical properties :
#
#
# Convention : Reuss Voigt Hill
#
# Bulk Modulus (GPa) = 86.33536 87.87088 87.10312
# Shear Modulus (GPa) = 24.75650 27.20691 25.98170
#
# Velocity S-wave (km/s) = 3.59299 3.76662 3.68083
# Velocity P-wave (km/s) = 7.88882 8.04599 7.96779
#
# Compressibility (1/GPa) = 0.01158274
#
# Stress axis : x y z
#
# Youngs Moduli (GPa) = 101.87748 80.95262 60.55513
#
# Poissons Ratio (x) = 0.14957 0.33246
# Poissons Ratio (y) = 0.18823 0.37618
# Poissons Ratio (z) = 0.55932 0.50289
#
# Static dielectric constant tensor:
#      x y z
#    x 1.622450 0.000000 0.000000 
#    y 0.000000 1.673060 0.000000 
#    z 0.000000 0.000000 1.664170 
# 
# From -- ./inp_files/12361.got.cif
#   From: 2010.05.17/outbox.cif.g08.bks.cpg/sg24_7_cif.got.tgz:12361.got - 2010.06.04 00:33:39.
