data_PCOD9336083
_publ_section_title
;
Structure prediction by ZEFSAII (Michael W. Deem and Ramdas Pophale) SiO2 
 PCOD9336083
Probable space group: I 21 21 21
;
_chemical_formula_sum "Si O2"
_cell_formula_units_Z 64
_cell_length_a 27.557959
_cell_length_b 13.179582
_cell_length_c 9.430534
_cell_angle_alpha 90.000000
_cell_angle_beta 90.000000
_cell_angle_gamma 90.000000
_cell_volume 3425.192397
_symmetry_space_group_name_H-M "I 21 21 21"
_symmetry_group_IT_number 24
_symmetry_cell_setting 'orthorhombic'
loop_
_space_group_symop_operation_xyz
x,y,z
-x,1/2-y,z
x,-y,1/2-z
1/2-x,y,-z
1/2+x,1/2+y,1/2+z
1/2-x,-y,1/2+z
1/2+x,1/2-y,-z
-x,1/2+y,1/2-z
loop_
_atom_site_type_symbol
_atom_site_label
_atom_site_fract_x
_atom_site_fract_y
_atom_site_fract_z
Si Si1 0.857212 0.201546 0.965189
Si Si2 0.549153 0.694014 0.104058
Si Si3 0.040192 0.006265 0.416466
Si Si4 0.298623 0.616382 0.210173
Si Si5 0.808925 0.876124 0.265366
Si Si6 0.568434 0.045392 0.912557
Si Si7 0.609517 0.412485 0.149141
Si Si8 0.373937 0.351977 0.518137
O O1 0.839420 0.155864 0.817277
O O2 0.861930 0.320055 0.925818
O O3 0.816672 0.163921 0.076216
O O4 0.905220 0.147986 0.033052
O O5 0.500000 0.750000 0.147447
O O6 0.571234 0.636232 0.239553
O O7 0.534091 0.620292 0.974651
O O8 0.591740 0.766095 0.045047
O O9 0.051913 0.000000 0.250000
O O10 0.081271 0.963105 0.518872
O O11 0.988761 0.950687 0.440040
O O12 0.292196 0.500000 0.250000
O O13 0.244412 0.659524 0.219089
O O14 0.322869 0.632247 0.059674
O O15 0.854668 0.833340 0.176843
O O16 0.812490 0.000000 0.250000
O O17 0.572150 0.000000 0.750000
O O18 0.596092 0.955995 0.995724
O O19 0.634122 0.500000 0.250000
#
# Coordination Sequence:
#
# PCOD9336083 Si02
#       8
#     8   8   8   8   8   8   8   8
#     4  12  21  37  62  89 120 171 201 250 317 363
#     4  11  23  39  59  88 123 163 203 253 304 366
#     4  10  24  41  60  87 119 164 211 260 309 360
#     4  11  22  35  59  94 127 159 198 244 310 387
#     4  11  22  38  58  92 134 160 199 252 306 380
#     4  11  21  36  55  93 134 159 208 251 296 374
#     4  10  25  44  59  87 120 163 214 267 303 365
#     4  12  20  37  57  88 127 168 197 244 301 371
#
# _framework density 18.685081
#
# number of rings (size 3 to 8) (size 9 to 14) (size 15 to 20)
#    0.000    1.000    6.250    0.750    3.500    2.000 
#    2.250    0.000    0.000    0.000   13.000    0.000 
#    0.000    0.000    0.000    0.000    0.000    0.000 
#
# Total GULP energy -178225.015310 kJ/mol
# GULP energy per Si atom -5569.531728 kJ/mol
# Density = 1.864255 g / cm^3
# Si number density = 18.685081 Si / 1000 Ang^3
#
#
#
# Elastic Constant Matrix: (Units=GPa)
#
#
# Indices 1 2 3 4 5 6 
#
# 1 45.3963 8.2811 0.1834 0.0000 0.0000 0.0000
# 2 8.2811 66.7031 16.7068 0.0000 0.0000 0.0000
# 3 0.1834 16.7068 69.0694 0.0000 0.0000 0.0000
# 4 0.0000 0.0000 0.0000 22.2776 0.0000 0.0000
# 5 0.0000 0.0000 0.0000 0.0000 17.5153 0.0000
# 6 0.0000 0.0000 0.0000 0.0000 0.0000 9.2721
#
#
#
# Elastic Compliance Matrix: (Units=1/GPa)
#
#
# Indices 1 2 3 4 5 6 
#
# 1 0.022567 -0.002966 0.000658 0.000000 0.000000 0.000000
# 2 -0.002966 0.016349 -0.003947 0.000000 0.000000 0.000000
# 3 0.000658 -0.003947 0.015431 0.000000 0.000000 0.000000
# 4 0.000000 0.000000 0.000000 0.044888 0.000000 0.000000
# 5 0.000000 0.000000 0.000000 0.000000 0.057093 0.000000
# 6 0.000000 0.000000 0.000000 0.000000 0.000000 0.107850
#
#
# Mechanical properties :
#
#
# Convention : Reuss Voigt Hill
#
# Bulk Modulus (GPa) = 23.90304 25.72348 24.81326
# Shear Modulus (GPa) = 17.20382 20.21284 18.70833
#
# Velocity S-wave (km/s) = 3.03764 3.29259 3.16768
# Velocity P-wave (km/s) = 5.01232 5.31522 5.16599
#
# Compressibility (1/GPa) = 0.04183567
#
# Stress axis : x y z
#
# Youngs Moduli (GPa) = 44.31309 61.16746 64.80435
#
# Poissons Ratio (x) = 0.18144 -0.04262
# Poissons Ratio (y) = 0.13145 0.25576
# Poissons Ratio (z) = -0.02914 0.24140
#
# Static dielectric constant tensor:
#      x y z
#    x 1.656230 0.000000 0.000000 
#    y 0.000000 1.672670 0.000000 
#    z 0.000000 0.000000 1.676050 
# 
# From -- ./inp_files/17002.got.cif
#   From: 2010.05.17/outbox.cif.g08.bks.cpg/sg24_9_cif.got.tgz:17002.got - 2010.06.04 00:33:39.
