data_PCOD9336113
_publ_section_title
;
Structure prediction by ZEFSAII (Michael W. Deem and Ramdas Pophale) SiO2 
 PCOD9336113
Probable space group: I 21 21 21
;
_chemical_formula_sum "Si O2"
_cell_formula_units_Z 40
_cell_length_a 5.240575
_cell_length_b 29.070652
_cell_length_c 12.417761
_cell_angle_alpha 90.000000
_cell_angle_beta 90.000000
_cell_angle_gamma 90.000000
_cell_volume 1891.807792
_symmetry_space_group_name_H-M "I 21 21 21"
_symmetry_group_IT_number 24
_symmetry_cell_setting 'orthorhombic'
loop_
_space_group_symop_operation_xyz
x,y,z
-x,1/2-y,z
x,-y,1/2-z
1/2-x,y,-z
1/2+x,1/2+y,1/2+z
1/2-x,-y,1/2+z
1/2+x,1/2-y,-z
-x,1/2+y,1/2-z
loop_
_atom_site_type_symbol
_atom_site_label
_atom_site_fract_x
_atom_site_fract_y
_atom_site_fract_z
Si Si1 0.248538 0.891697 0.210356
Si Si2 0.876862 0.668803 0.398594
Si Si3 0.500000 0.250000 0.393095
Si Si4 0.750000 0.330730 0.500000
Si Si5 0.268746 0.446020 0.229705
Si Si6 0.500000 0.250000 0.754157
Si Si7 0.250000 0.594044 0.500000
O O1 0.297759 0.856191 0.309236
O O2 0.199892 0.862628 0.102847
O O3 0.496358 0.923848 0.204613
O O4 0.995271 0.920749 0.238693
O O5 0.750000 0.693746 0.500000
O O6 0.030578 0.705415 0.329222
O O7 0.034334 0.628241 0.455313
O O8 0.525763 0.295548 0.465802
O O9 0.749122 0.252121 0.318714
O O10 0.248188 0.500000 0.250000
O O11 0.324207 0.436252 0.103218
#
# Coordination Sequence:
#
# PCOD9336113 Si02
#       7
#     8   8   4   4   8   4   4
#     4  11  26  45  72 103 137 187 235 288 359 434
#     4  11  24  45  67 105 140 188 228 292 348 424
#     4  12  29  49  68 108 146 205 235 312 342 428
#     4  12  28  48  74  99 154 193 248 298 358 422
#     4  11  25  47  73 107 138 178 237 296 366 438
#     4  12  29  43  74 104 148 185 263 280 356 428
#     4  10  24  42  72  97 144 183 214 296 364 412
#
# _framework density 21.143795999999998
#
# number of rings (size 3 to 8) (size 9 to 14) (size 15 to 20)
#    0.000    0.800    4.000    1.200    9.800    4.000 
#    0.000    0.000    0.000    0.000    0.000    0.000 
#    0.000    0.000    0.000    0.000    0.000    0.000 
#
# Total GULP energy -111795.980561 kJ/mol
# GULP energy per Si atom -5589.799028 kJ/mol
# Density = 2.109567 g / cm^3
# Si number density = 21.143796 Si / 1000 Ang^3
#
#
#
# Elastic Constant Matrix: (Units=GPa)
#
#
# Indices 1 2 3 4 5 6 
#
# 1 116.6992 38.8458 46.4628 0.0000 0.0000 0.0000
# 2 38.8458 134.2261 73.7917 0.0000 0.0000 0.0000
# 3 46.4628 73.7917 164.1667 -0.0001 0.0000 0.0000
# 4 0.0000 0.0000 -0.0001 39.9499 0.0000 0.0000
# 5 0.0000 0.0000 0.0000 0.0000 20.3819 0.0000
# 6 0.0000 0.0000 0.0000 0.0000 0.0000 22.8509
#
#
#
# Elastic Compliance Matrix: (Units=1/GPa)
#
#
# Indices 1 2 3 4 5 6 
#
# 1 0.009964 -0.001771 -0.002024 0.000000 0.000000 0.000000
# 2 -0.001771 0.010210 -0.004088 0.000000 0.000000 0.000000
# 3 -0.002024 -0.004088 0.008502 0.000000 0.000000 0.000000
# 4 0.000000 0.000000 0.000000 0.025031 0.000000 0.000000
# 5 0.000000 0.000000 0.000000 0.000000 0.049063 0.000000
# 6 0.000000 0.000000 0.000000 0.000000 0.000000 0.043762
#
#
# Mechanical properties :
#
#
# Convention : Reuss Voigt Hill
#
# Bulk Modulus (GPa) = 77.45994 81.47694 79.46844
# Shear Modulus (GPa) = 30.01154 33.70267 31.85710
#
# Velocity S-wave (km/s) = 3.77158 3.99679 3.88582
# Velocity P-wave (km/s) = 7.46196 7.74064 7.60257
#
# Compressibility (1/GPa) = 0.01290990
#
# Stress axis : x y z
#
# Youngs Moduli (GPa) = 100.35693 97.94184 117.62177
#
# Poissons Ratio (x) = 0.17345 0.23808
# Poissons Ratio (y) = 0.17773 0.48086
# Poissons Ratio (z) = 0.20313 0.40040
#
# Static dielectric constant tensor:
#      x y z
#    x 1.779370 0.000000 0.000000 
#    y 0.000000 1.747810 0.000000 
#    z 0.000000 0.000000 1.777660 
# 
# From -- ./inp_files/2560.got.cif
#   From: 2010.05.17/outbox.cif.g08.bks.cpg/sg24_2_cif.got.tgz:2560.got - 2010.06.04 00:33:39.
