data_PCOD9336975
_publ_section_title
;
Structure prediction by ZEFSAII (Michael W. Deem and Ramdas Pophale) SiO2 
 PCOD9336975
Probable space group: I 21 21 21
;
_chemical_formula_sum "Si O2"
_cell_formula_units_Z 28
_cell_length_a 10.579809
_cell_length_b 5.168120
_cell_length_c 21.204224
_cell_angle_alpha 90.000000
_cell_angle_beta 90.000000
_cell_angle_gamma 90.000000
_cell_volume 1159.398675
_symmetry_space_group_name_H-M "I 21 21 21"
_symmetry_group_IT_number 24
_symmetry_cell_setting 'orthorhombic'
loop_
_space_group_symop_operation_xyz
x,y,z
-x,1/2-y,z
x,-y,1/2-z
1/2-x,y,-z
1/2+x,1/2+y,1/2+z
1/2-x,-y,1/2+z
1/2+x,1/2-y,-z
-x,1/2+y,1/2-z
loop_
_atom_site_type_symbol
_atom_site_label
_atom_site_fract_x
_atom_site_fract_y
_atom_site_fract_z
Si Si1 0.244744 0.816069 0.628214
Si Si2 0.750000 0.654814 0.000000
Si Si3 0.500000 0.250000 0.212102
Si Si4 0.423919 0.481681 0.438375
Si Si5 0.500000 0.250000 0.793476
O O1 0.200261 0.538160 0.602050
O O2 0.375877 0.812198 0.664683
O O3 0.121513 0.859785 0.672995
O O4 0.250251 0.983009 0.563429
O O5 0.871082 0.841657 0.999805
O O6 0.453129 0.500000 0.250000
O O7 0.500000 0.250000 0.406436
O O8 0.500000 0.750000 0.448389
O O9 0.473783 0.500000 0.750000
#
# Coordination Sequence:
#
# PCOD9336975 Si02
#       5
#     8   4   4   8   4
#     4  12  28  54  84 124 167 214 278 340 421 491
#     4  12  28  48  84 126 170 212 258 356 426 502
#     4  12  28  49  86 115 156 220 286 344 386 468
#     4  12  26  48  77 120 170 211 271 333 412 501
#     4  12  32  57  80 117 170 226 280 332 414 500
#
# _framework density 24.150451
#
# number of rings (size 3 to 8) (size 9 to 14) (size 15 to 20)
#    0.000    0.000    4.286    2.571   10.000    5.714 
#    0.000    0.000    0.000    0.000    0.000    0.000 
#    0.000    0.000    0.000    0.000    0.000    0.000 
#
# Total GULP energy -78095.316329 kJ/mol
# GULP energy per Si atom -5578.236881 kJ/mol
# Density = 2.409548 g / cm^3
# Si number density = 24.150451 Si / 1000 Ang^3
#
#
#
# Elastic Constant Matrix: (Units=GPa)
#
#
# Indices 1 2 3 4 5 6 
#
# 1 184.2353 54.1665 86.1044 0.0000 0.0000 0.0000
# 2 54.1665 170.1262 78.1597 0.0000 0.0000 0.0000
# 3 86.1044 78.1597 138.6020 0.0000 0.0000 0.0000
# 4 0.0000 0.0000 0.0000 45.9518 0.0000 0.0000
# 5 0.0000 0.0000 0.0000 0.0000 43.5333 0.0000
# 6 0.0000 0.0000 0.0000 0.0000 0.0000 50.4862
#
#
#
# Elastic Compliance Matrix: (Units=1/GPa)
#
#
# Indices 1 2 3 4 5 6 
#
# 1 0.007663 -0.000341 -0.004568 0.000000 0.000000 0.000000
# 2 -0.000341 0.007948 -0.004270 0.000000 0.000000 0.000000
# 3 -0.004568 -0.004270 0.012461 0.000000 0.000000 0.000000
# 4 0.000000 0.000000 0.000000 0.021762 0.000000 0.000000
# 5 0.000000 0.000000 0.000000 0.000000 0.022971 0.000000
# 6 0.000000 0.000000 0.000000 0.000000 0.000000 0.019807
#
#
# Mechanical properties :
#
#
# Convention : Reuss Voigt Hill
#
# Bulk Modulus (GPa) = 102.95307 103.31388 103.13347
# Shear Modulus (GPa) = 43.77896 46.29643 45.03770
#
# Velocity S-wave (km/s) = 4.26227 4.38311 4.32311
# Velocity P-wave (km/s) = 8.18199 8.27573 8.22899
#
# Compressibility (1/GPa) = 0.00971316
#
# Stress axis : x y z
#
# Youngs Moduli (GPa) = 130.49450 125.81004 80.25047
#
# Poissons Ratio (x) = 0.04292 0.36661
# Poissons Ratio (y) = 0.04451 0.34270
# Poissons Ratio (z) = 0.59613 0.53725
#
# Static dielectric constant tensor:
#      x y z
#    x 2.045880 0.000000 0.000000 
#    y 0.000000 2.014630 0.000000 
#    z 0.000000 0.000000 2.073960 
# 
# From -- ./inp_files/33118.got.cif
#   From: 2010.05.17/outbox.cif.g08.bks.cpg/sg24_17_cif.got.tgz:33118.got - 2010.06.04 00:33:39.
