data_PCOD9336326
_publ_section_title
;
Structure prediction by ZEFSAII (Michael W. Deem and Ramdas Pophale) SiO2 
 PCOD9336326
Probable space group: I 21 21 21
;
_chemical_formula_sum "Si O2"
_cell_formula_units_Z 40
_cell_length_a 12.237771
_cell_length_b 24.862503
_cell_length_c 5.248204
_cell_angle_alpha 90.000000
_cell_angle_beta 90.000000
_cell_angle_gamma 90.000000
_cell_volume 1596.827042
_symmetry_space_group_name_H-M "I 21 21 21"
_symmetry_group_IT_number 24
_symmetry_cell_setting 'orthorhombic'
loop_
_space_group_symop_operation_xyz
x,y,z
-x,1/2-y,z
x,-y,1/2-z
1/2-x,y,-z
1/2+x,1/2+y,1/2+z
1/2-x,-y,1/2+z
1/2+x,1/2-y,-z
-x,1/2+y,1/2-z
loop_
_atom_site_type_symbol
_atom_site_label
_atom_site_fract_x
_atom_site_fract_y
_atom_site_fract_z
Si Si1 0.750000 0.295893 0.500000
Si Si2 0.028001 0.687573 0.396481
Si Si3 0.250000 0.968142 0.000000
Si Si4 0.913100 0.380583 0.722735
Si Si5 0.750000 0.223397 0.000000
Si Si6 0.120933 0.393919 0.467551
Si Si7 0.825963 0.000000 0.250000
O O1 0.854835 0.333628 0.553665
O O2 0.733637 0.259578 0.749571
O O3 0.142070 0.688402 0.556329
O O4 0.070699 0.660295 0.142902
O O5 0.000000 0.750000 0.379126
O O6 0.930822 0.651871 0.513652
O O7 0.163891 0.930382 0.848764
O O8 0.297995 0.000000 0.750000
O O9 0.035373 0.404283 0.689868
O O10 0.250000 0.388178 0.500000
O O11 0.108193 0.445082 0.281591
O O12 0.750000 0.995515 0.500000
#
# Coordination Sequence:
#
# PCOD9336326 Si02
#       7
#     4   8   4   8   4   8   4
#     4  11  26  50  70 111 155 220 262 329 384 478
#     4  12  26  45  75 117 161 217 265 330 402 496
#     4  11  30  55  86 118 154 212 273 345 414 486
#     4  11  27  47  79 110 160 204 276 329 405 481
#     4  12  26  45  74 105 165 208 269 314 396 476
#     4  11  27  48  76 114 161 212 269 338 411 484
#     4  10  26  48  74 108 150 196 258 326 404 468
#
# _framework density 25.049678
#
# number of rings (size 3 to 8) (size 9 to 14) (size 15 to 20)
#    0.000    0.800    2.000    2.400   15.400    2.400 
#    1.800    0.000    0.000    0.000    0.000    0.000 
#    0.000    0.000    0.000    0.000    0.000    0.000 
#
# Total GULP energy -111616.648880 kJ/mol
# GULP energy per Si atom -5580.832444 kJ/mol
# Density = 2.499266 g / cm^3
# Si number density = 25.049678 Si / 1000 Ang^3
#
#
#
# Elastic Constant Matrix: (Units=GPa)
#
#
# Indices 1 2 3 4 5 6 
#
# 1 142.0259 43.6486 17.9460 -0.0151 0.0094 -0.0079
# 2 43.6486 86.4030 28.4911 0.0066 0.0039 0.0084
# 3 17.9460 28.4911 114.2655 -0.0020 0.0376 -0.1348
# 4 -0.0151 0.0066 -0.0020 27.9818 0.0123 -0.0690
# 5 0.0094 0.0039 0.0376 0.0123 32.4695 0.0176
# 6 -0.0079 0.0084 -0.1348 -0.0690 0.0176 -75.3031
#
#
#
# Elastic Compliance Matrix: (Units=1/GPa)
#
#
# Indices 1 2 3 4 5 6 
#
# 1 0.008343 -0.004122 -0.000283 0.000005 -0.000002 -0.000001
# 2 -0.004122 0.014647 -0.003005 -0.000006 0.000003 0.000007
# 3 -0.000283 -0.003005 0.009545 0.000001 -0.000011 -0.000017
# 4 0.000005 -0.000006 0.000001 0.035737 -0.000014 -0.000033
# 5 -0.000002 0.000003 -0.000011 -0.000014 0.030798 0.000007
# 6 -0.000001 0.000007 -0.000017 -0.000033 0.000007 -0.013280
#
#
# Mechanical properties :
#
#
# Convention : Reuss Voigt Hill
#
# Bulk Modulus (GPa) = 56.44261 58.09620 57.26940
# Shear Modulus (GPa) = 46.94179 13.87021 30.40600
#
# Velocity S-wave (km/s) = 4.33361 2.35565 3.48778
# Velocity P-wave (km/s) = 6.90083 5.53548 6.25552
#
# Compressibility (1/GPa) = 0.01771711
#
# Stress axis : x y z
#
# Youngs Moduli (GPa) = 119.85526 68.27518 104.76568
#
# Poissons Ratio (x) = 0.28141 0.02961
# Poissons Ratio (y) = 0.49400 0.31479
# Poissons Ratio (z) = 0.03388 0.20514
#
# Static dielectric constant tensor:
#      x y z
#    x 2.229140 -0.000030 -0.000080 
#    y -0.000030 2.033710 -0.000070 
#    z -0.000080 -0.000070 2.153290 
# 
# From -- ./inp_files/2566.got.cif
#   From: 2010.05.17/outbox.cif.g08.bks.cpg/sg24_2_cif.got.tgz:2566.got - 2010.06.04 00:33:39.
