data_PCOD9336244
_publ_section_title
;
Structure prediction by ZEFSAII (Michael W. Deem and Ramdas Pophale) SiO2 
 PCOD9336244
Probable space group: I 21 21 21
;
_chemical_formula_sum "Si O2"
_cell_formula_units_Z 24
_cell_length_a 11.614225
_cell_length_b 15.890235
_cell_length_c 5.350771
_cell_angle_alpha 90.000000
_cell_angle_beta 90.000000
_cell_angle_gamma 90.000000
_cell_volume 987.499581
_symmetry_space_group_name_H-M "I 21 21 21"
_symmetry_group_IT_number 24
_symmetry_cell_setting 'orthorhombic'
loop_
_space_group_symop_operation_xyz
x,y,z
-x,1/2-y,z
x,-y,1/2-z
1/2-x,y,-z
1/2+x,1/2+y,1/2+z
1/2-x,-y,1/2+z
1/2+x,1/2-y,-z
-x,1/2+y,1/2-z
loop_
_atom_site_type_symbol
_atom_site_label
_atom_site_fract_x
_atom_site_fract_y
_atom_site_fract_z
Si Si1 0.750000 0.709675 0.000000
Si Si2 0.500000 0.750000 0.854215
Si Si3 0.000330 0.425831 0.063041
Si Si4 0.822281 0.000000 0.750000
Si Si5 0.750000 0.400889 0.000000
O O1 0.623549 0.753151 0.995608
O O2 0.750966 0.654998 0.748624
O O3 0.499506 0.834795 0.688892
O O4 0.036873 0.500000 0.250000
O O5 0.869826 0.449435 0.994010
O O6 0.089767 0.426938 0.835409
O O7 0.750000 0.019980 0.500000
#
# Coordination Sequence:
#
# PCOD9336244 Si02
#       5
#     4   4   8   4   4
#     4  10  24  49  76 115 156 208 256 317 386 461
#     4  10  26  52  78 116 160 202 260 320 386 464
#     4  11  27  51  80 115 154 205 256 321 386 460
#     4  12  28  52  76 114 156 208 258 318 384 466
#     4  10  26  47  80 113 154 202 260 321 380 455
#
# _framework density 24.303809000000001
#
# number of rings (size 3 to 8) (size 9 to 14) (size 15 to 20)
#    0.000    1.333    1.667    0.000   11.667    9.333 
#   12.000    0.000    0.000    0.000    0.000    0.000 
#    0.000    0.000    0.000    0.000    0.000    0.000 
#
# Total GULP energy -67058.722085 kJ/mol
# GULP energy per Si atom -5588.226840 kJ/mol
# Density = 2.424849 g / cm^3
# Si number density = 24.303809 Si / 1000 Ang^3
#
#
#
# Elastic Constant Matrix: (Units=GPa)
#
#
# Indices 1 2 3 4 5 6 
#
# 1 269.1237 33.2581 88.3690 0.0000 0.0000 0.0000
# 2 33.2581 117.2749 54.0992 0.0000 0.0000 0.0000
# 3 88.3690 54.0992 166.7725 0.0000 0.0000 0.0000
# 4 0.0000 0.0000 0.0000 43.6663 0.0000 0.0000
# 5 0.0000 0.0000 0.0000 0.0000 -188.7033 0.0000
# 6 0.0000 0.0000 0.0000 0.0000 0.0000 37.2746
#
#
#
# Elastic Compliance Matrix: (Units=1/GPa)
#
#
# Indices 1 2 3 4 5 6 
#
# 1 0.004503 -0.000207 -0.002319 0.000000 0.000000 0.000000
# 2 -0.000207 0.010037 -0.003146 0.000000 0.000000 0.000000
# 3 -0.002319 -0.003146 0.008245 0.000000 0.000000 0.000000
# 4 0.000000 0.000000 0.000000 0.022901 0.000000 0.000000
# 5 0.000000 0.000000 0.000000 0.000000 -0.005299 0.000000
# 6 0.000000 0.000000 0.000000 0.000000 0.000000 0.026828
#
#
# Mechanical properties :
#
#
# Convention : Reuss Voigt Hill
#
# Bulk Modulus (GPa) = 87.40442 100.51373 93.95908
# Shear Modulus (GPa) = 60.69995 3.61051 32.15523
#
# Velocity S-wave (km/s) = 5.00297 1.22016 3.64133
# Velocity P-wave (km/s) = 8.33152 6.59030 7.51153
#
# Compressibility (1/GPa) = 0.01144107
#
# Stress axis : x y z
#
# Youngs Moduli (GPa) = 222.08744 99.63083 121.28075
#
# Poissons Ratio (x) = 0.02066 0.28121
# Poissons Ratio (y) = 0.04605 0.38155
# Poissons Ratio (z) = 0.51494 0.31344
#
# Static dielectric constant tensor:
#      x y z
#    x 2.028780 0.000000 0.000000 
#    y 0.000000 2.207670 0.000000 
#    z 0.000000 0.000000 1.943380 
# 
# From -- ./inp_files/1755.got.cif
#   From: 2010.05.17/outbox.cif.g08.bks.cpg/sg24_1_cif.got.tgz:1755.got - 2010.06.04 00:33:39.
