data_PCOD9336391
_publ_section_title
;
Structure prediction by ZEFSAII (Michael W. Deem and Ramdas Pophale) SiO2 
 PCOD9336391
Probable space group: I 21 21 21
;
_chemical_formula_sum "Si O2"
_cell_formula_units_Z 48
_cell_length_a 11.861296
_cell_length_b 16.554296
_cell_length_c 10.774365
_cell_angle_alpha 90.000000
_cell_angle_beta 90.000000
_cell_angle_gamma 90.000000
_cell_volume 2115.604802
_symmetry_space_group_name_H-M "I 21 21 21"
_symmetry_group_IT_number 24
_symmetry_cell_setting 'orthorhombic'
loop_
_space_group_symop_operation_xyz
x,y,z
-x,1/2-y,z
x,-y,1/2-z
1/2-x,y,-z
1/2+x,1/2+y,1/2+z
1/2-x,-y,1/2+z
1/2+x,1/2-y,-z
-x,1/2+y,1/2-z
loop_
_atom_site_type_symbol
_atom_site_label
_atom_site_fract_x
_atom_site_fract_y
_atom_site_fract_z
Si Si1 0.748608 0.631996 0.358225
Si Si2 0.527438 0.335417 0.274495
Si Si3 0.977489 0.413302 0.266821
Si Si4 0.303248 0.569156 0.143019
Si Si5 0.372477 0.160219 0.525102
Si Si6 0.654467 0.213233 0.746257
O O1 0.750000 0.608850 0.500000
O O2 0.624565 0.618673 0.302185
O O3 0.851406 0.587716 0.288718
O O4 0.782839 0.727086 0.340674
O O5 0.500000 0.250000 0.206675
O O6 0.429604 0.393095 0.329743
O O7 0.592959 0.303955 0.395712
O O8 0.032052 0.500000 0.250000
O O9 0.960921 0.400032 0.413581
O O10 0.045062 0.337400 0.210157
O O11 0.293345 0.500000 0.250000
O O12 0.229433 0.642796 0.191966
O O13 0.250000 0.551280 0.000000
O O14 0.250000 0.122919 0.500000
O O15 0.367982 0.230034 0.627428
#
# Coordination Sequence:
#
# PCOD9336391 Si02
#       6
#     8   8   8   8   8   8
#     4  11  25  45  69 101 146 189 249 311 375 444
#     4  12  22  44  75 105 138 189 252 313 370 438
#     4  11  24  42  65 101 141 184 231 294 371 446
#     4  12  27  48  74 112 154 198 250 313 382 460
#     4  11  19  39  73  99 125 172 242 313 350 420
#     4  11  22  44  73 100 132 186 250 305 368 430
#
# _framework density 22.688547
#
# number of rings (size 3 to 8) (size 9 to 14) (size 15 to 20)
#    0.000    0.667    5.000    6.000    0.000    3.333 
#    9.000    0.000    0.000    0.000    0.000    0.000 
#    0.000    0.000    0.000    0.000    0.000    0.000 
#
# Total GULP energy -133705.012757 kJ/mol
# GULP energy per Si atom -5571.042198 kJ/mol
# Density = 2.263691 g / cm^3
# Si number density = 22.688547 Si / 1000 Ang^3
#
#
#
# Elastic Constant Matrix: (Units=GPa)
#
#
# Indices 1 2 3 4 5 6 
#
# 1 131.4354 17.1205 37.2850 0.0000 0.0000 0.0000
# 2 17.1205 99.7064 19.9817 0.0000 0.0000 0.0000
# 3 37.2850 19.9817 80.9216 0.0000 0.0000 0.0000
# 4 0.0000 0.0000 0.0000 16.9817 0.0000 0.0000
# 5 0.0000 0.0000 0.0000 0.0000 11.7131 0.0000
# 6 0.0000 0.0000 0.0000 0.0000 0.0000 20.1334
#
#
#
# Elastic Compliance Matrix: (Units=1/GPa)
#
#
# Indices 1 2 3 4 5 6 
#
# 1 0.008803 -0.000735 -0.003875 0.000000 0.000000 0.000000
# 2 -0.000735 0.010613 -0.002282 0.000000 0.000000 0.000000
# 3 -0.003875 -0.002282 0.014706 0.000000 0.000000 0.000000
# 4 0.000000 0.000000 0.000000 0.058887 0.000000 0.000000
# 5 0.000000 0.000000 0.000000 0.000000 0.085375 0.000000
# 6 0.000000 0.000000 0.000000 0.000000 0.000000 0.049669
#
#
# Mechanical properties :
#
#
# Convention : Reuss Voigt Hill
#
# Bulk Modulus (GPa) = 49.16596 51.20420 50.18508
# Shear Modulus (GPa) = 20.11134 25.61071 22.86102
#
# Velocity S-wave (km/s) = 2.98049 3.36340 3.17772
# Velocity P-wave (km/s) = 5.79322 6.14008 5.96917
#
# Compressibility (1/GPa) = 0.02033927
#
# Stress axis : x y z
#
# Youngs Moduli (GPa) = 113.59531 94.22424 67.99790
#
# Poissons Ratio (x) = 0.06926 0.26346
# Poissons Ratio (y) = 0.08350 0.15517
# Poissons Ratio (z) = 0.44014 0.21501
#
# Static dielectric constant tensor:
#      x y z
#    x 2.144610 0.000000 0.000000 
#    y 0.000000 1.951190 0.000000 
#    z 0.000000 0.000000 1.841320 
# 
# From -- ./inp_files/19695.got.cif
#   From: 2010.05.17/outbox.cif.g08.bks.cpg/sg24_10_cif.got.tgz:19695.got - 2010.06.04 00:33:39.
