data_PCOD9336033
_publ_section_title
;
Structure prediction by ZEFSAII (Michael W. Deem and Ramdas Pophale) SiO2 
 PCOD9336033
Probable space group: I 21 21 21
;
_chemical_formula_sum "Si O2"
_cell_formula_units_Z 40
_cell_length_a 9.393542
_cell_length_b 7.638620
_cell_length_c 22.251261
_cell_angle_alpha 90.000000
_cell_angle_beta 90.000000
_cell_angle_gamma 90.000000
_cell_volume 1596.610257
_symmetry_space_group_name_H-M "I 21 21 21"
_symmetry_group_IT_number 24
_symmetry_cell_setting 'orthorhombic'
loop_
_space_group_symop_operation_xyz
x,y,z
-x,1/2-y,z
x,-y,1/2-z
1/2-x,y,-z
1/2+x,1/2+y,1/2+z
1/2-x,-y,1/2+z
1/2+x,1/2-y,-z
-x,1/2+y,1/2-z
loop_
_atom_site_type_symbol
_atom_site_label
_atom_site_fract_x
_atom_site_fract_y
_atom_site_fract_z
Si Si1 0.911392 0.408573 0.690236
Si Si2 0.150643 0.706845 0.248765
Si Si3 0.733577 0.327168 0.876592
Si Si4 0.399981 0.108678 0.531499
Si Si5 0.387613 0.594110 0.457322
O O1 0.977513 0.500000 0.750000
O O2 0.770652 0.313501 0.714432
O O3 0.866265 0.551141 0.642432
O O4 0.000000 0.250000 0.664220
O O5 0.175108 0.500000 0.250000
O O6 0.150556 0.786851 0.315947
O O7 0.000000 0.750000 0.220063
O O8 0.644766 0.441518 0.925738
O O9 0.806266 0.143886 0.896252
O O10 0.500000 0.250000 0.566387
O O11 0.250000 0.162014 0.500000
O O12 0.512123 0.061010 0.478716
O O13 0.500000 0.750000 0.467154
O O14 0.250000 0.598497 0.500000
#
# Coordination Sequence:
#
# PCOD9336033 Si02
#       5
#     8   8   8   8   8
#     4  10  23  46  70 107 149 186 242 306 363 450
#     4  11  25  47  74 109 148 192 244 304 367 452
#     4  11  25  45  77 107 151 198 248 297 388 443
#     4  12  27  52  73 110 154 197 258 315 375 453
#     4  12  23  47  73 104 151 197 251 308 370 451
#
# _framework density 25.053076999999998
#
# number of rings (size 3 to 8) (size 9 to 14) (size 15 to 20)
#    0.000    0.800    4.000    3.000    2.800    8.000 
#    7.200    0.000    0.000    0.000    0.000    0.000 
#    0.000    0.000    0.000    0.000    0.000    0.000 
#
# Total GULP energy -111704.069651 kJ/mol
# GULP energy per Si atom -5585.203483 kJ/mol
# Density = 2.499605 g / cm^3
# Si number density = 25.053077 Si / 1000 Ang^3
#
#
#
# Elastic Constant Matrix: (Units=GPa)
#
#
# Indices 1 2 3 4 5 6 
#
# 1 139.7582 5.5318 18.8490 0.0000 0.0000 0.0000
# 2 5.5318 87.1468 14.2846 0.0000 0.0000 0.0000
# 3 18.8490 14.2846 79.8354 0.0000 0.0000 0.0000
# 4 0.0000 0.0000 0.0000 13.0136 0.0000 0.0000
# 5 0.0000 0.0000 0.0000 0.0000 -351.3554 0.0000
# 6 0.0000 0.0000 0.0000 0.0000 0.0000 44.7382
#
#
#
# Elastic Compliance Matrix: (Units=1/GPa)
#
#
# Indices 1 2 3 4 5 6 
#
# 1 0.007394 -0.000189 -0.001712 0.000000 0.000000 0.000000
# 2 -0.000189 0.011826 -0.002071 0.000000 0.000000 0.000000
# 3 -0.001712 -0.002071 0.013301 0.000000 0.000000 0.000000
# 4 0.000000 0.000000 0.000000 0.076842 0.000000 0.000000
# 5 0.000000 0.000000 0.000000 0.000000 -0.002846 0.000000
# 6 0.000000 0.000000 0.000000 0.000000 0.000000 0.022352
#
#
# Mechanical properties :
#
#
# Convention : Reuss Voigt Hill
#
# Bulk Modulus (GPa) = 40.68935 42.67455 41.68195
# Shear Modulus (GPa) = 34.48148 -40.84902 -3.18377
#
# Velocity S-wave (km/s) = 3.71393 -4.04232 -1.12853
# Velocity P-wave (km/s) = 5.88791 2.17176 3.86982
#
# Compressibility (1/GPa) = 0.02457646
#
# Stress axis : x y z
#
# Youngs Moduli (GPa) = 135.25289 84.55646 75.18476
#
# Poissons Ratio (x) = 0.01596 0.12870
# Poissons Ratio (y) = 0.02553 0.15574
# Poissons Ratio (z) = 0.23153 0.17516
#
# Static dielectric constant tensor:
#      x y z
#    x 2.051130 0.000000 0.000000 
#    y 0.000000 2.119690 0.000000 
#    z 0.000000 0.000000 1.985320 
# 
# From -- ./inp_files/35013.got.cif
#   From: 2010.05.17/outbox.cif.g08.bks.cpg/sg24_18_cif.got.tgz:35013.got - 2010.06.04 00:33:39.
