data_PCOD9336588
_publ_section_title
;
Structure prediction by ZEFSAII (Michael W. Deem and Ramdas Pophale) SiO2 
 PCOD9336588
Probable space group: I 21 21 21
;
_chemical_formula_sum "Si O2"
_cell_formula_units_Z 32
_cell_length_a 17.275005
_cell_length_b 5.208482
_cell_length_c 17.721389
_cell_angle_alpha 90.000000
_cell_angle_beta 90.000000
_cell_angle_gamma 90.000000
_cell_volume 1594.509489
_symmetry_space_group_name_H-M "I 21 21 21"
_symmetry_group_IT_number 24
_symmetry_cell_setting 'orthorhombic'
loop_
_space_group_symop_operation_xyz
x,y,z
-x,1/2-y,z
x,-y,1/2-z
1/2-x,y,-z
1/2+x,1/2+y,1/2+z
1/2-x,-y,1/2+z
1/2+x,1/2-y,-z
-x,1/2+y,1/2-z
loop_
_atom_site_type_symbol
_atom_site_label
_atom_site_fract_x
_atom_site_fract_y
_atom_site_fract_z
Si Si1 0.704225 0.964082 0.922626
Si Si2 0.910521 0.170821 0.822001
Si Si3 0.052899 0.502099 0.984957
Si Si4 0.259121 0.040236 0.164416
O O1 0.615576 0.967362 0.949371
O O2 0.732759 0.698688 0.885959
O O3 0.723132 0.198830 0.867848
O O4 0.750000 0.008717 0.000000
O O5 0.851852 0.407869 0.832926
O O6 0.000000 0.250000 0.809795
O O7 0.885752 0.000000 0.750000
O O8 0.908443 0.024156 0.901960
O O9 0.000000 0.750000 0.983222
O O10 0.000000 0.250000 0.994941
O O11 0.233555 0.000000 0.250000
#
# Coordination Sequence:
#
# PCOD9336588 Si02
#       4
#     8   8   8   8
#     4  12  25  44  70  98 135 176 229 283 331 393
#     4  11  23  39  62 100 144 188 219 263 331 424
#     4  11  25  43  69  98 135 180 227 276 340 401
#     4  12  26  43  68  98 137 179 225 277 340 398
#
# _framework density 20.068868999999999
#
# number of rings (size 3 to 8) (size 9 to 14) (size 15 to 20)
#    0.000    0.500    2.500    6.000    7.000    0.000 
#    0.000    0.000    0.000   15.000    0.000    0.000 
#    0.000    0.000    0.000    0.000    0.000    0.000 
#
# Total GULP energy -89575.538421 kJ/mol
# GULP energy per Si atom -5598.471151 kJ/mol
# Density = 2.002319 g / cm^3
# Si number density = 20.068869 Si / 1000 Ang^3
#
#
#
# Elastic Constant Matrix: (Units=GPa)
#
#
# Indices 1 2 3 4 5 6 
#
# 1 100.4549 69.7440 67.5825 0.0000 0.0000 0.0000
# 2 69.7440 160.8365 52.3383 0.0000 0.0000 0.0000
# 3 67.5825 52.3383 103.2737 0.0000 0.0000 0.0000
# 4 0.0000 0.0000 0.0000 52.5664 0.0000 0.0000
# 5 0.0000 0.0000 0.0000 0.0000 30.1238 0.0000
# 6 0.0000 0.0000 0.0000 0.0000 0.0000 34.0802
#
#
#
# Elastic Compliance Matrix: (Units=1/GPa)
#
#
# Indices 1 2 3 4 5 6 
#
# 1 0.021345 -0.005641 -0.011110 0.000000 0.000000 0.000000
# 2 -0.005641 0.008936 -0.000837 0.000000 0.000000 0.000000
# 3 -0.011110 -0.000837 0.017378 0.000000 0.000000 0.000000
# 4 0.000000 0.000000 0.000000 0.019024 0.000000 0.000000
# 5 0.000000 0.000000 0.000000 0.000000 0.033196 0.000000
# 6 0.000000 0.000000 0.000000 0.000000 0.000000 0.029343
#
#
# Mechanical properties :
#
#
# Convention : Reuss Voigt Hill
#
# Bulk Modulus (GPa) = 80.10766 82.65495 81.38130
# Shear Modulus (GPa) = 29.66343 35.01410 32.33876
#
# Velocity S-wave (km/s) = 3.84875 4.18149 4.01857
# Velocity P-wave (km/s) = 7.73004 8.03668 7.88485
#
# Compressibility (1/GPa) = 0.01248320
#
# Stress axis : x y z
#
# Youngs Moduli (GPa) = 46.84907 111.90692 57.54548
#
# Poissons Ratio (x) = 0.63124 0.63931
# Poissons Ratio (y) = 0.26426 0.04819
# Poissons Ratio (z) = 0.52048 0.09371
#
# Static dielectric constant tensor:
#      x y z
#    x 1.749560 0.000000 0.000000 
#    y 0.000000 1.706000 0.000000 
#    z 0.000000 0.000000 1.692920 
# 
# From -- ./inp_files/3068.got.cif
#   From: 2010.05.17/outbox.cif.g08.bks.cpg/sg24_2_cif.got.tgz:3068.got - 2010.06.04 00:33:39.
