data_PCOD9336982
_publ_section_title
;
Structure prediction by ZEFSAII (Michael W. Deem and Ramdas Pophale) SiO2 
 PCOD9336982
Probable space group: I 21 21 21
;
_chemical_formula_sum "Si O2"
_cell_formula_units_Z 24
_cell_length_a 13.808372
_cell_length_b 8.168954
_cell_length_c 8.695450
_cell_angle_alpha 90.000000
_cell_angle_beta 90.000000
_cell_angle_gamma 90.000000
_cell_volume 980.846375
_symmetry_space_group_name_H-M "I 21 21 21"
_symmetry_group_IT_number 24
_symmetry_cell_setting 'orthorhombic'
loop_
_space_group_symop_operation_xyz
x,y,z
-x,1/2-y,z
x,-y,1/2-z
1/2-x,y,-z
1/2+x,1/2+y,1/2+z
1/2-x,-y,1/2+z
1/2+x,1/2-y,-z
-x,1/2+y,1/2-z
loop_
_atom_site_type_symbol
_atom_site_label
_atom_site_fract_x
_atom_site_fract_y
_atom_site_fract_z
Si Si1 0.580732 0.373209 0.367246
Si Si2 0.750497 0.816583 0.313125
Si Si3 0.428809 0.885943 0.626957
O O1 0.500000 0.250000 0.428380
O O2 0.530309 0.500000 0.250000
O O3 0.662710 0.276465 0.273121
O O4 0.616268 0.493781 0.500661
O O5 0.750000 0.823025 0.500000
O O6 0.846038 0.710420 0.282734
O O7 0.755240 0.000000 0.250000
O O8 0.500000 0.750000 0.557045
O O9 0.483291 0.000000 0.750000
#
# Coordination Sequence:
#
# PCOD9336982 Si02
#       3
#     8   8   8
#     4  12  26  49  81 111 152 203 259 315 387 466
#     4  12  29  48  77 115 154 204 262 322 385 455
#     4  12  28  50  78 116 158 202 259 320 388 462
#
# _framework density 24.468661000000001
#
# number of rings (size 3 to 8) (size 9 to 14) (size 15 to 20)
#    0.000    0.000    3.333    5.000    9.333    0.000 
#    0.000    0.000    0.000    0.000    0.000    0.000 
#    0.000    0.000    0.000    0.000    0.000    0.000 
#
# Total GULP energy -67161.508303 kJ/mol
# GULP energy per Si atom -5596.792359 kJ/mol
# Density = 2.441297 g / cm^3
# Si number density = 24.468661 Si / 1000 Ang^3
#
#
#
# Elastic Constant Matrix: (Units=GPa)
#
#
# Indices 1 2 3 4 5 6 
#
# 1 120.7063 76.7855 28.1838 0.0000 0.0000 0.0000
# 2 76.7855 205.9228 84.4311 0.0000 0.0000 0.0000
# 3 28.1838 84.4311 117.6723 0.0000 0.0000 0.0000
# 4 0.0000 0.0000 0.0000 56.1051 0.0000 0.0000
# 5 0.0000 0.0000 0.0000 0.0000 23.2384 0.0000
# 6 0.0000 0.0000 0.0000 0.0000 0.0000 44.3971
#
#
#
# Elastic Compliance Matrix: (Units=1/GPa)
#
#
# Indices 1 2 3 4 5 6 
#
# 1 0.010876 -0.004233 0.000432 0.000000 0.000000 0.000000
# 2 -0.004233 0.008528 -0.005105 0.000000 0.000000 0.000000
# 3 0.000432 -0.005105 0.012057 0.000000 0.000000 0.000000
# 4 0.000000 0.000000 0.000000 0.017824 0.000000 0.000000
# 5 0.000000 0.000000 0.000000 0.000000 0.043032 0.000000
# 6 0.000000 0.000000 0.000000 0.000000 0.000000 0.022524
#
#
# Mechanical properties :
#
#
# Convention : Reuss Voigt Hill
#
# Bulk Modulus (GPa) = 73.25867 91.45581 82.35724
# Shear Modulus (GPa) = 36.44251 41.74151 39.09201
#
# Velocity S-wave (km/s) = 3.86340 4.13476 4.00138
# Velocity P-wave (km/s) = 7.06442 7.76227 7.42155
#
# Compressibility (1/GPa) = 0.01365026
#
# Stress axis : x y z
#
# Youngs Moduli (GPa) = 91.94310 117.26684 82.93625
#
# Poissons Ratio (x) = 0.49636 -0.03583
# Poissons Ratio (y) = 0.38917 0.42337
# Poissons Ratio (z) = -0.03972 0.59863
#
# Static dielectric constant tensor:
#      x y z
#    x 1.894560 0.000000 0.000000 
#    y 0.000000 1.904790 0.000000 
#    z 0.000000 0.000000 2.006290 
# 
# From -- ./inp_files/8515.got.cif
#   From: 2010.05.17/outbox.cif.g08.bks.cpg/sg24_5_cif.got.tgz:8515.got - 2010.06.04 00:33:39.
