data_PCOD9336414
_publ_section_title
;
Structure prediction by ZEFSAII (Michael W. Deem and Ramdas Pophale) SiO2 
 PCOD9336414
Probable space group: I 21 21 21
;
_chemical_formula_sum "Si O2"
_cell_formula_units_Z 64
_cell_length_a 9.582397
_cell_length_b 20.814120
_cell_length_c 17.605493
_cell_angle_alpha 90.000000
_cell_angle_beta 90.000000
_cell_angle_gamma 90.000000
_cell_volume 3511.400809
_symmetry_space_group_name_H-M "I 21 21 21"
_symmetry_group_IT_number 24
_symmetry_cell_setting 'orthorhombic'
loop_
_space_group_symop_operation_xyz
x,y,z
-x,1/2-y,z
x,-y,1/2-z
1/2-x,y,-z
1/2+x,1/2+y,1/2+z
1/2-x,-y,1/2+z
1/2+x,1/2-y,-z
-x,1/2+y,1/2-z
loop_
_atom_site_type_symbol
_atom_site_label
_atom_site_fract_x
_atom_site_fract_y
_atom_site_fract_z
Si Si1 0.923574 0.814613 0.249526
Si Si2 0.893098 0.189223 0.783459
Si Si3 0.748833 0.988933 0.409217
Si Si4 0.480232 0.450195 0.679027
Si Si5 0.797393 0.470690 0.084933
Si Si6 0.455426 0.373967 0.908297
Si Si7 0.478621 0.948943 0.317753
Si Si8 0.635820 0.210172 0.045156
O O1 0.754328 0.811400 0.238185
O O2 0.986950 0.878196 0.210342
O O3 0.000000 0.750000 0.223437
O O4 0.960818 0.824584 0.339125
O O5 0.833458 0.193337 0.869505
O O6 0.000000 0.250000 0.769620
O O7 0.976990 0.121367 0.785199
O O8 0.750000 0.996639 0.500000
O O9 0.598143 0.974292 0.375232
O O10 0.844505 0.928369 0.386638
O O11 0.834701 0.044760 0.367294
O O12 0.476295 0.500000 0.750000
O O13 0.608296 0.474542 0.626241
O O14 0.899013 0.409315 0.079027
O O15 0.666112 0.450520 0.136412
O O16 0.750000 0.489394 0.000000
O O17 0.398335 0.346687 0.987327
O O18 0.470191 0.000000 0.250000
O O19 0.500000 0.250000 0.050530
O O20 0.750000 0.250351 0.000000
#
# Coordination Sequence:
#
# PCOD9336414 Si02
#       8
#     8   8   8   8   8   8   8   8
#     4  12  24  39  62  85 121 173 215 248 303 378
#     4  11  24  37  53  83 123 159 204 256 301 358
#     4  11  20  36  64  88 119 158 200 255 311 370
#     4  11  21  42  64  89 123 166 213 259 303 379
#     4  11  24  38  61  91 120 156 204 261 314 366
#     4  11  21  36  57  80 123 158 207 233 296 376
#     4  12  23  37  58  87 120 152 195 253 318 352
#     4  11  21  33  49  74 112 158 196 233 276 343
#
# _framework density 18.226344000000001
#
# number of rings (size 3 to 8) (size 9 to 14) (size 15 to 20)
#    0.000    0.750    5.000    5.250    1.750    1.500 
#    0.000    0.000    0.000    0.750    0.000    1.750 
#    0.000    0.000    0.000    0.000    0.000    0.000 
#
# Total GULP energy -178526.854155 kJ/mol
# GULP energy per Si atom -5578.964192 kJ/mol
# Density = 1.818486 g / cm^3
# Si number density = 18.226344 Si / 1000 Ang^3
#
#
#
# Elastic Constant Matrix: (Units=GPa)
#
#
# Indices 1 2 3 4 5 6 
#
# 1 112.0041 33.8008 32.6706 0.0000 0.0000 0.0000
# 2 33.8008 108.3795 32.6209 0.0000 0.0000 0.0000
# 3 32.6706 32.6209 66.4704 0.0000 0.0000 0.0000
# 4 0.0000 0.0000 0.0000 13.0375 0.0000 0.0000
# 5 0.0000 0.0000 0.0000 0.0000 29.0343 0.0000
# 6 0.0000 0.0000 0.0000 0.0000 0.0000 23.1484
#
#
#
# Elastic Compliance Matrix: (Units=1/GPa)
#
#
# Indices 1 2 3 4 5 6 
#
# 1 0.010807 -0.002079 -0.004292 0.000000 0.000000 0.000000
# 2 -0.002079 0.011226 -0.004487 0.000000 0.000000 0.000000
# 3 -0.004292 -0.004487 0.019356 0.000000 0.000000 0.000000
# 4 0.000000 0.000000 0.000000 0.076702 0.000000 0.000000
# 5 0.000000 0.000000 0.000000 0.000000 0.034442 0.000000
# 6 0.000000 0.000000 0.000000 0.000000 0.000000 0.043199
#
#
# Mechanical properties :
#
#
# Convention : Reuss Voigt Hill
#
# Bulk Modulus (GPa) = 50.83035 53.89319 52.36177
# Shear Modulus (GPa) = 22.32080 25.56148 23.94114
#
# Velocity S-wave (km/s) = 3.50329 3.74899 3.62822
# Velocity P-wave (km/s) = 6.65680 6.95506 6.80757
#
# Compressibility (1/GPa) = 0.01967329
#
# Stress axis : x y z
#
# Youngs Moduli (GPa) = 92.52873 89.08032 51.66375
#
# Poissons Ratio (x) = 0.18518 0.22173
# Poissons Ratio (y) = 0.19235 0.23184
# Poissons Ratio (z) = 0.39711 0.39974
#
# Static dielectric constant tensor:
#      x y z
#    x 1.699450 0.000000 0.000000 
#    y 0.000000 1.664290 0.000000 
#    z 0.000000 0.000000 1.430840 
# 
# From -- ./inp_files/29816.got.cif
#   From: 2010.05.17/outbox.cif.g08.bks.cpg/sg24_15_cif.got.tgz:29816.got - 2010.06.04 00:33:39.
