data_PCOD9336613
_publ_section_title
;
Structure prediction by ZEFSAII (Michael W. Deem and Ramdas Pophale) SiO2 
 PCOD9336613
Probable space group: I 21 21 21
;
_chemical_formula_sum "Si O2"
_cell_formula_units_Z 56
_cell_length_a 16.835215
_cell_length_b 11.361295
_cell_length_c 13.127429
_cell_angle_alpha 90.000000
_cell_angle_beta 90.000000
_cell_angle_gamma 90.000000
_cell_volume 2510.881297
_symmetry_space_group_name_H-M "I 21 21 21"
_symmetry_group_IT_number 24
_symmetry_cell_setting 'orthorhombic'
loop_
_space_group_symop_operation_xyz
x,y,z
-x,1/2-y,z
x,-y,1/2-z
1/2-x,y,-z
1/2+x,1/2+y,1/2+z
1/2-x,-y,1/2+z
1/2+x,1/2-y,-z
-x,1/2+y,1/2-z
loop_
_atom_site_type_symbol
_atom_site_label
_atom_site_fract_x
_atom_site_fract_y
_atom_site_fract_z
Si Si1 0.944921 0.500000 0.750000
Si Si2 0.183942 0.319132 0.913156
Si Si3 0.000000 0.250000 0.413315
Si Si4 0.993027 0.984479 0.967764
Si Si5 0.815995 0.305389 0.702477
Si Si6 0.420695 0.197489 0.931169
Si Si7 0.176313 0.573506 0.927924
Si Si8 0.639196 0.638115 0.774561
O O1 0.999715 0.479534 0.848915
O O2 0.885484 0.401347 0.704874
O O3 0.189173 0.233684 0.819125
O O4 0.193428 0.451342 0.870147
O O5 0.250000 0.306279 0.000000
O O6 0.105336 0.278887 0.974922
O O7 0.014670 0.144276 0.493372
O O8 0.075280 0.216872 0.338277
O O9 0.899158 0.972167 0.992776
O O10 0.051693 0.072174 0.025908
O O11 0.838656 0.190151 0.636922
O O12 0.727416 0.353440 0.676088
O O13 0.500000 0.250000 0.883609
O O14 0.359062 0.190276 0.839952
O O15 0.250000 0.599839 0.000000
O O16 0.617524 0.500000 0.750000
#
# Coordination Sequence:
#
# PCOD9336613 Si02
#       8
#     4   8   4   8   8   8   8   8
#     4  12  28  44  72 106 146 200 256 312 382 466
#     4  11  23  42  69 100 140 189 248 308 377 457
#     4  12  26  46  74 112 148 194 250 318 390 456
#     4  12  26  46  72 105 147 194 249 318 383 455
#     4  12  25  45  70 105 143 197 252 307 383 459
#     4  12  23  43  71 104 138 185 247 308 378 459
#     4  11  26  47  70 104 144 191 246 316 383 452
#     4  12  25  45  75 108 151 197 249 318 385 471
#
# _framework density 22.302927
#
# number of rings (size 3 to 8) (size 9 to 14) (size 15 to 20)
#    0.000    0.286    7.143    2.143    2.000    0.000 
#    1.286    2.143    0.000    0.000    0.000    0.000 
#    0.000    0.000    0.000    0.000    0.000    0.000 
#
# Total GULP energy -155906.116064 kJ/mol
# GULP energy per Si atom -5568.075574 kJ/mol
# Density = 2.225216 g / cm^3
# Si number density = 22.302927 Si / 1000 Ang^3
#
#
#
# Elastic Constant Matrix: (Units=GPa)
#
#
# Indices 1 2 3 4 5 6 
#
# 1 80.6317 15.1331 14.3804 0.0000 0.0000 0.0000
# 2 15.1331 90.8824 13.4492 0.0000 0.0000 0.0000
# 3 14.3804 13.4492 54.9713 0.0000 0.0000 0.0000
# 4 0.0000 0.0000 0.0000 40.2450 0.0000 0.0000
# 5 0.0000 0.0000 0.0000 0.0000 33.1840 0.0000
# 6 0.0000 0.0000 0.0000 0.0000 0.0000 26.4367
#
#
#
# Elastic Compliance Matrix: (Units=1/GPa)
#
#
# Indices 1 2 3 4 5 6 
#
# 1 0.013275 -0.001760 -0.003042 0.000000 0.000000 0.000000
# 2 -0.001760 0.011650 -0.002390 0.000000 0.000000 0.000000
# 3 -0.003042 -0.002390 0.019572 0.000000 0.000000 0.000000
# 4 0.000000 0.000000 0.000000 0.024848 0.000000 0.000000
# 5 0.000000 0.000000 0.000000 0.000000 0.030135 0.000000
# 6 0.000000 0.000000 0.000000 0.000000 0.000000 0.037826
#
#
# Mechanical properties :
#
#
# Convention : Reuss Voigt Hill
#
# Bulk Modulus (GPa) = 33.20877 34.71232 33.96055
# Shear Modulus (GPa) = 30.91620 32.20798 31.56209
#
# Velocity S-wave (km/s) = 3.72720 3.80427 3.76593
# Velocity P-wave (km/s) = 5.78316 5.90715 5.84548
#
# Compressibility (1/GPa) = 0.03011253
#
# Stress axis : x y z
#
# Youngs Moduli (GPa) = 75.32963 85.83689 51.09396
#
# Poissons Ratio (x) = 0.15110 0.15543
# Poissons Ratio (y) = 0.13260 0.12210
# Poissons Ratio (z) = 0.22916 0.20513
#
# Static dielectric constant tensor:
#      x y z
#    x 1.930060 0.000000 0.000000 
#    y 0.000000 1.937530 0.000000 
#    z 0.000000 0.000000 1.895040 
# 
# From -- ./inp_files/26585.got.cif
#   From: 2010.05.17/outbox.cif.g08.bks.cpg/sg24_14_cif.got.tgz:26585.got - 2010.06.04 00:33:39.
