data_PCOD9336279
_publ_section_title
;
Structure prediction by ZEFSAII (Michael W. Deem and Ramdas Pophale) SiO2 
 PCOD9336279
Probable space group: I 21 21 21
;
_chemical_formula_sum "Si O2"
_cell_formula_units_Z 36
_cell_length_a 19.978543
_cell_length_b 13.747921
_cell_length_c 5.817868
_cell_angle_alpha 90.000000
_cell_angle_beta 90.000000
_cell_angle_gamma 90.000000
_cell_volume 1597.955585
_symmetry_space_group_name_H-M "I 21 21 21"
_symmetry_group_IT_number 24
_symmetry_cell_setting 'orthorhombic'
loop_
_space_group_symop_operation_xyz
x,y,z
-x,1/2-y,z
x,-y,1/2-z
1/2-x,y,-z
1/2+x,1/2+y,1/2+z
1/2-x,-y,1/2+z
1/2+x,1/2-y,-z
-x,1/2+y,1/2-z
loop_
_atom_site_type_symbol
_atom_site_label
_atom_site_fract_x
_atom_site_fract_y
_atom_site_fract_z
Si Si1 0.699216 0.101450 0.825651
Si Si2 0.067883 0.599486 0.622311
Si Si3 0.126497 0.741136 0.004560
Si Si4 0.500000 0.250000 0.837807
Si Si5 0.829558 0.539040 0.996998
O O1 0.680057 0.169499 0.617821
O O2 0.731617 0.000000 0.750000
O O3 0.750000 0.152122 0.000000
O O4 0.629729 0.075765 0.953498
O O5 0.049273 0.500000 0.750000
O O6 0.008316 0.652439 0.487775
O O7 0.096303 0.683552 0.789151
O O8 0.158076 0.846043 0.974303
O O9 0.065477 0.754417 0.182198
O O10 0.854847 0.500000 0.250000
O O11 0.856741 0.500000 0.750000
O O12 0.750000 0.517259 0.000000
#
# Coordination Sequence:
#
# PCOD9336279 Si02
#       5
#     8   8   8   4   8
#     4  11  24  38  67 108 145 178 224 278 360 442
#     4  11  23  46  69  97 141 182 228 294 351 426
#     4  11  25  46  68 101 137 187 236 291 359 428
#     4  10  26  46  66 100 134 182 244 288 362 420
#     4  10  25  47  73 105 144 187 242 303 360 428
#
# _framework density 22.528786
#
# number of rings (size 3 to 8) (size 9 to 14) (size 15 to 20)
#    0.000    1.333    2.222    1.333    9.333    0.889 
#    8.000    0.000    0.000    0.000    0.000    0.000 
#    0.000    0.000    0.000    0.000    0.000    0.000 
#
# Total GULP energy -100638.675367 kJ/mol
# GULP energy per Si atom -5591.037520 kJ/mol
# Density = 2.247751 g / cm^3
# Si number density = 22.528786 Si / 1000 Ang^3
#
#
#
# Elastic Constant Matrix: (Units=GPa)
#
#
# Indices 1 2 3 4 5 6 
#
# 1 44.1178 -10.5343 10.6184 0.0000 0.0000 0.0000
# 2 -10.5343 90.5169 42.5626 0.0000 0.0000 0.0000
# 3 10.6184 42.5626 123.4203 0.0000 0.0000 0.0000
# 4 0.0000 0.0000 0.0000 43.9201 0.0000 0.0000
# 5 0.0000 0.0000 0.0000 0.0000 18.4917 0.0000
# 6 0.0000 0.0000 0.0000 0.0000 0.0000 43.0271
#
#
#
# Elastic Compliance Matrix: (Units=1/GPa)
#
#
# Indices 1 2 3 4 5 6 
#
# 1 0.024663 0.004617 -0.003714 0.000000 0.000000 0.000000
# 2 0.004617 0.014050 -0.005242 0.000000 0.000000 0.000000
# 3 -0.003714 -0.005242 0.010230 0.000000 0.000000 0.000000
# 4 0.000000 0.000000 0.000000 0.022769 0.000000 0.000000
# 5 0.000000 0.000000 0.000000 0.000000 0.054078 0.000000
# 6 0.000000 0.000000 0.000000 0.000000 0.000000 0.023241
#
#
# Mechanical properties :
#
#
# Convention : Reuss Voigt Hill
#
# Bulk Modulus (GPa) = 24.83664 38.14983 31.49323
# Shear Modulus (GPa) = 29.21730 35.44834 32.33282
#
# Velocity S-wave (km/s) = 3.60514 3.97100 3.79248
# Velocity P-wave (km/s) = 5.32707 6.16407 5.76079
#
# Compressibility (1/GPa) = 0.04026310
#
# Stress axis : x y z
#
# Youngs Moduli (GPa) = 40.54684 71.17419 97.75329
#
# Poissons Ratio (x) = -0.32858 0.36305
# Poissons Ratio (y) = -0.18719 0.51247
# Poissons Ratio (z) = 0.15059 0.37313
#
# Static dielectric constant tensor:
#      x y z
#    x 1.799590 0.000000 0.000000 
#    y 0.000000 1.800190 0.000000 
#    z 0.000000 0.000000 1.891980 
# 
# From -- ./inp_files/2243.got.cif
#   From: 2010.05.17/outbox.cif.g08.bks.cpg/sg24_2_cif.got.tgz:2243.got - 2010.06.04 00:33:39.
