data_PCOD9336868
_publ_section_title
;
Structure prediction by ZEFSAII (Michael W. Deem and Ramdas Pophale) SiO2 
 PCOD9336868
Probable space group: I 21 21 21
;
_chemical_formula_sum "Si O2"
_cell_formula_units_Z 48
_cell_length_a 15.912854
_cell_length_b 16.625682
_cell_length_c 9.435306
_cell_angle_alpha 90.000000
_cell_angle_beta 90.000000
_cell_angle_gamma 90.000000
_cell_volume 2496.223901
_symmetry_space_group_name_H-M "I 21 21 21"
_symmetry_group_IT_number 24
_symmetry_cell_setting 'orthorhombic'
loop_
_space_group_symop_operation_xyz
x,y,z
-x,1/2-y,z
x,-y,1/2-z
1/2-x,y,-z
1/2+x,1/2+y,1/2+z
1/2-x,-y,1/2+z
1/2+x,1/2-y,-z
-x,1/2+y,1/2-z
loop_
_atom_site_type_symbol
_atom_site_label
_atom_site_fract_x
_atom_site_fract_y
_atom_site_fract_z
Si Si1 0.696838 0.074520 0.855092
Si Si2 0.854519 0.369594 0.663349
Si Si3 0.719075 0.201519 0.343646
Si Si4 0.039147 0.621951 0.823447
Si Si5 0.843221 0.538133 0.539577
Si Si6 0.527501 0.953897 0.487746
O O1 0.725354 0.155228 0.773059
O O2 0.715725 0.000000 0.750000
O O3 0.750000 0.066699 0.000000
O O4 0.599303 0.070222 0.901634
O O5 0.788258 0.297906 0.669843
O O6 0.839676 0.441219 0.552366
O O7 0.856484 0.418778 0.809875
O O8 0.949565 0.337595 0.643552
O O9 0.750000 0.180999 0.500000
O O10 0.624402 0.169634 0.336646
O O11 0.041196 0.544584 0.928316
O O12 0.037272 0.595829 0.658206
O O13 0.750000 0.565635 0.500000
O O14 0.931051 0.555665 0.459023
#
# Coordination Sequence:
#
# PCOD9336868 Si02
#       6
#     8   8   8   8   8   8
#     4  12  23  37  57  89 129 166 201 246 305 377
#     4   9  20  36  61  87 111 154 211 255 296 363
#     4  12  23  35  59  89 125 161 203 248 309 370
#     4   9  17  36  60  85 111 153 209 247 281 362
#     4   9  18  38  64  85 111 150 207 257 307 361
#     4   9  18  35  59  88 113 151 201 246 296 355
#
# _framework density 19.229043999999998
#
# number of rings (size 3 to 8) (size 9 to 14) (size 15 to 20)
#    0.000    2.000    1.667    5.500    0.000    0.667 
#    3.000    0.000    7.333    0.000    0.000    0.000 
#    0.000    0.000    0.000    0.000    0.000    0.000 
#
# Total GULP energy -133684.321323 kJ/mol
# GULP energy per Si atom -5570.180055 kJ/mol
# Density = 1.918528 g / cm^3
# Si number density = 19.229044 Si / 1000 Ang^3
#
#
#
# Elastic Constant Matrix: (Units=GPa)
#
#
# Indices 1 2 3 4 5 6 
#
# 1 154.3408 40.9518 47.7204 0.0000 0.0000 0.0000
# 2 40.9518 57.3604 29.0669 0.0000 0.0000 0.0000
# 3 47.7204 29.0669 69.9792 0.0000 0.0000 0.0000
# 4 0.0000 0.0000 0.0000 13.8596 0.0000 0.0000
# 5 0.0000 0.0000 0.0000 0.0000 19.7256 0.0000
# 6 0.0000 0.0000 0.0000 0.0000 0.0000 27.7149
#
#
#
# Elastic Compliance Matrix: (Units=1/GPa)
#
#
# Indices 1 2 3 4 5 6 
#
# 1 0.008933 -0.004168 -0.004361 0.000000 0.000000 0.000000
# 2 -0.004168 0.024026 -0.007137 0.000000 0.000000 0.000000
# 3 -0.004361 -0.007137 0.020228 0.000000 0.000000 0.000000
# 4 0.000000 0.000000 0.000000 0.072152 0.000000 0.000000
# 5 0.000000 0.000000 0.000000 0.000000 0.050696 0.000000
# 6 0.000000 0.000000 0.000000 0.000000 0.000000 0.036082
#
#
# Mechanical properties :
#
#
# Convention : Reuss Voigt Hill
#
# Bulk Modulus (GPa) = 45.75473 57.46207 51.60840
# Shear Modulus (GPa) = 19.94142 23.18943 21.56542
#
# Velocity S-wave (km/s) = 3.22381 3.47646 3.35252
# Velocity P-wave (km/s) = 6.14032 6.78691 6.47170
#
# Compressibility (1/GPa) = 0.02185566
#
# Stress axis : x y z
#
# Youngs Moduli (GPa) = 111.93997 41.62112 49.43625
#
# Poissons Ratio (x) = 0.17349 0.21557
# Poissons Ratio (y) = 0.46659 0.35284
# Poissons Ratio (z) = 0.48812 0.29706
#
# Static dielectric constant tensor:
#      x y z
#    x 1.681710 0.000000 0.000000 
#    y 0.000000 1.684490 0.000000 
#    z 0.000000 0.000000 1.658200 
# 
# From -- ./inp_files/12826.got.cif
#   From: 2010.05.17/outbox.cif.g08.bks.cpg/sg24_7_cif.got.tgz:12826.got - 2010.06.04 00:33:39.
