data_PCOD9336947
_publ_section_title
;
Structure prediction by ZEFSAII (Michael W. Deem and Ramdas Pophale) SiO2 
 PCOD9336947
Probable space group: I 21 21 21
;
_chemical_formula_sum "Si O2"
_cell_formula_units_Z 32
_cell_length_a 4.816511
_cell_length_b 17.610665
_cell_length_c 13.638897
_cell_angle_alpha 90.000000
_cell_angle_beta 90.000000
_cell_angle_gamma 90.000000
_cell_volume 1156.877999
_symmetry_space_group_name_H-M "I 21 21 21"
_symmetry_group_IT_number 24
_symmetry_cell_setting 'orthorhombic'
loop_
_space_group_symop_operation_xyz
x,y,z
-x,1/2-y,z
x,-y,1/2-z
1/2-x,y,-z
1/2+x,1/2+y,1/2+z
1/2-x,-y,1/2+z
1/2+x,1/2-y,-z
-x,1/2+y,1/2-z
loop_
_atom_site_type_symbol
_atom_site_label
_atom_site_fract_x
_atom_site_fract_y
_atom_site_fract_z
Si Si1 0.250000 0.570580 0.000000
Si Si2 0.500000 0.750000 0.742629
Si Si3 0.376874 0.453611 0.844469
Si Si4 0.645528 0.648250 0.387367
Si Si5 0.829864 0.682120 0.893748
O O1 0.083518 0.514638 0.069845
O O2 0.464751 0.615372 0.071372
O O3 0.737063 0.724117 0.664681
O O4 0.557178 0.681597 0.824497
O O5 0.281526 0.500000 0.750000
O O6 0.674988 0.416424 0.832841
O O7 0.163842 0.385802 0.874254
O O8 0.750000 0.650977 0.500000
O O9 0.000000 0.750000 0.843542
O O10 0.750000 0.712586 0.000000
#
# Coordination Sequence:
#
# PCOD9336947 Si02
#       5
#     4   4   8   8   8
#     4  12  26  46  84 112 182 212 288 376 436 538
#     4  12  30  48  88 114 174 224 300 364 442 536
#     4  12  28  50  82 120 164 225 289 357 450 534
#     4  12  28  55  78 120 166 224 297 358 442 529
#     4  12  25  48  76 123 162 224 282 355 448 532
#
# _framework density 27.660653
#
# number of rings (size 3 to 8) (size 9 to 14) (size 15 to 20)
#    0.000    0.000    5.000    2.250   14.000    2.000 
#    0.000    0.000    0.000    0.000    0.000    0.000 
#    0.000    0.000    0.000    0.000    0.000    0.000 
#
# Total GULP energy -89208.566493 kJ/mol
# GULP energy per Si atom -5575.535406 kJ/mol
# Density = 2.759770 g / cm^3
# Si number density = 27.660653 Si / 1000 Ang^3
#
#
#
# Elastic Constant Matrix: (Units=GPa)
#
#
# Indices 1 2 3 4 5 6 
#
# 1 112.8757 49.5365 -16.2325 0.0000 0.0000 0.0000
# 2 49.5365 146.5376 30.6405 0.0000 0.0000 0.0000
# 3 -16.2325 30.6405 161.3786 0.0000 0.0000 0.0000
# 4 0.0000 0.0000 0.0000 -54.6072 0.0000 0.0000
# 5 0.0000 0.0000 0.0000 0.0000 23.4165 0.0000
# 6 0.0000 0.0000 0.0000 0.0000 0.0000 19.4955
#
#
#
# Elastic Compliance Matrix: (Units=1/GPa)
#
#
# Indices 1 2 3 4 5 6 
#
# 1 0.010921 -0.004084 0.001874 0.000000 0.000000 0.000000
# 2 -0.004084 0.008633 -0.002050 0.000000 0.000000 0.000000
# 3 0.001874 -0.002050 0.006774 0.000000 0.000000 0.000000
# 4 0.000000 0.000000 0.000000 -0.018313 0.000000 0.000000
# 5 0.000000 0.000000 0.000000 0.000000 0.042705 0.000000
# 6 0.000000 0.000000 0.000000 0.000000 0.000000 0.051294
#
#
# Mechanical properties :
#
#
# Convention : Reuss Voigt Hill
#
# Bulk Modulus (GPa) = 56.15103 60.96454 58.55778
# Shear Modulus (GPa) = 42.92935 21.45077 32.19006
#
# Velocity S-wave (km/s) = 3.94382 2.78780 3.41508
# Velocity P-wave (km/s) = 6.40955 5.69653 6.06353
#
# Compressibility (1/GPa) = 0.01780911
#
# Stress axis : x y z
#
# Youngs Moduli (GPa) = 91.56754 115.83102 147.61657
#
# Poissons Ratio (x) = 0.47301 -0.27661
# Poissons Ratio (y) = 0.37392 0.30260
# Poissons Ratio (z) = -0.17158 0.23745
#
# Static dielectric constant tensor:
#      x y z
#    x 2.591790 0.000000 0.000000 
#    y 0.000000 2.251860 0.000000 
#    z 0.000000 0.000000 2.120460 
# 
# From -- ./inp_files/23542.got.cif
#   From: 2010.05.17/outbox.cif.g08.bks.cpg/sg24_12_cif.got.tgz:23542.got - 2010.06.04 00:33:39.
