data_PCOD9336552
_publ_section_title
;
Structure prediction by ZEFSAII (Michael W. Deem and Ramdas Pophale) SiO2 
 PCOD9336552
Probable space group: I 21 21 21
;
_chemical_formula_sum "Si O2"
_cell_formula_units_Z 48
_cell_length_a 9.996106
_cell_length_b 14.287409
_cell_length_c 16.973321
_cell_angle_alpha 90.000000
_cell_angle_beta 90.000000
_cell_angle_gamma 90.000000
_cell_volume 2424.103479
_symmetry_space_group_name_H-M "I 21 21 21"
_symmetry_group_IT_number 24
_symmetry_cell_setting 'orthorhombic'
loop_
_space_group_symop_operation_xyz
x,y,z
-x,1/2-y,z
x,-y,1/2-z
1/2-x,y,-z
1/2+x,1/2+y,1/2+z
1/2-x,-y,1/2+z
1/2+x,1/2-y,-z
-x,1/2+y,1/2-z
loop_
_atom_site_type_symbol
_atom_site_label
_atom_site_fract_x
_atom_site_fract_y
_atom_site_fract_z
Si Si1 0.516878 0.904910 0.198537
Si Si2 0.750000 0.133103 0.000000
Si Si3 0.153996 0.218433 0.117485
Si Si4 0.250000 0.057868 0.000000
Si Si5 0.281100 0.240920 0.283548
Si Si6 0.366477 0.696522 0.939205
Si Si7 0.463776 0.476372 0.475699
O O1 0.379070 0.845542 0.194831
O O2 0.624592 0.831266 0.232952
O O3 0.505905 0.000000 0.250000
O O4 0.562478 0.930088 0.109598
O O5 0.765338 0.199003 0.075120
O O6 0.619796 0.070705 0.014438
O O7 0.197110 0.125177 0.070319
O O8 0.196818 0.212524 0.207589
O O9 0.000000 0.250000 0.109537
O O10 0.378593 0.996388 0.021664
O O11 0.184386 0.272123 0.354226
O O12 0.500000 0.750000 0.961664
O O13 0.250000 0.720015 0.000000
O O14 0.407391 0.589243 0.954660
#
# Coordination Sequence:
#
# PCOD9336552 Si02
#       7
#     8   4   8   4   8   8   8
#     4  11  23  42  68 100 135 179 229 283 337 401
#     4  11  22  42  71  96 130 180 221 280 334 407
#     4  11  23  44  67  97 140 175 224 278 346 397
#     4  11  26  42  71 104 130 182 223 286 336 407
#     4  11  24  43  66 101 138 179 225 280 343 409
#     4  12  25  43  67  96 135 185 223 277 340 401
#     4  12  23  43  68  99 135 174 236 271 340 411
#
# _framework density 19.801134999999999
#
# number of rings (size 3 to 8) (size 9 to 14) (size 15 to 20)
#    0.000    0.667    4.167    3.500    3.500    1.333 
#    0.000    0.000    0.000    0.000    0.000    0.000 
#    0.000    0.000    0.000    0.000    0.000    0.000 
#
# Total GULP energy -134126.061904 kJ/mol
# GULP energy per Si atom -5588.585913 kJ/mol
# Density = 1.975607 g / cm^3
# Si number density = 19.801135 Si / 1000 Ang^3
#
#
#
# Elastic Constant Matrix: (Units=GPa)
#
#
# Indices 1 2 3 4 5 6 
#
# 1 105.6957 11.7537 17.1656 0.0000 0.0000 0.0000
# 2 11.7537 74.8883 19.0351 0.0000 0.0000 0.0000
# 3 17.1656 19.0351 105.1325 0.0000 0.0000 0.0000
# 4 0.0000 0.0000 0.0000 -20.0459 0.0000 0.0000
# 5 0.0000 0.0000 0.0000 0.0000 28.7656 0.0000
# 6 0.0000 0.0000 0.0000 0.0000 0.0000 43.9305
#
#
#
# Elastic Compliance Matrix: (Units=1/GPa)
#
#
# Indices 1 2 3 4 5 6 
#
# 1 0.009819 -0.001188 -0.001388 0.000000 0.000000 0.000000
# 2 -0.001188 0.014141 -0.002366 0.000000 0.000000 0.000000
# 3 -0.001388 -0.002366 0.010167 0.000000 0.000000 0.000000
# 4 0.000000 0.000000 0.000000 -0.049886 0.000000 0.000000
# 5 0.000000 0.000000 0.000000 0.000000 0.034764 0.000000
# 6 0.000000 0.000000 0.000000 0.000000 0.000000 0.022763
#
#
# Mechanical properties :
#
#
# Convention : Reuss Voigt Hill
#
# Bulk Modulus (GPa) = 41.25156 42.40284 41.82720
# Shear Modulus (GPa) = 83.70462 26.38085 55.04274
#
# Velocity S-wave (km/s) = 6.50879 3.65401 5.27808
# Velocity P-wave (km/s) = 8.79568 6.26604 7.63634
#
# Compressibility (1/GPa) = 0.02424151
#
# Stress axis : x y z
#
# Youngs Moduli (GPa) = 101.84672 70.71538 98.35851
#
# Poissons Ratio (x) = 0.08403 0.13652
# Poissons Ratio (y) = 0.12102 0.23275
# Poissons Ratio (z) = 0.14136 0.16734
#
# Static dielectric constant tensor:
#      x y z
#    x 1.896750 0.000000 0.000000 
#    y 0.000000 1.724820 0.000000 
#    z 0.000000 0.000000 1.693060 
# 
# From -- ./inp_files/29519.got.cif
#   From: 2010.05.17/outbox.cif.g08.bks.cpg/sg24_15_cif.got.tgz:29519.got - 2010.06.04 00:33:39.
