data_PCOD9336314
_publ_section_title
;
Structure prediction by ZEFSAII (Michael W. Deem and Ramdas Pophale) SiO2 
 PCOD9336314
Probable space group: I 21 21 21
;
_chemical_formula_sum "Si O2"
_cell_formula_units_Z 56
_cell_length_a 11.902774
_cell_length_b 13.665363
_cell_length_c 13.526892
_cell_angle_alpha 90.000000
_cell_angle_beta 90.000000
_cell_angle_gamma 90.000000
_cell_volume 2200.226458
_symmetry_space_group_name_H-M "I 21 21 21"
_symmetry_group_IT_number 24
_symmetry_cell_setting 'orthorhombic'
loop_
_space_group_symop_operation_xyz
x,y,z
-x,1/2-y,z
x,-y,1/2-z
1/2-x,y,-z
1/2+x,1/2+y,1/2+z
1/2-x,-y,1/2+z
1/2+x,1/2-y,-z
-x,1/2+y,1/2-z
loop_
_atom_site_type_symbol
_atom_site_label
_atom_site_fract_x
_atom_site_fract_y
_atom_site_fract_z
Si Si1 0.730143 0.348712 0.616360
Si Si2 0.550482 0.576730 0.161775
Si Si3 0.405971 0.316559 0.582569
Si Si4 0.822303 0.201422 0.905226
Si Si5 0.057549 0.107691 0.959043
Si Si6 0.945886 0.498790 0.363758
Si Si7 0.705681 0.107886 0.297770
O O1 0.750000 0.324169 0.500000
O O2 0.851107 0.344235 0.666282
O O3 0.629111 0.277987 0.650946
O O4 0.680265 0.456442 0.629295
O O5 0.561715 0.500000 0.250000
O O6 0.576536 0.504601 0.070529
O O7 0.423502 0.613294 0.165928
O O8 0.500000 0.250000 0.519154
O O9 0.471870 0.417265 0.591784
O O10 0.280610 0.364591 0.607114
O O11 0.851642 0.315520 0.921197
O O12 0.773909 0.175645 0.798504
O O13 0.940317 0.143201 0.912927
O O14 0.750000 0.169778 0.000000
O O15 0.047389 0.100364 0.077455
O O16 0.977364 0.500000 0.250000
O O17 0.724198 0.000000 0.250000
#
# Coordination Sequence:
#
# PCOD9336314 Si02
#       7
#     8   8   8   8   8   8   8
#     4  11  24  45  70 106 141 184 247 309 374 444
#     4  11  23  44  76 107 146 193 248 307 381 459
#     4  10  26  45  67 104 142 188 250 304 366 458
#     4  11  27  44  70 110 153 189 254 314 380 445
#     4  11  25  46  72 109 149 193 248 314 375 454
#     4  11  25  47  74 101 144 197 248 297 380 453
#     4  11  24  48  73 108 148 201 247 312 384 461
#
# _framework density 25.451927000000001
#
# number of rings (size 3 to 8) (size 9 to 14) (size 15 to 20)
#    0.000    1.143    4.286    0.857    8.000    4.000 
#    5.143    0.000    0.000    0.000    0.000    0.000 
#    0.000    0.000    0.000    0.000    0.000    0.000 
#
# Total GULP energy -155920.478216 kJ/mol
# GULP energy per Si atom -5568.588508 kJ/mol
# Density = 2.539400 g / cm^3
# Si number density = 25.451927 Si / 1000 Ang^3
#
#
#
# Elastic Constant Matrix: (Units=GPa)
#
#
# Indices 1 2 3 4 5 6 
#
# 1 125.4519 14.8514 16.4364 0.0000 0.0000 0.0000
# 2 14.8514 92.0779 40.9608 0.0000 0.0000 0.0000
# 3 16.4364 40.9608 99.7887 0.0000 0.0000 0.0000
# 4 0.0000 0.0000 0.0000 30.8367 0.0000 0.0000
# 5 0.0000 0.0000 0.0000 0.0000 22.5933 0.0000
# 6 0.0000 0.0000 0.0000 0.0000 0.0000 32.6411
#
#
#
# Elastic Compliance Matrix: (Units=1/GPa)
#
#
# Indices 1 2 3 4 5 6 
#
# 1 0.008205 -0.000884 -0.000989 0.000000 0.000000 0.000000
# 2 -0.000884 0.013382 -0.005347 0.000000 0.000000 0.000000
# 3 -0.000989 -0.005347 0.012379 0.000000 0.000000 0.000000
# 4 0.000000 0.000000 0.000000 0.032429 0.000000 0.000000
# 5 0.000000 0.000000 0.000000 0.000000 0.044261 0.000000
# 6 0.000000 0.000000 0.000000 0.000000 0.000000 0.030636
#
#
# Mechanical properties :
#
#
# Convention : Reuss Voigt Hill
#
# Bulk Modulus (GPa) = 51.21233 51.31286 51.26260
# Shear Modulus (GPa) = 30.81852 33.55222 32.18537
#
# Velocity S-wave (km/s) = 3.48351 3.63472 3.55992
# Velocity P-wave (km/s) = 6.02865 6.14975 6.08950
#
# Compressibility (1/GPa) = 0.01952655
#
# Stress axis : x y z
#
# Youngs Moduli (GPa) = 121.87186 74.72938 80.78215
#
# Poissons Ratio (x) = 0.06603 0.07988
# Poissons Ratio (y) = 0.10768 0.43197
# Poissons Ratio (z) = 0.12051 0.39960
#
# Static dielectric constant tensor:
#      x y z
#    x 2.070120 0.000000 0.000000 
#    y 0.000000 2.051680 0.000000 
#    z 0.000000 0.000000 2.260080 
# 
# From -- ./inp_files/25819.got.cif
#   From: 2010.05.17/outbox.cif.g08.bks.cpg/sg24_13_cif.got.tgz:25819.got - 2010.06.04 00:33:39.
