data_PCOD9336850
_publ_section_title
;
Structure prediction by ZEFSAII (Michael W. Deem and Ramdas Pophale) SiO2 
 PCOD9336850
Probable space group: I 21 21 21
;
_chemical_formula_sum "Si O2"
_cell_formula_units_Z 48
_cell_length_a 16.649264
_cell_length_b 8.286706
_cell_length_c 14.538985
_cell_angle_alpha 90.000000
_cell_angle_beta 90.000000
_cell_angle_gamma 90.000000
_cell_volume 2005.908225
_symmetry_space_group_name_H-M "I 21 21 21"
_symmetry_group_IT_number 24
_symmetry_cell_setting 'orthorhombic'
loop_
_space_group_symop_operation_xyz
x,y,z
-x,1/2-y,z
x,-y,1/2-z
1/2-x,y,-z
1/2+x,1/2+y,1/2+z
1/2-x,-y,1/2+z
1/2+x,1/2-y,-z
-x,1/2+y,1/2-z
loop_
_atom_site_type_symbol
_atom_site_label
_atom_site_fract_x
_atom_site_fract_y
_atom_site_fract_z
Si Si1 0.402346 0.048730 0.014025
Si Si2 0.202074 0.309470 0.241862
Si Si3 0.189833 0.641195 0.572917
Si Si4 0.656623 0.362669 0.330738
Si Si5 0.454479 0.563437 0.150323
Si Si6 0.557196 0.388449 0.675158
O O1 0.369283 0.229007 0.025057
O O2 0.337691 0.946260 0.071029
O O3 0.483918 0.004954 0.072092
O O4 0.412277 0.991767 0.910410
O O5 0.185569 0.500000 0.250000
O O6 0.248256 0.280291 0.145775
O O7 0.268429 0.250587 0.313643
O O8 0.126082 0.200090 0.265757
O O9 0.250000 0.560799 0.500000
O O10 0.129367 0.526524 0.626188
O O11 0.653670 0.500000 0.250000
O O12 0.577626 0.248158 0.337114
O O13 0.480322 0.500000 0.250000
O O14 0.500000 0.250000 0.636327
O O15 0.513104 0.500000 0.750000
#
# Coordination Sequence:
#
# PCOD9336850 Si02
#       6
#     8   8   8   8   8   8
#     4  12  28  45  75 114 153 202 258 326 398 468
#     4  12  25  50  76 111 153 202 260 318 398 468
#     4  12  26  47  75 114 155 208 260 320 389 476
#     4  12  22  43  76 113 155 193 248 320 400 472
#     4  12  24  48  73 116 155 201 252 321 404 470
#     4  12  29  53  77 108 154 214 268 326 389 469
#
# _framework density 23.929310999999998
#
# number of rings (size 3 to 8) (size 9 to 14) (size 15 to 20)
#    0.000    0.000    5.000    4.500    2.333    6.667 
#    0.000    0.000    0.000    0.000    0.000    0.000 
#    0.000    0.000    0.000    0.000    0.000    0.000 
#
# Total GULP energy -134179.230301 kJ/mol
# GULP energy per Si atom -5590.801263 kJ/mol
# Density = 2.387485 g / cm^3
# Si number density = 23.929311 Si / 1000 Ang^3
#
#
#
# Elastic Constant Matrix: (Units=GPa)
#
#
# Indices 1 2 3 4 5 6 
#
# 1 92.5795 20.0243 15.1703 0.0000 0.0000 0.0000
# 2 20.0243 117.6536 40.8733 0.0000 0.0000 0.0000
# 3 15.1703 40.8733 140.7340 0.0000 0.0000 0.0000
# 4 0.0000 0.0000 0.0000 25.4501 0.0000 0.0000
# 5 0.0000 0.0000 0.0000 0.0000 20.2895 0.0000
# 6 0.0000 0.0000 0.0000 0.0000 0.0000 26.2892
#
#
#
# Elastic Compliance Matrix: (Units=1/GPa)
#
#
# Indices 1 2 3 4 5 6 
#
# 1 0.011282 -0.001666 -0.000732 0.000000 0.000000 0.000000
# 2 -0.001666 0.009699 -0.002637 0.000000 0.000000 0.000000
# 3 -0.000732 -0.002637 0.007951 0.000000 0.000000 0.000000
# 4 0.000000 0.000000 0.000000 0.039293 0.000000 0.000000
# 5 0.000000 0.000000 0.000000 0.000000 0.049287 0.000000
# 6 0.000000 0.000000 0.000000 0.000000 0.000000 0.038038
#
#
# Mechanical properties :
#
#
# Convention : Reuss Voigt Hill
#
# Bulk Modulus (GPa) = 53.02032 55.90033 54.46033
# Shear Modulus (GPa) = 29.08549 32.73237 30.90893
#
# Velocity S-wave (km/s) = 3.49015 3.70250 3.59789
# Velocity P-wave (km/s) = 6.20054 6.45672 6.32993
#
# Compressibility (1/GPa) = 0.01886069
#
# Stress axis : x y z
#
# Youngs Moduli (GPa) = 88.63828 103.10059 125.77784
#
# Poissons Ratio (x) = 0.17174 0.09211
# Poissons Ratio (y) = 0.14765 0.33173
# Poissons Ratio (z) = 0.06491 0.27192
#
# Static dielectric constant tensor:
#      x y z
#    x 1.952410 0.000000 0.000000 
#    y 0.000000 1.955920 0.000000 
#    z 0.000000 0.000000 1.879460 
# 
# From -- ./inp_files/27020.got.cif
#   From: 2010.05.17/outbox.cif.g08.bks.cpg/sg24_14_cif.got.tgz:27020.got - 2010.06.04 00:33:39.
