data_PCOD9336179
_publ_section_title
;
Structure prediction by ZEFSAII (Michael W. Deem and Ramdas Pophale) SiO2 
 PCOD9336179
Probable space group: I 21 21 21
;
_chemical_formula_sum "Si O2"
_cell_formula_units_Z 32
_cell_length_a 14.144727
_cell_length_b 18.809940
_cell_length_c 5.519113
_cell_angle_alpha 90.000000
_cell_angle_beta 90.000000
_cell_angle_gamma 90.000000
_cell_volume 1468.423297
_symmetry_space_group_name_H-M "I 21 21 21"
_symmetry_group_IT_number 24
_symmetry_cell_setting 'orthorhombic'
loop_
_space_group_symop_operation_xyz
x,y,z
-x,1/2-y,z
x,-y,1/2-z
1/2-x,y,-z
1/2+x,1/2+y,1/2+z
1/2-x,-y,1/2+z
1/2+x,1/2-y,-z
-x,1/2+y,1/2-z
loop_
_atom_site_type_symbol
_atom_site_label
_atom_site_fract_x
_atom_site_fract_y
_atom_site_fract_z
Si Si1 0.856812 0.654427 0.113794
Si Si2 0.358866 0.285511 0.936774
Si Si3 0.000000 0.750000 0.817552
Si Si4 0.189691 0.000000 0.250000
Si Si5 0.688302 0.923229 0.753443
O O1 0.869951 0.706061 0.341788
O O2 0.865850 0.572235 0.185498
O O3 0.750000 0.662646 0.000000
O O4 0.934106 0.691455 0.944658
O O5 0.373270 0.351469 0.755677
O O6 0.250000 0.288480 0.000000
O O7 0.427085 0.295022 0.158607
O O8 0.250000 0.985601 0.500000
O O9 0.750000 0.925544 0.500000
O O10 0.638063 0.000000 0.750000
O O11 0.750000 0.918590 0.000000
#
# Coordination Sequence:
#
# PCOD9336179 Si02
#       5
#     8   8   4   4   8
#     4  11  23  45  76 108 153 194 254 316 389 450
#     4  11  22  41  73 100 144 190 241 307 372 445
#     4  12  26  42  74 112 140 200 254 310 380 466
#     4  10  24  44  82 114 150 202 254 318 396 456
#     4   9  19  36  66 100 133 180 232 281 350 430
#
# _framework density 21.792083000000002
#
# number of rings (size 3 to 8) (size 9 to 14) (size 15 to 20)
#    0.000    1.500    2.500    2.250    7.000    0.000 
#    0.000    0.000   16.500    0.000    0.000    0.000 
#    0.000    0.000    0.000    0.000    0.000    0.000 
#
# Total GULP energy -89121.884832 kJ/mol
# GULP energy per Si atom -5570.117802 kJ/mol
# Density = 2.174248 g / cm^3
# Si number density = 21.792083 Si / 1000 Ang^3
#
#
#
# Elastic Constant Matrix: (Units=GPa)
#
#
# Indices 1 2 3 4 5 6 
#
# 1 115.9598 49.6316 52.9420 0.0000 0.0000 0.0000
# 2 49.6316 227.3293 47.3310 0.0000 0.0000 0.0000
# 3 52.9420 47.3310 110.1720 0.0000 0.0000 0.0000
# 4 0.0000 0.0000 0.0000 26.6014 0.0000 0.0000
# 5 0.0000 0.0000 0.0000 0.0000 4.8820 0.0000
# 6 0.0000 0.0000 0.0000 0.0000 0.0000 6.7430
#
#
#
# Elastic Compliance Matrix: (Units=1/GPa)
#
#
# Indices 1 2 3 4 5 6 
#
# 1 0.011491 -0.001493 -0.004881 0.000000 0.000000 0.000000
# 2 -0.001493 0.005025 -0.001442 0.000000 0.000000 0.000000
# 3 -0.004881 -0.001442 0.012041 0.000000 0.000000 0.000000
# 4 0.000000 0.000000 0.000000 0.037592 0.000000 0.000000
# 5 0.000000 0.000000 0.000000 0.000000 0.204836 0.000000
# 6 0.000000 0.000000 0.000000 0.000000 0.000000 0.148302
#
#
# Mechanical properties :
#
#
# Convention : Reuss Voigt Hill
#
# Bulk Modulus (GPa) = 77.35322 83.69671 80.52496
# Shear Modulus (GPa) = 11.38368 27.88237 19.63303
#
# Velocity S-wave (km/s) = 2.28804 3.58085 3.00480
# Velocity P-wave (km/s) = 6.52328 7.45567 7.00501
#
# Compressibility (1/GPa) = 0.01292771
#
# Stress axis : x y z
#
# Youngs Moduli (GPa) = 87.02661 199.00900 83.04752
#
# Poissons Ratio (x) = 0.29703 0.40532
# Poissons Ratio (y) = 0.12989 0.11971
# Poissons Ratio (z) = 0.42474 0.28687
#
# Static dielectric constant tensor:
#      x y z
#    x 2.235730 0.000000 0.000000 
#    y 0.000000 1.852680 0.000000 
#    z 0.000000 0.000000 1.886450 
# 
# From -- ./inp_files/3215.got.cif
#   From: 2010.05.17/outbox.cif.g08.bks.cpg/sg24_2_cif.got.tgz:3215.got - 2010.06.04 00:33:39.
