data_PCOD9336353
_publ_section_title
;
Structure prediction by ZEFSAII (Michael W. Deem and Ramdas Pophale) SiO2 
 PCOD9336353
Probable space group: I 21 21 21
;
_chemical_formula_sum "Si O2"
_cell_formula_units_Z 48
_cell_length_a 12.237069
_cell_length_b 16.545852
_cell_length_c 10.631480
_cell_angle_alpha 90.000000
_cell_angle_beta 90.000000
_cell_angle_gamma 90.000000
_cell_volume 2152.584807
_symmetry_space_group_name_H-M "I 21 21 21"
_symmetry_group_IT_number 24
_symmetry_cell_setting 'orthorhombic'
loop_
_space_group_symop_operation_xyz
x,y,z
-x,1/2-y,z
x,-y,1/2-z
1/2-x,y,-z
1/2+x,1/2+y,1/2+z
1/2-x,-y,1/2+z
1/2+x,1/2-y,-z
-x,1/2+y,1/2-z
loop_
_atom_site_type_symbol
_atom_site_label
_atom_site_fract_x
_atom_site_fract_y
_atom_site_fract_z
Si Si1 0.250000 0.189039 0.000000
Si Si2 0.500000 0.250000 0.538850
Si Si3 0.750000 0.007131 0.000000
Si Si4 0.439770 0.571930 0.656035
Si Si5 0.992673 0.000000 0.750000
Si Si6 0.630012 0.865855 0.151370
Si Si7 0.132482 0.963424 0.523324
Si Si8 0.661167 0.770015 0.751495
O O1 0.166116 0.126844 0.932493
O O2 0.311734 0.232334 0.885170
O O3 0.551935 0.180729 0.447791
O O4 0.600722 0.275161 0.632297
O O5 0.810805 0.943899 0.909357
O O6 0.656439 0.063391 0.944764
O O7 0.414486 0.500000 0.750000
O O8 0.556758 0.552617 0.596614
O O9 0.422480 0.656542 0.723108
O O10 0.065165 0.990180 0.873348
O O11 0.931822 0.086336 0.762423
O O12 0.724519 0.806267 0.198088
O O13 0.250000 0.003418 0.500000
#
# Coordination Sequence:
#
# PCOD9336353 Si02
#       8
#     4   4   4   8   4   8   8   8
#     4  10  27  48  66 101 144 198 238 294 366 441
#     4  12  26  44  72 106 148 192 232 302 370 448
#     4  12  21  44  68 111 136 180 246 304 356 415
#     4  12  23  42  78 103 140 187 240 311 361 423
#     4  12  26  50  74 104 144 186 246 310 360 436
#     4  12  25  46  72 110 146 186 247 307 370 429
#     4  10  27  47  67 103 141 189 241 285 368 443
#     4  12  25  47  71 107 147 187 250 302 368 448
#
# _framework density 22.298774000000002
#
# number of rings (size 3 to 8) (size 9 to 14) (size 15 to 20)
#    0.500    0.000    5.000    2.500    5.833    0.000 
#    3.000    0.000    0.000    0.000    0.000    0.000 
#    0.000    0.000    0.000    0.000    0.000    0.000 
#
# Total GULP energy -133870.179001 kJ/mol
# GULP energy per Si atom -5577.924125 kJ/mol
# Density = 2.224802 g / cm^3
# Si number density = 22.298774 Si / 1000 Ang^3
#
#
#
# Elastic Constant Matrix: (Units=GPa)
#
#
# Indices 1 2 3 4 5 6 
#
# 1 123.8917 12.7891 33.9941 0.0000 0.0000 0.0000
# 2 12.7891 45.0498 15.6684 0.0000 0.0000 0.0000
# 3 33.9941 15.6684 67.9918 0.0000 0.0000 0.0000
# 4 0.0000 0.0000 0.0000 28.5138 0.0000 0.0000
# 5 0.0000 0.0000 0.0000 0.0000 0.9517 0.0000
# 6 0.0000 0.0000 0.0000 0.0000 0.0000 15.6003
#
#
#
# Elastic Compliance Matrix: (Units=1/GPa)
#
#
# Indices 1 2 3 4 5 6 
#
# 1 0.009407 -0.001125 -0.004444 0.000000 0.000000 0.000000
# 2 -0.001125 0.024266 -0.005030 0.000000 0.000000 0.000000
# 3 -0.004444 -0.005030 0.018089 0.000000 0.000000 0.000000
# 4 0.000000 0.000000 0.000000 0.035071 0.000000 0.000000
# 5 0.000000 0.000000 0.000000 0.000000 1.050754 0.000000
# 6 0.000000 0.000000 0.000000 0.000000 0.000000 0.064101
#
#
# Mechanical properties :
#
#
# Convention : Reuss Voigt Hill
#
# Bulk Modulus (GPa) = 32.71737 40.20406 36.46071
# Shear Modulus (GPa) = 4.05491 20.64527 12.35009
#
# Velocity S-wave (km/s) = 1.34996 3.04608 2.35595
# Velocity P-wave (km/s) = 4.13932 5.51727 4.87721
#
# Compressibility (1/GPa) = 0.03056480
#
# Stress axis : x y z
#
# Youngs Moduli (GPa) = 106.30296 41.20940 55.28332
#
# Poissons Ratio (x) = 0.04636 0.24568
# Poissons Ratio (y) = 0.11958 0.27806
# Poissons Ratio (z) = 0.47242 0.20727
#
# Static dielectric constant tensor:
#      x y z
#    x 2.165350 0.000000 0.000000 
#    y 0.000000 1.823560 0.000000 
#    z 0.000000 0.000000 1.810790 
# 
# From -- ./inp_files/19774.got.cif
#   From: 2010.05.17/outbox.cif.g08.bks.cpg/sg24_10_cif.got.tgz:19774.got - 2010.06.04 00:33:39.
