data_PCOD9336963
_publ_section_title
;
Structure prediction by ZEFSAII (Michael W. Deem and Ramdas Pophale) SiO2 
 PCOD9336963
Probable space group: I 21 21 21
;
_chemical_formula_sum "Si O2"
_cell_formula_units_Z 20
_cell_length_a 6.219897
_cell_length_b 4.788248
_cell_length_c 29.077956
_cell_angle_alpha 90.000000
_cell_angle_beta 90.000000
_cell_angle_gamma 90.000000
_cell_volume 866.011589
_symmetry_space_group_name_H-M "I 21 21 21"
_symmetry_group_IT_number 24
_symmetry_cell_setting 'orthorhombic'
loop_
_space_group_symop_operation_xyz
x,y,z
-x,1/2-y,z
x,-y,1/2-z
1/2-x,y,-z
1/2+x,1/2+y,1/2+z
1/2-x,-y,1/2+z
1/2+x,1/2-y,-z
-x,1/2+y,1/2-z
loop_
_atom_site_type_symbol
_atom_site_label
_atom_site_fract_x
_atom_site_fract_y
_atom_site_fract_z
Si Si1 0.500000 0.750000 0.387209
Si Si2 0.355903 0.500000 0.750000
Si Si3 0.143771 0.006184 0.454306
Si Si4 0.000000 0.750000 0.816373
O O1 0.311083 0.863968 0.419927
O O2 0.468883 0.500781 0.351851
O O3 0.500000 0.250000 0.772533
O O4 0.201819 0.685297 0.782909
O O5 0.250000 0.135050 0.500000
O O6 0.000000 0.750000 0.471347
O O7 0.000000 0.250000 0.432025
#
# Coordination Sequence:
#
# PCOD9336963 Si02
#       4
#     4   4   8   4
#     4  12  27  46  72 112 154 190 252 314 355 442
#     4  12  26  48  80 108 148 200 244 302 384 456
#     4  12  26  45  72 103 146 204 256 303 368 430
#     4  12  27  48  74 114 152 188 248 312 371 442
#
# _framework density 23.094380000000001
#
# number of rings (size 3 to 8) (size 9 to 14) (size 15 to 20)
#    0.000    0.000    2.000    8.400    2.800    9.600 
#    0.000    0.000    0.000    0.000    0.000    0.000 
#    0.000    0.000    0.000    0.000    0.000    0.000 
#
# Total GULP energy -55795.928640 kJ/mol
# GULP energy per Si atom -5579.592864 kJ/mol
# Density = 2.304182 g / cm^3
# Si number density = 23.094380 Si / 1000 Ang^3
#
#
#
# Elastic Constant Matrix: (Units=GPa)
#
#
# Indices 1 2 3 4 5 6 
#
# 1 120.4135 65.2280 59.8249 0.0000 0.0000 0.0000
# 2 65.2280 157.1747 33.9676 0.0000 0.0000 0.0000
# 3 59.8249 33.9676 114.3221 0.0000 0.0000 0.0000
# 4 0.0000 0.0000 0.0000 113.6380 0.0000 0.0000
# 5 0.0000 0.0000 0.0000 0.0000 -1.4689 0.0000
# 6 0.0000 0.0000 0.0000 0.0000 0.0000 65.1829
#
#
#
# Elastic Compliance Matrix: (Units=1/GPa)
#
#
# Indices 1 2 3 4 5 6 
#
# 1 0.013551 -0.004372 -0.005792 0.000000 0.000000 0.000000
# 2 -0.004372 0.008209 -0.000151 0.000000 0.000000 0.000000
# 3 -0.005792 -0.000151 0.011823 0.000000 0.000000 0.000000
# 4 0.000000 0.000000 0.000000 0.008800 0.000000 0.000000
# 5 0.000000 0.000000 0.000000 0.000000 -0.680767 0.000000
# 6 0.000000 0.000000 0.000000 0.000000 0.000000 0.015341
#
#
# Mechanical properties :
#
#
# Convention : Reuss Voigt Hill
#
# Bulk Modulus (GPa) = 77.20469 78.88349 78.04409
# Shear Modulus (GPa) = -8.35988 50.99638 21.31825
#
# Velocity S-wave (km/s) = -1.90466 4.70422 3.04154
# Velocity P-wave (km/s) = 5.35403 7.98357 6.79717
#
# Compressibility (1/GPa) = 0.01295258
#
# Stress axis : x y z
#
# Youngs Moduli (GPa) = 73.79749 121.81190 84.57939
#
# Poissons Ratio (x) = 0.53254 0.48989
# Poissons Ratio (y) = 0.32263 0.01281
# Poissons Ratio (z) = 0.42744 0.01845
#
# Static dielectric constant tensor:
#      x y z
#    x 1.776750 0.000000 0.000000 
#    y 0.000000 1.835190 0.000000 
#    z 0.000000 0.000000 1.873220 
# 
# From -- ./inp_files/350.got.cif
#   From: 2010.05.17/outbox.cif.g08.bks.cpg/sg24_1_cif.got.tgz:350.got - 2010.06.04 00:33:39.
