data_PCOD9336310
_publ_section_title
;
Structure prediction by ZEFSAII (Michael W. Deem and Ramdas Pophale) SiO2 
 PCOD9336310
Probable space group: I 21 21 21
;
_chemical_formula_sum "Si O2"
_cell_formula_units_Z 32
_cell_length_a 5.873852
_cell_length_b 19.732008
_cell_length_c 12.308106
_cell_angle_alpha 90.000000
_cell_angle_beta 90.000000
_cell_angle_gamma 90.000000
_cell_volume 1426.545113
_symmetry_space_group_name_H-M "I 21 21 21"
_symmetry_group_IT_number 24
_symmetry_cell_setting 'orthorhombic'
loop_
_space_group_symop_operation_xyz
x,y,z
-x,1/2-y,z
x,-y,1/2-z
1/2-x,y,-z
1/2+x,1/2+y,1/2+z
1/2-x,-y,1/2+z
1/2+x,1/2-y,-z
-x,1/2+y,1/2-z
loop_
_atom_site_type_symbol
_atom_site_label
_atom_site_fract_x
_atom_site_fract_y
_atom_site_fract_z
Si Si1 0.474905 0.632899 0.265599
Si Si2 0.500000 0.750000 0.440701
Si Si3 0.396341 0.575385 0.896671
Si Si4 0.817561 0.295336 0.390617
Si Si5 0.225076 0.000000 0.250000
O O1 0.452649 0.681879 0.368789
O O2 0.253838 0.604528 0.203185
O O3 0.611481 0.680156 0.180980
O O4 0.625714 0.565272 0.281392
O O5 0.250000 0.760907 0.500000
O O6 0.551760 0.638159 0.930975
O O7 0.562509 0.518957 0.849964
O O8 0.250000 0.553437 0.000000
O O9 0.750000 0.256264 0.500000
O O10 0.000000 0.250000 0.326614
#
# Coordination Sequence:
#
# PCOD9336310 Si02
#       5
#     8   4   8   8   4
#     4  11  25  50  71 107 151 201 258 326 387 474
#     4  12  32  56  80 112 158 224 278 332 398 484
#     4  11  22  44  69 104 146 191 245 316 399 464
#     4  11  22  35  67 108 140 179 223 296 385 468
#     4  10  26  44  74 108 150 198 262 328 386 484
#
# _framework density 22.431818
#
# number of rings (size 3 to 8) (size 9 to 14) (size 15 to 20)
#    0.000    1.000    2.500    3.000   10.500    0.000 
#    9.000    0.000    0.000    0.000    0.000    0.000 
#    0.000    0.000    0.000    0.000    0.000    0.000 
#
# Total GULP energy -89400.183736 kJ/mol
# GULP energy per Si atom -5587.511483 kJ/mol
# Density = 2.238076 g / cm^3
# Si number density = 22.431818 Si / 1000 Ang^3
#
#
#
# Elastic Constant Matrix: (Units=GPa)
#
#
# Indices 1 2 3 4 5 6 
#
# 1 125.7879 50.9954 52.5273 0.0000 0.0000 0.0000
# 2 50.9954 126.3307 49.3697 0.0000 0.0000 0.0000
# 3 52.5273 49.3697 90.6501 -0.0001 0.0000 0.0000
# 4 0.0000 0.0000 -0.0001 33.3480 0.0000 0.0000
# 5 0.0000 0.0000 0.0000 0.0000 43.5489 0.0000
# 6 0.0000 0.0000 0.0000 0.0000 0.0000 54.2852
#
#
#
# Elastic Compliance Matrix: (Units=1/GPa)
#
#
# Indices 1 2 3 4 5 6 
#
# 1 0.011073 -0.002493 -0.005059 0.000000 0.000000 0.000000
# 2 -0.002493 0.010617 -0.004338 0.000000 0.000000 0.000000
# 3 -0.005059 -0.004338 0.016325 0.000000 0.000000 0.000000
# 4 0.000000 0.000000 0.000000 0.029987 0.000000 0.000000
# 5 0.000000 0.000000 0.000000 0.000000 0.022963 0.000000
# 6 0.000000 0.000000 0.000000 0.000000 0.000000 0.018421
#
#
# Mechanical properties :
#
#
# Convention : Reuss Voigt Hill
#
# Bulk Modulus (GPa) = 70.24105 72.06150 71.15128
# Shear Modulus (GPa) = 36.25552 38.89484 37.57518
#
# Velocity S-wave (km/s) = 4.02463 4.16855 4.09722
# Velocity P-wave (km/s) = 7.27860 7.44066 7.36008
#
# Compressibility (1/GPa) = 0.01423669
#
# Stress axis : x y z
#
# Youngs Moduli (GPa) = 90.31062 94.18636 61.25552
#
# Poissons Ratio (x) = 0.23480 0.30986
# Poissons Ratio (y) = 0.22513 0.26572
# Poissons Ratio (z) = 0.45684 0.40857
#
# Static dielectric constant tensor:
#      x y z
#    x 1.879630 0.000000 0.000000 
#    y 0.000000 1.801220 0.000000 
#    z 0.000000 0.000000 1.855710 
# 
# From -- ./inp_files/1984.got.cif
#   From: 2010.05.17/outbox.cif.g08.bks.cpg/sg24_1_cif.got.tgz:1984.got - 2010.06.04 00:33:39.
