data_PCOD9336272
_publ_section_title
;
Structure prediction by ZEFSAII (Michael W. Deem and Ramdas Pophale) SiO2 
 PCOD9336272
Probable space group: I 21 21 21
;
_chemical_formula_sum "Si O2"
_cell_formula_units_Z 36
_cell_length_a 11.277772
_cell_length_b 21.156260
_cell_length_c 6.616166
_cell_angle_alpha 90.000000
_cell_angle_beta 90.000000
_cell_angle_gamma 90.000000
_cell_volume 1578.587280
_symmetry_space_group_name_H-M "I 21 21 21"
_symmetry_group_IT_number 24
_symmetry_cell_setting 'orthorhombic'
loop_
_space_group_symop_operation_xyz
x,y,z
-x,1/2-y,z
x,-y,1/2-z
1/2-x,y,-z
1/2+x,1/2+y,1/2+z
1/2-x,-y,1/2+z
1/2+x,1/2-y,-z
-x,1/2+y,1/2-z
loop_
_atom_site_type_symbol
_atom_site_label
_atom_site_fract_x
_atom_site_fract_y
_atom_site_fract_z
Si Si1 0.673199 0.931139 0.819235
Si Si2 0.407127 0.946037 0.917493
Si Si3 0.360141 0.755132 0.163870
Si Si4 0.750000 0.164297 0.000000
Si Si5 0.283812 0.890354 0.276926
O O1 0.546061 0.943143 0.915407
O O2 0.669592 0.883001 0.634147
O O3 0.720854 0.000000 0.750000
O O4 0.750000 0.903751 0.000000
O O5 0.344792 0.883594 0.827991
O O6 0.378193 0.000000 0.750000
O O7 0.353960 0.941698 0.141885
O O8 0.500000 0.750000 0.095026
O O9 0.326717 0.705805 0.343190
O O10 0.350134 0.824531 0.264534
O O11 0.250000 0.749991 0.000000
O O12 0.250000 0.909881 0.500000
#
# Coordination Sequence:
#
# PCOD9336272 Si02
#       5
#     8   8   8   4   8
#     4  11  25  48  73 111 152 195 249 309 383 461
#     4  10  25  46  73 107 144 202 250 313 381 466
#     4  12  29  51  76 115 154 207 262 323 391 469
#     4  12  28  44  76 110 150 202 258 310 386 464
#     4  11  25  47  72 107 150 193 254 322 379 454
#
# _framework density 22.805202000000001
#
# number of rings (size 3 to 8) (size 9 to 14) (size 15 to 20)
#    0.000    0.889    4.444    0.667   12.444    0.889 
#    0.000    0.000    0.000    0.000    0.000    0.000 
#    0.000    0.000    0.000    0.000    0.000    0.000 
#
# Total GULP energy -100346.401496 kJ/mol
# GULP energy per Si atom -5574.800083 kJ/mol
# Density = 2.275330 g / cm^3
# Si number density = 22.805202 Si / 1000 Ang^3
#
#
#
# Elastic Constant Matrix: (Units=GPa)
#
#
# Indices 1 2 3 4 5 6 
#
# 1 116.1119 29.4338 64.8253 0.0004 -0.0005 -0.0003
# 2 29.4338 122.2974 67.7802 0.0079 -0.0035 -0.0001
# 3 64.8253 67.7802 188.2986 0.0199 -0.0058 -0.0027
# 4 0.0004 0.0079 0.0199 36.4205 -0.0040 0.0001
# 5 -0.0005 -0.0035 -0.0058 -0.0040 21.8381 0.0001
# 6 -0.0003 -0.0001 -0.0027 0.0001 0.0001 13.9658
#
#
#
# Elastic Compliance Matrix: (Units=1/GPa)
#
#
# Indices 1 2 3 4 5 6 
#
# 1 0.010705 -0.000667 -0.003445 0.000002 -0.000001 0.000000
# 2 -0.000667 0.010256 -0.003462 0.000000 0.000001 -0.000001
# 3 -0.003445 -0.003462 0.007743 -0.000003 0.000001 0.000001
# 4 0.000002 0.000000 -0.000003 0.027457 0.000005 0.000000
# 5 -0.000001 0.000001 0.000001 0.000005 0.045791 0.000000
# 6 0.000000 -0.000001 0.000001 0.000000 0.000000 0.071603
#
#
# Mechanical properties :
#
#
# Convention : Reuss Voigt Hill
#
# Bulk Modulus (GPa) = 73.77193 83.42072 78.59633
# Shear Modulus (GPa) = 25.87679 32.08947 28.98313
#
# Velocity S-wave (km/s) = 3.37217 3.75522 3.56884
# Velocity P-wave (km/s) = 6.89790 7.44724 7.17782
#
# Compressibility (1/GPa) = 0.01355529
#
# Stress axis : x y z
#
# Youngs Moduli (GPa) = 93.41454 97.50253 129.14738
#
# Poissons Ratio (x) = 0.06503 0.44495
# Poissons Ratio (y) = 0.06230 0.44714
# Poissons Ratio (z) = 0.32184 0.33757
#
# Static dielectric constant tensor:
#      x y z
#    x 1.868720 0.000000 0.000000 
#    y 0.000000 1.878820 0.000000 
#    z 0.000000 0.000000 1.959650 
# 
# From -- ./inp_files/2265.got.cif
#   From: 2010.05.17/outbox.cif.g08.bks.cpg/sg24_2_cif.got.tgz:2265.got - 2010.06.04 00:33:39.
