data_PCOD9336253
_publ_section_title
;
Structure prediction by ZEFSAII (Michael W. Deem and Ramdas Pophale) SiO2 
 PCOD9336253
Probable space group: I 21 21 21
;
_chemical_formula_sum "Si O2"
_cell_formula_units_Z 60
_cell_length_a 26.084447
_cell_length_b 5.986329
_cell_length_c 17.361318
_cell_angle_alpha 90.000000
_cell_angle_beta 90.000000
_cell_angle_gamma 90.000000
_cell_volume 2710.971221
_symmetry_space_group_name_H-M "I 21 21 21"
_symmetry_group_IT_number 24
_symmetry_cell_setting 'orthorhombic'
loop_
_space_group_symop_operation_xyz
x,y,z
-x,1/2-y,z
x,-y,1/2-z
1/2-x,y,-z
1/2+x,1/2+y,1/2+z
1/2-x,-y,1/2+z
1/2+x,1/2-y,-z
-x,1/2+y,1/2-z
loop_
_atom_site_type_symbol
_atom_site_label
_atom_site_fract_x
_atom_site_fract_y
_atom_site_fract_z
Si Si1 0.216854 0.277573 0.935363
Si Si2 0.583135 0.539111 0.605483
Si Si3 0.742231 0.869519 0.173184
Si Si4 0.058056 0.235138 0.544738
Si Si5 0.129962 0.430074 0.027661
Si Si6 0.146012 0.051616 0.659225
Si Si7 0.353867 0.311263 0.684308
Si Si8 0.000000 0.750000 0.293062
O O1 0.253985 0.428495 0.884837
O O2 0.176489 0.149687 0.882131
O O3 0.250000 0.147712 0.000000
O O4 0.181059 0.452016 0.979503
O O5 0.556018 0.397091 0.537668
O O6 0.624528 0.676733 0.556271
O O7 0.607398 0.392903 0.673966
O O8 0.547368 0.715172 0.649070
O O9 0.691247 0.734769 0.155829
O O10 0.794612 0.732020 0.184736
O O11 0.730768 0.000000 0.250000
O O12 0.082684 0.475054 0.522042
O O13 0.097113 0.122750 0.606855
O O14 0.000000 0.250000 0.574189
O O15 0.135006 0.573269 0.103414
O O16 0.134414 0.000000 0.750000
O O17 0.360433 0.500000 0.750000
O O18 0.005221 0.500000 0.250000
#
# Coordination Sequence:
#
# PCOD9336253 Si02
#       8
#     8   8   8   8   8   8   8   4
#     4  12  24  41  69 107 143 183 234 288 366 454
#     4  11  26  47  72 103 146 194 256 312 374 456
#     4  11  23  44  68 101 144 189 231 297 369 451
#     4  11  25  47  73 103 140 191 250 322 383 453
#     4  11  23  41  69 101 140 186 237 308 367 439
#     4  12  26  45  73 104 142 186 245 308 380 456
#     4  10  25  42  67 105 151 197 243 302 374 450
#     4  12  32  50  76 110 150 212 262 326 390 466
#
# _framework density 22.132287999999999
#
# number of rings (size 3 to 8) (size 9 to 14) (size 15 to 20)
#    0.000    0.800    5.333    0.800    8.400    0.533 
#    0.000    2.000    0.000    0.000    0.000    0.000 
#    0.000    0.000    0.000    0.000    0.000    0.000 
#
# Total GULP energy -167301.762207 kJ/mol
# GULP energy per Si atom -5576.725407 kJ/mol
# Density = 2.208191 g / cm^3
# Si number density = 22.132288 Si / 1000 Ang^3
#
#
#
# Elastic Constant Matrix: (Units=GPa)
#
#
# Indices 1 2 3 4 5 6 
#
# 1 125.3274 31.3654 50.8914 0.0000 0.0000 0.0000
# 2 31.3654 59.2704 43.9168 0.0000 0.0000 0.0000
# 3 50.8914 43.9168 141.4791 0.0000 0.0000 0.0000
# 4 0.0000 0.0000 0.0000 28.8535 0.0000 0.0000
# 5 0.0000 0.0000 0.0000 0.0000 20.7445 0.0000
# 6 0.0000 0.0000 0.0000 0.0000 0.0000 33.3181
#
#
#
# Elastic Compliance Matrix: (Units=1/GPa)
#
#
# Indices 1 2 3 4 5 6 
#
# 1 0.009832 -0.003354 -0.002496 0.000000 0.000000 0.000000
# 2 -0.003354 0.023056 -0.005950 0.000000 0.000000 0.000000
# 3 -0.002496 -0.005950 0.009813 0.000000 0.000000 0.000000
# 4 0.000000 0.000000 0.000000 0.034658 0.000000 0.000000
# 5 0.000000 0.000000 0.000000 0.000000 0.048205 0.000000
# 6 0.000000 0.000000 0.000000 0.000000 0.000000 0.030014
#
#
# Mechanical properties :
#
#
# Convention : Reuss Voigt Hill
#
# Bulk Modulus (GPa) = 52.35347 64.26935 58.31141
# Shear Modulus (GPa) = 26.94784 29.91012 28.42898
#
# Velocity S-wave (km/s) = 3.49317 3.68016 3.58788
# Velocity P-wave (km/s) = 6.32264 6.86731 6.60059
#
# Compressibility (1/GPa) = 0.01910093
#
# Stress axis : x y z
#
# Youngs Moduli (GPa) = 101.71070 43.37345 101.90671
#
# Poissons Ratio (x) = 0.14547 0.25431
# Poissons Ratio (y) = 0.34112 0.60638
# Poissons Ratio (z) = 0.25382 0.25809
#
# Static dielectric constant tensor:
#      x y z
#    x 1.835080 0.000000 0.000000 
#    y 0.000000 1.963550 0.000000 
#    z 0.000000 0.000000 1.810120 
# 
# From -- ./inp_files/31666.got.cif
#   From: 2010.05.17/outbox.cif.g08.bks.cpg/sg24_16_cif.got.tgz:31666.got - 2010.06.04 00:33:39.
