data_PCOD9336741
_publ_section_title
;
Structure prediction by ZEFSAII (Michael W. Deem and Ramdas Pophale) SiO2 
 PCOD9336741
Probable space group: I 21 21 21
;
_chemical_formula_sum "Si O2"
_cell_formula_units_Z 32
_cell_length_a 16.504419
_cell_length_b 5.334602
_cell_length_c 13.967076
_cell_angle_alpha 90.000000
_cell_angle_beta 90.000000
_cell_angle_gamma 90.000000
_cell_volume 1229.724315
_symmetry_space_group_name_H-M "I 21 21 21"
_symmetry_group_IT_number 24
_symmetry_cell_setting 'orthorhombic'
loop_
_space_group_symop_operation_xyz
x,y,z
-x,1/2-y,z
x,-y,1/2-z
1/2-x,y,-z
1/2+x,1/2+y,1/2+z
1/2-x,-y,1/2+z
1/2+x,1/2-y,-z
-x,1/2+y,1/2-z
loop_
_atom_site_type_symbol
_atom_site_label
_atom_site_fract_x
_atom_site_fract_y
_atom_site_fract_z
Si Si1 0.638004 0.243114 0.230969
Si Si2 0.451101 0.010683 0.886063
Si Si3 0.833054 0.764885 0.510045
Si Si4 0.691473 0.171176 0.661933
O O1 0.596441 0.500000 0.250000
O O2 0.664763 0.200076 0.122571
O O3 0.718030 0.244094 0.301510
O O4 0.586678 0.000000 0.250000
O O5 0.500000 0.750000 0.895114
O O6 0.365797 0.912914 0.844038
O O7 0.500000 0.250000 0.840716
O O8 0.416125 0.130833 0.982885
O O9 0.750000 0.605979 0.500000
O O10 0.820820 0.001968 0.435853
O O11 0.660881 0.000000 0.750000
#
# Coordination Sequence:
#
# PCOD9336741 Si02
#       4
#     8   8   8   8
#     4  11  25  43  73 118 153 190 256 329 389 453
#     4  12  28  53  76 113 162 219 258 315 400 489
#     4  12  24  48  81 114 159 206 262 331 387 463
#     4  11  25  47  76 117 161 199 263 323 400 463
#
# _framework density 26.022093999999999
#
# number of rings (size 3 to 8) (size 9 to 14) (size 15 to 20)
#    0.000    0.500    7.500    1.500    3.500    1.000 
#    4.500    0.000    0.000    3.000    0.000    0.000 
#    0.000    0.000    0.000    0.000    0.000    0.000 
#
# Total GULP energy -89207.234400 kJ/mol
# GULP energy per Si atom -5575.452150 kJ/mol
# Density = 2.596287 g / cm^3
# Si number density = 26.022094 Si / 1000 Ang^3
#
#
#
# Elastic Constant Matrix: (Units=GPa)
#
#
# Indices 1 2 3 4 5 6 
#
# 1 151.0104 62.0754 28.9525 0.0000 0.0000 0.0000
# 2 62.0754 218.7360 58.1673 0.0000 0.0000 0.0000
# 3 28.9525 58.1673 131.4337 0.0000 0.0000 0.0000
# 4 0.0000 0.0000 0.0000 27.3929 0.0000 0.0000
# 5 0.0000 0.0000 0.0000 0.0000 -3.9931 0.0000
# 6 0.0000 0.0000 0.0000 0.0000 0.0000 -12.0618
#
#
#
# Elastic Compliance Matrix: (Units=1/GPa)
#
#
# Indices 1 2 3 4 5 6 
#
# 1 0.007572 -0.001933 -0.000813 0.000000 0.000000 0.000000
# 2 -0.001933 0.005675 -0.002086 0.000000 0.000000 0.000000
# 3 -0.000813 -0.002086 0.008710 0.000000 0.000000 0.000000
# 4 0.000000 0.000000 0.000000 0.036506 0.000000 0.000000
# 5 0.000000 0.000000 0.000000 0.000000 -0.250432 0.000000
# 6 0.000000 0.000000 0.000000 0.000000 0.000000 -0.082906
#
#
# Mechanical properties :
#
#
# Convention : Reuss Voigt Hill
#
# Bulk Modulus (GPa) = 81.33193 88.84118 85.08656
# Shear Modulus (GPa) = -19.14875 25.73325 3.29225
#
# Velocity S-wave (km/s) = -2.71563 3.14809 1.12602
# Velocity P-wave (km/s) = 4.63573 6.88685 5.87021
#
# Compressibility (1/GPa) = 0.01229529
#
# Stress axis : x y z
#
# Youngs Moduli (GPa) = 132.05832 176.21462 114.80447
#
# Poissons Ratio (x) = 0.34060 0.09330
# Poissons Ratio (y) = 0.25525 0.23945
# Poissons Ratio (z) = 0.10732 0.36753
#
# Static dielectric constant tensor:
#      x y z
#    x 2.095410 0.000000 0.000000 
#    y 0.000000 2.233700 0.000000 
#    z 0.000000 0.000000 2.227860 
# 
# From -- ./inp_files/21899.got.cif
#   From: 2010.05.17/outbox.cif.g08.bks.cpg/sg24_11_cif.got.tgz:21899.got - 2010.06.04 00:33:39.
