data_PCOD9336717
_publ_section_title
;
Structure prediction by ZEFSAII (Michael W. Deem and Ramdas Pophale) SiO2 
 PCOD9336717
Probable space group: I 21 21 21
;
_chemical_formula_sum "Si O2"
_cell_formula_units_Z 40
_cell_length_a 6.008513
_cell_length_b 15.442982
_cell_length_c 18.730553
_cell_angle_alpha 90.000000
_cell_angle_beta 90.000000
_cell_angle_gamma 90.000000
_cell_volume 1737.995990
_symmetry_space_group_name_H-M "I 21 21 21"
_symmetry_group_IT_number 24
_symmetry_cell_setting 'orthorhombic'
loop_
_space_group_symop_operation_xyz
x,y,z
-x,1/2-y,z
x,-y,1/2-z
1/2-x,y,-z
1/2+x,1/2+y,1/2+z
1/2-x,-y,1/2+z
1/2+x,1/2-y,-z
-x,1/2+y,1/2-z
loop_
_atom_site_type_symbol
_atom_site_label
_atom_site_fract_x
_atom_site_fract_y
_atom_site_fract_z
Si Si1 0.959049 0.506409 0.130955
Si Si2 0.000000 0.250000 0.827603
Si Si3 0.137700 0.162439 0.073657
Si Si4 0.250000 0.890727 0.000000
Si Si5 0.221732 0.354770 0.705751
Si Si6 0.000000 0.750000 0.911278
Si Si7 0.618844 0.500000 0.250000
O O1 0.092061 0.576581 0.179326
O O2 0.033621 0.411884 0.102662
O O3 0.767112 0.475206 0.183573
O O4 0.871784 0.555225 0.061181
O O5 0.848237 0.311959 0.876296
O O6 0.812032 0.203899 0.776452
O O7 0.000000 0.250000 0.061374
O O8 0.250000 0.131551 0.000000
O O9 0.078546 0.828480 0.959548
O O10 0.188523 0.287416 0.641232
O O11 0.020104 0.420665 0.719378
#
# Coordination Sequence:
#
# PCOD9336717 Si02
#       7
#     8   4   8   4   8   4   4
#     4  12  27  47  76 112 148 205 254 320 392 461
#     4  11  26  50  74 112 155 208 260 326 387 472
#     4  12  27  49  76 111 155 205 268 328 389 462
#     4  12  24  48  76 108 156 192 258 318 384 474
#     4  11  26  46  76 108 154 202 251 319 389 465
#     4  11  24  48  70 112 147 196 250 312 389 458
#     4  12  24  48  66 112 152 190 258 308 372 468
#
# _framework density 23.015011000000001
#
# number of rings (size 3 to 8) (size 9 to 14) (size 15 to 20)
#    0.000    0.400    6.000    1.800    5.600    0.000 
#    3.600    0.000    0.000    0.000    0.000    0.000 
#    0.000    0.000    0.000    0.000    0.000    0.000 
#
# Total GULP energy -111538.485107 kJ/mol
# GULP energy per Si atom -5576.924255 kJ/mol
# Density = 2.296263 g / cm^3
# Si number density = 23.015011 Si / 1000 Ang^3
#
#
#
# Elastic Constant Matrix: (Units=GPa)
#
#
# Indices 1 2 3 4 5 6 
#
# 1 50.0405 26.0258 36.0961 0.0000 0.0000 0.0000
# 2 26.0258 120.5256 40.8257 0.0000 0.0000 0.0000
# 3 36.0961 40.8257 137.5754 0.0000 0.0000 0.0000
# 4 0.0000 0.0000 0.0000 1630.4758 0.0000 0.0000
# 5 0.0000 0.0000 0.0000 0.0000 21.9859 0.0000
# 6 0.0000 0.0000 0.0000 0.0000 0.0000 39.7647
#
#
#
# Elastic Compliance Matrix: (Units=1/GPa)
#
#
# Indices 1 2 3 4 5 6 
#
# 1 0.026037 -0.003678 -0.005740 0.000000 0.000000 0.000000
# 2 -0.003678 0.009744 -0.001926 0.000000 0.000000 0.000000
# 3 -0.005740 -0.001926 0.009346 0.000000 0.000000 0.000000
# 4 0.000000 0.000000 0.000000 0.000613 0.000000 0.000000
# 5 0.000000 0.000000 0.000000 0.000000 0.045484 0.000000
# 6 0.000000 0.000000 0.000000 0.000000 0.000000 0.025148
#
#
# Mechanical properties :
#
#
# Convention : Reuss Voigt Hill
#
# Bulk Modulus (GPa) = 44.56640 57.11517 50.84079
# Shear Modulus (GPa) = 34.12018 352.12489 193.12253
#
# Velocity S-wave (km/s) = 3.85453 12.38265 9.17026
# Velocity P-wave (km/s) = 6.26226 15.14300 11.58720
#
# Compressibility (1/GPa) = 0.02243843
#
# Stress axis : x y z
#
# Youngs Moduli (GPa) = 38.40651 102.62972 106.99264
#
# Poissons Ratio (x) = 0.37748 0.61414
# Poissons Ratio (y) = 0.14126 0.20612
# Poissons Ratio (z) = 0.22045 0.19771
#
# Static dielectric constant tensor:
#      x y z
#    x -0.673070 0.000000 0.000000 
#    y 0.000000 1.926830 0.000000 
#    z 0.000000 0.000000 1.886180 
# 
# From -- ./inp_files/28654.got.cif
#   From: 2010.05.17/outbox.cif.g08.bks.cpg/sg24_15_cif.got.tgz:28654.got - 2010.06.04 00:33:39.
