data_PCOD9336016
_publ_section_title
;
Structure prediction by ZEFSAII (Michael W. Deem and Ramdas Pophale) SiO2 
 PCOD9336016
Probable space group: I 21 21 21
;
_chemical_formula_sum "Si O2"
_cell_formula_units_Z 40
_cell_length_a 12.048398
_cell_length_b 5.904003
_cell_length_c 24.294964
_cell_angle_alpha 90.000000
_cell_angle_beta 90.000000
_cell_angle_gamma 90.000000
_cell_volume 1728.192574
_symmetry_space_group_name_H-M "I 21 21 21"
_symmetry_group_IT_number 24
_symmetry_cell_setting 'orthorhombic'
loop_
_space_group_symop_operation_xyz
x,y,z
-x,1/2-y,z
x,-y,1/2-z
1/2-x,y,-z
1/2+x,1/2+y,1/2+z
1/2-x,-y,1/2+z
1/2+x,1/2-y,-z
-x,1/2+y,1/2-z
loop_
_atom_site_type_symbol
_atom_site_label
_atom_site_fract_x
_atom_site_fract_y
_atom_site_fract_z
Si Si1 0.620433 0.676059 0.151425
Si Si2 0.795131 0.956839 0.392351
Si Si3 0.450687 0.001867 0.463791
Si Si4 0.000000 0.250000 0.386758
Si Si5 0.750000 0.320516 0.000000
Si Si6 0.663477 0.450420 0.811717
O O1 0.500000 0.750000 0.174878
O O2 0.590830 0.521053 0.099040
O O3 0.709965 0.543147 0.187191
O O4 0.694612 0.883898 0.128200
O O5 0.747572 0.827535 0.445351
O O6 0.829607 0.795527 0.340901
O O7 0.908069 0.081685 0.412717
O O8 0.500000 0.750000 0.469774
O O9 0.352168 0.986406 0.506968
O O10 0.500000 0.250000 0.472310
O O11 0.917854 0.404981 0.350307
O O12 0.622773 0.500000 0.750000
#
# Coordination Sequence:
#
# PCOD9336016 Si02
#       6
#     8   8   8   4   4   8
#     4  10  23  45  70 104 144 193 245 310 380 467
#     4  11  25  49  72 110 154 201 261 323 396 475
#     4  11  25  45  72 105 148 203 250 309 383 456
#     4  10  26  46  74 108 150 194 256 326 394 472
#     4  12  24  48  74 106 152 200 256 322 384 476
#     4  11  25  46  75 108 145 196 253 328 393 463
#
# _framework density 23.145567
#
# number of rings (size 3 to 8) (size 9 to 14) (size 15 to 20)
#    0.000    1.200    2.000    3.000    2.800    7.200 
#   12.600    0.000    0.000    0.000    0.000    0.000 
#    0.000    0.000    0.000    0.000    0.000    0.000 
#
# Total GULP energy -111564.251029 kJ/mol
# GULP energy per Si atom -5578.212551 kJ/mol
# Density = 2.309289 g / cm^3
# Si number density = 23.145567 Si / 1000 Ang^3
#
#
#
# Elastic Constant Matrix: (Units=GPa)
#
#
# Indices 1 2 3 4 5 6 
#
# 1 136.4176 56.6878 -3.8616 0.0000 0.0000 0.0000
# 2 56.6878 139.5083 38.6578 0.0000 0.0000 0.0000
# 3 -3.8616 38.6578 58.3462 0.0000 0.0000 0.0000
# 4 0.0000 0.0000 0.0000 12.0473 0.0000 0.0000
# 5 0.0000 0.0000 0.0000 0.0000 21.2040 0.0000
# 6 0.0000 0.0000 0.0000 0.0000 0.0000 -98.9818
#
#
#
# Elastic Compliance Matrix: (Units=1/GPa)
#
#
# Indices 1 2 3 4 5 6 
#
# 1 0.009493 -0.004938 0.003900 0.000000 0.000000 0.000000
# 2 -0.004938 0.011349 -0.007846 0.000000 0.000000 0.000000
# 3 0.003900 -0.007846 0.022596 0.000000 0.000000 0.000000
# 4 0.000000 0.000000 0.000000 0.083006 0.000000 0.000000
# 5 0.000000 0.000000 0.000000 0.000000 0.047161 0.000000
# 6 0.000000 0.000000 0.000000 0.000000 0.000000 -0.010103
#
#
# Mechanical properties :
#
#
# Convention : Reuss Voigt Hill
#
# Bulk Modulus (GPa) = 38.95730 57.47112 48.21421
# Shear Modulus (GPa) = 26.33994 3.03978 14.68986
#
# Velocity S-wave (km/s) = 3.37710 1.14725 2.52200
# Velocity P-wave (km/s) = 5.66343 5.16131 5.41819
#
# Compressibility (1/GPa) = 0.02566913
#
# Stress axis : x y z
#
# Youngs Moduli (GPa) = 105.34306 88.11611 44.25632
#
# Poissons Ratio (x) = 0.43512 -0.17260
# Poissons Ratio (y) = 0.52018 0.34723
# Poissons Ratio (z) = -0.41084 0.69136
#
# Static dielectric constant tensor:
#      x y z
#    x 1.979730 0.000000 0.000000 
#    y 0.000000 0.040310 0.000000 
#    z 0.000000 0.000000 1.909450 
# 
# From -- ./inp_files/37078.got.cif
#   From: 2010.05.17/outbox.cif.g08.bks.cpg/sg24_19_cif.got.tgz:37078.got - 2010.06.04 00:33:39.
