data_PCOD9336511
_publ_section_title
;
Structure prediction by ZEFSAII (Michael W. Deem and Ramdas Pophale) SiO2 
 PCOD9336511
Probable space group: I 21 21 21
;
_chemical_formula_sum "Si O2"
_cell_formula_units_Z 44
_cell_length_a 24.889016
_cell_length_b 5.258604
_cell_length_c 15.119119
_cell_angle_alpha 90.000000
_cell_angle_beta 90.000000
_cell_angle_gamma 90.000000
_cell_volume 1978.812657
_symmetry_space_group_name_H-M "I 21 21 21"
_symmetry_group_IT_number 24
_symmetry_cell_setting 'orthorhombic'
loop_
_space_group_symop_operation_xyz
x,y,z
-x,1/2-y,z
x,-y,1/2-z
1/2-x,y,-z
1/2+x,1/2+y,1/2+z
1/2-x,-y,1/2+z
1/2+x,1/2-y,-z
-x,1/2+y,1/2-z
loop_
_atom_site_type_symbol
_atom_site_label
_atom_site_fract_x
_atom_site_fract_y
_atom_site_fract_z
Si Si1 0.440429 0.662556 0.058097
Si Si2 0.338529 0.506339 0.969379
Si Si3 0.419479 0.848460 0.331627
Si Si4 0.685097 0.751828 0.700513
Si Si5 0.302459 0.236343 0.140045
Si Si6 0.250000 0.861344 0.000000
O O1 0.500000 0.750000 0.033001
O O2 0.442223 0.415876 0.126081
O O3 0.416253 0.923038 0.098015
O O4 0.399940 0.582816 0.980750
O O5 0.332684 0.275584 0.901526
O O6 0.293450 0.707359 0.941310
O O7 0.317562 0.452198 0.068756
O O8 0.357737 0.788386 0.306979
O O9 0.447146 0.000000 0.250000
O O10 0.667781 0.500000 0.750000
O O11 0.750066 0.766143 0.698749
O O12 0.663676 0.000000 0.750000
O O13 0.284829 0.017474 0.070960
#
# Coordination Sequence:
#
# PCOD9336511 Si02
#       6
#     8   8   8   8   8   4
#     4  11  25  44  66  91 121 173 235 274 318 385
#     4  11  23  38  64  91 130 179 223 273 320 392
#     4  11  24  40  62  94 131 170 216 277 331 383
#     4  12  25  37  58  96 138 170 210 266 339 403
#     4  11  22  36  61  91 131 179 219 260 321 399
#     4  12  16  38  64  88 128 164 234 258 320 374
#
# _framework density 22.235555999999999
#
# number of rings (size 3 to 8) (size 9 to 14) (size 15 to 20)
#    0.000    0.727    5.455    2.727    0.000    4.364 
#    0.000    0.000    0.000    0.000    0.000    8.909 
#    0.000    0.000    0.000    0.000    0.000    0.000 
#
# Total GULP energy -122776.579148 kJ/mol
# GULP energy per Si atom -5580.753598 kJ/mol
# Density = 2.218495 g / cm^3
# Si number density = 22.235556 Si / 1000 Ang^3
#
#
#
# Elastic Constant Matrix: (Units=GPa)
#
#
# Indices 1 2 3 4 5 6 
#
# 1 134.8029 38.7519 13.0762 0.0000 0.0000 0.0000
# 2 38.7519 134.5030 32.6355 0.0000 0.0000 0.0000
# 3 13.0762 32.6355 44.6359 0.0000 0.0000 0.0000
# 4 0.0000 0.0000 0.0000 42.3253 0.0000 0.0000
# 5 0.0000 0.0000 0.0000 0.0000 15.1562 0.0000
# 6 0.0000 0.0000 0.0000 0.0000 0.0000 22.4334
#
#
#
# Elastic Compliance Matrix: (Units=1/GPa)
#
#
# Indices 1 2 3 4 5 6 
#
# 1 0.008112 -0.002140 -0.000812 0.000000 0.000000 0.000000
# 2 -0.002140 0.009603 -0.006394 0.000000 0.000000 0.000000
# 3 -0.000812 -0.006394 0.027316 0.000000 0.000000 0.000000
# 4 0.000000 0.000000 0.000000 0.023627 0.000000 0.000000
# 5 0.000000 0.000000 0.000000 0.000000 0.065980 0.000000
# 6 0.000000 0.000000 0.000000 0.000000 0.000000 0.044576
#
#
# Mechanical properties :
#
#
# Convention : Reuss Voigt Hill
#
# Bulk Modulus (GPa) = 37.96603 53.65213 45.80908
# Shear Modulus (GPa) = 24.19130 31.28153 27.73641
#
# Velocity S-wave (km/s) = 3.30200 3.75484 3.53567
# Velocity P-wave (km/s) = 5.62575 6.55589 6.10855
#
# Compressibility (1/GPa) = 0.02633933
#
# Stress axis : x y z
#
# Youngs Moduli (GPa) = 123.27046 104.13535 36.60813
#
# Poissons Ratio (x) = 0.22288 0.02971
# Poissons Ratio (y) = 0.26384 0.23408
# Poissons Ratio (z) = 0.10005 0.66586
#
# Static dielectric constant tensor:
#      x y z
#    x 1.845270 0.000000 0.000000 
#    y 0.000000 1.985470 0.000000 
#    z 0.000000 0.000000 1.870180 
# 
# From -- ./inp_files/27980.got.cif
#   From: 2010.05.17/outbox.cif.g08.bks.cpg/sg24_14_cif.got.tgz:27980.got - 2010.06.04 00:33:39.
