data_PCOD9336399
_publ_section_title
;
Structure prediction by ZEFSAII (Michael W. Deem and Ramdas Pophale) SiO2 
 PCOD9336399
Probable space group: I 21 21 21
;
_chemical_formula_sum "Si O2"
_cell_formula_units_Z 60
_cell_length_a 22.631800
_cell_length_b 21.818820
_cell_length_c 5.735308
_cell_angle_alpha 90.000000
_cell_angle_beta 90.000000
_cell_angle_gamma 90.000000
_cell_volume 2832.090333
_symmetry_space_group_name_H-M "I 21 21 21"
_symmetry_group_IT_number 24
_symmetry_cell_setting 'orthorhombic'
loop_
_space_group_symop_operation_xyz
x,y,z
-x,1/2-y,z
x,-y,1/2-z
1/2-x,y,-z
1/2+x,1/2+y,1/2+z
1/2-x,-y,1/2+z
1/2+x,1/2-y,-z
-x,1/2+y,1/2-z
loop_
_atom_site_type_symbol
_atom_site_label
_atom_site_fract_x
_atom_site_fract_y
_atom_site_fract_z
Si Si1 0.201419 0.325720 0.698727
Si Si2 0.761770 0.702450 0.260124
Si Si3 0.406237 0.646421 0.895699
Si Si4 0.955027 0.691580 0.717255
Si Si5 0.128186 0.452175 0.074055
Si Si6 0.023734 0.568448 0.778642
Si Si7 0.401083 0.777442 0.777843
Si Si8 0.250000 0.563703 0.500000
O O1 0.250000 0.324977 0.500000
O O2 0.215312 0.259009 0.802021
O O3 0.134863 0.331945 0.609459
O O4 0.219268 0.387172 0.829725
O O5 0.750000 0.664915 0.500000
O O6 0.829600 0.724879 0.230443
O O7 0.750000 0.675533 0.000000
O O8 0.364420 0.610955 0.715217
O O9 0.428473 0.708756 0.784896
O O10 0.455547 0.598448 0.975879
O O11 0.918974 0.697371 0.475731
O O12 0.000000 0.750000 0.727367
O O13 0.986610 0.625601 0.685965
O O14 0.921808 0.692951 0.972704
O O15 0.099273 0.500000 0.250000
O O16 0.084934 0.440088 0.863170
O O17 0.192889 0.478848 0.026532
O O18 0.996527 0.500000 0.750000
#
# Coordination Sequence:
#
# PCOD9336399 Si02
#       8
#     8   8   8   8   8   8   8   4
#     4  11  20  32  54  85 118 169 213 260 331 399
#     4  11  21  36  61  96 135 177 209 262 342 426
#     4  12  23  40  63  87 123 176 221 277 336 411
#     4  12  27  44  68  98 135 176 235 304 353 399
#     4  12  26  38  59  83 119 171 233 291 340 400
#     4  12  27  47  68  89 127 183 243 289 348 409
#     4  12  25  42  67 100 138 172 226 285 351 412
#     4  12  22  34  54  80 118 164 228 290 334 390
#
# _framework density 21.185765
#
# number of rings (size 3 to 8) (size 9 to 14) (size 15 to 20)
#    0.000    0.267    8.667    2.000    1.867    1.600 
#    0.000    0.000    0.000    0.000    0.000    0.000 
#    0.000   10.667    0.000    0.000    0.000    0.000 
#
# Total GULP energy -167092.776334 kJ/mol
# GULP energy per Si atom -5569.759211 kJ/mol
# Density = 2.113754 g / cm^3
# Si number density = 21.185765 Si / 1000 Ang^3
#
#
#
# Elastic Constant Matrix: (Units=GPa)
#
#
# Indices 1 2 3 4 5 6 
#
# 1 58.2445 38.1474 34.9281 0.0000 0.0000 0.0000
# 2 38.1474 101.9377 25.5686 0.0000 0.0000 0.0000
# 3 34.9281 25.5686 120.7883 0.0000 0.0000 0.0000
# 4 0.0000 0.0000 0.0000 28.7184 0.0000 0.0000
# 5 0.0000 0.0000 0.0000 0.0000 27.2073 0.0000
# 6 0.0000 0.0000 0.0000 0.0000 0.0000 24.1649
#
#
#
# Elastic Compliance Matrix: (Units=1/GPa)
#
#
# Indices 1 2 3 4 5 6 
#
# 1 0.026078 -0.008309 -0.005782 0.000000 0.000000 0.000000
# 2 -0.008309 0.013007 -0.000351 0.000000 0.000000 0.000000
# 3 -0.005782 -0.000351 0.010025 0.000000 0.000000 0.000000
# 4 0.000000 0.000000 0.000000 0.034821 0.000000 0.000000
# 5 0.000000 0.000000 0.000000 0.000000 0.036755 0.000000
# 6 0.000000 0.000000 0.000000 0.000000 0.000000 0.041382
#
#
# Mechanical properties :
#
#
# Convention : Reuss Voigt Hill
#
# Bulk Modulus (GPa) = 49.43812 53.13987 51.28899
# Shear Modulus (GPa) = 25.29150 28.17321 26.73235
#
# Velocity S-wave (km/s) = 3.45888 3.65062 3.55605
# Velocity P-wave (km/s) = 6.27200 6.55032 6.41267
#
# Compressibility (1/GPa) = 0.02022731
#
# Stress axis : x y z
#
# Youngs Moduli (GPa) = 38.34593 76.88034 99.74836
#
# Poissons Ratio (x) = 0.63878 0.57677
# Poissons Ratio (y) = 0.31861 0.03499
# Poissons Ratio (z) = 0.22172 0.02697
#
# Static dielectric constant tensor:
#      x y z
#    x 1.819170 0.000000 0.000000 
#    y 0.000000 1.894040 0.000000 
#    z 0.000000 0.000000 1.915940 
# 
# From -- ./inp_files/6552.got.cif
#   From: 2010.05.17/outbox.cif.g08.bks.cpg/sg24_4_cif.got.tgz:6552.got - 2010.06.04 00:33:39.
