data_PCOD9336221
_publ_section_title
;
Structure prediction by ZEFSAII (Michael W. Deem and Ramdas Pophale) SiO2 
 PCOD9336221
Probable space group: I 21 21 21
;
_chemical_formula_sum "Si O2"
_cell_formula_units_Z 56
_cell_length_a 15.624570
_cell_length_b 13.403237
_cell_length_c 12.708149
_cell_angle_alpha 90.000000
_cell_angle_beta 90.000000
_cell_angle_gamma 90.000000
_cell_volume 2661.338209
_symmetry_space_group_name_H-M "I 21 21 21"
_symmetry_group_IT_number 24
_symmetry_cell_setting 'orthorhombic'
loop_
_space_group_symop_operation_xyz
x,y,z
-x,1/2-y,z
x,-y,1/2-z
1/2-x,y,-z
1/2+x,1/2+y,1/2+z
1/2-x,-y,1/2+z
1/2+x,1/2-y,-z
-x,1/2+y,1/2-z
loop_
_atom_site_type_symbol
_atom_site_label
_atom_site_fract_x
_atom_site_fract_y
_atom_site_fract_z
Si Si1 0.634290 0.315632 0.748556
Si Si2 0.794280 0.317602 0.889368
Si Si3 0.434195 0.021242 0.129673
Si Si4 0.104804 0.634241 0.575724
Si Si5 0.865658 0.908205 0.172026
Si Si6 0.033303 0.136865 0.452505
Si Si7 0.750000 0.017199 0.500000
Si Si8 0.000000 0.250000 0.099894
O O1 0.721672 0.346373 0.805019
O O2 0.637329 0.196240 0.731915
O O3 0.608553 0.359534 0.635258
O O4 0.553756 0.326322 0.827635
O O5 0.860351 0.405884 0.911824
O O6 0.848756 0.220086 0.856280
O O7 0.750000 0.290131 0.000000
O O8 0.524426 0.079775 0.127735
O O9 0.412855 0.000000 0.250000
O O10 0.442069 0.924608 0.055550
O O11 0.174656 0.553796 0.541584
O O12 0.065465 0.690912 0.474367
O O13 0.952501 0.914108 0.104593
O O14 0.861015 0.000000 0.250000
O O15 0.787033 0.915817 0.092504
O O16 0.000000 0.250000 0.473695
#
# Coordination Sequence:
#
# PCOD9336221 Si02
#       8
#     8   8   8   8   8   8   4   4
#     4  11  23  42  72 105 138 188 238 298 358 414
#     4  12  24  43  70 106 144 180 238 296 353 430
#     4  12  28  47  69  98 144 197 237 284 365 440
#     4  12  22  41  70 106 142 181 228 299 353 430
#     4  11  22  40  67 104 141 177 232 294 357 413
#     4  10  24  47  73 100 135 188 249 299 353 422
#     4  12  24  38  66 108 140 178 232 292 354 426
#     4  12  18  40  74 104 136 178 230 282 366 412
#
# _framework density 21.042044000000001
#
# number of rings (size 3 to 8) (size 9 to 14) (size 15 to 20)
#    0.000    0.571    7.143    1.714    0.000    5.143 
#    5.143    0.000    0.000    0.000    0.000    0.000 
#    0.000    0.000    0.000    0.000    0.000    0.000 
#
# Total GULP energy -156658.018152 kJ/mol
# GULP energy per Si atom -5594.929220 kJ/mol
# Density = 2.099415 g / cm^3
# Si number density = 21.042044 Si / 1000 Ang^3
#
#
#
# Elastic Constant Matrix: (Units=GPa)
#
#
# Indices 1 2 3 4 5 6 
#
# 1 112.1872 27.6774 19.6706 0.0000 0.0000 0.0000
# 2 27.6774 33.6182 23.5106 0.0000 0.0000 0.0000
# 3 19.6706 23.5106 70.0748 0.0000 0.0000 0.0000
# 4 0.0000 0.0000 0.0000 33.3011 0.0000 0.0000
# 5 0.0000 0.0000 0.0000 0.0000 2.2846 0.0000
# 6 0.0000 0.0000 0.0000 0.0000 0.0000 20.8988
#
#
#
# Elastic Compliance Matrix: (Units=1/GPa)
#
#
# Indices 1 2 3 4 5 6 
#
# 1 0.011186 -0.009163 -0.000066 0.000000 0.000000 0.000000
# 2 -0.009163 0.046371 -0.012986 0.000000 0.000000 0.000000
# 3 -0.000066 -0.012986 0.018646 0.000000 0.000000 0.000000
# 4 0.000000 0.000000 0.000000 0.030029 0.000000 0.000000
# 5 0.000000 0.000000 0.000000 0.000000 0.437707 0.000000
# 6 0.000000 0.000000 0.000000 0.000000 0.000000 0.047850
#
#
# Mechanical properties :
#
#
# Convention : Reuss Voigt Hill
#
# Bulk Modulus (GPa) = 31.47267 39.73304 35.60285
# Shear Modulus (GPa) = 7.73026 20.96503 14.34764
#
# Velocity S-wave (km/s) = 1.91877 3.15991 2.61407
# Velocity P-wave (km/s) = 4.46077 5.67777 5.10566
#
# Compressibility (1/GPa) = 0.03177360
#
# Stress axis : x y z
#
# Youngs Moduli (GPa) = 89.39885 21.56513 53.63173
#
# Poissons Ratio (x) = 0.19761 0.00352
# Poissons Ratio (y) = 0.81918 0.69644
# Poissons Ratio (z) = 0.00587 0.28004
#
# Static dielectric constant tensor:
#      x y z
#    x 1.747860 0.000000 0.000000 
#    y 0.000000 1.764040 0.000000 
#    z 0.000000 0.000000 1.753780 
# 
# From -- ./inp_files/20888.got.cif
#   From: 2010.05.17/outbox.cif.g08.bks.cpg/sg24_11_cif.got.tgz:20888.got - 2010.06.04 00:33:39.
