data_PCOD9336860
_publ_section_title
;
Structure prediction by ZEFSAII (Michael W. Deem and Ramdas Pophale) SiO2 
 PCOD9336860
Probable space group: I 21 21 21
;
_chemical_formula_sum "Si O2"
_cell_formula_units_Z 40
_cell_length_a 5.450575
_cell_length_b 21.246259
_cell_length_c 16.362887
_cell_angle_alpha 90.000000
_cell_angle_beta 90.000000
_cell_angle_gamma 90.000000
_cell_volume 1894.893136
_symmetry_space_group_name_H-M "I 21 21 21"
_symmetry_group_IT_number 24
_symmetry_cell_setting 'orthorhombic'
loop_
_space_group_symop_operation_xyz
x,y,z
-x,1/2-y,z
x,-y,1/2-z
1/2-x,y,-z
1/2+x,1/2+y,1/2+z
1/2-x,-y,1/2+z
1/2+x,1/2-y,-z
-x,1/2+y,1/2-z
loop_
_atom_site_type_symbol
_atom_site_label
_atom_site_fract_x
_atom_site_fract_y
_atom_site_fract_z
Si Si1 0.501537 0.066023 0.947151
Si Si2 0.500000 0.750000 0.811677
Si Si3 0.608106 0.000000 0.250000
Si Si4 0.539459 0.117289 0.779412
Si Si5 0.500000 0.750000 0.081508
Si Si6 0.282274 0.953635 0.856290
Si Si7 0.750000 0.644833 0.000000
O O1 0.506429 0.118764 0.876503
O O2 0.478688 0.002319 0.892548
O O3 0.750000 0.066919 0.000000
O O4 0.250000 0.068747 0.000000
O O5 0.540674 0.813363 0.758772
O O6 0.247997 0.753787 0.864631
O O7 0.743183 0.932232 0.258529
O O8 0.459883 0.992254 0.164764
O O9 0.329911 0.079418 0.730410
O O10 0.524021 0.689860 0.022617
O O11 0.275341 0.899517 0.922506
#
# Coordination Sequence:
#
# PCOD9336860 Si02
#       7
#     8   4   4   8   4   8   4
#     4  12  26  44  72 108 142 185 247 323 384 445
#     4  12  29  50  78 105 150 216 254 313 392 476
#     4  12  22  46  76 110 154 200 260 324 376 462
#     4  12  26  46  72 110 148 199 257 314 389 469
#     4  12  27  50  68 109 160 202 254 301 378 488
#     4  12  24  42  73 107 151 197 247 316 382 459
#     4  12  26  44  70 110 160 200 256 310 388 464
#
# _framework density 21.109369000000001
#
# number of rings (size 3 to 8) (size 9 to 14) (size 15 to 20)
#    0.000    0.000    7.000    3.000    0.000    1.600 
#    3.600    1.000    0.000    0.000    0.000    0.000 
#    0.000    0.000    0.000    0.000    0.000    0.000 
#
# Total GULP energy -111587.417044 kJ/mol
# GULP energy per Si atom -5579.370852 kJ/mol
# Density = 2.106132 g / cm^3
# Si number density = 21.109369 Si / 1000 Ang^3
#
#
#
# Elastic Constant Matrix: (Units=GPa)
#
#
# Indices 1 2 3 4 5 6 
#
# 1 142.1547 65.9043 73.0913 0.0000 0.0000 0.0000
# 2 65.9043 142.5558 63.7277 0.0000 0.0000 0.0000
# 3 73.0913 63.7277 136.5881 0.0000 0.0000 0.0000
# 4 0.0000 0.0000 0.0000 56.4497 0.0000 0.0000
# 5 0.0000 0.0000 0.0000 0.0000 40.6081 0.0000
# 6 0.0000 0.0000 0.0000 0.0000 0.0000 6.8480
#
#
#
# Elastic Compliance Matrix: (Units=1/GPa)
#
#
# Indices 1 2 3 4 5 6 
#
# 1 0.010630 -0.002996 -0.004290 0.000000 0.000000 0.000000
# 2 -0.002996 0.009708 -0.002926 0.000000 0.000000 0.000000
# 3 -0.004290 -0.002926 0.010982 0.000000 0.000000 0.000000
# 4 0.000000 0.000000 0.000000 0.017715 0.000000 0.000000
# 5 0.000000 0.000000 0.000000 0.000000 0.024626 0.000000
# 6 0.000000 0.000000 0.000000 0.000000 0.000000 0.146029
#
#
# Mechanical properties :
#
#
# Convention : Reuss Voigt Hill
#
# Bulk Modulus (GPa) = 91.78650 91.86059 91.82355
# Shear Modulus (GPa) = 20.51319 35.35285 27.93302
#
# Velocity S-wave (km/s) = 3.12068 4.09681 3.64160
# Velocity P-wave (km/s) = 7.52068 8.12339 7.82784
#
# Compressibility (1/GPa) = 0.01089485
#
# Stress axis : x y z
#
# Youngs Moduli (GPa) = 94.07752 103.00726 91.05578
#
# Poissons Ratio (x) = 0.30863 0.39064
# Poissons Ratio (y) = 0.28188 0.26644
# Poissons Ratio (z) = 0.40361 0.30141
#
# Static dielectric constant tensor:
#      x y z
#    x 1.860450 0.000000 0.000000 
#    y 0.000000 1.780760 0.000000 
#    z 0.000000 0.000000 1.821920 
# 
# From -- ./inp_files/28734.got.cif
#   From: 2010.05.17/outbox.cif.g08.bks.cpg/sg24_15_cif.got.tgz:28734.got - 2010.06.04 00:33:39.
