data_PCOD9336390
_publ_section_title
;
Structure prediction by ZEFSAII (Michael W. Deem and Ramdas Pophale) SiO2 
 PCOD9336390
Probable space group: I 21 21 21
;
_chemical_formula_sum "Si O2"
_cell_formula_units_Z 44
_cell_length_a 9.597699
_cell_length_b 18.819827
_cell_length_c 13.284214
_cell_angle_alpha 90.000000
_cell_angle_beta 90.000000
_cell_angle_gamma 90.000000
_cell_volume 2399.488184
_symmetry_space_group_name_H-M "I 21 21 21"
_symmetry_group_IT_number 24
_symmetry_cell_setting 'orthorhombic'
loop_
_space_group_symop_operation_xyz
x,y,z
-x,1/2-y,z
x,-y,1/2-z
1/2-x,y,-z
1/2+x,1/2+y,1/2+z
1/2-x,-y,1/2+z
1/2+x,1/2-y,-z
-x,1/2+y,1/2-z
loop_
_atom_site_type_symbol
_atom_site_label
_atom_site_fract_x
_atom_site_fract_y
_atom_site_fract_z
Si Si1 0.538517 0.500000 0.750000
Si Si2 0.380860 0.925774 0.424213
Si Si3 0.134853 0.431255 0.071532
Si Si4 0.724770 0.575579 0.119606
Si Si5 0.335989 0.730543 0.600374
Si Si6 0.370970 0.195282 0.241795
O O1 0.436599 0.468996 0.834607
O O2 0.641182 0.554888 0.809953
O O3 0.250000 0.918571 0.500000
O O4 0.511070 0.918197 0.494860
O O5 0.393938 0.865646 0.341448
O O6 0.368332 0.003825 0.374891
O O7 0.186106 0.354065 0.106649
O O8 0.250000 0.467939 0.000000
O O9 0.659525 0.648446 0.159789
O O10 0.750000 0.582574 0.000000
O O11 0.500000 0.750000 0.591610
O O12 0.250000 0.753433 0.500000
O O13 0.265154 0.764955 0.698107
O O14 0.500000 0.250000 0.248665
#
# Coordination Sequence:
#
# PCOD9336390 Si02
#       6
#     4   8   8   8   8   8
#     4  12  20  44  66  92 128 172 224 276 322 396
#     4  11  19  39  69  96 121 165 224 276 313 386
#     4  11  23  38  58  97 130 162 210 276 344 379
#     4  11  22  41  70  93 119 172 236 265 300 391
#     4  11  21  36  58  91 130 164 205 265 335 397
#     4  12  23  38  62  96 132 167 208 267 334 391
#
# _framework density 18.337243000000001
#
# number of rings (size 3 to 8) (size 9 to 14) (size 15 to 20)
#    0.000    0.727    5.455    6.545    0.000    0.000 
#    6.545    2.727    0.000    0.000    0.000    0.000 
#    0.000    0.000    0.000    0.000    0.000    0.000 
#
# Total GULP energy -122697.646080 kJ/mol
# GULP energy per Si atom -5577.165731 kJ/mol
# Density = 1.829551 g / cm^3
# Si number density = 18.337243 Si / 1000 Ang^3
#
#
#
# Elastic Constant Matrix: (Units=GPa)
#
#
# Indices 1 2 3 4 5 6 
#
# 1 86.6960 34.1573 38.1594 0.0000 0.0000 0.0000
# 2 34.1573 110.4679 44.6915 0.0000 0.0000 0.0000
# 3 38.1594 44.6915 109.6696 0.0000 0.0000 0.0000
# 4 0.0000 0.0000 0.0000 25.7863 0.0000 0.0000
# 5 0.0000 0.0000 0.0000 0.0000 -20.5791 0.0000
# 6 0.0000 0.0000 0.0000 0.0000 0.0000 25.8462
#
#
#
# Elastic Compliance Matrix: (Units=1/GPa)
#
#
# Indices 1 2 3 4 5 6 
#
# 1 0.014354 -0.002895 -0.003815 0.000000 0.000000 0.000000
# 2 -0.002895 0.011423 -0.003648 0.000000 0.000000 0.000000
# 3 -0.003815 -0.003648 0.011932 0.000000 0.000000 0.000000
# 4 0.000000 0.000000 0.000000 0.038780 0.000000 0.000000
# 5 0.000000 0.000000 0.000000 0.000000 -0.048593 0.000000
# 6 0.000000 0.000000 0.000000 0.000000 0.000000 0.038690
#
#
# Mechanical properties :
#
#
# Convention : Reuss Voigt Hill
#
# Bulk Modulus (GPa) = 58.84268 60.09443 59.46856
# Shear Modulus (GPa) = 53.78216 18.86570 36.32393
#
# Velocity S-wave (km/s) = 5.42154 3.21100 4.45554
# Velocity P-wave (km/s) = 8.44687 6.82571 7.67919
#
# Compressibility (1/GPa) = 0.01699447
#
# Stress axis : x y z
#
# Youngs Moduli (GPa) = 69.66563 87.54000 83.80720
#
# Poissons Ratio (x) = 0.25344 0.31971
# Poissons Ratio (y) = 0.20169 0.30571
# Poissons Ratio (z) = 0.26576 0.31933
#
# Static dielectric constant tensor:
#      x y z
#    x 1.622060 0.000000 0.000000 
#    y 0.000000 1.668630 0.000000 
#    z 0.000000 0.000000 1.636110 
# 
# From -- ./inp_files/12644.got.cif
#   From: 2010.05.17/outbox.cif.g08.bks.cpg/sg24_7_cif.got.tgz:12644.got - 2010.06.04 00:33:39.
