data_PCOD9336266
_publ_section_title
;
Structure prediction by ZEFSAII (Michael W. Deem and Ramdas Pophale) SiO2 
 PCOD9336266
Probable space group: I 21 21 21
;
_chemical_formula_sum "Si O2"
_cell_formula_units_Z 56
_cell_length_a 9.387426
_cell_length_b 21.543627
_cell_length_c 13.948430
_cell_angle_alpha 90.000000
_cell_angle_beta 90.000000
_cell_angle_gamma 90.000000
_cell_volume 2820.919384
_symmetry_space_group_name_H-M "I 21 21 21"
_symmetry_group_IT_number 24
_symmetry_cell_setting 'orthorhombic'
loop_
_space_group_symop_operation_xyz
x,y,z
-x,1/2-y,z
x,-y,1/2-z
1/2-x,y,-z
1/2+x,1/2+y,1/2+z
1/2-x,-y,1/2+z
1/2+x,1/2-y,-z
-x,1/2+y,1/2-z
loop_
_atom_site_type_symbol
_atom_site_label
_atom_site_fract_x
_atom_site_fract_y
_atom_site_fract_z
Si Si1 0.020140 0.177517 0.263973
Si Si2 0.906727 0.688555 0.455016
Si Si3 0.099734 0.586539 0.555277
Si Si4 0.148224 0.731065 0.914235
Si Si5 0.238010 0.866526 0.886406
Si Si6 0.300076 0.628569 0.236250
Si Si7 0.492091 0.534147 0.152915
O O1 0.111642 0.131963 0.331923
O O2 0.000000 0.250000 0.296992
O O3 0.863966 0.147477 0.253039
O O4 0.095687 0.181809 0.160232
O O5 0.750000 0.693993 0.500000
O O6 0.000000 0.750000 0.476030
O O7 0.990535 0.630222 0.498953
O O8 0.250000 0.582357 0.500000
O O9 0.132115 0.617410 0.659401
O O10 0.032377 0.518558 0.573683
O O11 0.199264 0.794897 0.867530
O O12 0.133067 0.682587 0.829173
O O13 0.000000 0.750000 0.961893
O O14 0.250000 0.709019 0.000000
O O15 0.113873 0.914542 0.861569
O O16 0.250000 0.871446 0.000000
O O17 0.341120 0.567318 0.175843
O O18 0.535434 0.500000 0.250000
#
# Coordination Sequence:
#
# PCOD9336266 Si02
#       7
#     8   8   8   8   8   8   8
#     4  11  24  42  68 108 141 171 223 287 352 411
#     4  11  26  43  72 107 139 177 225 288 355 419
#     4  11  24  47  71 100 136 181 240 282 339 422
#     4  11  24  39  67 100 135 175 217 277 347 402
#     4  11  25  42  64 100 138 177 226 280 336 412
#     4  11  23  43  69  98 137 176 223 285 346 407
#     4  10  25  46  66  93 133 184 234 274 335 406
#
# _framework density 19.851685
#
# number of rings (size 3 to 8) (size 9 to 14) (size 15 to 20)
#    0.000    1.143    4.286    0.429   10.000    2.857 
#    0.000    2.143    0.000    0.000    0.000    0.000 
#    0.000    0.000    0.000    0.000    0.000    0.000 
#
# Total GULP energy -156252.540160 kJ/mol
# GULP energy per Si atom -5580.447863 kJ/mol
# Density = 1.980650 g / cm^3
# Si number density = 19.851685 Si / 1000 Ang^3
#
#
#
# Elastic Constant Matrix: (Units=GPa)
#
#
# Indices 1 2 3 4 5 6 
#
# 1 108.6348 23.2804 46.4225 0.0000 0.0000 0.0000
# 2 23.2804 98.3945 48.9365 -0.0001 0.0000 0.0000
# 3 46.4225 48.9365 94.6094 -0.0001 0.0000 0.0000
# 4 0.0000 -0.0001 -0.0001 -39.7262 0.0000 0.0001
# 5 0.0000 0.0000 0.0000 0.0000 22.2695 0.0000
# 6 0.0000 0.0000 0.0000 0.0001 0.0000 25.5452
#
#
#
# Elastic Compliance Matrix: (Units=1/GPa)
#
#
# Indices 1 2 3 4 5 6 
#
# 1 0.011648 0.000117 -0.005776 0.000000 0.000000 0.000000
# 2 0.000117 0.013684 -0.007135 0.000000 0.000000 0.000000
# 3 -0.005776 -0.007135 0.017095 0.000000 0.000000 0.000000
# 4 0.000000 0.000000 0.000000 -0.025172 0.000000 0.000000
# 5 0.000000 0.000000 0.000000 0.000000 0.044904 0.000000
# 6 0.000000 0.000000 0.000000 0.000000 0.000000 0.039146
#
#
# Mechanical properties :
#
#
# Convention : Reuss Voigt Hill
#
# Bulk Modulus (GPa) = 59.38958 59.87973 59.63465
# Shear Modulus (GPa) = 37.73360 13.81766 25.77563
#
# Velocity S-wave (km/s) = 4.36452 2.64113 3.60726
# Velocity P-wave (km/s) = 7.44179 6.28727 6.88876
#
# Compressibility (1/GPa) = 0.01683797
#
# Stress axis : x y z
#
# Youngs Moduli (GPa) = 85.84905 73.07598 58.49786
#
# Poissons Ratio (x) = -0.00852 0.33788
# Poissons Ratio (y) = -0.01001 0.41741
# Poissons Ratio (z) = 0.49585 0.52143
#
# Static dielectric constant tensor:
#      x y z
#    x 1.834580 0.000000 0.000000 
#    y 0.000000 2.258390 0.000000 
#    z 0.000000 0.000000 1.706340 
# 
# From -- ./inp_files/25070.got.cif
#   From: 2010.05.17/outbox.cif.g08.bks.cpg/sg24_13_cif.got.tgz:25070.got - 2010.06.04 00:33:39.
