data_PCOD9336748
_publ_section_title
;
Structure prediction by ZEFSAII (Michael W. Deem and Ramdas Pophale) SiO2 
 PCOD9336748
Probable space group: I 21 21 21
;
_chemical_formula_sum "Si O2"
_cell_formula_units_Z 36
_cell_length_a 22.452809
_cell_length_b 7.912239
_cell_length_c 9.396422
_cell_angle_alpha 90.000000
_cell_angle_beta 90.000000
_cell_angle_gamma 90.000000
_cell_volume 1669.293077
_symmetry_space_group_name_H-M "I 21 21 21"
_symmetry_group_IT_number 24
_symmetry_cell_setting 'orthorhombic'
loop_
_space_group_symop_operation_xyz
x,y,z
-x,1/2-y,z
x,-y,1/2-z
1/2-x,y,-z
1/2+x,1/2+y,1/2+z
1/2-x,-y,1/2+z
1/2+x,1/2-y,-z
-x,1/2+y,1/2-z
loop_
_atom_site_type_symbol
_atom_site_label
_atom_site_fract_x
_atom_site_fract_y
_atom_site_fract_z
Si Si1 0.250000 0.221602 0.500000
Si Si2 0.637311 0.144878 0.632360
Si Si3 0.447960 0.493985 0.091890
Si Si4 0.314932 0.000000 0.250000
Si Si5 0.889182 0.500000 0.250000
Si Si6 0.425319 0.897746 0.447010
O O1 0.303674 0.346246 0.539359
O O2 0.274190 0.109225 0.362949
O O3 0.641746 0.324812 0.711026
O O4 0.635244 0.000000 0.750000
O O5 0.582666 0.116169 0.522630
O O6 0.420998 0.500000 0.250000
O O7 0.438334 0.300663 0.046869
O O8 0.519207 0.510323 0.107296
O O9 0.363533 0.917641 0.360259
O O10 0.923236 0.541788 0.392018
#
# Coordination Sequence:
#
# PCOD9336748 Si02
#       6
#     4   8   8   4   4   8
#     4  12  28  46  76 108 148 204 254 306 382 450
#     4  12  27  51  73 110 151 195 253 313 375 455
#     4  11  25  44  74 114 152 195 248 316 383 451
#     4  12  25  48  74 112 152 203 254 310 372 462
#     4  12  25  48  74 110 148 195 240 306 382 444
#     4  11  25  44  76 109 152 202 247 310 387 447
#
# _framework density 21.566015
#
# number of rings (size 3 to 8) (size 9 to 14) (size 15 to 20)
#    0.000    0.444    5.556    2.000    1.556    3.556 
#    0.000    0.000    0.000    0.000    0.000    0.000 
#    0.000    0.000    0.000    0.000    0.000    0.000 
#
# Total GULP energy -100252.695034 kJ/mol
# GULP energy per Si atom -5569.594169 kJ/mol
# Density = 2.151693 g / cm^3
# Si number density = 21.566015 Si / 1000 Ang^3
#
#
#
# Elastic Constant Matrix: (Units=GPa)
#
#
# Indices 1 2 3 4 5 6 
#
# 1 117.0291 28.1994 44.7063 0.0000 0.0000 0.0000
# 2 28.1994 84.7684 31.4100 0.0000 0.0000 0.0000
# 3 44.7063 31.4100 155.1057 0.0000 0.0000 0.0000
# 4 0.0000 0.0000 0.0000 23.5773 0.0000 0.0000
# 5 0.0000 0.0000 0.0000 0.0000 140.8815 0.0000
# 6 0.0000 0.0000 0.0000 0.0000 0.0000 28.9196
#
#
#
# Elastic Compliance Matrix: (Units=1/GPa)
#
#
# Indices 1 2 3 4 5 6 
#
# 1 0.010053 -0.002455 -0.002401 0.000000 0.000000 0.000000
# 2 -0.002455 0.013353 -0.001997 0.000000 0.000000 0.000000
# 3 -0.002401 -0.001997 0.007543 0.000000 0.000000 0.000000
# 4 0.000000 0.000000 0.000000 0.042414 0.000000 0.000000
# 5 0.000000 0.000000 0.000000 0.000000 0.007098 0.000000
# 6 0.000000 0.000000 0.000000 0.000000 0.000000 0.034579
#
#
# Mechanical properties :
#
#
# Convention : Reuss Voigt Hill
#
# Bulk Modulus (GPa) = 57.98406 62.83720 60.41063
# Shear Modulus (GPa) = 37.17648 55.51482 46.34565
#
# Velocity S-wave (km/s) = 4.15643 5.07914 4.64077
# Velocity P-wave (km/s) = 7.06963 7.97479 7.53581
#
# Compressibility (1/GPa) = 0.01724612
#
# Stress axis : x y z
#
# Youngs Moduli (GPa) = 99.46809 74.88772 132.56519
#
# Poissons Ratio (x) = 0.18384 0.31823
# Poissons Ratio (y) = 0.24419 0.26467
# Poissons Ratio (z) = 0.23878 0.14952
#
# Static dielectric constant tensor:
#      x y z
#    x 1.822310 0.000000 0.000000 
#    y 0.000000 1.498330 0.000000 
#    z 0.000000 0.000000 1.811890 
# 
# From -- ./inp_files/9117.got.cif
#   From: 2010.05.17/outbox.cif.g08.bks.cpg/sg24_5_cif.got.tgz:9117.got - 2010.06.04 00:33:39.
