data_PCOD9336202
_publ_section_title
;
Structure prediction by ZEFSAII (Michael W. Deem and Ramdas Pophale) SiO2 
 PCOD9336202
Probable space group: I 21 21 21
;
_chemical_formula_sum "Si O2"
_cell_formula_units_Z 40
_cell_length_a 5.311798
_cell_length_b 20.122149
_cell_length_c 15.407559
_cell_angle_alpha 90.000000
_cell_angle_beta 90.000000
_cell_angle_gamma 90.000000
_cell_volume 1646.833721
_symmetry_space_group_name_H-M "I 21 21 21"
_symmetry_group_IT_number 24
_symmetry_cell_setting 'orthorhombic'
loop_
_space_group_symop_operation_xyz
x,y,z
-x,1/2-y,z
x,-y,1/2-z
1/2-x,y,-z
1/2+x,1/2+y,1/2+z
1/2-x,-y,1/2+z
1/2+x,1/2-y,-z
-x,1/2+y,1/2-z
loop_
_atom_site_type_symbol
_atom_site_label
_atom_site_fract_x
_atom_site_fract_y
_atom_site_fract_z
Si Si1 0.610392 0.500000 0.750000
Si Si2 0.750000 0.970058 0.000000
Si Si3 0.500000 0.750000 0.444359
Si Si4 0.756642 0.888722 0.835579
Si Si5 0.000000 0.250000 0.314357
Si Si6 0.872415 0.569338 0.409131
Si Si7 0.848766 0.666741 0.701894
O O1 0.431348 0.559243 0.786941
O O2 0.764115 0.524507 0.665546
O O3 0.645223 0.920985 0.074474
O O4 0.911643 0.021072 0.057562
O O5 0.750000 0.746559 0.500000
O O6 0.480655 0.687965 0.378892
O O7 0.604160 0.819337 0.856119
O O8 0.987446 0.873926 0.770888
O O9 0.770137 0.273478 0.255039
O O10 0.750000 0.587222 0.500000
O O11 0.888358 0.634625 0.350712
#
# Coordination Sequence:
#
# PCOD9336202 Si02
#       7
#     4   4   4   8   4   8   8
#     4  10  24  46  72 106 152 194 252 324 398 480
#     4  10  28  52  70 120 154 194 276 338 412 498
#     4  12  27  48  73 116 168 210 268 337 406 513
#     4  11  25  48  78 106 154 204 266 334 415 494
#     4  12  23  50  73 112 148 210 268 331 418 493
#     4  11  26  43  73 109 146 201 251 320 399 484
#     4  12  26  44  77 108 154 209 260 327 415 493
#
# _framework density 24.289033
#
# number of rings (size 3 to 8) (size 9 to 14) (size 15 to 20)
#    0.000    0.800    4.000    1.200    8.400    1.600 
#    9.000    0.000    0.000    0.000    0.000    0.000 
#    0.000    0.000    0.000    0.000    0.000    0.000 
#
# Total GULP energy -111390.446480 kJ/mol
# GULP energy per Si atom -5569.522324 kJ/mol
# Density = 2.423375 g / cm^3
# Si number density = 24.289033 Si / 1000 Ang^3
#
#
#
# Elastic Constant Matrix: (Units=GPa)
#
#
# Indices 1 2 3 4 5 6 
#
# 1 69.7823 20.5510 32.1699 0.0000 0.0000 0.0000
# 2 20.5510 110.9246 27.6950 0.0000 0.0000 0.0000
# 3 32.1699 27.6950 131.8624 0.0000 0.0000 0.0000
# 4 0.0000 0.0000 0.0000 -80.7563 0.0000 0.0000
# 5 0.0000 0.0000 0.0000 0.0000 15.3027 0.0000
# 6 0.0000 0.0000 0.0000 0.0000 0.0000 38.3432
#
#
#
# Elastic Compliance Matrix: (Units=1/GPa)
#
#
# Indices 1 2 3 4 5 6 
#
# 1 0.016632 -0.002183 -0.003599 0.000000 0.000000 0.000000
# 2 -0.002183 0.009801 -0.001526 0.000000 0.000000 0.000000
# 3 -0.003599 -0.001526 0.008782 0.000000 0.000000 0.000000
# 4 0.000000 0.000000 0.000000 -0.012383 0.000000 0.000000
# 5 0.000000 0.000000 0.000000 0.000000 0.065348 0.000000
# 6 0.000000 0.000000 0.000000 0.000000 0.000000 0.026080
#
#
# Mechanical properties :
#
#
# Convention : Reuss Voigt Hill
#
# Bulk Modulus (GPa) = 48.54552 52.60011 50.57282
# Shear Modulus (GPa) = 36.83440 10.05481 23.44461
#
# Velocity S-wave (km/s) = 3.89846 2.03682 3.11019
# Velocity P-wave (km/s) = 6.34775 5.21866 5.81070
#
# Compressibility (1/GPa) = 0.02059922
#
# Stress axis : x y z
#
# Youngs Moduli (GPa) = 60.12355 102.03541 113.86618
#
# Poissons Ratio (x) = 0.22273 0.40984
# Poissons Ratio (y) = 0.13124 0.17374
# Poissons Ratio (z) = 0.21640 0.15569
#
# Static dielectric constant tensor:
#      x y z
#    x 2.041400 0.000000 0.000000 
#    y 0.000000 2.193720 0.000000 
#    z 0.000000 0.000000 1.968520 
# 
# From -- ./inp_files/23757.got.cif
#   From: 2010.05.17/outbox.cif.g08.bks.cpg/sg24_12_cif.got.tgz:23757.got - 2010.06.04 00:33:39.
