data_PCOD9336152
_publ_section_title
;
Structure prediction by ZEFSAII (Michael W. Deem and Ramdas Pophale) SiO2 
 PCOD9336152
Probable space group: I 21 21 21
;
_chemical_formula_sum "Si O2"
_cell_formula_units_Z 56
_cell_length_a 14.623101
_cell_length_b 12.385445
_cell_length_c 14.372869
_cell_angle_alpha 90.000000
_cell_angle_beta 90.000000
_cell_angle_gamma 90.000000
_cell_volume 2603.122236
_symmetry_space_group_name_H-M "I 21 21 21"
_symmetry_group_IT_number 24
_symmetry_cell_setting 'orthorhombic'
loop_
_space_group_symop_operation_xyz
x,y,z
-x,1/2-y,z
x,-y,1/2-z
1/2-x,y,-z
1/2+x,1/2+y,1/2+z
1/2-x,-y,1/2+z
1/2+x,1/2-y,-z
-x,1/2+y,1/2-z
loop_
_atom_site_type_symbol
_atom_site_label
_atom_site_fract_x
_atom_site_fract_y
_atom_site_fract_z
Si Si1 0.471810 0.925796 0.383034
Si Si2 0.240059 0.767013 0.232293
Si Si3 0.647337 0.493549 0.537259
Si Si4 0.750000 0.077868 0.500000
Si Si5 0.180151 0.428232 0.841624
Si Si6 0.109139 0.250155 0.435984
Si Si7 0.425625 0.165446 0.310300
Si Si8 0.827181 0.500000 0.250000
O O1 0.580341 0.906199 0.385523
O O2 0.432635 0.848793 0.302247
O O3 0.420817 0.927842 0.481623
O O4 0.448576 0.047706 0.348458
O O5 0.264521 0.677493 0.308372
O O6 0.153055 0.742819 0.168031
O O7 0.329524 0.779288 0.168823
O O8 0.229874 0.890768 0.263503
O O9 0.750000 0.519510 0.500000
O O10 0.635408 0.365431 0.519864
O O11 0.627193 0.495775 0.648384
O O12 0.839758 0.151981 0.487386
O O13 0.737478 0.001531 0.411296
O O14 0.160983 0.500000 0.750000
O O15 0.000000 0.250000 0.432767
O O16 0.500000 0.250000 0.342837
#
# Coordination Sequence:
#
# PCOD9336152 Si02
#       8
#     8   8   8   4   8   8   8   4
#     4  11  22  38  67 105 139 178 236 292 374 437
#     4  11  22  45  69  96 144 187 234 299 363 429
#     4  11  22  42  68 102 140 184 238 303 367 432
#     4  12  26  44  68 104 148 186 244 306 376 444
#     4  12  23  45  69 104 142 185 230 302 376 435
#     4  11  24  43  69 105 136 187 245 296 362 440
#     4  11  20  35  63 106 140 172 220 293 362 429
#     4  10  24  44  68 100 140 202 242 300 370 428
#
# _framework density 21.512629
#
# number of rings (size 3 to 8) (size 9 to 14) (size 15 to 20)
#    0.000    0.857    5.000    4.286    0.000    0.571 
#    3.857    8.571    0.000    0.857    0.000    0.000 
#    0.000    0.000    0.000    0.000    0.000    0.000 
#
# Total GULP energy -156361.277074 kJ/mol
# GULP energy per Si atom -5584.331324 kJ/mol
# Density = 2.146367 g / cm^3
# Si number density = 21.512629 Si / 1000 Ang^3
#
#
#
# Elastic Constant Matrix: (Units=GPa)
#
#
# Indices 1 2 3 4 5 6 
#
# 1 126.5788 47.3698 48.5117 0.0000 0.0000 0.0000
# 2 47.3698 101.9604 33.5636 0.0000 0.0000 0.0000
# 3 48.5117 33.5636 114.3348 0.0000 0.0000 0.0000
# 4 0.0000 0.0000 0.0000 24.9430 0.0000 0.0000
# 5 0.0000 0.0000 0.0000 0.0000 15.7669 0.0000
# 6 0.0000 0.0000 0.0000 0.0000 0.0000 23.2181
#
#
#
# Elastic Compliance Matrix: (Units=1/GPa)
#
#
# Indices 1 2 3 4 5 6 
#
# 1 0.010629 -0.003823 -0.003388 0.000000 0.000000 0.000000
# 2 -0.003823 0.012232 -0.001969 0.000000 0.000000 0.000000
# 3 -0.003388 -0.001969 0.010762 0.000000 0.000000 0.000000
# 4 0.000000 0.000000 0.000000 0.040091 0.000000 0.000000
# 5 0.000000 0.000000 0.000000 0.000000 0.063424 0.000000
# 6 0.000000 0.000000 0.000000 0.000000 0.000000 0.043070
#
#
# Mechanical properties :
#
#
# Convention : Reuss Voigt Hill
#
# Bulk Modulus (GPa) = 65.51378 66.86265 66.18822
# Shear Modulus (GPa) = 24.55135 27.01419 25.78277
#
# Velocity S-wave (km/s) = 3.38191 3.54748 3.46568
# Velocity P-wave (km/s) = 6.76532 6.92298 6.84460
#
# Compressibility (1/GPa) = 0.01526396
#
# Stress axis : x y z
#
# Youngs Moduli (GPa) = 94.07982 81.75315 92.92373
#
# Poissons Ratio (x) = 0.31255 0.31479
# Poissons Ratio (y) = 0.35968 0.18293
# Poissons Ratio (z) = 0.31871 0.16094
#
# Static dielectric constant tensor:
#      x y z
#    x 1.942090 0.000000 0.000000 
#    y 0.000000 1.724860 0.000000 
#    z 0.000000 0.000000 1.926220 
# 
# From -- ./inp_files/26579.got.cif
#   From: 2010.05.17/outbox.cif.g08.bks.cpg/sg24_14_cif.got.tgz:26579.got - 2010.06.04 00:33:39.
