data_PCOD9336837
_publ_section_title
;
Structure prediction by ZEFSAII (Michael W. Deem and Ramdas Pophale) SiO2 
 PCOD9336837
Probable space group: I 21 21 21
;
_chemical_formula_sum "Si O2"
_cell_formula_units_Z 24
_cell_length_a 10.823796
_cell_length_b 20.915834
_cell_length_c 4.871088
_cell_angle_alpha 90.000000
_cell_angle_beta 90.000000
_cell_angle_gamma 90.000000
_cell_volume 1102.759379
_symmetry_space_group_name_H-M "I 21 21 21"
_symmetry_group_IT_number 24
_symmetry_cell_setting 'orthorhombic'
loop_
_space_group_symop_operation_xyz
x,y,z
-x,1/2-y,z
x,-y,1/2-z
1/2-x,y,-z
1/2+x,1/2+y,1/2+z
1/2-x,-y,1/2+z
1/2+x,1/2-y,-z
-x,1/2+y,1/2-z
loop_
_atom_site_type_symbol
_atom_site_label
_atom_site_fract_x
_atom_site_fract_y
_atom_site_fract_z
Si Si1 0.104575 0.437522 0.429285
Si Si2 0.629302 0.261283 0.332881
Si Si3 0.963946 0.858313 0.577744
O O1 0.072521 0.500000 0.250000
O O2 0.250000 0.441332 0.500000
O O3 0.040456 0.418837 0.715813
O O4 0.068519 0.380752 0.223245
O O5 0.500000 0.250000 0.501257
O O6 0.750000 0.275643 0.500000
O O7 0.589430 0.317990 0.126185
O O8 0.637001 0.193385 0.180737
#
# Coordination Sequence:
#
# PCOD9336837 Si02
#       3
#     8   8   8
#     4  12  22  37  57  93 128 175 211 270 320 384
#     4   8  19  38  66  95 133 168 213 265 332 386
#     4   9  22  36  61  91 131 163 212 267 325 386
#
# _framework density 21.763589
#
# number of rings (size 3 to 8) (size 9 to 14) (size 15 to 20)
#    2.000    0.000    0.000    5.000    0.000    5.333 
#    0.000    5.000    0.000    4.000    0.000    0.000 
#    0.000    0.000    0.000    0.000    0.000    0.000 
#
# Total GULP energy -66878.499171 kJ/mol
# GULP energy per Si atom -5573.208264 kJ/mol
# Density = 2.171405 g / cm^3
# Si number density = 21.763589 Si / 1000 Ang^3
#
#
#
# Elastic Constant Matrix: (Units=GPa)
#
#
# Indices 1 2 3 4 5 6 
#
# 1 92.6678 12.5791 30.1855 0.0236 -0.0019 -0.0052
# 2 12.5791 95.4079 24.6018 0.0350 0.0106 -0.0060
# 3 30.1855 24.6018 112.4006 0.1078 0.0294 -0.0156
# 4 0.0236 0.0350 0.1078 26.7504 0.0116 -0.0088
# 5 -0.0019 0.0106 0.0294 0.0116 31.7539 -0.0050
# 6 -0.0052 -0.0060 -0.0156 -0.0088 -0.0050 17.6695
#
#
#
# Elastic Compliance Matrix: (Units=1/GPa)
#
#
# Indices 1 2 3 4 5 6 
#
# 1 0.011881 -0.000788 -0.003018 0.000003 0.000004 0.000001
# 2 -0.000788 0.011161 -0.002231 -0.000005 -0.000002 0.000002
# 3 -0.003018 -0.002231 0.010196 -0.000036 -0.000009 0.000007
# 4 0.000003 -0.000005 -0.000036 0.037383 -0.000014 0.000019
# 5 0.000004 -0.000002 -0.000009 -0.000014 0.031492 0.000009
# 6 0.000001 0.000002 0.000007 0.000019 0.000009 0.056595
#
#
# Mechanical properties :
#
#
# Convention : Reuss Voigt Hill
#
# Bulk Modulus (GPa) = 47.25347 48.35658 47.80503
# Shear Modulus (GPa) = 28.11571 30.77543 29.44557
#
# Velocity S-wave (km/s) = 3.59816 3.76450 3.68227
# Velocity P-wave (km/s) = 6.24673 6.41581 6.33183
#
# Compressibility (1/GPa) = 0.02116246
#
# Stress axis : x y z
#
# Youngs Moduli (GPa) = 84.16519 89.60139 98.08076
#
# Poissons Ratio (x) = 0.07063 0.29603
# Poissons Ratio (y) = 0.06634 0.21883
# Poissons Ratio (z) = 0.25403 0.19991
#
# Static dielectric constant tensor:
#      x y z
#    x 1.812530 0.000000 0.000000 
#    y 0.000000 1.858240 0.000000 
#    z 0.000000 0.000000 1.849300 
# 
# From -- ./inp_files/1691.got.cif
#   From: 2010.05.17/outbox.cif.g08.bks.cpg/sg24_1_cif.got.tgz:1691.got - 2010.06.04 00:33:39.
