data_PCOD9336617
_publ_section_title
;
Structure prediction by ZEFSAII (Michael W. Deem and Ramdas Pophale) SiO2 
 PCOD9336617
Probable space group: I 21 21 21
;
_chemical_formula_sum "Si O2"
_cell_formula_units_Z 40
_cell_length_a 14.610014
_cell_length_b 13.604120
_cell_length_c 9.540169
_cell_angle_alpha 90.000000
_cell_angle_beta 90.000000
_cell_angle_gamma 90.000000
_cell_volume 1896.169490
_symmetry_space_group_name_H-M "I 21 21 21"
_symmetry_group_IT_number 24
_symmetry_cell_setting 'orthorhombic'
loop_
_space_group_symop_operation_xyz
x,y,z
-x,1/2-y,z
x,-y,1/2-z
1/2-x,y,-z
1/2+x,1/2+y,1/2+z
1/2-x,-y,1/2+z
1/2+x,1/2-y,-z
-x,1/2+y,1/2-z
loop_
_atom_site_type_symbol
_atom_site_label
_atom_site_fract_x
_atom_site_fract_y
_atom_site_fract_z
Si Si1 0.666931 0.450535 0.400991
Si Si2 0.807404 0.927453 0.642317
Si Si3 0.969694 0.004028 0.026751
Si Si4 0.572521 0.165486 0.743734
Si Si5 0.269134 0.728433 0.155677
O O1 0.670185 0.500000 0.250000
O O2 0.750000 0.485211 0.500000
O O3 0.571632 0.478544 0.475548
O O4 0.686752 0.334422 0.374789
O O5 0.750000 0.909361 0.500000
O O6 0.829875 0.832823 0.735771
O O7 0.899024 0.982106 0.598180
O O8 0.753788 0.000000 0.750000
O O9 0.955927 0.103873 0.117839
O O10 0.936247 0.914090 0.121346
O O11 0.500000 0.250000 0.720486
O O12 0.671122 0.218598 0.734810
O O13 0.250000 0.684899 0.000000
#
# Coordination Sequence:
#
# PCOD9336617 Si02
#       5
#     8   8   8   8   8
#     4  11  27  47  74 102 148 199 243 302 376 459
#     4  12  23  41  71 104 145 182 241 310 374 435
#     4  11  25  44  69 110 146 192 244 314 380 440
#     4  11  23  42  73 106 147 192 248 301 376 456
#     4  11  24  44  70 108 141 193 243 304 369 444
#
# _framework density 21.095161000000001
#
# number of rings (size 3 to 8) (size 9 to 14) (size 15 to 20)
#    0.000    0.800    2.000    6.000    5.600    2.400 
#    0.000    6.000    0.000    0.000    0.000    0.000 
#    0.000    0.000    0.000    0.000    0.000    0.000 
#
# Total GULP energy -111691.971318 kJ/mol
# GULP energy per Si atom -5584.598566 kJ/mol
# Density = 2.104715 g / cm^3
# Si number density = 21.095161 Si / 1000 Ang^3
#
#
#
# Elastic Constant Matrix: (Units=GPa)
#
#
# Indices 1 2 3 4 5 6 
#
# 1 157.4367 47.3320 51.3324 0.0000 0.0000 0.0000
# 2 47.3320 58.5617 34.9279 0.0000 0.0000 0.0000
# 3 51.3324 34.9279 144.0725 0.0000 0.0000 0.0000
# 4 0.0000 0.0000 0.0000 14.5915 0.0000 0.0000
# 5 0.0000 0.0000 0.0000 0.0000 38.9693 0.0000
# 6 0.0000 0.0000 0.0000 0.0000 0.0000 34.4558
#
#
#
# Elastic Compliance Matrix: (Units=1/GPa)
#
#
# Indices 1 2 3 4 5 6 
#
# 1 0.008707 -0.006064 -0.001632 0.000000 0.000000 0.000000
# 2 -0.006064 0.024186 -0.003703 0.000000 0.000000 0.000000
# 3 -0.001632 -0.003703 0.008420 0.000000 0.000000 0.000000
# 4 0.000000 0.000000 0.000000 0.068533 0.000000 0.000000
# 5 0.000000 0.000000 0.000000 0.000000 0.025661 0.000000
# 6 0.000000 0.000000 0.000000 0.000000 0.000000 0.029023
#
#
# Mechanical properties :
#
#
# Convention : Reuss Voigt Hill
#
# Bulk Modulus (GPa) = 54.01042 69.69507 61.85274
# Shear Modulus (GPa) = 25.83987 32.70187 29.27087
#
# Velocity S-wave (km/s) = 3.50368 3.94154 3.72904
# Velocity P-wave (km/s) = 6.48279 7.33651 6.92282
#
# Compressibility (1/GPa) = 0.01851495
#
# Stress axis : x y z
#
# Youngs Moduli (GPa) = 114.85032 41.34697 118.76235
#
# Poissons Ratio (x) = 0.25072 0.19384
# Poissons Ratio (y) = 0.69644 0.43976
# Poissons Ratio (z) = 0.18746 0.15310
#
# Static dielectric constant tensor:
#      x y z
#    x 1.790560 0.000000 0.000000 
#    y 0.000000 1.805450 0.000000 
#    z 0.000000 0.000000 1.796040 
# 
# From -- ./inp_files/12340.got.cif
#   From: 2010.05.17/outbox.cif.g08.bks.cpg/sg24_7_cif.got.tgz:12340.got - 2010.06.04 00:33:39.
