data_PCOD9336955
_publ_section_title
;
Structure prediction by ZEFSAII (Michael W. Deem and Ramdas Pophale) SiO2 
 PCOD9336955
Probable space group: I 21 21 21
;
_chemical_formula_sum "Si O2"
_cell_formula_units_Z 24
_cell_length_a 9.156405
_cell_length_b 5.333944
_cell_length_c 20.758808
_cell_angle_alpha 90.000000
_cell_angle_beta 90.000000
_cell_angle_gamma 90.000000
_cell_volume 1013.855024
_symmetry_space_group_name_H-M "I 21 21 21"
_symmetry_group_IT_number 24
_symmetry_cell_setting 'orthorhombic'
loop_
_space_group_symop_operation_xyz
x,y,z
-x,1/2-y,z
x,-y,1/2-z
1/2-x,y,-z
1/2+x,1/2+y,1/2+z
1/2-x,-y,1/2+z
1/2+x,1/2-y,-z
-x,1/2+y,1/2-z
loop_
_atom_site_type_symbol
_atom_site_label
_atom_site_fract_x
_atom_site_fract_y
_atom_site_fract_z
Si Si1 0.250000 0.052057 0.500000
Si Si2 0.816456 0.752882 0.711728
Si Si3 0.500000 0.750000 0.668143
Si Si4 0.500000 0.750000 0.416531
Si Si5 0.500000 0.750000 0.915064
O O1 0.347335 0.225039 0.546466
O O2 0.385334 0.901401 0.464032
O O3 0.861337 0.500000 0.750000
O O4 0.644011 0.735891 0.708876
O O5 0.877632 0.806600 0.639584
O O6 0.852621 0.000000 0.750000
O O7 0.492612 0.502357 0.625307
#
# Coordination Sequence:
#
# PCOD9336955 Si02
#       5
#     4   8   4   4   4
#     4  12  30  50  88 120 172 222 282 346 418 506
#     4  12  27  51  83 118 164 220 278 347 410 494
#     4  12  25  51  78 122 162 214 278 342 414 496
#     4  12  29  54  81 125 166 221 280 340 426 494
#     4  12  28  49  79 119 162 221 270 348 408 498
#
# _framework density 23.672025000000001
#
# number of rings (size 3 to 8) (size 9 to 14) (size 15 to 20)
#    0.000    0.000    3.333    5.000    4.667    1.333 
#    0.000    0.000    0.000    0.000    0.000    0.000 
#    0.000    0.000    0.000    0.000    0.000    0.000 
#
# Total GULP energy -66806.186638 kJ/mol
# GULP energy per Si atom -5567.182220 kJ/mol
# Density = 2.361815 g / cm^3
# Si number density = 23.672025 Si / 1000 Ang^3
#
#
#
# Elastic Constant Matrix: (Units=GPa)
#
#
# Indices 1 2 3 4 5 6 
#
# 1 260.6058 59.4210 34.9465 0.0000 0.0000 0.0000
# 2 59.4210 198.2169 68.6935 0.0000 0.0000 0.0000
# 3 34.9465 68.6935 72.8204 0.0000 0.0000 0.0000
# 4 0.0000 0.0000 0.0000 448.7994 0.0000 0.0000
# 5 0.0000 0.0000 0.0000 0.0000 78.8424 0.0000
# 6 0.0000 0.0000 0.0000 0.0000 0.0000 55.0621
#
#
#
# Elastic Compliance Matrix: (Units=1/GPa)
#
#
# Indices 1 2 3 4 5 6 
#
# 1 0.004191 -0.000831 -0.001227 0.000000 0.000000 0.000000
# 2 -0.000831 0.007660 -0.006827 0.000000 0.000000 0.000000
# 3 -0.001227 -0.006827 0.020762 0.000000 0.000000 0.000000
# 4 0.000000 0.000000 0.000000 0.002228 0.000000 0.000000
# 5 0.000000 0.000000 0.000000 0.000000 0.012684 0.000000
# 6 0.000000 0.000000 0.000000 0.000000 0.000000 0.018161
#
#
# Mechanical properties :
#
#
# Convention : Reuss Voigt Hill
#
# Bulk Modulus (GPa) = 67.37733 95.30723 81.34228
# Shear Modulus (GPa) = 56.55806 141.11294 98.83550
#
# Velocity S-wave (km/s) = 4.89328 7.72924 6.46859
# Velocity P-wave (km/s) = 7.77498 10.95462 9.49879
#
# Compressibility (1/GPa) = 0.01484179
#
# Stress axis : x y z
#
# Youngs Moduli (GPa) = 238.58929 130.54619 48.16560
#
# Poissons Ratio (x) = 0.10850 0.05912
# Poissons Ratio (y) = 0.19829 0.32883
# Poissons Ratio (z) = 0.29285 0.89126
#
# Static dielectric constant tensor:
#      x y z
#    x 1.764140 0.000000 0.000000 
#    y 0.000000 1.868250 0.000000 
#    z 0.000000 0.000000 1.850410 
# 
# From -- ./inp_files/6066.got.cif
#   From: 2010.05.17/outbox.cif.g08.bks.cpg/sg24_4_cif.got.tgz:6066.got - 2010.06.04 00:33:39.
