data_PCOD9336027
_publ_section_title
;
Structure prediction by ZEFSAII (Michael W. Deem and Ramdas Pophale) SiO2 
 PCOD9336027
Probable space group: I 21 21 21
;
_chemical_formula_sum "Si O2"
_cell_formula_units_Z 20
_cell_length_a 16.097230
_cell_length_b 9.133896
_cell_length_c 5.275884
_cell_angle_alpha 90.000000
_cell_angle_beta 90.000000
_cell_angle_gamma 90.000000
_cell_volume 775.715465
_symmetry_space_group_name_H-M "I 21 21 21"
_symmetry_group_IT_number 24
_symmetry_cell_setting 'orthorhombic'
loop_
_space_group_symop_operation_xyz
x,y,z
-x,1/2-y,z
x,-y,1/2-z
1/2-x,y,-z
1/2+x,1/2+y,1/2+z
1/2-x,-y,1/2+z
1/2+x,1/2-y,-z
-x,1/2+y,1/2-z
loop_
_atom_site_type_symbol
_atom_site_label
_atom_site_fract_x
_atom_site_fract_y
_atom_site_fract_z
Si Si1 0.034222 0.500000 0.750000
Si Si2 0.310169 0.339681 0.205193
Si Si3 0.372830 0.087153 0.496304
O O1 0.096488 0.385719 0.887112
O O2 0.971884 0.580161 0.942852
O O3 0.272052 0.500000 0.250000
O O4 0.333789 0.246248 0.453987
O O5 0.250000 0.267454 0.000000
O O6 0.339728 0.000000 0.250000
O O7 0.355834 0.000000 0.750000
#
# Coordination Sequence:
#
# PCOD9336027 Si02
#       3
#     4   8   8
#     4   8  22  46  76 120 158 226 268 358 392 530
#     4  10  23  45  74 128 167 214 268 360 425 495
#     4  10  23  48  79 113 156 221 284 331 405 509
#
# _framework density 25.782648999999999
#
# number of rings (size 3 to 8) (size 9 to 14) (size 15 to 20)
#    2.400    0.000    0.000    1.200    0.000    4.800 
#   14.400    4.000    0.000    0.000    0.000    0.000 
#    0.000    0.000    0.000    0.000    0.000    0.000 
#
# Total GULP energy -55710.208571 kJ/mol
# GULP energy per Si atom -5571.020857 kJ/mol
# Density = 2.572397 g / cm^3
# Si number density = 25.782649 Si / 1000 Ang^3
#
#
#
# Elastic Constant Matrix: (Units=GPa)
#
#
# Indices 1 2 3 4 5 6 
#
# 1 196.2182 35.9754 61.7605 0.0000 0.0000 0.0000
# 2 35.9754 128.4976 80.9491 0.0000 0.0000 0.0000
# 3 61.7605 80.9491 181.7516 0.0000 0.0000 0.0000
# 4 0.0000 0.0000 0.0000 41.2089 0.0000 0.0000
# 5 0.0000 0.0000 0.0000 0.0000 39.8230 0.0000
# 6 0.0000 0.0000 0.0000 0.0000 0.0000 21.5735
#
#
#
# Elastic Compliance Matrix: (Units=1/GPa)
#
#
# Indices 1 2 3 4 5 6 
#
# 1 0.005732 -0.000525 -0.001714 0.000000 0.000000 0.000000
# 2 -0.000525 0.010865 -0.004661 0.000000 0.000000 0.000000
# 3 -0.001714 -0.004661 0.008160 0.000000 0.000000 0.000000
# 4 0.000000 0.000000 0.000000 0.024267 0.000000 0.000000
# 5 0.000000 0.000000 0.000000 0.000000 0.025111 0.000000
# 6 0.000000 0.000000 0.000000 0.000000 0.000000 0.046353
#
#
# Mechanical properties :
#
#
# Convention : Reuss Voigt Hill
#
# Bulk Modulus (GPa) = 91.25703 95.98194 93.61948
# Shear Modulus (GPa) = 36.24736 42.37325 39.31030
#
# Velocity S-wave (km/s) = 3.75358 4.05838 3.90895
# Velocity P-wave (km/s) = 7.36596 7.69862 7.53413
#
# Compressibility (1/GPa) = 0.01095806
#
# Stress axis : x y z
#
# Youngs Moduli (GPa) = 174.45578 92.03497 122.54464
#
# Poissons Ratio (x) = 0.04833 0.21003
# Poissons Ratio (y) = 0.09160 0.57116
# Poissons Ratio (z) = 0.29901 0.42896
#
# Static dielectric constant tensor:
#      x y z
#    x 2.036050 0.000000 0.000000 
#    y 0.000000 2.129420 0.000000 
#    z 0.000000 0.000000 2.091130 
# 
# From -- ./inp_files/4110.got.cif
#   From: 2010.05.17/outbox.cif.g08.bks.cpg/sg24_3_cif.got.tgz:4110.got - 2010.06.04 00:33:39.
