data_PCOD9336101
_publ_section_title
;
Structure prediction by ZEFSAII (Michael W. Deem and Ramdas Pophale) SiO2 
 PCOD9336101
Probable space group: I 21 21 21
;
_chemical_formula_sum "Si O2"
_cell_formula_units_Z 56
_cell_length_a 10.419742
_cell_length_b 15.160055
_cell_length_c 17.640574
_cell_angle_alpha 90.000000
_cell_angle_beta 90.000000
_cell_angle_gamma 90.000000
_cell_volume 2786.573194
_symmetry_space_group_name_H-M "I 21 21 21"
_symmetry_group_IT_number 24
_symmetry_cell_setting 'orthorhombic'
loop_
_space_group_symop_operation_xyz
x,y,z
-x,1/2-y,z
x,-y,1/2-z
1/2-x,y,-z
1/2+x,1/2+y,1/2+z
1/2-x,-y,1/2+z
1/2+x,1/2-y,-z
-x,1/2+y,1/2-z
loop_
_atom_site_type_symbol
_atom_site_label
_atom_site_fract_x
_atom_site_fract_y
_atom_site_fract_z
Si Si1 0.004296 0.144447 0.099208
Si Si2 0.851208 0.760651 0.938248
Si Si3 0.736995 0.925743 0.690795
Si Si4 0.348671 0.750629 0.234431
Si Si5 0.611989 0.459700 0.035311
Si Si6 0.853435 0.966114 0.938239
Si Si7 0.751586 0.576836 0.312602
O O1 0.111587 0.092730 0.147785
O O2 0.000000 0.250000 0.108207
O O3 0.871270 0.108032 0.132536
O O4 0.047892 0.120230 0.013145
O O5 0.833989 0.724062 0.854075
O O6 0.822660 0.864316 0.925115
O O7 0.000000 0.750000 0.961666
O O8 0.750000 0.726853 0.000000
O O9 0.791256 0.842800 0.738016
O O10 0.688824 0.000000 0.750000
O O11 0.840016 0.975336 0.637103
O O12 0.500000 0.750000 0.250036
O O13 0.282019 0.829031 0.278264
O O14 0.498682 0.530456 0.031730
O O15 0.647312 0.441305 0.121989
O O16 0.750000 0.483702 0.000000
O O17 0.750000 0.998544 0.000000
O O18 0.752745 0.500000 0.250000
#
# Coordination Sequence:
#
# PCOD9336101 Si02
#       7
#     8   8   8   8   8   8   8
#     4  11  23  46  69 101 140 179 226 288 351 421
#     4  10  24  45  64  97 134 176 231 278 334 403
#     4  12  23  42  71 102 134 174 226 282 344 405
#     4  11  24  42  66  98 134 177 226 278 339 403
#     4  10  24  42  67 100 133 179 221 277 343 415
#     4  11  22  41  67  97 132 175 223 272 336 403
#     4  11  25  45  67 102 140 180 231 282 349 415
#
# _framework density 20.096367999999998
#
# number of rings (size 3 to 8) (size 9 to 14) (size 15 to 20)
#    0.000    1.143    4.286    1.286    4.000    3.429 
#    7.714    0.000    0.000    0.000    0.000    0.000 
#    0.000    0.000    0.000    0.000    0.000    0.000 
#
# Total GULP energy -156227.574162 kJ/mol
# GULP energy per Si atom -5579.556220 kJ/mol
# Density = 2.005063 g / cm^3
# Si number density = 20.096368 Si / 1000 Ang^3
#
#
#
# Elastic Constant Matrix: (Units=GPa)
#
#
# Indices 1 2 3 4 5 6 
#
# 1 87.8422 -3.8399 27.2645 0.0000 0.0000 0.0000
# 2 -3.8399 75.9266 23.1175 0.0000 0.0000 0.0000
# 3 27.2645 23.1175 73.0602 0.0000 0.0000 0.0000
# 4 0.0000 0.0000 0.0000 -36.8546 0.0000 0.0000
# 5 0.0000 0.0000 0.0000 0.0000 15.6156 0.0000
# 6 0.0000 0.0000 0.0000 0.0000 0.0000 20.0710
#
#
#
# Elastic Compliance Matrix: (Units=1/GPa)
#
#
# Indices 1 2 3 4 5 6 
#
# 1 0.013262 0.002410 -0.005712 0.000000 0.000000 0.000000
# 2 0.002410 0.015013 -0.005650 0.000000 0.000000 0.000000
# 3 -0.005712 -0.005650 0.017606 0.000000 0.000000 0.000000
# 4 0.000000 0.000000 0.000000 -0.027134 0.000000 0.000000
# 5 0.000000 0.000000 0.000000 0.000000 0.064039 0.000000
# 6 0.000000 0.000000 0.000000 0.000000 0.000000 0.049823
#
#
# Mechanical properties :
#
#
# Convention : Reuss Voigt Hill
#
# Bulk Modulus (GPa) = 35.74188 36.65701 36.19944
# Shear Modulus (GPa) = 31.28159 12.45217 21.86688
#
# Velocity S-wave (km/s) = 3.94963 2.49192 3.30222
# Velocity P-wave (km/s) = 6.21476 5.15362 5.70890
#
# Compressibility (1/GPa) = 0.02797839
#
# Stress axis : x y z
#
# Youngs Moduli (GPa) = 75.40244 66.61065 56.79752
#
# Poissons Ratio (x) = -0.16052 0.32441
# Poissons Ratio (y) = -0.18170 0.32088
# Poissons Ratio (z) = 0.43067 0.37632
#
# Static dielectric constant tensor:
#      x y z
#    x 1.763030 0.000000 0.000000 
#    y 0.000000 1.690160 0.000000 
#    z 0.000000 0.000000 1.766350 
# 
# From -- ./inp_files/20858.got.cif
#   From: 2010.05.17/outbox.cif.g08.bks.cpg/sg24_11_cif.got.tgz:20858.got - 2010.06.04 00:33:39.
