data_PCOD9336713
_publ_section_title
;
Structure prediction by ZEFSAII (Michael W. Deem and Ramdas Pophale) SiO2 
 PCOD9336713
Probable space group: I 21 21 21
;
_chemical_formula_sum "Si O2"
_cell_formula_units_Z 36
_cell_length_a 9.772644
_cell_length_b 20.019894
_cell_length_c 7.280866
_cell_angle_alpha 90.000000
_cell_angle_beta 90.000000
_cell_angle_gamma 90.000000
_cell_volume 1424.481753
_symmetry_space_group_name_H-M "I 21 21 21"
_symmetry_group_IT_number 24
_symmetry_cell_setting 'orthorhombic'
loop_
_space_group_symop_operation_xyz
x,y,z
-x,1/2-y,z
x,-y,1/2-z
1/2-x,y,-z
1/2+x,1/2+y,1/2+z
1/2-x,-y,1/2+z
1/2+x,1/2-y,-z
-x,1/2+y,1/2-z
loop_
_atom_site_type_symbol
_atom_site_label
_atom_site_fract_x
_atom_site_fract_y
_atom_site_fract_z
Si Si1 0.055090 0.428253 0.692171
Si Si2 0.649113 0.757636 0.665909
Si Si3 0.359728 0.404232 0.725811
Si Si4 0.079791 0.000000 0.250000
Si Si5 0.731927 0.618772 0.278808
O O1 0.999425 0.500000 0.750000
O O2 0.204400 0.419680 0.783012
O O3 0.095955 0.425683 0.478667
O O4 0.929043 0.379605 0.733910
O O5 0.500000 0.750000 0.581183
O O6 0.750000 0.770669 0.500000
O O7 0.635670 0.824523 0.781704
O O8 0.697617 0.689898 0.763767
O O9 0.470579 0.446783 0.842043
O O10 0.187121 0.942657 0.184328
O O11 0.750000 0.609155 0.500000
#
# Coordination Sequence:
#
# PCOD9336713 Si02
#       5
#     8   8   8   4   8
#     4  11  24  47  72 110 148 201 256 320 399 464
#     4  11  26  48  71 108 148 209 266 322 397 471
#     4  11  26  44  72 109 152 199 255 329 392 470
#     4  12  22  42  68 106 142 196 250 324 388 458
#     4  11  25  44  74 105 145 202 264 320 391 466
#
# _framework density 25.272348999999998
#
# number of rings (size 3 to 8) (size 9 to 14) (size 15 to 20)
#    0.000    0.889    4.444    1.333    6.222    1.778 
#    8.000    0.000    0.000    0.000    0.000    0.000 
#    0.000    0.000    0.000    0.000    0.000    0.000 
#
# Total GULP energy -100497.471162 kJ/mol
# GULP energy per Si atom -5583.192842 kJ/mol
# Density = 2.521483 g / cm^3
# Si number density = 25.272349 Si / 1000 Ang^3
#
#
#
# Elastic Constant Matrix: (Units=GPa)
#
#
# Indices 1 2 3 4 5 6 
#
# 1 234.7965 56.8264 34.3083 -0.0001 -0.0001 0.0000
# 2 56.8264 226.1356 30.2947 0.0005 0.0000 -0.0001
# 3 34.3083 30.2947 69.8335 0.0032 -0.0007 -0.0002
# 4 -0.0001 0.0005 0.0032 22.5907 0.0000 -0.0001
# 5 -0.0001 0.0000 -0.0007 0.0000 27.9397 -0.0001
# 6 0.0000 -0.0001 -0.0002 -0.0001 -0.0001 49.1744
#
#
#
# Elastic Compliance Matrix: (Units=1/GPa)
#
#
# Indices 1 2 3 4 5 6 
#
# 1 0.004769 -0.000939 -0.001936 0.000000 0.000000 0.000000
# 2 -0.000939 0.004880 -0.001656 0.000000 0.000000 0.000000
# 3 -0.001936 -0.001656 0.015989 -0.000002 0.000000 0.000000
# 4 0.000000 0.000000 -0.000002 0.044266 0.000000 0.000000
# 5 0.000000 0.000000 0.000000 0.000000 0.035791 0.000000
# 6 0.000000 0.000000 0.000000 0.000000 0.000000 0.020336
#
#
# Mechanical properties :
#
#
# Convention : Reuss Voigt Hill
#
# Bulk Modulus (GPa) = 60.32342 85.95829 73.14086
# Shear Modulus (GPa) = 35.55745 47.23005 41.39375
#
# Velocity S-wave (km/s) = 3.75503 4.32770 4.05150
# Velocity P-wave (km/s) = 6.53617 7.68496 7.13373
#
# Compressibility (1/GPa) = 0.01657731
#
# Stress axis : x y z
#
# Youngs Moduli (GPa) = 209.68171 204.92133 62.54333
#
# Poissons Ratio (x) = 0.19245 0.12106
# Poissons Ratio (y) = 0.19692 0.10355
# Poissons Ratio (z) = 0.40586 0.33926
#
# Static dielectric constant tensor:
#      x y z
#    x 1.984360 0.000000 0.000000 
#    y 0.000000 2.047620 0.000000 
#    z 0.000000 0.000000 2.167360 
# 
# From -- ./inp_files/9093.got.cif
#   From: 2010.05.17/outbox.cif.g08.bks.cpg/sg24_5_cif.got.tgz:9093.got - 2010.06.04 00:33:39.
