data_PCOD9336895
_publ_section_title
;
Structure prediction by ZEFSAII (Michael W. Deem and Ramdas Pophale) SiO2 
 PCOD9336895
Probable space group: I 21 21 21
;
_chemical_formula_sum "Si O2"
_cell_formula_units_Z 32
_cell_length_a 31.451339
_cell_length_b 8.478339
_cell_length_c 5.216366
_cell_angle_alpha 90.000000
_cell_angle_beta 90.000000
_cell_angle_gamma 90.000000
_cell_volume 1390.970671
_symmetry_space_group_name_H-M "I 21 21 21"
_symmetry_group_IT_number 24
_symmetry_cell_setting 'orthorhombic'
loop_
_space_group_symop_operation_xyz
x,y,z
-x,1/2-y,z
x,-y,1/2-z
1/2-x,y,-z
1/2+x,1/2+y,1/2+z
1/2-x,-y,1/2+z
1/2+x,1/2-y,-z
-x,1/2+y,1/2-z
loop_
_atom_site_type_symbol
_atom_site_label
_atom_site_fract_x
_atom_site_fract_y
_atom_site_fract_z
Si Si1 0.048742 0.804633 0.229362
Si Si2 0.399584 0.281599 0.232057
Si Si3 0.714497 0.500000 0.750000
Si Si4 0.750000 0.205315 0.500000
Si Si5 0.159587 0.000000 0.750000
Si Si6 0.823819 0.000000 0.750000
O O1 0.070904 0.747782 0.490273
O O2 0.000000 0.750000 0.227231
O O3 0.051742 0.000000 0.250000
O O4 0.070488 0.710250 0.986673
O O5 0.360157 0.389778 0.124652
O O6 0.371373 0.137708 0.322563
O O7 0.738636 0.333703 0.716078
O O8 0.687151 0.526114 0.498909
O O9 0.790937 0.099698 0.573678
#
# Coordination Sequence:
#
# PCOD9336895 Si02
#       6
#     8   8   4   4   4   4
#     4  12  27  50  81 113 150 196 252 317 395 482
#     4  12  27  50  75 111 158 200 256 316 393 471
#     4  12  27  50  78 104 149 215 262 320 386 468
#     4  12  30  50  76 118 162 214 280 334 394 462
#     4  12  23  50  77 110 142 212 262 309 384 480
#     4  12  32  46  77 120 161 209 266 343 388 448
#
# _framework density 23.005516
#
# number of rings (size 3 to 8) (size 9 to 14) (size 15 to 20)
#    0.000    0.000    5.000    3.000    7.000    0.000 
#    0.000    0.000    0.000    0.000    0.000    0.000 
#    0.000    0.000    0.000    0.000    0.000    0.000 
#
# Total GULP energy -89071.444627 kJ/mol
# GULP energy per Si atom -5566.965289 kJ/mol
# Density = 2.295315 g / cm^3
# Si number density = 23.005516 Si / 1000 Ang^3
#
#
#
# Elastic Constant Matrix: (Units=GPa)
#
#
# Indices 1 2 3 4 5 6 
#
# 1 217.5454 65.1432 102.1395 0.0000 0.0000 0.0000
# 2 65.1432 82.3396 15.7531 0.0000 -0.0002 0.0000
# 3 102.1395 15.7531 178.6692 0.0000 -0.0001 0.0001
# 4 0.0000 0.0000 0.0000 8.0866 -0.0001 0.0000
# 5 0.0000 -0.0002 -0.0001 -0.0001 174.3411 0.0001
# 6 0.0000 0.0000 0.0001 0.0000 0.0001 53.6228
#
#
#
# Elastic Compliance Matrix: (Units=1/GPa)
#
#
# Indices 1 2 3 4 5 6 
#
# 1 0.008318 -0.005768 -0.004246 0.000000 0.000000 0.000000
# 2 -0.005768 0.016353 0.001856 0.000000 0.000000 0.000000
# 3 -0.004246 0.001856 0.007861 0.000000 0.000000 0.000000
# 4 0.000000 0.000000 0.000000 0.123662 0.000000 0.000000
# 5 0.000000 0.000000 0.000000 0.000000 0.005736 0.000000
# 6 0.000000 0.000000 0.000000 0.000000 0.000000 0.018649
#
#
# Mechanical properties :
#
#
# Convention : Reuss Voigt Hill
#
# Bulk Modulus (GPa) = 61.67508 93.84730 77.76119
# Shear Modulus (GPa) = 24.71568 66.91132 45.81350
#
# Velocity S-wave (km/s) = 3.28126 5.39889 4.46737
# Velocity P-wave (km/s) = 6.42048 8.93006 7.77717
#
# Compressibility (1/GPa) = 0.01621400
#
# Stress axis : x y z
#
# Youngs Moduli (GPa) = 120.22518 61.14966 127.21248
#
# Poissons Ratio (x) = 0.35272 0.54020
# Poissons Ratio (y) = 0.69348 -0.23606
# Poissons Ratio (z) = 0.51052 -0.11347
#
# Static dielectric constant tensor:
#      x y z
#    x 1.847600 0.000000 0.000000 
#    y 0.000000 1.761560 0.000000 
#    z 0.000000 0.000000 1.789510 
# 
# From -- ./inp_files/7489.got.cif
#   From: 2010.05.17/outbox.cif.g08.bks.cpg/sg24_4_cif.got.tgz:7489.got - 2010.06.04 00:33:39.
