data_PCOD9336024
_publ_section_title
;
Structure prediction by ZEFSAII (Michael W. Deem and Ramdas Pophale) SiO2 
 PCOD9336024
Probable space group: I 21 21 21
;
_chemical_formula_sum "Si O2"
_cell_formula_units_Z 36
_cell_length_a 7.661756
_cell_length_b 13.295944
_cell_length_c 15.201779
_cell_angle_alpha 90.000000
_cell_angle_beta 90.000000
_cell_angle_gamma 90.000000
_cell_volume 1548.609464
_symmetry_space_group_name_H-M "I 21 21 21"
_symmetry_group_IT_number 24
_symmetry_cell_setting 'orthorhombic'
loop_
_space_group_symop_operation_xyz
x,y,z
-x,1/2-y,z
x,-y,1/2-z
1/2-x,y,-z
1/2+x,1/2+y,1/2+z
1/2-x,-y,1/2+z
1/2+x,1/2-y,-z
-x,1/2+y,1/2-z
loop_
_atom_site_type_symbol
_atom_site_label
_atom_site_fract_x
_atom_site_fract_y
_atom_site_fract_z
Si Si1 0.057027 0.947527 0.581086
Si Si2 0.058451 0.865544 0.399050
Si Si3 0.853494 0.000000 0.750000
Si Si4 0.957205 0.130869 0.295068
Si Si5 0.539835 0.866853 0.991333
O O1 0.973390 0.908271 0.489165
O O2 0.236367 0.887591 0.591339
O O3 0.956325 0.944338 0.672349
O O4 0.066918 0.065818 0.559659
O O5 0.000000 0.750000 0.397727
O O6 0.016571 0.907068 0.301493
O O7 0.739587 0.088914 0.705953
O O8 0.021094 0.102699 0.392607
O O9 0.000000 0.250000 0.292358
O O10 0.500000 0.750000 0.004296
O O11 0.750000 0.881909 0.000000
#
# Coordination Sequence:
#
# PCOD9336024 Si02
#       5
#     8   8   4   8   8
#     4  11  26  46  73 104 146 186 245 298 361 436
#     4  10  25  48  71 103 142 194 240 299 366 428
#     4  12  24  44  70 108 140 188 242 302 352 436
#     4  10  23  45  72 100 145 185 237 297 358 429
#     4  11  24  47  73 106 146 188 240 298 362 431
#
# _framework density 23.246661
#
# number of rings (size 3 to 8) (size 9 to 14) (size 15 to 20)
#    0.000    1.333    2.222    1.333    3.111   11.556 
#    8.000    1.111    0.000    0.000    0.000    0.000 
#    0.000    0.000    0.000    0.000    0.000    0.000 
#
# Total GULP energy -100377.352365 kJ/mol
# GULP energy per Si atom -5576.519576 kJ/mol
# Density = 2.319375 g / cm^3
# Si number density = 23.246661 Si / 1000 Ang^3
#
#
#
# Elastic Constant Matrix: (Units=GPa)
#
#
# Indices 1 2 3 4 5 6 
#
# 1 107.4198 44.0139 33.5497 0.0000 0.0000 0.0000
# 2 44.0139 113.6091 25.8283 0.0000 0.0000 0.0000
# 3 33.5497 25.8283 139.9473 0.0000 0.0000 0.0000
# 4 0.0000 0.0000 0.0000 21.4208 0.0000 0.0000
# 5 0.0000 0.0000 0.0000 0.0000 35.0715 0.0000
# 6 0.0000 0.0000 0.0000 0.0000 0.0000 39.8021
#
#
#
# Elastic Compliance Matrix: (Units=1/GPa)
#
#
# Indices 1 2 3 4 5 6 
#
# 1 0.011596 -0.004030 -0.002036 0.000000 0.000000 0.000000
# 2 -0.004030 0.010588 -0.000988 0.000000 0.000000 0.000000
# 3 -0.002036 -0.000988 0.007816 0.000000 0.000000 0.000000
# 4 0.000000 0.000000 0.000000 0.046684 0.000000 0.000000
# 5 0.000000 0.000000 0.000000 0.000000 0.028513 0.000000
# 6 0.000000 0.000000 0.000000 0.000000 0.000000 0.025124
#
#
# Mechanical properties :
#
#
# Convention : Reuss Voigt Hill
#
# Bulk Modulus (GPa) = 62.92355 63.08444 63.00400
# Shear Modulus (GPa) = 33.39416 36.43117 34.91267
#
# Velocity S-wave (km/s) = 3.79425 3.96303 3.87956
# Velocity P-wave (km/s) = 6.80600 6.93806 6.87235
#
# Compressibility (1/GPa) = 0.01589230
#
# Stress axis : x y z
#
# Youngs Moduli (GPa) = 86.23394 94.44748 127.94172
#
# Poissons Ratio (x) = 0.38059 0.26053
# Poissons Ratio (y) = 0.34749 0.12641
# Poissons Ratio (z) = 0.17560 0.09332
#
# Static dielectric constant tensor:
#      x y z
#    x 1.926810 0.000000 0.000000 
#    y 0.000000 1.931800 0.000000 
#    z 0.000000 0.000000 1.921800 
# 
# From -- ./inp_files/24467.got.cif
#   From: 2010.05.17/outbox.cif.g08.bks.cpg/sg24_13_cif.got.tgz:24467.got - 2010.06.04 00:33:39.
