data_PCOD9336081
_publ_section_title
;
Structure prediction by ZEFSAII (Michael W. Deem and Ramdas Pophale) SiO2 
 PCOD9336081
Probable space group: I 21 21 21
;
_chemical_formula_sum "Si O2"
_cell_formula_units_Z 36
_cell_length_a 12.803026
_cell_length_b 10.279433
_cell_length_c 13.361696
_cell_angle_alpha 90.000000
_cell_angle_beta 90.000000
_cell_angle_gamma 90.000000
_cell_volume 1758.504056
_symmetry_space_group_name_H-M "I 21 21 21"
_symmetry_group_IT_number 24
_symmetry_cell_setting 'orthorhombic'
loop_
_space_group_symop_operation_xyz
x,y,z
-x,1/2-y,z
x,-y,1/2-z
1/2-x,y,-z
1/2+x,1/2+y,1/2+z
1/2-x,-y,1/2+z
1/2+x,1/2-y,-z
-x,1/2+y,1/2-z
loop_
_atom_site_type_symbol
_atom_site_label
_atom_site_fract_x
_atom_site_fract_y
_atom_site_fract_z
Si Si1 0.545916 0.109346 0.678682
Si Si2 0.243014 0.500000 0.250000
Si Si3 0.872858 0.173845 0.866117
Si Si4 0.250000 0.878525 0.500000
Si Si5 0.531238 0.508642 0.027290
Si Si6 0.000000 0.250000 0.676258
O O1 0.500000 0.250000 0.689129
O O2 0.535021 0.058703 0.566578
O O3 0.494576 0.000000 0.750000
O O4 0.664484 0.112964 0.716757
O O5 0.307286 0.544133 0.344859
O O6 0.908174 0.217107 0.755112
O O7 0.797015 0.279267 0.916560
O O8 0.973460 0.118070 0.926105
O O9 0.146928 0.969117 0.487513
O O10 0.530358 0.625113 0.108919
#
# Coordination Sequence:
#
# PCOD9336081 Si02
#       6
#     8   4   8   4   8   4
#     4  10  25  45  69 106 146 191 252 322 381 466
#     4  10  24  40  74  98 138 202 242 304 388 456
#     4  12  24  46  75 108 151 193 254 313 384 469
#     4  12  28  42  76 108 140 204 246 310 394 456
#     4  12  25  49  72 109 150 195 255 320 382 468
#     4  12  24  48  76 102 162 192 250 322 374 446
#
# _framework density 20.471945999999999
#
# number of rings (size 3 to 8) (size 9 to 14) (size 15 to 20)
#    0.667    0.000    5.556    1.333    3.111    1.778 
#    0.000    0.000    0.000    0.000    0.000    0.000 
#    0.000    0.000    0.000    0.000    0.000    0.000 
#
# Total GULP energy -100279.870395 kJ/mol
# GULP energy per Si atom -5571.103911 kJ/mol
# Density = 2.042535 g / cm^3
# Si number density = 20.471946 Si / 1000 Ang^3
#
#
#
# Elastic Constant Matrix: (Units=GPa)
#
#
# Indices 1 2 3 4 5 6 
#
# 1 112.7793 24.7652 30.2106 0.0000 0.0000 0.0000
# 2 24.7652 122.7472 48.0102 0.0000 0.0000 0.0000
# 3 30.2106 48.0102 108.6065 0.0000 0.0000 0.0000
# 4 0.0000 0.0000 0.0000 48.9527 0.0000 0.0000
# 5 0.0000 0.0000 0.0000 0.0000 45.0300 0.0000
# 6 0.0000 0.0000 0.0000 0.0000 0.0000 33.0360
#
#
#
# Elastic Compliance Matrix: (Units=1/GPa)
#
#
# Indices 1 2 3 4 5 6 
#
# 1 0.009700 -0.001090 -0.002216 0.000000 0.000000 0.000000
# 2 -0.001090 0.009972 -0.004105 0.000000 0.000000 0.000000
# 3 -0.002216 -0.004105 0.011639 0.000000 0.000000 0.000000
# 4 0.000000 0.000000 0.000000 0.020428 0.000000 0.000000
# 5 0.000000 0.000000 0.000000 0.000000 0.022207 0.000000
# 6 0.000000 0.000000 0.000000 0.000000 0.000000 0.030270
#
#
# Mechanical properties :
#
#
# Convention : Reuss Voigt Hill
#
# Bulk Modulus (GPa) = 60.65036 61.12279 60.88658
# Shear Modulus (GPa) = 40.14918 41.48021 40.81470
#
# Velocity S-wave (km/s) = 4.43333 4.50621 4.46992
# Velocity P-wave (km/s) = 7.47638 7.54959 7.51307
#
# Compressibility (1/GPa) = 0.01648795
#
# Stress axis : x y z
#
# Youngs Moduli (GPa) = 103.09332 100.27660 85.91998
#
# Poissons Ratio (x) = 0.10932 0.19042
# Poissons Ratio (y) = 0.11239 0.35271
# Poissons Ratio (z) = 0.22848 0.41165
#
# Static dielectric constant tensor:
#      x y z
#    x 1.772230 0.000000 0.000000 
#    y 0.000000 1.562580 0.000000 
#    z 0.000000 0.000000 1.723250 
# 
# From -- ./inp_files/19246.got.cif
#   From: 2010.05.17/outbox.cif.g08.bks.cpg/sg24_10_cif.got.tgz:19246.got - 2010.06.04 00:33:39.
