data_PCOD9336204
_publ_section_title
;
Structure prediction by ZEFSAII (Michael W. Deem and Ramdas Pophale) SiO2 
 PCOD9336204
Probable space group: I 21 21 21
;
_chemical_formula_sum "Si O2"
_cell_formula_units_Z 28
_cell_length_a 8.952459
_cell_length_b 5.817879
_cell_length_c 24.211922
_cell_angle_alpha 90.000000
_cell_angle_beta 90.000000
_cell_angle_gamma 90.000000
_cell_volume 1261.061571
_symmetry_space_group_name_H-M "I 21 21 21"
_symmetry_group_IT_number 24
_symmetry_cell_setting 'orthorhombic'
loop_
_space_group_symop_operation_xyz
x,y,z
-x,1/2-y,z
x,-y,1/2-z
1/2-x,y,-z
1/2+x,1/2+y,1/2+z
1/2-x,-y,1/2+z
1/2+x,1/2-y,-z
-x,1/2+y,1/2-z
loop_
_atom_site_type_symbol
_atom_site_label
_atom_site_fract_x
_atom_site_fract_y
_atom_site_fract_z
Si Si1 0.000000 0.250000 0.126413
Si Si2 0.232984 0.000000 0.750000
Si Si3 0.739190 0.103867 0.659734
Si Si4 0.849002 0.382908 0.446678
Si Si5 0.500000 0.750000 0.326514
O O1 0.891420 0.386601 0.085548
O O2 0.102018 0.421563 0.161719
O O3 0.289438 0.788548 0.790277
O O4 0.127473 0.870067 0.707997
O O5 0.723897 0.231978 0.601419
O O6 0.897613 0.967451 0.653258
O O7 0.750000 0.421716 0.500000
O O8 0.000000 0.250000 0.463292
#
# Coordination Sequence:
#
# PCOD9336204 Si02
#       5
#     4   4   8   8   4
#     4  10  24  46  73 102 150 192 233 296 362 430
#     4  12  22  42  72 102 138 190 240 300 348 424
#     4  11  24  44  75 102 149 186 242 299 358 425
#     4  10  24  46  73 105 143 187 240 295 361 425
#     4  12  22  42  75 100 136 188 241 300 348 424
#
# _framework density 22.203517000000002
#
# number of rings (size 3 to 8) (size 9 to 14) (size 15 to 20)
#    0.000    1.143    2.857    1.714    0.000    9.143 
#    0.000    2.857  141.429    0.000    0.000    0.000 
#    0.000    0.000    0.000    0.000    0.000    0.000 
#
# Total GULP energy -77963.659430 kJ/mol
# GULP energy per Si atom -5568.832816 kJ/mol
# Density = 2.215298 g / cm^3
# Si number density = 22.203517 Si / 1000 Ang^3
#
#
#
# Elastic Constant Matrix: (Units=GPa)
#
#
# Indices 1 2 3 4 5 6 
#
# 1 104.9658 76.5683 94.0171 0.0000 0.0000 0.0000
# 2 76.5683 149.8785 72.0086 0.0000 0.0000 0.0000
# 3 94.0171 72.0086 108.1179 0.0000 0.0000 0.0000
# 4 0.0000 0.0000 0.0000 -49.9701 0.0000 0.0000
# 5 0.0000 0.0000 0.0000 0.0000 68.0863 0.0000
# 6 0.0000 0.0000 0.0000 0.0000 0.0000 48.3677
#
#
#
# Elastic Compliance Matrix: (Units=1/GPa)
#
#
# Indices 1 2 3 4 5 6 
#
# 1 0.046946 -0.006426 -0.036544 0.000000 0.000000 0.000000
# 2 -0.006426 0.010691 -0.001532 0.000000 0.000000 0.000000
# 3 -0.036544 -0.001532 0.042047 0.000000 0.000000 0.000000
# 4 0.000000 0.000000 0.000000 -0.020012 0.000000 0.000000
# 5 0.000000 0.000000 0.000000 0.000000 0.014687 0.000000
# 6 0.000000 0.000000 0.000000 0.000000 0.000000 0.020675
#
#
# Mechanical properties :
#
#
# Convention : Reuss Voigt Hill
#
# Bulk Modulus (GPa) = 93.62928 94.23891 93.93410
# Shear Modulus (GPa) = 24.08472 21.32133 22.70302
#
# Velocity S-wave (km/s) = 3.29709 3.10218 3.20112
# Velocity P-wave (km/s) = 7.53357 7.44088 7.48737
#
# Compressibility (1/GPa) = 0.01068042
#
# Stress axis : x y z
#
# Youngs Moduli (GPa) = 21.30085 93.53380 23.78265
#
# Poissons Ratio (x) = 0.60107 0.86911
# Poissons Ratio (y) = 0.13688 0.03645
# Poissons Ratio (z) = 0.77841 0.14334
#
# Static dielectric constant tensor:
#      x y z
#    x 1.836610 0.000000 0.000000 
#    y 0.000000 1.846240 0.000000 
#    z 0.000000 0.000000 1.773180 
# 
# From -- ./inp_files/8186.got.cif
#   From: 2010.05.17/outbox.cif.g08.bks.cpg/sg24_5_cif.got.tgz:8186.got - 2010.06.04 00:33:39.
