data_PCOD9336037
_publ_section_title
;
Structure prediction by ZEFSAII (Michael W. Deem and Ramdas Pophale) SiO2 
 PCOD9336037
Probable space group: I 21 21 21
;
_chemical_formula_sum "Si O2"
_cell_formula_units_Z 64
_cell_length_a 12.628319
_cell_length_b 27.118131
_cell_length_c 8.133740
_cell_angle_alpha 90.000000
_cell_angle_beta 90.000000
_cell_angle_gamma 90.000000
_cell_volume 2785.451392
_symmetry_space_group_name_H-M "I 21 21 21"
_symmetry_group_IT_number 24
_symmetry_cell_setting 'orthorhombic'
loop_
_space_group_symop_operation_xyz
x,y,z
-x,1/2-y,z
x,-y,1/2-z
1/2-x,y,-z
1/2+x,1/2+y,1/2+z
1/2-x,-y,1/2+z
1/2+x,1/2-y,-z
-x,1/2+y,1/2-z
loop_
_atom_site_type_symbol
_atom_site_label
_atom_site_fract_x
_atom_site_fract_y
_atom_site_fract_z
Si Si1 0.308253 0.332926 0.660304
Si Si2 0.202217 0.774243 0.237134
Si Si3 0.287588 0.946802 0.316536
Si Si4 0.643159 0.907464 0.544271
Si Si5 0.463260 0.842043 0.956480
Si Si6 0.981561 0.373553 0.816659
Si Si7 0.908181 0.715531 0.566644
Si Si8 0.445462 0.059903 0.734458
O O1 0.250000 0.356754 0.500000
O O2 0.256919 0.279113 0.679821
O O3 0.316207 0.364982 0.828060
O O4 0.429828 0.320044 0.617684
O O5 0.136910 0.810648 0.115209
O O6 0.129274 0.762368 0.395035
O O7 0.307093 0.796728 0.320210
O O8 0.250000 0.954633 0.500000
O O9 0.389429 0.913150 0.304506
O O10 0.179269 0.925409 0.243690
O O11 0.315897 0.000000 0.250000
O O12 0.750000 0.937495 0.500000
O O13 0.595269 0.893077 0.366489
O O14 0.540076 0.930138 0.634889
O O15 0.472637 0.900907 0.910298
O O16 0.476247 0.841864 0.151940
O O17 0.956147 0.337856 0.970007
O O18 0.000000 0.750000 0.636953
O O19 0.438491 0.000000 0.750000
#
# Coordination Sequence:
#
# PCOD9336037 Si02
#       8
#     8   8   8   8   8   8   8   8
#     4  11  25  44  69  96 140 187 235 288 353 415
#     4  11  25  43  66  95 139 186 237 293 357 423
#     4  11  25  44  72 104 138 177 225 286 360 426
#     4  11  24  45  72 100 138 188 236 283 343 420
#     4  11  25  43  66 101 138 181 231 295 353 419
#     4  12  26  41  71 104 138 179 238 289 355 426
#     4  11  25  41  65  98 137 187 236 295 352 428
#     4  10  23  46  72  99 142 181 224 288 359 422
#
# _framework density 22.976527000000001
#
# number of rings (size 3 to 8) (size 9 to 14) (size 15 to 20)
#    0.000    1.000    1.250    4.875   12.250    1.000 
#    0.000    4.375    0.000    0.000    0.000    0.000 
#    0.000    0.000    0.000    0.000    0.000    0.000 
#
# Total GULP energy -178239.869759 kJ/mol
# GULP energy per Si atom -5569.995930 kJ/mol
# Density = 2.292423 g / cm^3
# Si number density = 22.976527 Si / 1000 Ang^3
#
#
#
# Elastic Constant Matrix: (Units=GPa)
#
#
# Indices 1 2 3 4 5 6 
#
# 1 156.0286 23.7042 21.9573 0.0001 -0.0005 0.0000
# 2 23.7042 50.5820 -0.3391 0.0008 -0.0001 -0.0003
# 3 21.9573 -0.3391 66.1098 0.0026 0.0001 0.0001
# 4 0.0001 0.0008 0.0026 18.3838 0.0003 -0.0002
# 5 -0.0005 -0.0001 0.0001 0.0003 19.4094 -0.0002
# 6 0.0000 -0.0003 0.0001 -0.0002 -0.0002 21.9386
#
#
#
# Elastic Compliance Matrix: (Units=1/GPa)
#
#
# Indices 1 2 3 4 5 6 
#
# 1 0.007272 -0.003424 -0.002433 0.000000 0.000000 0.000000
# 2 -0.003424 0.021383 0.001247 -0.000001 0.000000 0.000000
# 3 -0.002433 0.001247 0.015941 -0.000002 0.000000 0.000000
# 4 0.000000 -0.000001 -0.000002 0.054396 -0.000001 0.000000
# 5 0.000000 0.000000 0.000000 -0.000001 0.051522 0.000000
# 6 0.000000 0.000000 0.000000 0.000000 0.000000 0.045582
#
#
# Mechanical properties :
#
#
# Convention : Reuss Voigt Hill
#
# Bulk Modulus (GPa) = 28.26810 40.37390 34.32100
# Shear Modulus (GPa) = 23.03027 27.10623 25.06825
#
# Velocity S-wave (km/s) = 3.16941 3.43845 3.30667
# Velocity P-wave (km/s) = 5.07181 5.77702 5.43586
#
# Compressibility (1/GPa) = 0.03537556
#
# Stress axis : x y z
#
# Youngs Moduli (GPa) = 137.52129 46.76657 62.73237
#
# Poissons Ratio (x) = 0.16013 0.15261
# Poissons Ratio (y) = 0.47087 -0.07822
# Poissons Ratio (z) = 0.33455 -0.05831
#
# Static dielectric constant tensor:
#      x y z
#    x 1.792940 0.000000 0.000000 
#    y 0.000000 1.842290 0.000000 
#    z 0.000000 0.000000 1.972690 
# 
# From -- ./inp_files/11665.got.cif
#   From: 2010.05.17/outbox.cif.g08.bks.cpg/sg24_6_cif.got.tgz:11665.got - 2010.06.04 00:33:39.
