data_PCOD9336462
_publ_section_title
;
Structure prediction by ZEFSAII (Michael W. Deem and Ramdas Pophale) SiO2 
 PCOD9336462
Probable space group: I 21 21 21
;
_chemical_formula_sum "Si O2"
_cell_formula_units_Z 48
_cell_length_a 26.869024
_cell_length_b 10.872445
_cell_length_c 8.209175
_cell_angle_alpha 90.000000
_cell_angle_beta 90.000000
_cell_angle_gamma 90.000000
_cell_volume 2398.162593
_symmetry_space_group_name_H-M "I 21 21 21"
_symmetry_group_IT_number 24
_symmetry_cell_setting 'orthorhombic'
loop_
_space_group_symop_operation_xyz
x,y,z
-x,1/2-y,z
x,-y,1/2-z
1/2-x,y,-z
1/2+x,1/2+y,1/2+z
1/2-x,-y,1/2+z
1/2+x,1/2-y,-z
-x,1/2+y,1/2-z
loop_
_atom_site_type_symbol
_atom_site_label
_atom_site_fract_x
_atom_site_fract_y
_atom_site_fract_z
Si Si1 0.047657 0.000000 0.750000
Si Si2 0.696332 0.124017 0.042422
Si Si3 0.905819 0.246935 0.651874
Si Si4 0.909492 0.847712 0.495310
Si Si5 0.302728 0.339713 0.431309
Si Si6 0.474939 0.575554 0.962835
Si Si7 0.500000 0.750000 0.687107
O O1 0.081662 0.120295 0.726588
O O2 0.011805 0.008722 0.590848
O O3 0.697148 0.140707 0.236719
O O4 0.693248 0.978646 0.999525
O O5 0.750000 0.174943 0.000000
O O6 0.647904 0.180366 0.956269
O O7 0.854060 0.236404 0.552895
O O8 0.949847 0.196842 0.540511
O O9 0.908375 0.156975 0.808519
O O10 0.950492 0.757105 0.421701
O O11 0.928974 0.981328 0.441936
O O12 0.250000 0.289867 0.500000
O O13 0.499380 0.628753 0.799741
#
# Coordination Sequence:
#
# PCOD9336462 Si02
#       7
#     4   8   8   8   8   8   4
#     4  12  22  36  62  82 118 158 226 250 290 384
#     4   9  18  34  57  88 121 159 192 248 329 375
#     4  11  21  38  63  84 116 172 212 251 314 374
#     4  11  22  39  59  85 130 168 197 258 317 386
#     4   9  18  34  58  89 117 147 203 257 302 374
#     4  12  22  39  59  87 120 171 212 256 306 383
#     4  12  26  36  52  94 132 170 206 250 332 374
#
# _framework density 20.015324
#
# number of rings (size 3 to 8) (size 9 to 14) (size 15 to 20)
#    0.000    1.333    5.000    1.500    0.000    1.333 
#    6.000    0.000    0.000    4.000    0.000    0.000 
#    0.000    0.000    0.000    0.000    0.000    0.000 
#
# Total GULP energy -133752.077695 kJ/mol
# GULP energy per Si atom -5573.003237 kJ/mol
# Density = 1.996977 g / cm^3
# Si number density = 20.015324 Si / 1000 Ang^3
#
#
#
# Elastic Constant Matrix: (Units=GPa)
#
#
# Indices 1 2 3 4 5 6 
#
# 1 208.9003 43.2028 52.5971 0.0000 0.0000 0.0000
# 2 43.2028 71.2806 8.8456 0.0000 0.0000 0.0000
# 3 52.5971 8.8456 52.4537 0.0000 0.0000 0.0000
# 4 0.0000 0.0000 0.0000 30.1569 0.0000 0.0000
# 5 0.0000 0.0000 0.0000 0.0000 36.2804 0.0000
# 6 0.0000 0.0000 0.0000 0.0000 0.0000 19.5461
#
#
#
# Elastic Compliance Matrix: (Units=1/GPa)
#
#
# Indices 1 2 3 4 5 6 
#
# 1 0.007180 -0.003532 -0.006604 0.000000 0.000000 0.000000
# 2 -0.003532 0.016067 0.000833 0.000000 0.000000 0.000000
# 3 -0.006604 0.000833 0.025546 0.000000 0.000000 0.000000
# 4 0.000000 0.000000 0.000000 0.033160 0.000000 0.000000
# 5 0.000000 0.000000 0.000000 0.000000 0.027563 0.000000
# 6 0.000000 0.000000 0.000000 0.000000 0.000000 0.051161
#
#
# Mechanical properties :
#
#
# Convention : Reuss Voigt Hill
#
# Bulk Modulus (GPa) = 33.12870 60.21397 46.67134
# Shear Modulus (GPa) = 26.40648 32.39594 29.40121
#
# Velocity S-wave (km/s) = 3.63618 4.02749 3.83683
# Velocity P-wave (km/s) = 5.84950 7.19561 6.55719
#
# Compressibility (1/GPa) = 0.03018530
#
# Stress axis : x y z
#
# Youngs Moduli (GPa) = 139.26894 62.24049 39.14446
#
# Poissons Ratio (x) = 0.21986 0.25852
# Poissons Ratio (y) = 0.49196 -0.03259
# Poissons Ratio (z) = 0.91977 -0.05182
#
# Static dielectric constant tensor:
#      x y z
#    x 1.799090 0.000000 0.000000 
#    y 0.000000 1.742120 0.000000 
#    z 0.000000 0.000000 1.777720 
# 
# From -- ./inp_files/16364.got.cif
#   From: 2010.05.17/outbox.cif.g08.bks.cpg/sg24_9_cif.got.tgz:16364.got - 2010.06.04 00:33:39.
