data_PCOD9336648
_publ_section_title
;
Structure prediction by ZEFSAII (Michael W. Deem and Ramdas Pophale) SiO2 
 PCOD9336648
Probable space group: I 21 21 21
;
_chemical_formula_sum "Si O2"
_cell_formula_units_Z 32
_cell_length_a 5.106614
_cell_length_b 13.410212
_cell_length_c 17.819372
_cell_angle_alpha 90.000000
_cell_angle_beta 90.000000
_cell_angle_gamma 90.000000
_cell_volume 1220.284428
_symmetry_space_group_name_H-M "I 21 21 21"
_symmetry_group_IT_number 24
_symmetry_cell_setting 'orthorhombic'
loop_
_space_group_symop_operation_xyz
x,y,z
-x,1/2-y,z
x,-y,1/2-z
1/2-x,y,-z
1/2+x,1/2+y,1/2+z
1/2-x,-y,1/2+z
1/2+x,1/2-y,-z
-x,1/2+y,1/2-z
loop_
_atom_site_type_symbol
_atom_site_label
_atom_site_fract_x
_atom_site_fract_y
_atom_site_fract_z
Si Si1 0.740961 0.599670 0.924614
Si Si2 0.500211 0.898699 0.546609
Si Si3 0.000000 0.750000 0.191120
Si Si4 0.376376 0.547166 0.332862
Si Si5 0.500000 0.250000 0.209488
O O1 0.545861 0.516808 0.957824
O O2 0.598275 0.659587 0.859698
O O3 0.978348 0.537290 0.884204
O O4 0.750000 0.667498 0.000000
O O5 0.750000 0.865225 0.500000
O O6 0.613988 0.902547 0.631675
O O7 0.250000 0.857203 0.500000
O O8 0.748245 0.776276 0.239849
O O9 0.346098 0.500000 0.250000
O O10 0.560081 0.646438 0.332513
#
# Coordination Sequence:
#
# PCOD9336648 Si02
#       5
#     8   8   4   8   4
#     4  11  25  47  81 112 165 215 274 344 421 492
#     4  11  23  45  77 110 154 206 267 331 418 489
#     4  12  28  49  72 121 162 214 278 346 420 509
#     4  12  25  51  82 118 168 225 279 353 421 507
#     4  12  30  49  80 123 164 214 288 344 428 509
#
# _framework density 26.223393999999999
#
# number of rings (size 3 to 8) (size 9 to 14) (size 15 to 20)
#    0.000    0.500    7.500    1.500    3.500    3.000 
#    0.000    1.250    0.000    0.000    0.000    0.000 
#    0.000    0.000    0.000    0.000    0.000    0.000 
#
# Total GULP energy -89110.275621 kJ/mol
# GULP energy per Si atom -5569.392226 kJ/mol
# Density = 2.616371 g / cm^3
# Si number density = 26.223394 Si / 1000 Ang^3
#
#
#
# Elastic Constant Matrix: (Units=GPa)
#
#
# Indices 1 2 3 4 5 6 
#
# 1 214.8609 43.6769 84.0909 0.0000 0.0000 0.0000
# 2 43.6769 101.9536 35.1576 0.0000 0.0000 0.0000
# 3 84.0909 35.1576 212.5173 0.0000 0.0000 0.0000
# 4 0.0000 0.0000 0.0000 -39.8873 0.0000 0.0000
# 5 0.0000 0.0000 0.0000 0.0000 49.1264 0.0000
# 6 0.0000 0.0000 0.0000 0.0000 0.0000 1.7197
#
#
#
# Elastic Compliance Matrix: (Units=1/GPa)
#
#
# Indices 1 2 3 4 5 6 
#
# 1 0.005801 -0.001796 -0.001998 0.000000 0.000000 0.000000
# 2 -0.001796 0.010958 -0.001102 0.000000 0.000000 0.000000
# 3 -0.001998 -0.001102 0.005679 0.000000 0.000000 0.000000
# 4 0.000000 0.000000 0.000000 -0.025071 0.000000 0.000000
# 5 0.000000 0.000000 0.000000 0.000000 0.020356 0.000000
# 6 0.000000 0.000000 0.000000 0.000000 0.000000 0.581496
#
#
# Mechanical properties :
#
#
# Convention : Reuss Voigt Hill
#
# Bulk Modulus (GPa) = 79.08554 95.02030 87.05292
# Shear Modulus (GPa) = 8.15359 26.61887 17.38623
#
# Velocity S-wave (km/s) = 1.76523 3.18949 2.57768
# Velocity P-wave (km/s) = 5.86332 7.06239 6.49061
#
# Compressibility (1/GPa) = 0.01264454
#
# Stress axis : x y z
#
# Youngs Moduli (GPa) = 172.37121 91.25827 176.10065
#
# Poissons Ratio (x) = 0.16392 0.35192
# Poissons Ratio (y) = 0.30961 0.19408
# Poissons Ratio (z) = 0.34447 0.10057
#
# Static dielectric constant tensor:
#      x y z
#    x 2.587660 0.000000 0.000000 
#    y 0.000000 2.094270 0.000000 
#    z 0.000000 0.000000 2.596290 
# 
# From -- ./inp_files/28551.got.cif
#   From: 2010.05.17/outbox.cif.g08.bks.cpg/sg24_15_cif.got.tgz:28551.got - 2010.06.04 00:33:39.
