data_PCOD9336159
_publ_section_title
;
Structure prediction by ZEFSAII (Michael W. Deem and Ramdas Pophale) SiO2 
 PCOD9336159
Probable space group: I 21 21 21
;
_chemical_formula_sum "Si O2"
_cell_formula_units_Z 40
_cell_length_a 15.083742
_cell_length_b 7.245675
_cell_length_c 15.579395
_cell_angle_alpha 90.000000
_cell_angle_beta 90.000000
_cell_angle_gamma 90.000000
_cell_volume 1702.701561
_symmetry_space_group_name_H-M "I 21 21 21"
_symmetry_group_IT_number 24
_symmetry_cell_setting 'orthorhombic'
loop_
_space_group_symop_operation_xyz
x,y,z
-x,1/2-y,z
x,-y,1/2-z
1/2-x,y,-z
1/2+x,1/2+y,1/2+z
1/2-x,-y,1/2+z
1/2+x,1/2-y,-z
-x,1/2+y,1/2-z
loop_
_atom_site_type_symbol
_atom_site_label
_atom_site_fract_x
_atom_site_fract_y
_atom_site_fract_z
Si Si1 0.073969 0.902296 0.335325
Si Si2 0.403686 0.786560 0.145342
Si Si3 0.830724 0.963082 0.548653
Si Si4 0.249676 0.695082 0.280423
Si Si5 0.418662 0.884792 0.482773
O O1 0.170667 0.828789 0.307226
O O2 0.076410 0.000428 0.428459
O O3 0.000000 0.750000 0.353934
O O4 0.040037 0.000000 0.250000
O O5 0.500000 0.750000 0.188490
O O6 0.398757 0.622431 0.074174
O O7 0.319857 0.766176 0.209079
O O8 0.397669 0.979718 0.095177
O O9 0.750000 0.059634 0.500000
O O10 0.806263 0.867282 0.637994
O O11 0.852942 0.783809 0.492285
O O12 0.208057 0.500000 0.250000
O O13 0.500000 0.750000 0.456808
#
# Coordination Sequence:
#
# PCOD9336159 Si02
#       5
#     8   8   8   8   8
#     4  11  25  45  69 102 139 188 242 299 358 426
#     4  11  25  45  73 109 141 188 240 290 360 434
#     4  11  23  44  71 101 145 184 234 291 356 426
#     4  10  24  44  69 103 142 182 229 293 359 422
#     4  11  24  44  74 101 143 189 235 295 357 423
#
# _framework density 23.492079
#
# number of rings (size 3 to 8) (size 9 to 14) (size 15 to 20)
#    0.000    1.200    4.000    0.600    2.800    5.600 
#    3.600    0.000    0.000    0.000    0.000    0.000 
#    0.000    0.000    0.000    0.000    0.000    0.000 
#
# Total GULP energy -111504.048523 kJ/mol
# GULP energy per Si atom -5575.202426 kJ/mol
# Density = 2.343861 g / cm^3
# Si number density = 23.492079 Si / 1000 Ang^3
#
#
#
# Elastic Constant Matrix: (Units=GPa)
#
#
# Indices 1 2 3 4 5 6 
#
# 1 100.3969 19.4442 18.3028 0.0000 0.0000 0.0000
# 2 19.4442 74.8990 33.8035 0.0000 0.0000 0.0000
# 3 18.3028 33.8035 111.8074 0.0000 0.0000 0.0000
# 4 0.0000 0.0000 0.0000 28.1036 0.0000 0.0000
# 5 0.0000 0.0000 0.0000 0.0000 1.6132 0.0000
# 6 0.0000 0.0000 0.0000 0.0000 0.0000 20.0728
#
#
#
# Elastic Compliance Matrix: (Units=1/GPa)
#
#
# Indices 1 2 3 4 5 6 
#
# 1 0.010592 -0.002278 -0.001045 0.000000 0.000000 0.000000
# 2 -0.002278 0.015951 -0.004450 0.000000 0.000000 0.000000
# 3 -0.001045 -0.004450 0.010460 0.000000 0.000000 0.000000
# 4 0.000000 0.000000 0.000000 0.035583 0.000000 0.000000
# 5 0.000000 0.000000 0.000000 0.000000 0.619876 0.000000
# 6 0.000000 0.000000 0.000000 0.000000 0.000000 0.049819
#
#
# Mechanical properties :
#
#
# Convention : Reuss Voigt Hill
#
# Bulk Modulus (GPa) = 46.60338 47.80047 47.20193
# Shear Modulus (GPa) = 6.53612 24.32811 15.43212
#
# Velocity S-wave (km/s) = 1.66982 3.22155 2.56580
# Velocity P-wave (km/s) = 4.85785 5.85060 5.37718
#
# Compressibility (1/GPa) = 0.02145767
#
# Stress axis : x y z
#
# Youngs Moduli (GPa) = 94.40900 62.69227 95.59925
#
# Poissons Ratio (x) = 0.14282 0.09992
# Poissons Ratio (y) = 0.21507 0.42538
# Poissons Ratio (z) = 0.09868 0.27896
#
# Static dielectric constant tensor:
#      x y z
#    x 2.141470 0.000000 0.000000 
#    y 0.000000 1.992400 0.000000 
#    z 0.000000 0.000000 1.944890 
# 
# From -- ./inp_files/30604.got.cif
#   From: 2010.05.17/outbox.cif.g08.bks.cpg/sg24_16_cif.got.tgz:30604.got - 2010.06.04 00:33:39.
