data_PCOD9336841
_publ_section_title
;
Structure prediction by ZEFSAII (Michael W. Deem and Ramdas Pophale) SiO2 
 PCOD9336841
Probable space group: I 21 21 21
;
_chemical_formula_sum "Si O2"
_cell_formula_units_Z 36
_cell_length_a 19.870349
_cell_length_b 17.928959
_cell_length_c 4.891150
_cell_angle_alpha 90.000000
_cell_angle_beta 90.000000
_cell_angle_gamma 90.000000
_cell_volume 1742.495042
_symmetry_space_group_name_H-M "I 21 21 21"
_symmetry_group_IT_number 24
_symmetry_cell_setting 'orthorhombic'
loop_
_space_group_symop_operation_xyz
x,y,z
-x,1/2-y,z
x,-y,1/2-z
1/2-x,y,-z
1/2+x,1/2+y,1/2+z
1/2-x,-y,1/2+z
1/2+x,1/2-y,-z
-x,1/2+y,1/2-z
loop_
_atom_site_type_symbol
_atom_site_label
_atom_site_fract_x
_atom_site_fract_y
_atom_site_fract_z
Si Si1 0.980874 0.087665 0.195609
Si Si2 0.627221 0.628659 0.483034
Si Si3 0.446417 0.682068 0.217460
Si Si4 0.669392 0.280856 0.518357
Si Si5 0.787475 0.500000 0.250000
O O1 0.978854 0.131194 0.481017
O O2 0.052372 0.102115 0.048864
O O3 0.969476 0.000000 0.250000
O O4 0.933120 0.131165 0.982452
O O5 0.644132 0.651289 0.175996
O O6 0.672238 0.561106 0.583948
O O7 0.647276 0.698377 0.674912
O O8 0.500000 0.750000 0.276790
O O9 0.377352 0.714672 0.095224
O O10 0.750000 0.270464 0.500000
O O11 0.750000 0.460004 0.500000
#
# Coordination Sequence:
#
# PCOD9336841 Si02
#       5
#     8   8   8   8   4
#     4  12  24  42  66  99 132 172 219 275 331 391
#     4  12  22  39  60  88 130 172 210 260 318 386
#     4  12  23  42  69  93 131 175 221 273 328 385
#     4  12  25  40  63  93 127 166 219 271 323 382
#     4  12  24  36  52  82 130 182 214 240 306 396
#
# _framework density 20.660029999999999
#
# number of rings (size 3 to 8) (size 9 to 14) (size 15 to 20)
#    0.000    0.000    5.556    6.667    0.000    0.000 
#    0.000    0.000    0.000    2.667    0.000    0.000 
#    0.000    0.000    0.000    0.000    0.000    0.000 
#
# Total GULP energy -100662.703634 kJ/mol
# GULP energy per Si atom -5592.372424 kJ/mol
# Density = 2.061301 g / cm^3
# Si number density = 20.660030 Si / 1000 Ang^3
#
#
#
# Elastic Constant Matrix: (Units=GPa)
#
#
# Indices 1 2 3 4 5 6 
#
# 1 71.0440 30.0909 -3.3666 0.0000 0.0000 0.0000
# 2 30.0909 125.5515 28.9656 0.0000 0.0000 0.0000
# 3 -3.3666 28.9656 93.3476 0.0000 0.0000 0.0000
# 4 0.0000 0.0000 0.0000 33.6619 0.0000 0.0000
# 5 0.0000 0.0000 0.0000 0.0000 26.2538 0.0000
# 6 0.0000 0.0000 0.0000 0.0000 0.0000 32.3559
#
#
#
# Elastic Compliance Matrix: (Units=1/GPa)
#
#
# Indices 1 2 3 4 5 6 
#
# 1 0.015973 -0.004267 0.001900 0.000000 0.000000 0.000000
# 2 -0.004267 0.009719 -0.003170 0.000000 0.000000 0.000000
# 3 0.001900 -0.003170 0.011765 0.000000 0.000000 0.000000
# 4 0.000000 0.000000 0.000000 0.029707 0.000000 0.000000
# 5 0.000000 0.000000 0.000000 0.000000 0.038090 0.000000
# 6 0.000000 0.000000 0.000000 0.000000 0.000000 0.030906
#
#
# Mechanical properties :
#
#
# Convention : Reuss Voigt Hill
#
# Bulk Modulus (GPa) = 37.90180 44.59144 41.24662
# Shear Modulus (GPa) = 32.04585 34.07120 33.05852
#
# Velocity S-wave (km/s) = 3.94268 4.06536 4.00449
# Velocity P-wave (km/s) = 6.25392 6.60806 6.43343
#
# Compressibility (1/GPa) = 0.02638397
#
# Stress axis : x y z
#
# Youngs Moduli (GPa) = 62.60594 102.89472 85.00013
#
# Poissons Ratio (x) = 0.43901 -0.16150
# Poissons Ratio (y) = 0.26711 0.26941
# Poissons Ratio (z) = -0.11895 0.32613
#
# Static dielectric constant tensor:
#      x y z
#    x 1.810380 0.000000 0.000000 
#    y 0.000000 1.783990 0.000000 
#    z 0.000000 0.000000 1.730880 
# 
# From -- ./inp_files/5383.got.cif
#   From: 2010.05.17/outbox.cif.g08.bks.cpg/sg24_3_cif.got.tgz:5383.got - 2010.06.04 00:33:39.
