data_PCOD9336242
_publ_section_title
;
Structure prediction by ZEFSAII (Michael W. Deem and Ramdas Pophale) SiO2 
 PCOD9336242
Probable space group: I 21 21 21
;
_chemical_formula_sum "Si O2"
_cell_formula_units_Z 40
_cell_length_a 5.721821
_cell_length_b 22.673964
_cell_length_c 13.440730
_cell_angle_alpha 90.000000
_cell_angle_beta 90.000000
_cell_angle_gamma 90.000000
_cell_volume 1743.751431
_symmetry_space_group_name_H-M "I 21 21 21"
_symmetry_group_IT_number 24
_symmetry_cell_setting 'orthorhombic'
loop_
_space_group_symop_operation_xyz
x,y,z
-x,1/2-y,z
x,-y,1/2-z
1/2-x,y,-z
1/2+x,1/2+y,1/2+z
1/2-x,-y,1/2+z
1/2+x,1/2-y,-z
-x,1/2+y,1/2-z
loop_
_atom_site_type_symbol
_atom_site_label
_atom_site_fract_x
_atom_site_fract_y
_atom_site_fract_z
Si Si1 0.743159 0.474438 0.380036
Si Si2 0.760496 0.612902 0.622331
Si Si3 0.243232 0.416151 0.379970
Si Si4 0.379905 0.305616 0.910296
Si Si5 0.403758 0.692602 0.237238
O O1 0.750000 0.469446 0.500000
O O2 0.737182 0.543938 0.356708
O O3 0.489300 0.448127 0.349571
O O4 0.993395 0.445414 0.348500
O O5 0.750000 0.621279 0.500000
O O6 0.519702 0.644641 0.646962
O O7 0.946102 0.648853 0.689155
O O8 0.250000 0.415972 0.500000
O O9 0.270407 0.350643 0.336689
O O10 0.500000 0.250000 0.963751
O O11 0.244468 0.274237 0.822174
O O12 0.250000 0.337284 0.000000
O O13 0.500000 0.750000 0.180156
#
# Coordination Sequence:
#
# PCOD9336242 Si02
#       5
#     8   8   8   8   8
#     4   9  22  44  73  99 136 178 235 293 357 423
#     4  11  23  41  66 101 139 186 224 282 359 437
#     4  10  24  49  72 100 135 185 238 303 355 405
#     4  12  23  39  63  93 144 189 232 280 351 427
#     4  12  26  43  66 101 139 186 237 294 350 426
#
# _framework density 22.939050000000002
#
# number of rings (size 3 to 8) (size 9 to 14) (size 15 to 20)
#    0.000    1.200    4.000    1.200    5.600    1.600 
#    0.000    4.000    0.000    0.000    0.000    0.000 
#    0.000    0.000    0.000    0.000    0.000    0.000 
#
# Total GULP energy -111341.210843 kJ/mol
# GULP energy per Si atom -5567.060542 kJ/mol
# Density = 2.288684 g / cm^3
# Si number density = 22.939050 Si / 1000 Ang^3
#
#
#
# Elastic Constant Matrix: (Units=GPa)
#
#
# Indices 1 2 3 4 5 6 
#
# 1 125.0459 60.2442 29.4558 0.0000 0.0000 0.0000
# 2 60.2442 166.4801 25.1064 0.0000 0.0000 0.0000
# 3 29.4558 25.1064 65.3782 -0.0001 0.0000 0.0000
# 4 0.0000 0.0000 -0.0001 24.0484 0.0000 0.0000
# 5 0.0000 0.0000 0.0000 0.0000 19.7663 0.0000
# 6 0.0000 0.0000 0.0000 0.0000 0.0000 32.8422
#
#
#
# Elastic Compliance Matrix: (Units=1/GPa)
#
#
# Indices 1 2 3 4 5 6 
#
# 1 0.010362 -0.003233 -0.003427 0.000000 0.000000 0.000000
# 2 -0.003233 0.007385 -0.001379 0.000000 0.000000 0.000000
# 3 -0.003427 -0.001379 0.017369 0.000000 0.000000 0.000000
# 4 0.000000 0.000000 0.000000 0.041583 0.000000 0.000000
# 5 0.000000 0.000000 0.000000 0.000000 0.050591 0.000000
# 6 0.000000 0.000000 0.000000 0.000000 0.000000 0.030449
#
#
# Mechanical properties :
#
#
# Convention : Reuss Voigt Hill
#
# Bulk Modulus (GPa) = 52.52788 65.16857 58.84823
# Shear Modulus (GPa) = 27.75275 31.47124 29.61200
#
# Velocity S-wave (km/s) = 3.48206 3.70800 3.59681
# Velocity P-wave (km/s) = 6.25419 6.84131 6.55433
#
# Compressibility (1/GPa) = 0.01903751
#
# Stress axis : x y z
#
# Youngs Moduli (GPa) = 96.50813 135.41710 57.57278
#
# Poissons Ratio (x) = 0.43778 0.19730
# Poissons Ratio (y) = 0.31199 0.07941
# Poissons Ratio (z) = 0.33073 0.18678
#
# Static dielectric constant tensor:
#      x y z
#    x 2.244550 0.000000 0.000000 
#    y 0.000000 1.804180 0.000000 
#    z 0.000000 0.000000 1.852190 
# 
# From -- ./inp_files/3490.got.cif
#   From: 2010.05.17/outbox.cif.g08.bks.cpg/sg24_2_cif.got.tgz:3490.got - 2010.06.04 00:33:39.
