data_PCOD9336035
_publ_section_title
;
Structure prediction by ZEFSAII (Michael W. Deem and Ramdas Pophale) SiO2 
 PCOD9336035
Probable space group: I 21 21 21
;
_chemical_formula_sum "Si O2"
_cell_formula_units_Z 60
_cell_length_a 9.082312
_cell_length_b 12.075603
_cell_length_c 26.361572
_cell_angle_alpha 90.000000
_cell_angle_beta 90.000000
_cell_angle_gamma 90.000000
_cell_volume 2891.189435
_symmetry_space_group_name_H-M "I 21 21 21"
_symmetry_group_IT_number 24
_symmetry_cell_setting 'orthorhombic'
loop_
_space_group_symop_operation_xyz
x,y,z
-x,1/2-y,z
x,-y,1/2-z
1/2-x,y,-z
1/2+x,1/2+y,1/2+z
1/2-x,-y,1/2+z
1/2+x,1/2-y,-z
-x,1/2+y,1/2-z
loop_
_atom_site_type_symbol
_atom_site_label
_atom_site_fract_x
_atom_site_fract_y
_atom_site_fract_z
Si Si1 0.171339 0.766973 0.785178
Si Si2 0.500000 0.250000 0.054704
Si Si3 0.862193 0.321287 0.191618
Si Si4 0.605832 0.644147 0.965210
Si Si5 0.576688 0.064951 0.983811
Si Si6 0.160078 0.546791 0.194161
Si Si7 0.776814 0.144675 0.114304
Si Si8 0.138252 0.071344 0.351347
O O1 0.231211 0.808122 0.731157
O O2 0.229065 0.644519 0.795676
O O3 0.237845 0.854986 0.824648
O O4 0.000000 0.750000 0.786183
O O5 0.626377 0.190225 0.088304
O O6 0.473367 0.150071 0.014788
O O7 0.833468 0.252466 0.141654
O O8 0.868788 0.447529 0.172897
O O9 0.000000 0.250000 0.215005
O O10 0.500000 0.750000 0.956706
O O11 0.498981 0.552719 0.990014
O O12 0.653146 0.589453 0.911408
O O13 0.750000 0.666764 0.000000
O O14 0.602512 0.102438 0.925992
O O15 0.750000 0.063101 0.000000
O O16 0.116269 0.500000 0.250000
O O17 0.227702 0.451100 0.157658
O O18 0.025002 0.606442 0.165699
#
# Coordination Sequence:
#
# PCOD9336035 Si02
#       8
#     8   4   8   8   8   8   8   8
#     4  12  28  45  67 103 151 191 242 304 368 451
#     4  10  26  42  72 110 154 184 242 314 386 452
#     4  12  23  45  72 107 139 186 246 299 369 443
#     4  12  27  47  72 102 137 188 244 313 374 460
#     4  10  23  46  71 103 144 190 238 306 372 450
#     4  12  22  45  76 104 143 197 244 296 368 448
#     4  11  24  42  75 106 147 191 238 305 374 449
#     4  12  26  46  75 100 138 189 251 306 363 449
#
# _framework density 20.752703
#
# number of rings (size 3 to 8) (size 9 to 14) (size 15 to 20)
#    0.000    0.533    4.000    3.600    5.600    3.200 
#    2.400    0.000    0.000    0.000    0.000    0.000 
#    0.000    0.000    0.000    0.000    0.000    0.000 
#
# Total GULP energy -167296.720291 kJ/mol
# GULP energy per Si atom -5576.557343 kJ/mol
# Density = 2.070547 g / cm^3
# Si number density = 20.752703 Si / 1000 Ang^3
#
#
#
# Elastic Constant Matrix: (Units=GPa)
#
#
# Indices 1 2 3 4 5 6 
#
# 1 99.1176 28.4388 41.7625 0.0000 0.0000 0.0000
# 2 28.4388 91.7877 34.7660 0.0000 0.0000 0.0000
# 3 41.7625 34.7660 107.4625 0.0000 0.0000 0.0000
# 4 0.0000 0.0000 0.0000 35.4161 0.0000 0.0000
# 5 0.0000 0.0000 0.0000 0.0000 0.7319 0.0000
# 6 0.0000 0.0000 0.0000 0.0000 0.0000 30.5487
#
#
#
# Elastic Compliance Matrix: (Units=1/GPa)
#
#
# Indices 1 2 3 4 5 6 
#
# 1 0.012481 -0.002313 -0.004102 0.000000 0.000000 0.000000
# 2 -0.002313 0.012845 -0.003257 0.000000 0.000000 0.000000
# 3 -0.004102 -0.003257 0.011953 0.000000 0.000000 0.000000
# 4 0.000000 0.000000 0.000000 0.028236 0.000000 0.000000
# 5 0.000000 0.000000 0.000000 0.000000 1.366236 0.000000
# 6 0.000000 0.000000 0.000000 0.000000 0.000000 0.032735
#
#
# Mechanical properties :
#
#
# Convention : Reuss Voigt Hill
#
# Bulk Modulus (GPa) = 55.75548 56.47804 56.11676
# Shear Modulus (GPa) = 3.35614 26.23272 14.79443
#
# Velocity S-wave (km/s) = 1.27307 3.55922 2.67290
# Velocity P-wave (km/s) = 5.39313 6.64565 6.05188
#
# Compressibility (1/GPa) = 0.01793546
#
# Stress axis : x y z
#
# Youngs Moduli (GPa) = 80.12082 77.85186 83.65908
#
# Poissons Ratio (x) = 0.18010 0.34318
# Poissons Ratio (y) = 0.18535 0.27244
# Poissons Ratio (z) = 0.32866 0.25353
#
# Static dielectric constant tensor:
#      x y z
#    x 1.779560 0.000000 0.000000 
#    y 0.000000 1.907690 0.000000 
#    z 0.000000 0.000000 1.801350 
# 
# From -- ./inp_files/36947.got.cif
#   From: 2010.05.17/outbox.cif.g08.bks.cpg/sg24_19_cif.got.tgz:36947.got - 2010.06.04 00:33:39.
