data_PCOD9336517
_publ_section_title
;
Structure prediction by ZEFSAII (Michael W. Deem and Ramdas Pophale) SiO2 
 PCOD9336517
Probable space group: I 21 21 21
;
_chemical_formula_sum "Si O2"
_cell_formula_units_Z 36
_cell_length_a 5.028255
_cell_length_b 24.547444
_cell_length_c 13.475160
_cell_angle_alpha 90.000000
_cell_angle_beta 90.000000
_cell_angle_gamma 90.000000
_cell_volume 1663.249887
_symmetry_space_group_name_H-M "I 21 21 21"
_symmetry_group_IT_number 24
_symmetry_cell_setting 'orthorhombic'
loop_
_space_group_symop_operation_xyz
x,y,z
-x,1/2-y,z
x,-y,1/2-z
1/2-x,y,-z
1/2+x,1/2+y,1/2+z
1/2-x,-y,1/2+z
1/2+x,1/2-y,-z
-x,1/2+y,1/2-z
loop_
_atom_site_type_symbol
_atom_site_label
_atom_site_fract_x
_atom_site_fract_y
_atom_site_fract_z
Si Si1 0.000000 0.250000 0.747593
Si Si2 0.250000 0.999145 0.000000
Si Si3 0.000000 0.750000 0.108851
Si Si4 0.684062 0.872716 0.292307
Si Si5 0.790182 0.412611 0.325314
Si Si6 0.250000 0.576099 0.500000
Si Si7 0.750000 0.662485 0.000000
O O1 0.252018 0.240729 0.678564
O O2 0.079527 0.309308 0.794848
O O3 0.501374 0.036981 0.017532
O O4 0.184331 0.965057 0.102046
O O5 0.010653 0.800924 0.037022
O O6 0.433213 0.910679 0.259971
O O7 0.782863 0.887888 0.401767
O O8 0.932092 0.888463 0.218548
O O9 0.664748 0.372239 0.406865
#
# Coordination Sequence:
#
# PCOD9336517 Si02
#       7
#     4   4   4   8   8   4   4
#     4  12  23  44  65 102 140 186 229 278 347 426
#     4  11  26  48  71 112 135 182 236 303 366 446
#     4  12  23  36  65  96 144 186 213 276 353 440
#     4  12  25  47  69 103 138 191 233 297 351 421
#     4  11  25  42  72 102 147 174 231 291 370 432
#     4  12  28  48  74  96 138 190 260 296 350 406
#     4  11  22  38  61 106 139 184 212 279 356 448
#
# _framework density 21.644373999999999
#
# number of rings (size 3 to 8) (size 9 to 14) (size 15 to 20)
#    0.000    0.444    4.444    3.333    0.000    9.778 
#    0.000    4.444    0.000    0.000    0.000    0.000 
#    0.000    0.000    0.000    0.000    0.000    0.000 
#
# Total GULP energy -100357.499792 kJ/mol
# GULP energy per Si atom -5575.416655 kJ/mol
# Density = 2.159511 g / cm^3
# Si number density = 21.644374 Si / 1000 Ang^3
#
#
#
# Elastic Constant Matrix: (Units=GPa)
#
#
# Indices 1 2 3 4 5 6 
#
# 1 129.4792 37.3548 35.1072 0.0000 0.0000 0.0000
# 2 37.3548 116.3613 65.5522 0.0000 0.0000 0.0000
# 3 35.1072 65.5522 133.6211 0.0000 0.0000 0.0000
# 4 0.0000 0.0000 0.0000 28.0921 0.0000 0.0000
# 5 0.0000 0.0000 0.0000 0.0000 23.7795 0.0000
# 6 0.0000 0.0000 0.0000 0.0000 0.0000 34.5100
#
#
#
# Elastic Compliance Matrix: (Units=1/GPa)
#
#
# Indices 1 2 3 4 5 6 
#
# 1 0.008662 -0.002071 -0.001260 0.000000 0.000000 0.000000
# 2 -0.002071 0.012371 -0.005525 0.000000 0.000000 0.000000
# 3 -0.001260 -0.005525 0.010525 0.000000 0.000000 0.000000
# 4 0.000000 0.000000 0.000000 0.035597 0.000000 0.000000
# 5 0.000000 0.000000 0.000000 0.000000 0.042053 0.000000
# 6 0.000000 0.000000 0.000000 0.000000 0.000000 0.028977
#
#
# Mechanical properties :
#
#
# Convention : Reuss Voigt Hill
#
# Bulk Modulus (GPa) = 72.21740 72.83222 72.52481
# Shear Modulus (GPa) = 31.14996 33.37282 32.26139
#
# Velocity S-wave (km/s) = 3.79776 3.93093 3.86491
# Velocity P-wave (km/s) = 7.25731 7.37058 7.31416
#
# Compressibility (1/GPa) = 0.01384708
#
# Stress axis : x y z
#
# Youngs Moduli (GPa) = 115.44195 80.83234 95.00891
#
# Poissons Ratio (x) = 0.16741 0.11970
# Poissons Ratio (y) = 0.23909 0.52492
# Poissons Ratio (z) = 0.14544 0.44660
#
# Static dielectric constant tensor:
#      x y z
#    x 1.767480 0.000000 0.000000 
#    y 0.000000 1.872040 0.000000 
#    z 0.000000 0.000000 1.906780 
# 
# From -- ./inp_files/17571.got.cif
#   From: 2010.05.17/outbox.cif.g08.bks.cpg/sg24_9_cif.got.tgz:17571.got - 2010.06.04 00:33:39.
