data_PCOD9336502
_publ_section_title
;
Structure prediction by ZEFSAII (Michael W. Deem and Ramdas Pophale) SiO2 
 PCOD9336502
Probable space group: I 21 21 21
;
_chemical_formula_sum "Si O2"
_cell_formula_units_Z 32
_cell_length_a 18.700548
_cell_length_b 5.641012
_cell_length_c 12.970087
_cell_angle_alpha 90.000000
_cell_angle_beta 90.000000
_cell_angle_gamma 90.000000
_cell_volume 1368.214681
_symmetry_space_group_name_H-M "I 21 21 21"
_symmetry_group_IT_number 24
_symmetry_cell_setting 'orthorhombic'
loop_
_space_group_symop_operation_xyz
x,y,z
-x,1/2-y,z
x,-y,1/2-z
1/2-x,y,-z
1/2+x,1/2+y,1/2+z
1/2-x,-y,1/2+z
1/2+x,1/2-y,-z
-x,1/2+y,1/2-z
loop_
_atom_site_type_symbol
_atom_site_label
_atom_site_fract_x
_atom_site_fract_y
_atom_site_fract_z
Si Si1 0.538405 0.000000 0.250000
Si Si2 0.117637 0.654881 0.537539
Si Si3 0.230584 0.938849 0.645047
Si Si4 0.750000 0.822232 0.000000
Si Si5 0.618191 0.753454 0.689932
O O1 0.500000 0.750000 0.222775
O O2 0.576271 0.923186 0.358958
O O3 0.169212 0.872715 0.566696
O O4 0.177938 0.457927 0.522235
O O5 0.084880 0.718042 0.425813
O O6 0.295307 0.760126 0.667909
O O7 0.192096 0.000000 0.750000
O O8 0.267110 0.169048 0.600157
O O9 0.601522 0.500000 0.750000
O O10 0.602298 0.000000 0.750000
#
# Coordination Sequence:
#
# PCOD9336502 Si02
#       5
#     4   8   8   4   8
#     4  12  34  54  76 108 154 232 280 314 376 454
#     4  12  24  44  70 103 155 198 261 324 378 476
#     4  11  22  33  58 101 148 191 227 297 398 474
#     4  12  20  38  64 110 138 198 240 312 426 438
#     4  11  23  38  64 107 149 178 230 301 404 475
#
# _framework density 23.388141999999998
#
# number of rings (size 3 to 8) (size 9 to 14) (size 15 to 20)
#    0.000    0.500    5.000    4.500    7.000    0.000 
#    0.000    0.000    0.000    3.000    0.000    0.000 
#    0.000    0.000    0.000    0.000    0.000    0.000 
#
# Total GULP energy -89121.067438 kJ/mol
# GULP energy per Si atom -5570.066715 kJ/mol
# Density = 2.333491 g / cm^3
# Si number density = 23.388142 Si / 1000 Ang^3
#
#
#
# Elastic Constant Matrix: (Units=GPa)
#
#
# Indices 1 2 3 4 5 6 
#
# 1 53.9456 29.5779 36.6929 0.0000 0.0000 0.0000
# 2 29.5779 122.2154 65.6208 0.0000 0.0000 0.0000
# 3 36.6929 65.6208 214.7431 0.0000 0.0000 0.0000
# 4 0.0000 0.0000 0.0000 78.0173 0.0000 0.0000
# 5 0.0000 0.0000 0.0000 0.0000 14.8330 0.0000
# 6 0.0000 0.0000 0.0000 0.0000 0.0000 29.7498
#
#
#
# Elastic Compliance Matrix: (Units=1/GPa)
#
#
# Indices 1 2 3 4 5 6 
#
# 1 0.022535 -0.004051 -0.002613 0.000000 0.000000 0.000000
# 2 -0.004051 0.010517 -0.002521 0.000000 0.000000 0.000000
# 3 -0.002613 -0.002521 0.005874 0.000000 0.000000 0.000000
# 4 0.000000 0.000000 0.000000 0.012818 0.000000 0.000000
# 5 0.000000 0.000000 0.000000 0.000000 0.067417 0.000000
# 6 0.000000 0.000000 0.000000 0.000000 0.000000 0.033614
#
#
# Mechanical properties :
#
#
# Convention : Reuss Voigt Hill
#
# Bulk Modulus (GPa) = 48.64934 72.74302 60.69618
# Shear Modulus (GPa) = 28.09046 41.78752 34.93899
#
# Velocity S-wave (km/s) = 3.46938 4.23152 3.86926
# Velocity P-wave (km/s) = 6.07411 7.41919 6.78009
#
# Compressibility (1/GPa) = 0.02055526
#
# Stress axis : x y z
#
# Youngs Moduli (GPa) = 44.37447 95.08859 170.25207
#
# Poissons Ratio (x) = 0.38521 0.44482
# Poissons Ratio (y) = 0.17976 0.42928
# Poissons Ratio (z) = 0.11594 0.23976
#
# Static dielectric constant tensor:
#      x y z
#    x 1.848420 0.000000 0.000000 
#    y 0.000000 1.952570 0.000000 
#    z 0.000000 0.000000 1.880000 
# 
# From -- ./inp_files/2194.got.cif
#   From: 2010.05.17/outbox.cif.g08.bks.cpg/sg24_2_cif.got.tgz:2194.got - 2010.06.04 00:33:39.
