data_PCOD9336263
_publ_section_title
;
Structure prediction by ZEFSAII (Michael W. Deem and Ramdas Pophale) SiO2 
 PCOD9336263
Probable space group: I 21 21 21
;
_chemical_formula_sum "Si O2"
_cell_formula_units_Z 48
_cell_length_a 17.346946
_cell_length_b 14.022235
_cell_length_c 8.983885
_cell_angle_alpha 90.000000
_cell_angle_beta 90.000000
_cell_angle_gamma 90.000000
_cell_volume 2185.266720
_symmetry_space_group_name_H-M "I 21 21 21"
_symmetry_group_IT_number 24
_symmetry_cell_setting 'orthorhombic'
loop_
_space_group_symop_operation_xyz
x,y,z
-x,1/2-y,z
x,-y,1/2-z
1/2-x,y,-z
1/2+x,1/2+y,1/2+z
1/2-x,-y,1/2+z
1/2+x,1/2-y,-z
-x,1/2+y,1/2-z
loop_
_atom_site_type_symbol
_atom_site_label
_atom_site_fract_x
_atom_site_fract_y
_atom_site_fract_z
Si Si1 0.585774 0.790569 0.502233
Si Si2 0.750000 0.110004 0.500000
Si Si3 0.337963 0.229397 0.684166
Si Si4 0.403381 0.508708 0.076527
Si Si5 0.616028 0.500000 0.250000
Si Si6 0.033781 0.850830 0.960197
Si Si7 0.201094 0.835994 0.644788
O O1 0.500000 0.750000 0.490785
O O2 0.620702 0.757399 0.660909
O O3 0.587949 0.904293 0.492478
O O4 0.636082 0.745630 0.366684
O O5 0.700501 0.178125 0.608316
O O6 0.815715 0.045071 0.573116
O O7 0.401628 0.177020 0.582327
O O8 0.261164 0.167843 0.720174
O O9 0.425782 0.500000 0.250000
O O10 0.460412 0.583786 0.994845
O O11 0.572985 0.415920 0.335615
O O12 0.664979 0.440002 0.132722
O O13 0.000000 0.750000 0.906471
O O14 0.250000 0.815821 0.500000
#
# Coordination Sequence:
#
# PCOD9336263 Si02
#       7
#     8   4   8   8   4   8   8
#     4  11  26  49  75 108 151 200 251 312 375 450
#     4  12  26  44  76 108 148 196 240 314 370 456
#     4  11  25  50  74 107 152 195 247 317 379 439
#     4  12  28  45  76 111 146 200 250 308 382 456
#     4  12  26  42  76 100 140 194 244 304 366 446
#     4  12  26  48  72 110 147 195 248 307 372 450
#     4  10  25  45  70 104 143 187 244 305 371 438
#
# _framework density 21.965284
#
# number of rings (size 3 to 8) (size 9 to 14) (size 15 to 20)
#    0.000    0.667    2.500    3.500   10.500    0.000 
#    0.000    1.667    0.000    0.000    0.000    0.000 
#    0.000    0.000    0.000    0.000    0.000    0.000 
#
# Total GULP energy -134084.668432 kJ/mol
# GULP energy per Si atom -5586.861185 kJ/mol
# Density = 2.191529 g / cm^3
# Si number density = 21.965284 Si / 1000 Ang^3
#
#
#
# Elastic Constant Matrix: (Units=GPa)
#
#
# Indices 1 2 3 4 5 6 
#
# 1 177.0505 86.7871 60.3595 0.0000 0.0000 0.0000
# 2 86.7871 173.6746 36.8998 0.0000 0.0000 0.0000
# 3 60.3595 36.8998 75.0132 0.0000 0.0000 0.0000
# 4 0.0000 0.0000 0.0000 27.9474 0.0000 0.0000
# 5 0.0000 0.0000 0.0000 0.0000 46.5161 0.0000
# 6 0.0000 0.0000 0.0000 0.0000 0.0000 41.7166
#
#
#
# Elastic Compliance Matrix: (Units=1/GPa)
#
#
# Indices 1 2 3 4 5 6 
#
# 1 0.009300 -0.003414 -0.005804 0.000000 0.000000 0.000000
# 2 -0.003414 0.007683 -0.001032 0.000000 0.000000 0.000000
# 3 -0.005804 -0.001032 0.018509 0.000000 0.000000 0.000000
# 4 0.000000 0.000000 0.000000 0.035782 0.000000 0.000000
# 5 0.000000 0.000000 0.000000 0.000000 0.021498 0.000000
# 6 0.000000 0.000000 0.000000 0.000000 0.000000 0.023971
#
#
# Mechanical properties :
#
#
# Convention : Reuss Voigt Hill
#
# Bulk Modulus (GPa) = 66.70393 88.20347 77.45370
# Shear Modulus (GPa) = 35.15135 39.34881 37.25008
#
# Velocity S-wave (km/s) = 4.00473 4.23710 4.12255
# Velocity P-wave (km/s) = 7.19845 8.01126 7.61571
#
# Compressibility (1/GPa) = 0.01499162
#
# Stress axis : x y z
#
# Youngs Moduli (GPa) = 107.52110 130.15071 54.02783
#
# Poissons Ratio (x) = 0.44439 0.31358
# Poissons Ratio (y) = 0.36712 0.05576
# Poissons Ratio (z) = 0.62406 0.13433
#
# Static dielectric constant tensor:
#      x y z
#    x 1.936010 0.000000 0.000000 
#    y 0.000000 1.730320 0.000000 
#    z 0.000000 0.000000 1.834880 
# 
# From -- ./inp_files/14228.got.cif
#   From: 2010.05.17/outbox.cif.g08.bks.cpg/sg24_8_cif.got.tgz:14228.got - 2010.06.04 00:33:39.
