data_PCOD9336088
_publ_section_title
;
Structure prediction by ZEFSAII (Michael W. Deem and Ramdas Pophale) SiO2 
 PCOD9336088
Probable space group: I 21 21 21
;
_chemical_formula_sum "Si O2"
_cell_formula_units_Z 52
_cell_length_a 10.995449
_cell_length_b 13.077133
_cell_length_c 17.560442
_cell_angle_alpha 90.000000
_cell_angle_beta 90.000000
_cell_angle_gamma 90.000000
_cell_volume 2524.997499
_symmetry_space_group_name_H-M "I 21 21 21"
_symmetry_group_IT_number 24
_symmetry_cell_setting 'orthorhombic'
loop_
_space_group_symop_operation_xyz
x,y,z
-x,1/2-y,z
x,-y,1/2-z
1/2-x,y,-z
1/2+x,1/2+y,1/2+z
1/2-x,-y,1/2+z
1/2+x,1/2-y,-z
-x,1/2+y,1/2-z
loop_
_atom_site_type_symbol
_atom_site_label
_atom_site_fract_x
_atom_site_fract_y
_atom_site_fract_z
Si Si1 0.329988 0.447032 0.324142
Si Si2 0.500000 0.250000 0.542297
Si Si3 0.206233 0.235738 0.335252
Si Si4 0.692438 0.487488 0.660885
Si Si5 0.750000 0.554700 0.500000
Si Si6 0.000000 0.250000 0.208237
Si Si7 0.984559 0.968196 0.972991
Si Si8 0.073597 0.460618 0.130936
O O1 0.385363 0.500000 0.250000
O O2 0.303506 0.325150 0.321323
O O3 0.413248 0.475237 0.395139
O O4 0.196417 0.497501 0.333092
O O5 0.382300 0.265638 0.595368
O O6 0.504892 0.350157 0.492344
O O7 0.251676 0.122738 0.358086
O O8 0.116298 0.226513 0.262249
O O9 0.723057 0.500000 0.750000
O O10 0.718915 0.571781 0.594641
O O11 0.545190 0.473664 0.655452
O O12 0.617155 0.515377 0.480155
O O13 0.040086 0.347170 0.158395
O O14 0.911790 0.023743 0.040980
#
# Coordination Sequence:
#
# PCOD9336088 Si02
#       8
#     8   4   8   8   4   4   8   8
#     4  12  24  39  64  98 145 170 213 284 354 410
#     4  11  20  34  62 101 130 152 212 271 332 402
#     4  11  20  33  62 102 127 162 209 272 335 403
#     4  11  21  38  63  89 125 167 224 277 331 399
#     4  10  24  42  60  90 122 172 236 264 330 418
#     4  11  20  34  66  95 128 168 226 267 322 394
#     4  11  25  40  65  93 130 176 218 283 347 398
#     4  11  20  39  63  99 124 171 225 281 328 400
#
# _framework density 20.594080000000002
#
# number of rings (size 3 to 8) (size 9 to 14) (size 15 to 20)
#    0.000    0.923    7.692    1.846    2.154    0.615 
#    0.000    0.000   20.308    0.000    0.000    0.000 
#    0.000    0.000    0.000    0.000    0.000    0.000 
#
# Total GULP energy -144753.931629 kJ/mol
# GULP energy per Si atom -5567.458909 kJ/mol
# Density = 2.054721 g / cm^3
# Si number density = 20.594080 Si / 1000 Ang^3
#
#
#
# Elastic Constant Matrix: (Units=GPa)
#
#
# Indices 1 2 3 4 5 6 
#
# 1 32.8255 2.2343 27.6593 0.0000 0.0000 0.0000
# 2 2.2343 57.3766 15.4045 0.0000 0.0000 0.0000
# 3 27.6593 15.4045 145.0976 0.0000 0.0000 0.0000
# 4 0.0000 0.0000 0.0000 34.9376 0.0000 0.0000
# 5 0.0000 0.0000 0.0000 0.0000 36.5008 0.0000
# 6 0.0000 0.0000 0.0000 0.0000 0.0000 0.9980
#
#
#
# Elastic Compliance Matrix: (Units=1/GPa)
#
#
# Indices 1 2 3 4 5 6 
#
# 1 0.036305 0.000457 -0.006969 0.000000 0.000000 0.000000
# 2 0.000457 0.017946 -0.001992 0.000000 0.000000 0.000000
# 3 -0.006969 -0.001992 0.008432 0.000000 0.000000 0.000000
# 4 0.000000 0.000000 0.000000 0.028622 0.000000 0.000000
# 5 0.000000 0.000000 0.000000 0.000000 0.027397 0.000000
# 6 0.000000 0.000000 0.000000 0.000000 0.000000 1.002027
#
#
# Mechanical properties :
#
#
# Convention : Reuss Voigt Hill
#
# Bulk Modulus (GPa) = 21.89408 36.21066 29.05237
# Shear Modulus (GPa) = 4.33665 27.15406 15.74536
#
# Velocity S-wave (km/s) = 1.45270 3.63511 2.76806
# Velocity P-wave (km/s) = 3.66989 5.93632 4.93498
#
# Compressibility (1/GPa) = 0.04567444
#
# Stress axis : x y z
#
# Youngs Moduli (GPa) = 27.54412 55.72330 118.59633
#
# Poissons Ratio (x) = -0.02548 0.82653
# Poissons Ratio (y) = -0.01260 0.23629
# Poissons Ratio (z) = 0.19196 0.11102
#
# Static dielectric constant tensor:
#      x y z
#    x 1.729280 0.000000 0.000000 
#    y 0.000000 1.782250 0.000000 
#    z 0.000000 0.000000 1.830310 
# 
# From -- ./inp_files/30320.got.cif
#   From: 2010.05.17/outbox.cif.g08.bks.cpg/sg24_16_cif.got.tgz:30320.got - 2010.06.04 00:33:39.
