data_PCOD9336215
_publ_section_title
;
Structure prediction by ZEFSAII (Michael W. Deem and Ramdas Pophale) SiO2 
 PCOD9336215
Probable space group: I 21 21 21
;
_chemical_formula_sum "Si O2"
_cell_formula_units_Z 48
_cell_length_a 8.492315
_cell_length_b 16.877999
_cell_length_c 14.499107
_cell_angle_alpha 90.000000
_cell_angle_beta 90.000000
_cell_angle_gamma 90.000000
_cell_volume 2078.204623
_symmetry_space_group_name_H-M "I 21 21 21"
_symmetry_group_IT_number 24
_symmetry_cell_setting 'orthorhombic'
loop_
_space_group_symop_operation_xyz
x,y,z
-x,1/2-y,z
x,-y,1/2-z
1/2-x,y,-z
1/2+x,1/2+y,1/2+z
1/2-x,-y,1/2+z
1/2+x,1/2-y,-z
-x,1/2+y,1/2-z
loop_
_atom_site_type_symbol
_atom_site_label
_atom_site_fract_x
_atom_site_fract_y
_atom_site_fract_z
Si Si1 0.872084 0.075582 0.686138
Si Si2 0.608122 0.416083 0.574847
Si Si3 0.128457 0.180883 0.916287
Si Si4 0.191813 0.165546 0.709110
Si Si5 0.626756 0.805119 0.843863
Si Si6 0.419850 0.462504 0.021645
O O1 0.710713 0.121735 0.704673
O O2 0.015293 0.135427 0.698319
O O3 0.889809 0.000000 0.750000
O O4 0.879621 0.038706 0.584494
O O5 0.750000 0.410704 0.500000
O O6 0.694381 0.403718 0.672360
O O7 0.476968 0.345281 0.575017
O O8 0.517807 0.498663 0.561745
O O9 0.210022 0.185359 0.816430
O O10 0.000000 0.250000 0.921517
O O11 0.033132 0.098451 0.926728
O O12 0.250000 0.186692 0.000000
O O13 0.235201 0.240510 0.643801
O O14 0.500000 0.750000 0.791503
O O15 0.250000 0.425185 0.000000
#
# Coordination Sequence:
#
# PCOD9336215 Si02
#       6
#     8   8   8   8   8   8
#     4  12  23  44  77 108 149 210 250 309 385 460
#     4  11  23  46  72 112 157 197 249 313 387 470
#     4  12  28  52  80 110 152 208 264 329 383 457
#     4  11  25  48  75 111 155 198 260 309 392 454
#     4  10  24  47  67 108 151 198 252 316 371 460
#     4  12  25  48  74 110 160 192 261 311 389 467
#
# _framework density 23.096858999999998
#
# number of rings (size 3 to 8) (size 9 to 14) (size 15 to 20)
#    0.000    0.667    5.000    2.500    0.000    2.000 
#   24.000    3.333    0.000    0.000    0.000    0.000 
#    0.000    0.000    0.000    0.000    0.000    0.000 
#
# Total GULP energy -133996.455284 kJ/mol
# GULP energy per Si atom -5583.185637 kJ/mol
# Density = 2.304429 g / cm^3
# Si number density = 23.096859 Si / 1000 Ang^3
#
#
#
# Elastic Constant Matrix: (Units=GPa)
#
#
# Indices 1 2 3 4 5 6 
#
# 1 130.6589 62.8364 40.5091 0.0000 0.0000 0.0000
# 2 62.8364 94.1538 13.4196 0.0000 0.0000 0.0000
# 3 40.5091 13.4196 69.3059 0.0000 0.0000 0.0000
# 4 0.0000 0.0000 0.0000 -18.1522 0.0000 0.0000
# 5 0.0000 0.0000 0.0000 0.0000 23.9354 0.0000
# 6 0.0000 0.0000 0.0000 0.0000 0.0000 25.5092
#
#
#
# Elastic Compliance Matrix: (Units=1/GPa)
#
#
# Indices 1 2 3 4 5 6 
#
# 1 0.013523 -0.008122 -0.006331 0.000000 0.000000 0.000000
# 2 -0.008122 0.015801 0.001688 0.000000 0.000000 0.000000
# 3 -0.006331 0.001688 0.017803 0.000000 0.000000 0.000000
# 4 0.000000 0.000000 0.000000 -0.055090 0.000000 0.000000
# 5 0.000000 0.000000 0.000000 0.000000 0.041779 0.000000
# 6 0.000000 0.000000 0.000000 0.000000 0.000000 0.039202
#
#
# Mechanical properties :
#
#
# Convention : Reuss Voigt Hill
#
# Bulk Modulus (GPa) = 46.30708 58.62766 52.46737
# Shear Modulus (GPa) = 47.28287 18.08206 32.68246
#
# Velocity S-wave (km/s) = 4.52946 2.80103 3.76575
# Velocity P-wave (km/s) = 6.88820 5.99162 6.45549
#
# Compressibility (1/GPa) = 0.02159497
#
# Stress axis : x y z
#
# Youngs Moduli (GPa) = 73.95013 63.28692 56.17183
#
# Poissons Ratio (x) = 0.51404 0.35564
# Poissons Ratio (y) = 0.60065 -0.09482
# Poissons Ratio (z) = 0.46819 -0.10683
#
# Static dielectric constant tensor:
#      x y z
#    x 1.975640 0.000000 0.000000 
#    y 0.000000 1.879660 0.000000 
#    z 0.000000 0.000000 1.876460 
# 
# From -- ./inp_files/24922.got.cif
#   From: 2010.05.17/outbox.cif.g08.bks.cpg/sg24_13_cif.got.tgz:24922.got - 2010.06.04 00:33:39.
