data_PCOD9336690
_publ_section_title
;
Structure prediction by ZEFSAII (Michael W. Deem and Ramdas Pophale) SiO2 
 PCOD9336690
Probable space group: I 21 21 21
;
_chemical_formula_sum "Si O2"
_cell_formula_units_Z 36
_cell_length_a 5.176939
_cell_length_b 20.612243
_cell_length_c 16.411022
_cell_angle_alpha 90.000000
_cell_angle_beta 90.000000
_cell_angle_gamma 90.000000
_cell_volume 1751.192664
_symmetry_space_group_name_H-M "I 21 21 21"
_symmetry_group_IT_number 24
_symmetry_cell_setting 'orthorhombic'
loop_
_space_group_symop_operation_xyz
x,y,z
-x,1/2-y,z
x,-y,1/2-z
1/2-x,y,-z
1/2+x,1/2+y,1/2+z
1/2-x,-y,1/2+z
1/2+x,1/2-y,-z
-x,1/2+y,1/2-z
loop_
_atom_site_type_symbol
_atom_site_label
_atom_site_fract_x
_atom_site_fract_y
_atom_site_fract_z
Si Si1 0.750000 0.480790 0.000000
Si Si2 0.587850 0.385502 0.856789
Si Si3 0.551371 0.899730 0.072810
Si Si4 0.912821 0.923031 0.744322
Si Si5 0.750000 0.293286 0.500000
Si Si6 0.500000 0.250000 0.944314
O O1 0.623653 0.434434 0.932897
O O2 0.936832 0.530200 0.951646
O O3 0.327322 0.405780 0.811939
O O4 0.565309 0.312927 0.890856
O O5 0.829715 0.393159 0.795632
O O6 0.652909 0.900979 0.163924
O O7 0.334373 0.843715 0.069989
O O8 0.750000 0.884428 0.000000
O O9 0.953692 0.000000 0.750000
O O10 0.500000 0.250000 0.519213
O O11 0.750000 0.235532 0.000000
#
# Coordination Sequence:
#
# PCOD9336690 Si02
#       6
#     4   8   8   8   4   4
#     4  11  24  44  76 106 139 192 244 296 367 440
#     4  12  27  46  73 108 148 192 238 302 364 433
#     4  11  25  45  76 106 141 190 248 296 368 437
#     4  12  26  46  71 109 150 180 237 310 366 417
#     4  11  24  46  70 100 137 186 244 292 355 432
#     4  12  26  50  78 104 148 200 250 288 362 454
#
# _framework density 20.557417999999998
#
# number of rings (size 3 to 8) (size 9 to 14) (size 15 to 20)
#    0.000    0.444    4.444    3.333    6.222    0.000 
#    6.000    0.000    0.000    0.000    0.000    0.000 
#    0.000    0.000    0.000    0.000    0.000    0.000 
#
# Total GULP energy -100674.027161 kJ/mol
# GULP energy per Si atom -5593.001509 kJ/mol
# Density = 2.051063 g / cm^3
# Si number density = 20.557418 Si / 1000 Ang^3
#
#
#
# Elastic Constant Matrix: (Units=GPa)
#
#
# Indices 1 2 3 4 5 6 
#
# 1 120.7070 60.2195 28.0137 0.0000 0.0000 0.0000
# 2 60.2195 163.6898 66.2256 0.0000 0.0000 0.0000
# 3 28.0137 66.2256 91.6913 0.0000 0.0000 0.0000
# 4 0.0000 0.0000 0.0000 23.8072 0.0000 0.0000
# 5 0.0000 0.0000 0.0000 0.0000 44.6513 0.0000
# 6 0.0000 0.0000 0.0000 0.0000 0.0000 38.5669
#
#
#
# Elastic Compliance Matrix: (Units=1/GPa)
#
#
# Indices 1 2 3 4 5 6 
#
# 1 0.010168 -0.003509 -0.000572 0.000000 0.000000 0.000000
# 2 -0.003509 0.009842 -0.006037 0.000000 0.000000 0.000000
# 3 -0.000572 -0.006037 0.015441 0.000000 0.000000 0.000000
# 4 0.000000 0.000000 0.000000 0.042004 0.000000 0.000000
# 5 0.000000 0.000000 0.000000 0.000000 0.022396 0.000000
# 6 0.000000 0.000000 0.000000 0.000000 0.000000 0.025929
#
#
# Mechanical properties :
#
#
# Convention : Reuss Voigt Hill
#
# Bulk Modulus (GPa) = 65.72184 76.11175 70.91679
# Shear Modulus (GPa) = 33.09327 36.18037 34.63682
#
# Velocity S-wave (km/s) = 4.01658 4.19975 4.10918
# Velocity P-wave (km/s) = 7.31778 7.78598 7.55551
#
# Compressibility (1/GPa) = 0.01521564
#
# Stress axis : x y z
#
# Youngs Moduli (GPa) = 98.34767 101.60027 64.76259
#
# Poissons Ratio (x) = 0.35655 0.03704
# Poissons Ratio (y) = 0.34513 0.39095
# Poissons Ratio (z) = 0.05624 0.61333
#
# Static dielectric constant tensor:
#      x y z
#    x 1.771530 0.000000 0.000000 
#    y 0.000000 1.724570 0.000000 
#    z 0.000000 0.000000 1.514050 
# 
# From -- ./inp_files/23636.got.cif
#   From: 2010.05.17/outbox.cif.g08.bks.cpg/sg24_12_cif.got.tgz:23636.got - 2010.06.04 00:33:39.
