data_PCOD9336450
_publ_section_title
;
Structure prediction by ZEFSAII (Michael W. Deem and Ramdas Pophale) SiO2 
 PCOD9336450
Probable space group: I 21 21 21
;
_chemical_formula_sum "Si O2"
_cell_formula_units_Z 44
_cell_length_a 14.545867
_cell_length_b 23.907446
_cell_length_c 5.364575
_cell_angle_alpha 90.000000
_cell_angle_beta 90.000000
_cell_angle_gamma 90.000000
_cell_volume 1865.555257
_symmetry_space_group_name_H-M "I 21 21 21"
_symmetry_group_IT_number 24
_symmetry_cell_setting 'orthorhombic'
loop_
_space_group_symop_operation_xyz
x,y,z
-x,1/2-y,z
x,-y,1/2-z
1/2-x,y,-z
1/2+x,1/2+y,1/2+z
1/2-x,-y,1/2+z
1/2+x,1/2-y,-z
-x,1/2+y,1/2-z
loop_
_atom_site_type_symbol
_atom_site_label
_atom_site_fract_x
_atom_site_fract_y
_atom_site_fract_z
Si Si1 0.500000 0.250000 0.601949
Si Si2 0.647902 0.437599 0.220387
Si Si3 0.797047 0.192017 0.751355
Si Si4 0.461665 0.335100 0.960006
Si Si5 0.859763 0.314511 0.747171
Si Si6 0.528968 0.560188 0.779129
O O1 0.432839 0.286298 0.774518
O O2 0.567276 0.293571 0.463237
O O3 0.692399 0.500000 0.250000
O O4 0.690074 0.375209 0.263259
O O5 0.570589 0.435223 0.442197
O O6 0.608154 0.438987 0.938147
O O7 0.750000 0.173138 0.500000
O O8 0.797027 0.259942 0.762008
O O9 0.750000 0.169706 0.000000
O O10 0.901446 0.171338 0.792895
O O11 0.460684 0.392063 0.810325
O O12 0.567736 0.322766 0.028388
O O13 0.484080 0.500000 0.750000
#
# Coordination Sequence:
#
# PCOD9336450 Si02
#       6
#     4   8   8   8   8   8
#     4  12  16  32  60  84 114 146 208 234 290 356
#     4   9  18  31  52  83 112 141 185 247 294 333
#     4  12  26  38  53  85 126 158 196 244 302 357
#     4  11  21  35  59  84 116 160 200 244 297 363
#     4  11  21  35  59  82 114 155 197 241 292 359
#     4   9  18  31  52  85 114 138 184 247 297 333
#
# _framework density 23.585470999999998
#
# number of rings (size 3 to 8) (size 9 to 14) (size 15 to 20)
#    0.000    1.455    5.455    1.091    0.000    0.000 
#    0.000    0.000    0.000    1.091    0.000   14.000 
#    0.000    0.000    0.000    0.000    0.000    0.000 
#
# Total GULP energy -122648.253079 kJ/mol
# GULP energy per Si atom -5574.920595 kJ/mol
# Density = 2.353179 g / cm^3
# Si number density = 23.585471 Si / 1000 Ang^3
#
#
#
# Elastic Constant Matrix: (Units=GPa)
#
#
# Indices 1 2 3 4 5 6 
#
# 1 47.0178 6.6752 44.5953 0.0002 0.0000 0.0000
# 2 6.6752 153.7219 26.6926 0.0001 -0.0001 0.0000
# 3 44.5953 26.6926 135.9948 0.0079 0.0035 0.0009
# 4 0.0002 0.0001 0.0079 25.2434 0.0004 0.0005
# 5 0.0000 -0.0001 0.0035 0.0004 43.0961 0.0000
# 6 0.0000 0.0000 0.0009 0.0005 0.0000 3.4201
#
#
#
# Elastic Compliance Matrix: (Units=1/GPa)
#
#
# Indices 1 2 3 4 5 6 
#
# 1 0.030898 0.000432 -0.010217 0.000003 0.000001 0.000002
# 2 0.000432 0.006741 -0.001465 0.000000 0.000000 0.000000
# 3 -0.010217 -0.001465 0.010991 -0.000003 -0.000001 -0.000003
# 4 0.000003 0.000000 -0.000003 0.039614 0.000000 -0.000006
# 5 0.000001 0.000000 -0.000001 0.000000 0.023204 0.000000
# 6 0.000002 0.000000 -0.000003 -0.000006 0.000000 0.292386
#
#
# Mechanical properties :
#
#
# Convention : Reuss Voigt Hill
#
# Bulk Modulus (GPa) = 38.26885 54.74008 46.50447
# Shear Modulus (GPa) = 11.49312 31.60334 21.54823
#
# Velocity S-wave (km/s) = 2.20987 3.66450 3.02590
# Velocity P-wave (km/s) = 4.77202 6.41595 5.65405
#
# Compressibility (1/GPa) = 0.02613091
#
# Stress axis : x y z
#
# Youngs Moduli (GPa) = 32.36504 148.34952 90.98351
#
# Poissons Ratio (x) = -0.06414 0.92956
# Poissons Ratio (y) = -0.01399 0.13328
# Poissons Ratio (z) = 0.33067 0.21731
#
# Static dielectric constant tensor:
#      x y z
#    x 1.968610 0.000000 0.000000 
#    y 0.000000 1.931430 0.000000 
#    z 0.000000 0.000000 1.980890 
# 
# From -- ./inp_files/4770.got.cif
#   From: 2010.05.17/outbox.cif.g08.bks.cpg/sg24_3_cif.got.tgz:4770.got - 2010.06.04 00:33:39.
