data_PCOD9336997
_publ_section_title
;
Structure prediction by ZEFSAII (Michael W. Deem and Ramdas Pophale) SiO2 
 PCOD9336997
Probable space group: I 21 21 21
;
_chemical_formula_sum "Si O2"
_cell_formula_units_Z 36
_cell_length_a 9.966929
_cell_length_b 26.727587
_cell_length_c 5.542524
_cell_angle_alpha 90.000000
_cell_angle_beta 90.000000
_cell_angle_gamma 90.000000
_cell_volume 1476.483843
_symmetry_space_group_name_H-M "I 21 21 21"
_symmetry_group_IT_number 24
_symmetry_cell_setting 'orthorhombic'
loop_
_space_group_symop_operation_xyz
x,y,z
-x,1/2-y,z
x,-y,1/2-z
1/2-x,y,-z
1/2+x,1/2+y,1/2+z
1/2-x,-y,1/2+z
1/2+x,1/2-y,-z
-x,1/2+y,1/2-z
loop_
_atom_site_type_symbol
_atom_site_label
_atom_site_fract_x
_atom_site_fract_y
_atom_site_fract_z
Si Si1 0.500000 0.750000 0.792754
Si Si2 0.750000 0.812284 0.000000
Si Si3 0.130872 0.601181 0.663680
Si Si4 0.750000 0.591325 0.000000
Si Si5 0.608991 0.351489 0.863824
Si Si6 0.649222 0.500000 0.750000
Si Si7 0.509948 0.000000 0.250000
O O1 0.567947 0.706034 0.641825
O O2 0.623079 0.777533 0.930139
O O3 0.692469 0.850900 0.199369
O O4 0.250000 0.581463 0.500000
O O5 0.006747 0.619453 0.501788
O O6 0.084671 0.552293 0.806230
O O7 0.868118 0.628138 0.088862
O O8 0.761583 0.549985 0.211871
O O9 0.750000 0.356580 0.000000
O O10 0.563011 0.507254 0.509679
#
# Coordination Sequence:
#
# PCOD9336997 Si02
#       7
#     4   4   8   4   8   4   4
#     4  12  30  54  84 118 162 226 292 368 450 506
#     4  12  31  54  82 122 168 226 301 368 440 542
#     4  12  29  54  83 125 174 230 296 358 452 538
#     4  12  27  52  78 126 170 224 289 350 436 518
#     4  12  29  52  84 119 170 228 289 366 436 529
#     4  12  27  49  84 126 172 235 285 350 432 539
#     4  12  29  49  86 122 176 227 281 358 446 529
#
# _framework density 24.382249000000002
#
# number of rings (size 3 to 8) (size 9 to 14) (size 15 to 20)
#    0.000    0.000    4.444    2.667   18.667    0.000 
#    0.000    0.000    0.000    0.000    0.000    0.000 
#    0.000    0.000    0.000    0.000    0.000    0.000 
#
# Total GULP energy -100572.795772 kJ/mol
# GULP energy per Si atom -5587.377543 kJ/mol
# Density = 2.432675 g / cm^3
# Si number density = 24.382249 Si / 1000 Ang^3
#
#
#
# Elastic Constant Matrix: (Units=GPa)
#
#
# Indices 1 2 3 4 5 6 
#
# 1 154.6043 52.9844 70.5061 0.0327 -0.0014 0.0127
# 2 52.9844 186.8821 44.0427 -0.0346 0.0006 0.0031
# 3 70.5061 44.0427 95.6224 -0.1709 -0.0019 0.0519
# 4 0.0327 -0.0346 -0.1709 -403.3150 0.0011 0.2555
# 5 -0.0014 0.0006 -0.0019 0.0011 30.4621 -0.0145
# 6 0.0127 0.0031 0.0519 0.2555 -0.0145 105.7079
#
#
#
# Elastic Compliance Matrix: (Units=1/GPa)
#
#
# Indices 1 2 3 4 5 6 
#
# 1 0.009991 -0.001230 -0.006800 0.000004 0.000000 0.000002
# 2 -0.001230 0.006154 -0.001928 0.000000 0.000000 0.000001
# 3 -0.006800 -0.001928 0.016360 -0.000007 0.000001 -0.000007
# 4 0.000004 0.000000 -0.000007 -0.002479 0.000000 0.000006
# 5 0.000000 0.000000 0.000001 0.000000 0.032828 0.000005
# 6 0.000002 0.000001 -0.000007 0.000006 0.000005 0.009460
#
#
# Mechanical properties :
#
#
# Convention : Reuss Voigt Hill
#
# Bulk Modulus (GPa) = 79.43373 85.79725 82.61549
# Shear Modulus (GPa) = 51.85433 -35.45729 8.19852
#
# Velocity S-wave (km/s) = 4.61665 -3.81757 1.83570
# Velocity P-wave (km/s) = 7.81455 3.97907 6.20081
#
# Compressibility (1/GPa) = 0.01258911
#
# Stress axis : x y z
#
# Youngs Moduli (GPa) = 100.09252 162.49716 61.12646
#
# Poissons Ratio (x) = 0.19987 0.41566
# Poissons Ratio (y) = 0.12311 0.11782
# Poissons Ratio (z) = 0.68063 0.31322
#
# Static dielectric constant tensor:
#      x y z
#    x 2.271190 -0.000020 -0.000010 
#    y -0.000020 1.919050 0.000000 
#    z -0.000010 0.000000 2.068270 
# 
# From -- ./inp_files/2345.got.cif
#   From: 2010.05.17/outbox.cif.g08.bks.cpg/sg24_2_cif.got.tgz:2345.got - 2010.06.04 00:33:39.
