data_PCOD9336103
_publ_section_title
;
Structure prediction by ZEFSAII (Michael W. Deem and Ramdas Pophale) SiO2 
 PCOD9336103
Probable space group: I 21 21 21
;
_chemical_formula_sum "Si O2"
_cell_formula_units_Z 56
_cell_length_a 15.042190
_cell_length_b 15.884525
_cell_length_c 10.787790
_cell_angle_alpha 90.000000
_cell_angle_beta 90.000000
_cell_angle_gamma 90.000000
_cell_volume 2577.613432
_symmetry_space_group_name_H-M "I 21 21 21"
_symmetry_group_IT_number 24
_symmetry_cell_setting 'orthorhombic'
loop_
_space_group_symop_operation_xyz
x,y,z
-x,1/2-y,z
x,-y,1/2-z
1/2-x,y,-z
1/2+x,1/2+y,1/2+z
1/2-x,-y,1/2+z
1/2+x,1/2-y,-z
-x,1/2+y,1/2-z
loop_
_atom_site_type_symbol
_atom_site_label
_atom_site_fract_x
_atom_site_fract_y
_atom_site_fract_z
Si Si1 0.349549 0.361277 0.998247
Si Si2 0.092465 0.302242 0.483340
Si Si3 0.162465 0.924654 0.671180
Si Si4 0.863165 0.437222 0.106740
Si Si5 0.044310 0.513433 0.109056
Si Si6 0.392297 0.742921 0.253966
Si Si7 0.106149 0.761794 0.272707
O O1 0.418953 0.435524 0.970771
O O2 0.356204 0.295503 0.883653
O O3 0.250000 0.396963 0.000000
O O4 0.365757 0.312357 0.126820
O O5 0.073013 0.398217 0.446633
O O6 0.132431 0.295924 0.620468
O O7 0.141094 0.262878 0.363216
O O8 0.000000 0.250000 0.492016
O O9 0.261496 0.957665 0.637060
O O10 0.124923 0.907902 0.534875
O O11 0.152714 0.835348 0.738245
O O12 0.118985 0.000000 0.750000
O O13 0.880749 0.358010 0.193334
O O14 0.937331 0.508336 0.117309
O O15 0.077795 0.500000 0.250000
O O16 0.500000 0.750000 0.260442
O O17 0.000000 0.750000 0.271749
#
# Coordination Sequence:
#
# PCOD9336103 Si02
#       7
#     8   8   8   8   8   8   8
#     4  12  24  43  69  97 134 179 233 283 339 417
#     4  10  24  42  68 105 134 175 232 289 349 417
#     4  11  25  42  64 104 143 179 229 294 353 421
#     4  11  23  42  72  98 134 182 237 285 353 420
#     4  12  23  45  73  98 129 180 240 289 337 424
#     4  11  24  46  68 102 143 186 228 284 359 427
#     4  11  19  42  70  99 126 180 233 274 335 423
#
# _framework density 21.725521000000001
#
# number of rings (size 3 to 8) (size 9 to 14) (size 15 to 20)
#    0.000    0.857    4.286    3.429    4.000    0.571 
#    5.143    2.143    0.000    0.000    0.000    0.000 
#    0.000    0.000    0.000    0.000    0.000    0.000 
#
# Total GULP energy -156443.228518 kJ/mol
# GULP energy per Si atom -5587.258161 kJ/mol
# Density = 2.167607 g / cm^3
# Si number density = 21.725521 Si / 1000 Ang^3
#
#
#
# Elastic Constant Matrix: (Units=GPa)
#
#
# Indices 1 2 3 4 5 6 
#
# 1 70.9872 4.5427 20.8314 0.0000 0.0000 0.0000
# 2 4.5427 137.8094 82.5251 0.0000 0.0000 0.0000
# 3 20.8314 82.5251 197.4615 0.0000 0.0000 0.0000
# 4 0.0000 0.0000 0.0000 38.8683 0.0000 0.0000
# 5 0.0000 0.0000 0.0000 0.0000 -35.6032 0.0000
# 6 0.0000 0.0000 0.0000 0.0000 0.0000 19.1779
#
#
#
# Elastic Compliance Matrix: (Units=1/GPa)
#
#
# Indices 1 2 3 4 5 6 
#
# 1 0.014573 0.000587 -0.001783 0.000000 0.000000 0.000000
# 2 0.000587 0.009702 -0.004117 0.000000 0.000000 0.000000
# 3 -0.001783 -0.004117 0.006973 0.000000 0.000000 0.000000
# 4 0.000000 0.000000 0.000000 0.025728 0.000000 0.000000
# 5 0.000000 0.000000 0.000000 0.000000 -0.028087 0.000000
# 6 0.000000 0.000000 0.000000 0.000000 0.000000 0.052143
#
#
# Mechanical properties :
#
#
# Convention : Reuss Voigt Hill
#
# Bulk Modulus (GPa) = 48.48935 69.11739 58.80337
# Shear Modulus (GPa) = 50.74554 24.37921 37.56238
#
# Velocity S-wave (km/s) = 4.83821 3.35348 4.16258
# Velocity P-wave (km/s) = 7.31974 6.84671 7.08717
#
# Compressibility (1/GPa) = 0.02062308
#
# Stress axis : x y z
#
# Youngs Moduli (GPa) = 68.62179 103.06768 143.41210
#
# Poissons Ratio (x) = -0.06052 0.25567
# Poissons Ratio (y) = -0.04030 0.59041
# Poissons Ratio (z) = 0.12234 0.42432
#
# Static dielectric constant tensor:
#      x y z
#    x 1.835090 0.000000 0.000000 
#    y 0.000000 2.189960 0.000000 
#    z 0.000000 0.000000 1.845210 
# 
# From -- ./inp_files/20865.got.cif
#   From: 2010.05.17/outbox.cif.g08.bks.cpg/sg24_11_cif.got.tgz:20865.got - 2010.06.04 00:33:39.
