data_PCOD9336581
_publ_section_title
;
Structure prediction by ZEFSAII (Michael W. Deem and Ramdas Pophale) SiO2 
 PCOD9336581
Probable space group: I 21 21 21
;
_chemical_formula_sum "Si O2"
_cell_formula_units_Z 44
_cell_length_a 8.014343
_cell_length_b 10.215540
_cell_length_c 24.291219
_cell_angle_alpha 90.000000
_cell_angle_beta 90.000000
_cell_angle_gamma 90.000000
_cell_volume 1988.742540
_symmetry_space_group_name_H-M "I 21 21 21"
_symmetry_group_IT_number 24
_symmetry_cell_setting 'orthorhombic'
loop_
_space_group_symop_operation_xyz
x,y,z
-x,1/2-y,z
x,-y,1/2-z
1/2-x,y,-z
1/2+x,1/2+y,1/2+z
1/2-x,-y,1/2+z
1/2+x,1/2-y,-z
-x,1/2+y,1/2-z
loop_
_atom_site_type_symbol
_atom_site_label
_atom_site_fract_x
_atom_site_fract_y
_atom_site_fract_z
Si Si1 0.221356 0.997125 0.437338
Si Si2 0.799702 0.722402 0.237184
Si Si3 0.818400 0.301779 0.849358
Si Si4 0.702485 0.754012 0.884760
Si Si5 0.875203 0.965218 0.373383
Si Si6 0.826847 0.000000 0.250000
O O1 0.250000 0.959032 0.500000
O O2 0.262567 0.150839 0.429421
O O3 0.328113 0.909744 0.396225
O O4 0.033699 0.970794 0.413731
O O5 0.752836 0.643990 0.291395
O O6 0.751034 0.693754 0.174950
O O7 0.723370 0.867214 0.248192
O O8 0.000000 0.750000 0.239085
O O9 0.706001 0.178548 0.870641
O O10 0.000000 0.250000 0.838355
O O11 0.500000 0.750000 0.886669
O O12 0.740856 0.908798 0.888454
O O13 0.920471 0.995371 0.308896
#
# Coordination Sequence:
#
# PCOD9336581 Si02
#       6
#     8   8   8   8   8   4
#     4  11  23  39  58  85 113 149 202 251 285 329
#     4   9  16  31  58  86 112 146 186 235 291 352
#     4  11  23  37  55  87 123 156 191 233 289 351
#     4   8  17  36  64  90 112 145 194 241 292 356
#     4   9  18  39  66  88 115 151 189 239 294 353
#     4   8  14  28  58  90 110 136 184 228 284 352
#
# _framework density 22.124531999999999
#
# number of rings (size 3 to 8) (size 9 to 14) (size 15 to 20)
#    0.000    2.545    0.000    3.818    0.000    2.182 
#    0.000   18.182    0.000    0.000    0.000    0.000 
#    0.000    0.000    0.000    0.000    0.000    0.000 
#
# Total GULP energy -122573.153578 kJ/mol
# GULP energy per Si atom -5571.506981 kJ/mol
# Density = 2.207418 g / cm^3
# Si number density = 22.124532 Si / 1000 Ang^3
#
#
#
# Elastic Constant Matrix: (Units=GPa)
#
#
# Indices 1 2 3 4 5 6 
#
# 1 41.7909 0.4527 20.9127 0.0000 0.0000 0.0000
# 2 0.4527 67.6466 -2.6930 0.0000 0.0000 0.0000
# 3 20.9127 -2.6930 125.0015 0.0000 0.0000 0.0000
# 4 0.0000 0.0000 0.0000 27.6964 0.0000 0.0000
# 5 0.0000 0.0000 0.0000 0.0000 8.3898 0.0000
# 6 0.0000 0.0000 0.0000 0.0000 0.0000 10.8241
#
#
#
# Elastic Compliance Matrix: (Units=1/GPa)
#
#
# Indices 1 2 3 4 5 6 
#
# 1 0.026123 -0.000349 -0.004378 0.000000 0.000000 0.000000
# 2 -0.000349 0.014800 0.000377 0.000000 0.000000 0.000000
# 3 -0.004378 0.000377 0.008740 0.000000 0.000000 0.000000
# 4 0.000000 0.000000 0.000000 0.036106 0.000000 0.000000
# 5 0.000000 0.000000 0.000000 0.000000 0.119192 0.000000
# 6 0.000000 0.000000 0.000000 0.000000 0.000000 0.092386
#
#
# Mechanical properties :
#
#
# Convention : Reuss Voigt Hill
#
# Bulk Modulus (GPa) = 24.41158 30.19820 27.30489
# Shear Modulus (GPa) = 15.63958 23.76651 19.70304
#
# Velocity S-wave (km/s) = 2.66162 3.28108 2.98745
# Velocity P-wave (km/s) = 4.52806 5.29460 4.92626
#
# Compressibility (1/GPa) = 0.04096417
#
# Stress axis : x y z
#
# Youngs Moduli (GPa) = 38.28010 67.56725 114.41049
#
# Poissons Ratio (x) = 0.02359 0.50088
# Poissons Ratio (y) = 0.01336 -0.04316
# Poissons Ratio (z) = 0.16759 -0.02549
#
# Static dielectric constant tensor:
#      x y z
#    x 1.873020 0.000000 0.000000 
#    y 0.000000 1.939690 0.000000 
#    z 0.000000 0.000000 1.790230 
# 
# From -- ./inp_files/35109.got.cif
#   From: 2010.05.17/outbox.cif.g08.bks.cpg/sg24_18_cif.got.tgz:35109.got - 2010.06.04 00:33:39.
