data_PCOD9336169
_publ_section_title
;
Structure prediction by ZEFSAII (Michael W. Deem and Ramdas Pophale) SiO2 
 PCOD9336169
Probable space group: I 21 21 21
;
_chemical_formula_sum "Si O2"
_cell_formula_units_Z 32
_cell_length_a 5.066520
_cell_length_b 19.574562
_cell_length_c 13.477055
_cell_angle_alpha 90.000000
_cell_angle_beta 90.000000
_cell_angle_gamma 90.000000
_cell_volume 1336.585715
_symmetry_space_group_name_H-M "I 21 21 21"
_symmetry_group_IT_number 24
_symmetry_cell_setting 'orthorhombic'
loop_
_space_group_symop_operation_xyz
x,y,z
-x,1/2-y,z
x,-y,1/2-z
1/2-x,y,-z
1/2+x,1/2+y,1/2+z
1/2-x,-y,1/2+z
1/2+x,1/2-y,-z
-x,1/2+y,1/2-z
loop_
_atom_site_type_symbol
_atom_site_label
_atom_site_fract_x
_atom_site_fract_y
_atom_site_fract_z
Si Si1 0.250000 0.837575 0.000000
Si Si2 0.000000 0.250000 0.666255
Si Si3 0.422014 0.544203 0.080176
Si Si4 0.794546 0.584171 0.613209
Si Si5 0.212344 0.624448 0.265640
O O1 0.294456 0.790320 0.095018
O O2 0.485265 0.890671 0.016004
O O3 0.816182 0.197552 0.726317
O O4 0.670873 0.498489 0.113670
O O5 0.269738 0.571208 0.176242
O O6 0.250000 0.502760 0.000000
O O7 0.750000 0.605533 0.500000
O O8 0.577181 0.613744 0.688944
O O9 0.080082 0.607335 0.649048
#
# Coordination Sequence:
#
# PCOD9336169 Si02
#       5
#     4   4   8   8   8
#     4  10  24  44  72 112 156 200 236 328 398 474
#     4  10  26  46  76 114 156 206 260 306 386 480
#     4  11  25  43  75 116 156 194 246 322 412 471
#     4  12  26  48  73 106 153 200 267 317 375 444
#     4  11  28  46  75 111 152 208 252 317 380 462
#
# _framework density 23.941599
#
# number of rings (size 3 to 8) (size 9 to 14) (size 15 to 20)
#    0.000    1.000    1.250    3.000   14.000    5.000 
#    0.000    2.500    0.000    0.000    0.000    0.000 
#    0.000    0.000    0.000    0.000    0.000    0.000 
#
# Total GULP energy -89483.355820 kJ/mol
# GULP energy per Si atom -5592.709739 kJ/mol
# Density = 2.388711 g / cm^3
# Si number density = 23.941599 Si / 1000 Ang^3
#
#
#
# Elastic Constant Matrix: (Units=GPa)
#
#
# Indices 1 2 3 4 5 6 
#
# 1 81.7056 28.0157 14.9381 0.0000 0.0000 0.0000
# 2 28.0157 122.3914 44.4621 0.0000 0.0000 0.0000
# 3 14.9381 44.4621 119.0200 0.0002 0.0000 0.0000
# 4 0.0000 0.0000 0.0002 64.2230 0.0000 0.0000
# 5 0.0000 0.0000 0.0000 0.0000 60.2656 0.0000
# 6 0.0000 0.0000 0.0000 0.0000 0.0000 2.5067
#
#
#
# Elastic Compliance Matrix: (Units=1/GPa)
#
#
# Indices 1 2 3 4 5 6 
#
# 1 0.013320 -0.002825 -0.000616 0.000000 0.000000 0.000000
# 2 -0.002825 0.010053 -0.003401 0.000000 0.000000 0.000000
# 3 -0.000616 -0.003401 0.009750 0.000000 0.000000 0.000000
# 4 0.000000 0.000000 0.000000 0.015571 0.000000 0.000000
# 5 0.000000 0.000000 0.000000 0.000000 0.016593 0.000000
# 6 0.000000 0.000000 0.000000 0.000000 0.000000 0.398923
#
#
# Mechanical properties :
#
#
# Convention : Reuss Voigt Hill
#
# Bulk Modulus (GPa) = 51.44534 55.32763 53.38649
# Shear Modulus (GPa) = 10.32260 41.11249 25.71754
#
# Velocity S-wave (km/s) = 2.07869 4.14841 3.28102
# Velocity P-wave (km/s) = 5.22453 6.79009 6.05809
#
# Compressibility (1/GPa) = 0.01943811
#
# Stress axis : x y z
#
# Youngs Moduli (GPa) = 75.07246 99.47662 102.56692
#
# Poissons Ratio (x) = 0.28104 0.06323
# Poissons Ratio (y) = 0.21209 0.34881
# Poissons Ratio (z) = 0.04628 0.33830
#
# Static dielectric constant tensor:
#      x y z
#    x 1.976600 0.000000 0.000000 
#    y 0.000000 2.023090 0.000000 
#    z 0.000000 0.000000 1.901760 
# 
# From -- ./inp_files/17412.got.cif
#   From: 2010.05.17/outbox.cif.g08.bks.cpg/sg24_9_cif.got.tgz:17412.got - 2010.06.04 00:33:39.
