data_PCOD9336834
_publ_section_title
;
Structure prediction by ZEFSAII (Michael W. Deem and Ramdas Pophale) SiO2 
 PCOD9336834
Probable space group: I 21 21 21
;
_chemical_formula_sum "Si O2"
_cell_formula_units_Z 36
_cell_length_a 5.810608
_cell_length_b 22.946705
_cell_length_c 13.703234
_cell_angle_alpha 90.000000
_cell_angle_beta 90.000000
_cell_angle_gamma 90.000000
_cell_volume 1827.111218
_symmetry_space_group_name_H-M "I 21 21 21"
_symmetry_group_IT_number 24
_symmetry_cell_setting 'orthorhombic'
loop_
_space_group_symop_operation_xyz
x,y,z
-x,1/2-y,z
x,-y,1/2-z
1/2-x,y,-z
1/2+x,1/2+y,1/2+z
1/2-x,-y,1/2+z
1/2+x,1/2-y,-z
-x,1/2+y,1/2-z
loop_
_atom_site_type_symbol
_atom_site_label
_atom_site_fract_x
_atom_site_fract_y
_atom_site_fract_z
Si Si1 0.344285 0.554534 0.603096
Si Si2 0.360565 0.938240 0.897821
Si Si3 0.485406 0.000000 0.250000
Si Si4 0.748594 0.750821 0.662026
Si Si5 0.495594 0.851472 0.743334
O O1 0.250000 0.576576 0.500000
O O2 0.477066 0.494111 0.584685
O O3 0.504912 0.601287 0.656364
O O4 0.144787 0.539340 0.680365
O O5 0.491760 0.886313 0.843493
O O6 0.170645 0.960781 0.820583
O O7 0.250000 0.921053 0.000000
O O8 0.500000 0.750000 0.604879
O O9 0.714306 0.809591 0.725007
O O10 0.714229 0.693603 0.729100
O O11 0.000000 0.750000 0.616490
#
# Coordination Sequence:
#
# PCOD9336834 Si02
#       5
#     8   8   4   8   8
#     4  12  23  37  60  96 123 171 206 249 320 386
#     4  12  23  37  60  96 123 171 206 249 320 386
#     4  12  22  36  60  82 140 160 210 256 300 386
#     4   8  20  38  68  92 116 170 218 262 328 364
#     4   9  21  38  64  86 131 163 210 266 320 361
#
# _framework density 19.703234999999999
#
# number of rings (size 3 to 8) (size 9 to 14) (size 15 to 20)
#    1.333    0.000    6.667    0.000    3.111    0.000 
#    0.000    0.000    9.778    0.000    0.000    0.000 
#    0.000    0.000    0.000    0.000    0.000    0.000 
#
# Total GULP energy -100237.663011 kJ/mol
# GULP energy per Si atom -5568.759056 kJ/mol
# Density = 1.965839 g / cm^3
# Si number density = 19.703235 Si / 1000 Ang^3
#
#
#
# Elastic Constant Matrix: (Units=GPa)
#
#
# Indices 1 2 3 4 5 6 
#
# 1 94.5935 3.8622 19.4217 0.0000 0.0000 0.0000
# 2 3.8622 98.2551 36.6810 0.0000 0.0000 0.0000
# 3 19.4217 36.6810 132.9765 0.0000 0.0000 0.0000
# 4 0.0000 0.0000 0.0000 -51.0704 0.0000 0.0000
# 5 0.0000 0.0000 0.0000 0.0000 24.2877 0.0000
# 6 0.0000 0.0000 0.0000 0.0000 0.0000 0.3231
#
#
#
# Elastic Compliance Matrix: (Units=1/GPa)
#
#
# Indices 1 2 3 4 5 6 
#
# 1 0.010901 0.000185 -0.001643 0.000000 0.000000 0.000000
# 2 0.000185 0.011349 -0.003158 0.000000 0.000000 0.000000
# 3 -0.001643 -0.003158 0.008631 0.000000 0.000000 0.000000
# 4 0.000000 0.000000 0.000000 -0.019581 0.000000 0.000000
# 5 0.000000 0.000000 0.000000 0.000000 0.041173 0.000000
# 6 0.000000 0.000000 0.000000 0.000000 0.000000 3.095307
#
#
# Mechanical properties :
#
#
# Convention : Reuss Voigt Hill
#
# Bulk Modulus (GPa) = 46.18962 49.52832 47.85897
# Shear Modulus (GPa) = 1.58016 12.43208 7.00612
#
# Velocity S-wave (km/s) = 0.89651 2.51463 1.88773
# Velocity P-wave (km/s) = 4.95633 5.79852 5.39389
#
# Compressibility (1/GPa) = 0.02164988
#
# Stress axis : x y z
#
# Youngs Moduli (GPa) = 91.73147 88.11245 115.85960
#
# Poissons Ratio (x) = -0.01630 0.19038
# Poissons Ratio (y) = -0.01696 0.36584
# Poissons Ratio (z) = 0.15073 0.27823
#
# Static dielectric constant tensor:
#      x y z
#    x 1.772530 0.000000 0.000000 
#    y 0.000000 1.710150 0.000000 
#    z 0.000000 0.000000 1.673990 
# 
# From -- ./inp_files/23691.got.cif
#   From: 2010.05.17/outbox.cif.g08.bks.cpg/sg24_12_cif.got.tgz:23691.got - 2010.06.04 00:33:39.
