data_PCOD9336254
_publ_section_title
;
Structure prediction by ZEFSAII (Michael W. Deem and Ramdas Pophale) SiO2 
 PCOD9336254
Probable space group: I 21 21 21
;
_chemical_formula_sum "Si O2"
_cell_formula_units_Z 56
_cell_length_a 13.954796
_cell_length_b 12.331301
_cell_length_c 14.439153
_cell_angle_alpha 90.000000
_cell_angle_beta 90.000000
_cell_angle_gamma 90.000000
_cell_volume 2484.700853
_symmetry_space_group_name_H-M "I 21 21 21"
_symmetry_group_IT_number 24
_symmetry_cell_setting 'orthorhombic'
loop_
_space_group_symop_operation_xyz
x,y,z
-x,1/2-y,z
x,-y,1/2-z
1/2-x,y,-z
1/2+x,1/2+y,1/2+z
1/2-x,-y,1/2+z
1/2+x,1/2-y,-z
-x,1/2+y,1/2-z
loop_
_atom_site_type_symbol
_atom_site_label
_atom_site_fract_x
_atom_site_fract_y
_atom_site_fract_z
Si Si1 0.407942 0.000000 0.750000
Si Si2 0.725250 0.678624 0.796274
Si Si3 0.070340 0.500000 0.750000
Si Si4 0.254009 0.284789 0.896133
Si Si5 0.541137 0.864738 0.407018
Si Si6 0.405996 0.674406 0.918375
Si Si7 0.947396 0.923885 0.388522
Si Si8 0.107506 0.706945 0.868437
O O1 0.337625 0.927736 0.812195
O O2 0.474660 0.916293 0.692754
O O3 0.742271 0.700032 0.687341
O O4 0.667699 0.776179 0.845394
O O5 0.827599 0.690713 0.842600
O O6 0.009123 0.453570 0.834446
O O7 0.122936 0.603713 0.799156
O O8 0.157063 0.357475 0.897497
O O9 0.348793 0.357658 0.880333
O O10 0.250000 0.236062 0.000000
O O11 0.500000 0.750000 0.378838
O O12 0.512053 0.888806 0.511770
O O13 0.500000 0.750000 0.914750
O O14 0.426749 0.551282 0.892350
O O15 0.372580 0.674127 0.025429
O O16 0.000000 0.750000 0.860536
#
# Coordination Sequence:
#
# PCOD9336254 Si02
#       8
#     4   8   4   8   8   8   8   8
#     4  12  28  46  70 116 148 214 240 314 406 448
#     4  12  26  45  71 105 153 185 256 307 379 463
#     4  12  22  42  72 100 134 188 248 304 368 434
#     4  10  25  42  69 104 139 192 248 309 364 446
#     4  11  25  45  69 106 145 190 247 312 381 449
#     4  11  23  45  71 108 144 190 244 318 378 447
#     4  11  24  44  73 102 145 190 249 305 382 450
#     4  11  26  45  71 105 144 194 250 314 374 453
#
# _framework density 22.537925000000001
#
# number of rings (size 3 to 8) (size 9 to 14) (size 15 to 20)
#    0.000    0.857    4.286    1.714    6.000    2.286 
#    0.000    1.429    0.000    0.000    0.000    0.000 
#    0.000    0.000    0.000    0.000    0.000    0.000 
#
# Total GULP energy -156481.580757 kJ/mol
# GULP energy per Si atom -5588.627884 kJ/mol
# Density = 2.248663 g / cm^3
# Si number density = 22.537925 Si / 1000 Ang^3
#
#
#
# Elastic Constant Matrix: (Units=GPa)
#
#
# Indices 1 2 3 4 5 6 
#
# 1 97.3494 9.4483 19.5326 0.0000 0.0000 0.0000
# 2 9.4483 36.8167 -17.1229 0.0000 0.0000 0.0000
# 3 19.5326 -17.1229 106.9880 0.0000 0.0000 0.0000
# 4 0.0000 0.0000 0.0000 29.2133 0.0000 0.0000
# 5 0.0000 0.0000 0.0000 0.0000 19.5639 0.0000
# 6 0.0000 0.0000 0.0000 0.0000 0.0000 29.2166
#
#
#
# Elastic Compliance Matrix: (Units=1/GPa)
#
#
# Indices 1 2 3 4 5 6 
#
# 1 0.011218 -0.004140 -0.002711 0.000000 0.000000 0.000000
# 2 -0.004140 0.030873 0.005697 0.000000 0.000000 0.000000
# 3 -0.002711 0.005697 0.010753 0.000000 0.000000 0.000000
# 4 0.000000 0.000000 0.000000 0.034231 0.000000 0.000000
# 5 0.000000 0.000000 0.000000 0.000000 0.051115 0.000000
# 6 0.000000 0.000000 0.000000 0.000000 0.000000 0.034227
#
#
# Mechanical properties :
#
#
# Convention : Reuss Voigt Hill
#
# Bulk Modulus (GPa) = 19.78687 29.43001 24.60844
# Shear Modulus (GPa) = 26.10011 30.88515 28.49263
#
# Velocity S-wave (km/s) = 3.40671 3.70586 3.55943
# Velocity P-wave (km/s) = 4.92673 5.60335 5.27590
#
# Compressibility (1/GPa) = 0.05053857
#
# Stress axis : x y z
#
# Youngs Moduli (GPa) = 89.14323 32.39024 92.99330
#
# Poissons Ratio (x) = 0.13408 0.25206
# Poissons Ratio (y) = 0.36901 -0.52977
# Poissons Ratio (z) = 0.24163 -0.18452
#
# Static dielectric constant tensor:
#      x y z
#    x 1.872030 0.000000 0.000000 
#    y 0.000000 1.831580 0.000000 
#    z 0.000000 0.000000 1.878560 
# 
# From -- ./inp_files/26556.got.cif
#   From: 2010.05.17/outbox.cif.g08.bks.cpg/sg24_14_cif.got.tgz:26556.got - 2010.06.04 00:33:39.
