data_PCOD9336681
_publ_section_title
;
Structure prediction by ZEFSAII (Michael W. Deem and Ramdas Pophale) SiO2 
 PCOD9336681
Probable space group: I 21 21 21
;
_chemical_formula_sum "Si O2"
_cell_formula_units_Z 32
_cell_length_a 7.729819
_cell_length_b 15.478093
_cell_length_c 13.136916
_cell_angle_alpha 90.000000
_cell_angle_beta 90.000000
_cell_angle_gamma 90.000000
_cell_volume 1571.738167
_symmetry_space_group_name_H-M "I 21 21 21"
_symmetry_group_IT_number 24
_symmetry_cell_setting 'orthorhombic'
loop_
_space_group_symop_operation_xyz
x,y,z
-x,1/2-y,z
x,-y,1/2-z
1/2-x,y,-z
1/2+x,1/2+y,1/2+z
1/2-x,-y,1/2+z
1/2+x,1/2-y,-z
-x,1/2+y,1/2-z
loop_
_atom_site_type_symbol
_atom_site_label
_atom_site_fract_x
_atom_site_fract_y
_atom_site_fract_z
Si Si1 0.054200 0.850420 0.799443
Si Si2 0.086981 0.511752 0.451012
Si Si3 0.588723 0.342691 0.074606
Si Si4 0.777762 0.000000 0.750000
Si Si5 0.250000 0.093311 0.500000
O O1 0.144535 0.866457 0.689478
O O2 0.165275 0.861404 0.901686
O O3 0.000000 0.750000 0.798585
O O4 0.899486 0.921840 0.791764
O O5 0.250000 0.461392 0.500000
O O6 0.152666 0.534446 0.339059
O O7 0.048867 0.590865 0.527160
O O8 0.908251 0.460997 0.453167
O O9 0.500000 0.250000 0.077034
O O10 0.750000 0.342361 0.000000
#
# Coordination Sequence:
#
# PCOD9336681 Si02
#       5
#     8   8   8   4   4
#     4  11  26  47  71 103 146 184 241 296 349 429
#     4  12  24  44  72 102 143 189 233 293 356 422
#     4  11  24  43  69 104 141 181 238 301 360 419
#     4  12  26  46  72 104 148 186 236 294 360 420
#     4  12  26  46  72 102 140 194 238 284 352 432
#
# _framework density 20.359624
#
# number of rings (size 3 to 8) (size 9 to 14) (size 15 to 20)
#    0.000    0.500    6.250    0.750    7.000    2.000 
#    0.000    1.250    0.000    0.000    0.000    0.000 
#    0.000    0.000    0.000    0.000    0.000    0.000 
#
# Total GULP energy -89236.713192 kJ/mol
# GULP energy per Si atom -5577.294575 kJ/mol
# Density = 2.031328 g / cm^3
# Si number density = 20.359624 Si / 1000 Ang^3
#
#
#
# Elastic Constant Matrix: (Units=GPa)
#
#
# Indices 1 2 3 4 5 6 
#
# 1 123.7654 40.8914 70.6862 0.0000 0.0000 0.0000
# 2 40.8914 101.4050 50.3298 0.0000 0.0000 0.0000
# 3 70.6862 50.3298 220.7854 0.0000 0.0000 0.0000
# 4 0.0000 0.0000 0.0000 16.8401 0.0000 0.0000
# 5 0.0000 0.0000 0.0000 0.0000 55.7601 0.0000
# 6 0.0000 0.0000 0.0000 0.0000 0.0000 16.3696
#
#
#
# Elastic Compliance Matrix: (Units=1/GPa)
#
#
# Indices 1 2 3 4 5 6 
#
# 1 0.010604 -0.002921 -0.002729 0.000000 0.000000 0.000000
# 2 -0.002921 0.011924 -0.001783 0.000000 0.000000 0.000000
# 3 -0.002729 -0.001783 0.005809 0.000000 0.000000 0.000000
# 4 0.000000 0.000000 0.000000 0.059382 0.000000 0.000000
# 5 0.000000 0.000000 0.000000 0.000000 0.017934 0.000000
# 6 0.000000 0.000000 0.000000 0.000000 0.000000 0.061089
#
#
# Mechanical properties :
#
#
# Convention : Reuss Voigt Hill
#
# Bulk Modulus (GPa) = 74.23426 85.53009 79.88217
# Shear Modulus (GPa) = 26.86742 36.73053 31.79898
#
# Velocity S-wave (km/s) = 3.63663 4.25206 3.95633
# Velocity P-wave (km/s) = 7.36031 8.13680 7.75827
#
# Compressibility (1/GPa) = 0.01347087
#
# Stress axis : x y z
#
# Youngs Moduli (GPa) = 94.30787 83.86136 172.13545
#
# Poissons Ratio (x) = 0.24500 0.46973
# Poissons Ratio (y) = 0.27552 0.30691
# Poissons Ratio (z) = 0.25735 0.14952
#
# Static dielectric constant tensor:
#      x y z
#    x 1.736190 0.000000 0.000000 
#    y 0.000000 1.744590 0.000000 
#    z 0.000000 0.000000 1.782810 
# 
# From -- ./inp_files/10428.got.cif
#   From: 2010.05.17/outbox.cif.g08.bks.cpg/sg24_6_cif.got.tgz:10428.got - 2010.06.04 00:33:39.
