data_PCOD9336851
_publ_section_title
;
Structure prediction by ZEFSAII (Michael W. Deem and Ramdas Pophale) SiO2 
 PCOD9336851
Probable space group: I 21 21 21
;
_chemical_formula_sum "Si O2"
_cell_formula_units_Z 40
_cell_length_a 17.183667
_cell_length_b 6.572057
_cell_length_c 12.351944
_cell_angle_alpha 90.000000
_cell_angle_beta 90.000000
_cell_angle_gamma 90.000000
_cell_volume 1394.930221
_symmetry_space_group_name_H-M "I 21 21 21"
_symmetry_group_IT_number 24
_symmetry_cell_setting 'orthorhombic'
loop_
_space_group_symop_operation_xyz
x,y,z
-x,1/2-y,z
x,-y,1/2-z
1/2-x,y,-z
1/2+x,1/2+y,1/2+z
1/2-x,-y,1/2+z
1/2+x,1/2-y,-z
-x,1/2+y,1/2-z
loop_
_atom_site_type_symbol
_atom_site_label
_atom_site_fract_x
_atom_site_fract_y
_atom_site_fract_z
Si Si1 0.000000 0.750000 0.324928
Si Si2 0.412519 0.742814 0.311005
Si Si3 0.842043 0.945192 0.980963
Si Si4 0.279360 0.000000 0.250000
Si Si5 0.839320 0.813325 0.312822
Si Si6 0.561996 0.427981 0.502018
O O1 0.921824 0.777480 0.253860
O O2 0.970765 0.561324 0.399146
O O3 0.500000 0.750000 0.263315
O O4 0.382528 0.540791 0.373503
O O5 0.342648 0.820504 0.234211
O O6 0.422716 0.911150 0.406476
O O7 0.750000 0.964695 0.000000
O O8 0.862303 0.714130 0.011885
O O9 0.868405 0.102358 0.073610
O O10 0.217595 0.122317 0.175606
O O11 0.799156 0.000000 0.250000
O O12 0.500000 0.250000 0.478423
#
# Coordination Sequence:
#
# PCOD9336851 Si02
#       6
#     4   8   8   4   8   8
#     4  12  26  48  78 114 154 202 268 324 412 510
#     4  12  25  51  77 114 154 211 280 336 409 492
#     4  12  26  48  78 113 160 207 273 333 411 506
#     4  12  32  48  74 108 172 204 264 352 404 480
#     4  12  29  47  71 117 158 202 263 331 426 493
#     4  12  22  43  82 113 138 199 266 330 386 492
#
# _framework density 28.675270000000001
#
# number of rings (size 3 to 8) (size 9 to 14) (size 15 to 20)
#    0.000    0.000    9.000    0.000    7.000    1.600 
#    1.800    0.000    0.000    0.000    0.000    0.000 
#    0.000    0.000    0.000    0.000    0.000    0.000 
#
# Total GULP energy -111797.548453 kJ/mol
# GULP energy per Si atom -5589.877423 kJ/mol
# Density = 2.861000 g / cm^3
# Si number density = 28.675270 Si / 1000 Ang^3
#
#
#
# Elastic Constant Matrix: (Units=GPa)
#
#
# Indices 1 2 3 4 5 6 
#
# 1 205.2746 63.1647 9.6122 0.0000 0.0000 0.0000
# 2 63.1647 216.9820 53.1750 0.0000 0.0000 0.0000
# 3 9.6122 53.1750 78.1416 0.0000 0.0000 0.0000
# 4 0.0000 0.0000 0.0000 62.8072 0.0000 0.0000
# 5 0.0000 0.0000 0.0000 0.0000 14.2803 0.0000
# 6 0.0000 0.0000 0.0000 0.0000 0.0000 79.9839
#
#
#
# Elastic Compliance Matrix: (Units=1/GPa)
#
#
# Indices 1 2 3 4 5 6 
#
# 1 0.005366 -0.001681 0.000484 0.000000 0.000000 0.000000
# 2 -0.001681 0.006057 -0.003915 0.000000 0.000000 0.000000
# 3 0.000484 -0.003915 0.015402 0.000000 0.000000 0.000000
# 4 0.000000 0.000000 0.000000 0.015922 0.000000 0.000000
# 5 0.000000 0.000000 0.000000 0.000000 0.070027 0.000000
# 6 0.000000 0.000000 0.000000 0.000000 0.000000 0.012503
#
#
# Mechanical properties :
#
#
# Convention : Reuss Voigt Hill
#
# Bulk Modulus (GPa) = 60.23769 83.58910 71.91340
# Shear Modulus (GPa) = 35.45226 56.37736 45.91481
#
# Velocity S-wave (km/s) = 3.51997 4.43884 4.00584
# Velocity P-wave (km/s) = 6.12966 7.44880 6.82119
#
# Compressibility (1/GPa) = 0.01660090
#
# Stress axis : x y z
#
# Youngs Moduli (GPa) = 186.35827 165.08682 64.92595
#
# Poissons Ratio (x) = 0.27744 -0.03140
# Poissons Ratio (y) = 0.31319 0.25421
# Poissons Ratio (z) = -0.09011 0.64637
#
# Static dielectric constant tensor:
#      x y z
#    x 2.420640 0.000000 0.000000 
#    y 0.000000 2.285840 0.000000 
#    z 0.000000 0.000000 2.359660 
# 
# From -- ./inp_files/30999.got.cif
#   From: 2010.05.17/outbox.cif.g08.bks.cpg/sg24_16_cif.got.tgz:30999.got - 2010.06.04 00:33:39.
