data_PCOD9336014
_publ_section_title
;
Structure prediction by ZEFSAII (Michael W. Deem and Ramdas Pophale) SiO2 
 PCOD9336014
Probable space group: I 21 21 21
;
_chemical_formula_sum "Si O2"
_cell_formula_units_Z 60
_cell_length_a 8.233982
_cell_length_b 26.104142
_cell_length_c 12.499519
_cell_angle_alpha 90.000000
_cell_angle_beta 90.000000
_cell_angle_gamma 90.000000
_cell_volume 2686.659555
_symmetry_space_group_name_H-M "I 21 21 21"
_symmetry_group_IT_number 24
_symmetry_cell_setting 'orthorhombic'
loop_
_space_group_symop_operation_xyz
x,y,z
-x,1/2-y,z
x,-y,1/2-z
1/2-x,y,-z
1/2+x,1/2+y,1/2+z
1/2-x,-y,1/2+z
1/2+x,1/2-y,-z
-x,1/2+y,1/2-z
loop_
_atom_site_type_symbol
_atom_site_label
_atom_site_fract_x
_atom_site_fract_y
_atom_site_fract_z
Si Si1 0.691324 0.881696 0.173202
Si Si2 0.553011 0.484618 0.009176
Si Si3 0.996213 0.399304 0.464482
Si Si4 0.730101 0.392890 0.715940
Si Si5 0.977095 0.689932 0.694004
Si Si6 0.097411 0.407375 0.151009
Si Si7 0.420093 0.000000 0.250000
Si Si8 0.079617 0.298954 0.042297
O O1 0.851335 0.876350 0.100864
O O2 0.627119 0.835016 0.242755
O O3 0.756099 0.920120 0.266610
O O4 0.546323 0.891708 0.088466
O O5 0.504947 0.488376 0.133628
O O6 0.750000 0.474205 0.000000
O O7 0.518498 0.539323 0.955045
O O8 0.442076 0.444257 0.947207
O O9 0.835737 0.380536 0.402947
O O10 0.567754 0.404800 0.781923
O O11 0.823368 0.447076 0.725513
O O12 0.826341 0.344625 0.765253
O O13 0.983410 0.685174 0.565300
O O14 0.000000 0.750000 0.715874
O O15 0.114436 0.349914 0.106911
O O16 0.000000 0.250000 0.099227
O O17 0.250000 0.278330 0.000000
#
# Coordination Sequence:
#
# PCOD9336014 Si02
#       8
#     8   8   8   8   8   8   4   8
#     4  10  23  46  66  94 136 176 232 289 363 422
#     4  12  23  41  69 103 142 181 245 287 344 430
#     4  10  23  45  69  98 137 188 231 293 359 424
#     4  11  22  40  72 100 133 187 238 292 353 430
#     4  11  25  43  67 102 141 176 237 296 359 437
#     4  11  24  42  67  98 138 182 233 296 353 429
#     4  12  22  38  68 110 134 178 242 296 330 410
#     4  11  25  43  66  98 139 184 228 291 370 434
#
# _framework density 22.332566
#
# number of rings (size 3 to 8) (size 9 to 14) (size 15 to 20)
#    0.000    1.067    4.000    1.600    3.733    1.600 
#    2.400    8.667    0.000    0.800    0.000    0.000 
#    0.000    0.000    0.000    0.000    0.000    0.000 
#
# Total GULP energy -167325.200874 kJ/mol
# GULP energy per Si atom -5577.506696 kJ/mol
# Density = 2.228174 g / cm^3
# Si number density = 22.332566 Si / 1000 Ang^3
#
#
#
# Elastic Constant Matrix: (Units=GPa)
#
#
# Indices 1 2 3 4 5 6 
#
# 1 42.9203 10.6281 48.9648 0.0000 0.0000 0.0000
# 2 10.6281 52.8460 41.5435 -0.0001 0.0000 0.0000
# 3 48.9648 41.5435 152.6224 0.0000 0.0001 0.0000
# 4 0.0000 -0.0001 0.0000 27.6406 0.0000 0.0000
# 5 0.0000 0.0000 0.0001 0.0000 59.5918 0.0000
# 6 0.0000 0.0000 0.0000 0.0000 0.0000 27.1068
#
#
#
# Elastic Compliance Matrix: (Units=1/GPa)
#
#
# Indices 1 2 3 4 5 6 
#
# 1 0.036988 0.002404 -0.012521 0.000000 0.000000 0.000000
# 2 0.002404 0.024231 -0.007367 0.000000 0.000000 0.000000
# 3 -0.012521 -0.007367 0.012574 0.000000 0.000000 0.000000
# 4 0.000000 0.000000 0.000000 0.036179 0.000000 0.000000
# 5 0.000000 0.000000 0.000000 0.000000 0.016781 0.000000
# 6 0.000000 0.000000 0.000000 0.000000 0.000000 0.036891
#
#
# Mechanical properties :
#
#
# Convention : Reuss Voigt Hill
#
# Bulk Modulus (GPa) = 25.75611 50.07350 37.91480
# Shear Modulus (GPa) = 23.63474 32.68466 28.15970
#
# Velocity S-wave (km/s) = 3.25669 3.82978 3.55480
# Velocity P-wave (km/s) = 5.06946 6.48280 5.81920
#
# Compressibility (1/GPa) = 0.03882574
#
# Stress axis : x y z
#
# Youngs Moduli (GPa) = 27.03574 41.27010 79.52667
#
# Poissons Ratio (x) = -0.09922 0.99576
# Poissons Ratio (y) = -0.06500 0.58586
# Poissons Ratio (z) = 0.33852 0.30403
#
# Static dielectric constant tensor:
#      x y z
#    x 1.892800 0.000000 0.000000 
#    y 0.000000 1.811940 0.000000 
#    z 0.000000 0.000000 1.917500 
# 
# From -- ./inp_files/18812.got.cif
#   From: 2010.05.17/outbox.cif.g08.bks.cpg/sg24_10_cif.got.tgz:18812.got - 2010.06.04 00:33:39.
