data_PCOD9336199
_publ_section_title
;
Structure prediction by ZEFSAII (Michael W. Deem and Ramdas Pophale) SiO2 
 PCOD9336199
Probable space group: I 21 21 21
;
_chemical_formula_sum "Si O2"
_cell_formula_units_Z 32
_cell_length_a 5.129076
_cell_length_b 15.514064
_cell_length_c 16.949140
_cell_angle_alpha 90.000000
_cell_angle_beta 90.000000
_cell_angle_gamma 90.000000
_cell_volume 1348.690753
_symmetry_space_group_name_H-M "I 21 21 21"
_symmetry_group_IT_number 24
_symmetry_cell_setting 'orthorhombic'
loop_
_space_group_symop_operation_xyz
x,y,z
-x,1/2-y,z
x,-y,1/2-z
1/2-x,y,-z
1/2+x,1/2+y,1/2+z
1/2-x,-y,1/2+z
1/2+x,1/2-y,-z
-x,1/2+y,1/2-z
loop_
_atom_site_type_symbol
_atom_site_label
_atom_site_fract_x
_atom_site_fract_y
_atom_site_fract_z
Si Si1 0.002652 0.582218 0.357355
Si Si2 0.000000 0.750000 0.448813
Si Si3 0.554641 0.608385 0.821968
Si Si4 0.034130 0.657662 0.913302
Si Si5 0.250000 0.489235 0.500000
O O1 0.898393 0.668551 0.397941
O O2 0.052959 0.610117 0.267283
O O3 0.862812 0.490646 0.342325
O O4 0.208503 0.547888 0.422709
O O5 0.750000 0.775878 0.500000
O O6 0.315430 0.641976 0.873983
O O7 0.815580 0.657936 0.845037
O O8 0.022759 0.577555 0.973967
O O9 0.000000 0.750000 0.953635
#
# Coordination Sequence:
#
# PCOD9336199 Si02
#       5
#     8   4   8   8   4
#     4  10  24  46  70 101 137 184 231 277 347 401
#     4  12  28  42  70 102 140 176 230 286 336 410
#     4  10  25  45  73  97 140 181 226 286 340 412
#     4  11  25  44  72 105 136 177 230 286 347 404
#     4  10  24  46  72 100 144 180 230 284 344 416
#
# _framework density 23.726717000000001
#
# number of rings (size 3 to 8) (size 9 to 14) (size 15 to 20)
#    0.000    1.500    1.250    0.750    7.000   17.000 
#    0.000    0.000    0.000    0.000    0.000    0.000 
#    0.000    0.000    0.000    0.000    0.000    0.000 
#
# Total GULP energy -89084.603409 kJ/mol
# GULP energy per Si atom -5567.787713 kJ/mol
# Density = 2.367271 g / cm^3
# Si number density = 23.726717 Si / 1000 Ang^3
#
#
#
# Elastic Constant Matrix: (Units=GPa)
#
#
# Indices 1 2 3 4 5 6 
#
# 1 94.3980 18.7738 48.8814 0.0000 0.0000 0.0000
# 2 18.7738 136.4898 39.7148 0.0000 0.0000 0.0000
# 3 48.8814 39.7148 164.4733 0.0000 0.0000 0.0000
# 4 0.0000 0.0000 0.0000 5.8274 0.0000 0.0000
# 5 0.0000 0.0000 0.0000 0.0000 17.0432 0.0000
# 6 0.0000 0.0000 0.0000 0.0000 0.0000 11.6389
#
#
#
# Elastic Compliance Matrix: (Units=1/GPa)
#
#
# Indices 1 2 3 4 5 6 
#
# 1 0.012581 -0.000691 -0.003572 0.000000 0.000000 0.000000
# 2 -0.000691 0.007918 -0.001707 0.000000 0.000000 0.000000
# 3 -0.003572 -0.001707 0.007554 0.000000 0.000000 0.000000
# 4 0.000000 0.000000 0.000000 0.171604 0.000000 0.000000
# 5 0.000000 0.000000 0.000000 0.000000 0.058674 0.000000
# 6 0.000000 0.000000 0.000000 0.000000 0.000000 0.085919
#
#
# Mechanical properties :
#
#
# Convention : Reuss Voigt Hill
#
# Bulk Modulus (GPa) = 62.06155 67.78902 64.92528
# Shear Modulus (GPa) = 13.82895 26.10130 19.96513
#
# Velocity S-wave (km/s) = 2.41683 3.32034 2.90394
# Velocity P-wave (km/s) = 5.83110 6.58273 6.21828
#
# Compressibility (1/GPa) = 0.01611304
#
# Stress axis : x y z
#
# Youngs Moduli (GPa) = 79.48757 126.29168 132.38509
#
# Poissons Ratio (x) = 0.08727 0.47289
# Poissons Ratio (y) = 0.05493 0.22593
# Poissons Ratio (z) = 0.28394 0.21553
#
# Static dielectric constant tensor:
#      x y z
#    x 1.884660 0.000000 0.000000 
#    y 0.000000 1.973380 0.000000 
#    z 0.000000 0.000000 1.974870 
# 
# From -- ./inp_files/28547.got.cif
#   From: 2010.05.17/outbox.cif.g08.bks.cpg/sg24_15_cif.got.tgz:28547.got - 2010.06.04 00:33:39.
