data_PCOD9336934
_publ_section_title
;
Structure prediction by ZEFSAII (Michael W. Deem and Ramdas Pophale) SiO2 
 PCOD9336934
Probable space group: I 21 21 21
;
_chemical_formula_sum "Si O2"
_cell_formula_units_Z 32
_cell_length_a 16.708896
_cell_length_b 13.336815
_cell_length_c 6.193864
_cell_angle_alpha 90.000000
_cell_angle_beta 90.000000
_cell_angle_gamma 90.000000
_cell_volume 1380.262052
_symmetry_space_group_name_H-M "I 21 21 21"
_symmetry_group_IT_number 24
_symmetry_cell_setting 'orthorhombic'
loop_
_space_group_symop_operation_xyz
x,y,z
-x,1/2-y,z
x,-y,1/2-z
1/2-x,y,-z
1/2+x,1/2+y,1/2+z
1/2-x,-y,1/2+z
1/2+x,1/2-y,-z
-x,1/2+y,1/2-z
loop_
_atom_site_type_symbol
_atom_site_label
_atom_site_fract_x
_atom_site_fract_y
_atom_site_fract_z
Si Si1 0.750000 0.242497 0.000000
Si Si2 0.472533 0.402581 0.622130
Si Si3 0.370314 0.107552 0.861801
Si Si4 0.921504 0.500000 0.750000
Si Si5 0.171507 0.607463 0.852293
O O1 0.803206 0.309986 0.160393
O O2 0.692428 0.176215 0.148836
O O3 0.439069 0.500000 0.750000
O O4 0.541283 0.359014 0.780118
O O5 0.524842 0.443622 0.423697
O O6 0.398326 0.349718 0.507763
O O7 0.352931 0.000000 0.750000
O O8 0.372475 0.080841 0.115186
O O9 0.147487 0.500000 0.750000
O O10 0.250000 0.593200 0.000000
#
# Coordination Sequence:
#
# PCOD9336934 Si02
#       5
#     4   8   8   4   8
#     4  12  28  44  70 114 142 186 242 280 374 432
#     4   9  19  40  75  99 135 186 239 288 357 415
#     4   9  22  43  73 104 141 180 234 295 358 430
#     4   8  16  38  72  96 132 182 222 288 362 402
#     4  12  25  44  72 101 144 193 239 297 351 416
#
# _framework density 23.184003000000001
#
# number of rings (size 3 to 8) (size 9 to 14) (size 15 to 20)
#    0.000    2.500    2.500    0.750    1.750    4.000 
#    0.000    7.500    0.000    0.000    0.000    0.000 
#    0.000    0.000    0.000    0.000    0.000    0.000 
#
# Total GULP energy -89343.181114 kJ/mol
# GULP energy per Si atom -5583.948820 kJ/mol
# Density = 2.313124 g / cm^3
# Si number density = 23.184003 Si / 1000 Ang^3
#
#
#
# Elastic Constant Matrix: (Units=GPa)
#
#
# Indices 1 2 3 4 5 6 
#
# 1 107.1346 47.8832 20.5476 0.0000 0.0000 0.0000
# 2 47.8832 89.4047 28.0449 0.0000 0.0000 0.0000
# 3 20.5476 28.0449 95.8396 0.0000 0.0000 0.0000
# 4 0.0000 0.0000 0.0000 29.2869 0.0000 0.0000
# 5 0.0000 0.0000 0.0000 0.0000 36.8688 0.0000
# 6 0.0000 0.0000 0.0000 0.0000 0.0000 -1.0559
#
#
#
# Elastic Compliance Matrix: (Units=1/GPa)
#
#
# Indices 1 2 3 4 5 6 
#
# 1 0.012325 -0.006355 -0.000783 0.000000 0.000000 0.000000
# 2 -0.006355 0.015593 -0.003200 0.000000 0.000000 0.000000
# 3 -0.000783 -0.003200 0.011538 0.000000 0.000000 0.000000
# 4 0.000000 0.000000 0.000000 0.034145 0.000000 0.000000
# 5 0.000000 0.000000 0.000000 0.000000 0.027123 0.000000
# 6 0.000000 0.000000 0.000000 0.000000 0.000000 -0.947099
#
#
# Mechanical properties :
#
#
# Convention : Reuss Voigt Hill
#
# Bulk Modulus (GPa) = 53.25001 53.92560 53.58780
# Shear Modulus (GPa) = -6.10173 26.08019 9.98923
#
# Velocity S-wave (km/s) = -1.62406 3.35762 2.07799
# Velocity P-wave (km/s) = 4.41605 6.19208 5.37789
#
# Compressibility (1/GPa) = 0.01877934
#
# Stress axis : x y z
#
# Youngs Moduli (GPa) = 81.13847 64.13247 86.66741
#
# Poissons Ratio (x) = 0.40758 0.06783
# Poissons Ratio (y) = 0.51566 0.27736
# Poissons Ratio (z) = 0.06350 0.20524
#
# Static dielectric constant tensor:
#      x y z
#    x 1.894420 0.000000 0.000000 
#    y 0.000000 1.931830 0.000000 
#    z 0.000000 0.000000 1.903750 
# 
# From -- ./inp_files/4381.got.cif
#   From: 2010.05.17/outbox.cif.g08.bks.cpg/sg24_3_cif.got.tgz:4381.got - 2010.06.04 00:33:39.
