data_PCOD9336670
_publ_section_title
;
Structure prediction by ZEFSAII (Michael W. Deem and Ramdas Pophale) SiO2 
 PCOD9336670
Probable space group: I 21 21 21
;
_chemical_formula_sum "Si O2"
_cell_formula_units_Z 56
_cell_length_a 13.369056
_cell_length_b 22.359453
_cell_length_c 9.214103
_cell_angle_alpha 90.000000
_cell_angle_beta 90.000000
_cell_angle_gamma 90.000000
_cell_volume 2754.323706
_symmetry_space_group_name_H-M "I 21 21 21"
_symmetry_group_IT_number 24
_symmetry_cell_setting 'orthorhombic'
loop_
_space_group_symop_operation_xyz
x,y,z
-x,1/2-y,z
x,-y,1/2-z
1/2-x,y,-z
1/2+x,1/2+y,1/2+z
1/2-x,-y,1/2+z
1/2+x,1/2-y,-z
-x,1/2+y,1/2-z
loop_
_atom_site_type_symbol
_atom_site_label
_atom_site_fract_x
_atom_site_fract_y
_atom_site_fract_z
Si Si1 0.853782 0.432650 0.739362
Si Si2 0.977801 0.918583 0.519328
Si Si3 0.522205 0.947812 0.994875
Si Si4 0.003362 0.346568 0.262363
Si Si5 0.287783 0.690208 0.834508
Si Si6 0.809257 0.932484 0.760597
Si Si7 0.775037 0.318652 0.328312
O O1 0.809354 0.500000 0.750000
O O2 0.926693 0.420256 0.874619
O O3 0.926561 0.435275 0.598772
O O4 0.778364 0.377809 0.731317
O O5 0.982404 0.865592 0.404667
O O6 0.881503 0.920471 0.623766
O O7 0.977791 0.983726 0.446667
O O8 0.618612 0.935456 0.097499
O O9 0.518409 0.905003 0.860286
O O10 0.891915 0.325233 0.294860
O O11 0.093062 0.304574 0.316294
O O12 0.259582 0.625710 0.768835
O O13 0.242411 0.752414 0.772867
O O14 0.250000 0.687148 0.000000
O O15 0.764684 0.000000 0.750000
O O16 0.750000 0.318606 0.500000
#
# Coordination Sequence:
#
# PCOD9336670 Si02
#       7
#     8   8   8   8   8   8   8
#     4   9  19  41  64  90 125 164 203 246 303 366
#     4   9  21  36  62  95 128 160 193 254 310 365
#     4   9  17  36  63  91 125 159 209 250 290 358
#     4  12  22  38  59  94 122 157 206 261 303 359
#     4  11  24  42  64  90 120 164 214 255 298 361
#     4   9  19  41  64  90 125 164 203 246 303 366
#     4  11  24  42  64  90 120 164 214 255 298 361
#
# _framework density 20.331669999999999
#
# number of rings (size 3 to 8) (size 9 to 14) (size 15 to 20)
#    0.000    2.000    2.857    2.571    0.000    3.429 
#    0.000    7.143    0.000    0.000    0.000    0.000 
#    0.000    0.000    0.000    0.000    0.000    0.000 
#
# Total GULP energy -156216.926023 kJ/mol
# GULP energy per Si atom -5579.175929 kJ/mol
# Density = 2.028539 g / cm^3
# Si number density = 20.331670 Si / 1000 Ang^3
#
#
#
# Elastic Constant Matrix: (Units=GPa)
#
#
# Indices 1 2 3 4 5 6 
#
# 1 86.6351 67.6599 9.2137 0.0001 0.0000 0.0001
# 2 67.6599 153.0660 25.1986 0.0002 0.0001 0.0005
# 3 9.2137 25.1986 66.8176 0.0008 0.0002 0.0028
# 4 0.0001 0.0002 0.0008 -7.9566 0.0001 0.0010
# 5 0.0000 0.0001 0.0002 0.0001 4.9845 -0.0001
# 6 0.0001 0.0005 0.0028 0.0010 -0.0001 110.0892
#
#
#
# Elastic Compliance Matrix: (Units=1/GPa)
#
#
# Indices 1 2 3 4 5 6 
#
# 1 0.017647 -0.007890 0.000542 0.000000 0.000000 0.000000
# 2 -0.007890 0.010493 -0.002869 0.000000 0.000000 0.000000
# 3 0.000542 -0.002869 0.015973 0.000002 -0.000001 0.000000
# 4 0.000000 0.000000 0.000002 -0.125682 0.000002 0.000001
# 5 0.000000 0.000000 -0.000001 0.000002 0.200621 0.000000
# 6 0.000000 0.000000 0.000000 0.000001 0.000000 0.009084
#
#
# Mechanical properties :
#
#
# Convention : Reuss Voigt Hill
#
# Bulk Modulus (GPa) = 42.23087 56.74033 49.48560
# Shear Modulus (GPa) = 31.95672 35.05320 33.50496
#
# Velocity S-wave (km/s) = 3.96886 4.15670 4.06386
# Velocity P-wave (km/s) = 6.46672 7.14181 6.81263
#
# Compressibility (1/GPa) = 0.02367936
#
# Stress axis : x y z
#
# Youngs Moduli (GPa) = 56.66821 95.30256 62.60400
#
# Poissons Ratio (x) = 0.75189 -0.03393
# Poissons Ratio (y) = 0.44709 0.17962
# Poissons Ratio (z) = -0.03071 0.27344
#
# Static dielectric constant tensor:
#      x y z
#    x 1.767160 0.000000 0.000000 
#    y 0.000000 1.744550 0.000000 
#    z 0.000000 0.000000 1.701600 
# 
# From -- ./inp_files/13147.got.cif
#   From: 2010.05.17/outbox.cif.g08.bks.cpg/sg24_7_cif.got.tgz:13147.got - 2010.06.04 00:33:39.
