data_PCOD9336230
_publ_section_title
;
Structure prediction by ZEFSAII (Michael W. Deem and Ramdas Pophale) SiO2 
 PCOD9336230
Probable space group: I 21 21 21
;
_chemical_formula_sum "Si O2"
_cell_formula_units_Z 56
_cell_length_a 10.855249
_cell_length_b 15.555739
_cell_length_c 13.308167
_cell_angle_alpha 90.000000
_cell_angle_beta 90.000000
_cell_angle_gamma 90.000000
_cell_volume 2247.235980
_symmetry_space_group_name_H-M "I 21 21 21"
_symmetry_group_IT_number 24
_symmetry_cell_setting 'orthorhombic'
loop_
_space_group_symop_operation_xyz
x,y,z
-x,1/2-y,z
x,-y,1/2-z
1/2-x,y,-z
1/2+x,1/2+y,1/2+z
1/2-x,-y,1/2+z
1/2+x,1/2-y,-z
-x,1/2+y,1/2-z
loop_
_atom_site_type_symbol
_atom_site_label
_atom_site_fract_x
_atom_site_fract_y
_atom_site_fract_z
Si Si1 0.145036 0.758360 0.717561
Si Si2 0.012415 0.935974 0.930998
Si Si3 0.722087 0.837359 0.118068
Si Si4 0.500000 0.750000 0.562949
Si Si5 0.010422 0.355593 0.346875
Si Si6 0.166072 0.118518 0.166194
Si Si7 0.863027 0.109599 0.931920
Si Si8 0.250000 0.993748 0.000000
O O1 0.203699 0.753024 0.827881
O O2 0.193314 0.849160 0.677221
O O3 0.183981 0.670791 0.658242
O O4 0.000000 0.750000 0.717292
O O5 0.912733 0.879782 0.870020
O O6 0.951278 0.029395 0.913616
O O7 0.010458 0.894365 0.042839
O O8 0.159329 0.945234 0.922238
O O9 0.844257 0.877417 0.168851
O O10 0.750000 0.831788 0.000000
O O11 0.603072 0.705980 0.628420
O O12 0.438501 0.677548 0.497049
O O13 0.000000 0.250000 0.348455
O O14 0.916402 0.396864 0.265687
O O15 0.166334 0.051628 0.074881
O O16 0.750000 0.076589 0.000000
#
# Coordination Sequence:
#
# PCOD9336230 Si02
#       8
#     8   8   8   4   8   8   8   4
#     4  12  24  40  69 111 147 199 250 311 381 463
#     4  11  27  48  71 109 156 206 246 317 393 465
#     4  10  24  48  71 102 145 191 258 319 384 450
#     4  12  20  40  72 106 146 192 250 320 376 456
#     4  11  23  48  79 109 142 193 274 330 378 465
#     4  12  23  45  77 115 149 198 268 321 392 465
#     4  12  23  41  70 108 153 197 249 312 387 463
#     4  12  26  48  74 112 166 202 252 324 402 490
#
# _framework density 24.919501
#
# number of rings (size 3 to 8) (size 9 to 14) (size 15 to 20)
#    0.000    0.571    5.714    3.000    0.000    4.571 
#    3.857    4.286    0.000    0.000    0.000    0.000 
#    0.000    0.000    0.000    0.000    0.000    0.000 
#
# Total GULP energy -156281.542912 kJ/mol
# GULP energy per Si atom -5581.483675 kJ/mol
# Density = 2.486278 g / cm^3
# Si number density = 24.919501 Si / 1000 Ang^3
#
#
#
# Elastic Constant Matrix: (Units=GPa)
#
#
# Indices 1 2 3 4 5 6 
#
# 1 133.5369 5.0378 26.9749 0.0000 0.0000 0.0000
# 2 5.0378 81.6370 30.1328 0.0000 0.0000 0.0000
# 3 26.9749 30.1328 71.8834 0.0000 0.0000 0.0000
# 4 0.0000 0.0000 0.0000 -1.5863 0.0000 0.0000
# 5 0.0000 0.0000 0.0000 0.0000 39.3609 0.0000
# 6 0.0000 0.0000 0.0000 0.0000 0.0000 28.7497
#
#
#
# Elastic Compliance Matrix: (Units=1/GPa)
#
#
# Indices 1 2 3 4 5 6 
#
# 1 0.008140 0.000740 -0.003365 0.000000 0.000000 0.000000
# 2 0.000740 0.014559 -0.006380 0.000000 0.000000 0.000000
# 3 -0.003365 -0.006380 0.017849 0.000000 0.000000 0.000000
# 4 0.000000 0.000000 0.000000 -0.630417 0.000000 0.000000
# 5 0.000000 0.000000 0.000000 0.000000 0.025406 0.000000
# 6 0.000000 0.000000 0.000000 0.000000 0.000000 0.034783
#
#
# Mechanical properties :
#
#
# Convention : Reuss Voigt Hill
#
# Bulk Modulus (GPa) = 44.37218 45.70534 45.03876
# Shear Modulus (GPa) = -9.91754 28.29900 9.19073
#
# Velocity S-wave (km/s) = -1.99712 3.37355 1.92254
# Velocity P-wave (km/s) = 3.53934 5.79271 4.80012
#
# Compressibility (1/GPa) = 0.02253664
#
# Stress axis : x y z
#
# Youngs Moduli (GPa) = 122.84465 68.68714 56.02648
#
# Poissons Ratio (x) = -0.05080 0.18852
# Poissons Ratio (y) = -0.09086 0.35747
# Poissons Ratio (z) = 0.41335 0.43825
#
# Static dielectric constant tensor:
#      x y z
#    x 2.130420 0.000000 0.000000 
#    y 0.000000 1.984950 0.000000 
#    z 0.000000 0.000000 2.053710 
# 
# From -- ./inp_files/25861.got.cif
#   From: 2010.05.17/outbox.cif.g08.bks.cpg/sg24_13_cif.got.tgz:25861.got - 2010.06.04 00:33:39.
