data_PCOD9336426
_publ_section_title
;
Structure prediction by ZEFSAII (Michael W. Deem and Ramdas Pophale) SiO2 
 PCOD9336426
Probable space group: I 21 21 21
;
_chemical_formula_sum "Si O2"
_cell_formula_units_Z 48
_cell_length_a 11.198884
_cell_length_b 21.687777
_cell_length_c 8.963533
_cell_angle_alpha 90.000000
_cell_angle_beta 90.000000
_cell_angle_gamma 90.000000
_cell_volume 2177.053025
_symmetry_space_group_name_H-M "I 21 21 21"
_symmetry_group_IT_number 24
_symmetry_cell_setting 'orthorhombic'
loop_
_space_group_symop_operation_xyz
x,y,z
-x,1/2-y,z
x,-y,1/2-z
1/2-x,y,-z
1/2+x,1/2+y,1/2+z
1/2-x,-y,1/2+z
1/2+x,1/2-y,-z
-x,1/2+y,1/2-z
loop_
_atom_site_type_symbol
_atom_site_label
_atom_site_fract_x
_atom_site_fract_y
_atom_site_fract_z
Si Si1 0.919044 0.108773 0.994764
Si Si2 0.636304 0.974458 0.085137
Si Si3 0.339844 0.162755 0.135676
Si Si4 0.557023 0.187262 0.715203
Si Si5 0.533243 0.641420 0.086262
Si Si6 0.177831 0.699494 0.734751
O O1 0.932516 0.137310 0.156445
O O2 0.826750 0.142896 0.882785
O O3 0.042089 0.127390 0.915441
O O4 0.897571 0.036482 0.001957
O O5 0.528937 0.925820 0.093260
O O6 0.665995 0.000000 0.250000
O O7 0.750000 0.945580 0.000000
O O8 0.346251 0.145540 0.314247
O O9 0.341041 0.237143 0.144742
O O10 0.250000 0.147425 0.000000
O O11 0.500000 0.250000 0.777468
O O12 0.471282 0.163657 0.584018
O O13 0.696169 0.200868 0.679669
O O14 0.434100 0.686984 0.159432
#
# Coordination Sequence:
#
# PCOD9336426 Si02
#       6
#     8   8   8   8   8   8
#     4  11  23  38  65  98 133 178 234 285 339 412
#     4  12  24  42  67 101 137 181 228 283 354 417
#     4  11  22  41  65  91 126 181 236 287 341 412
#     4  12  23  38  61  99 140 179 226 284 354 415
#     4  11  25  40  63  96 138 178 225 292 352 416
#     4  11  20  38  63  94 131 178 226 282 341 409
#
# _framework density 22.048154
#
# number of rings (size 3 to 8) (size 9 to 14) (size 15 to 20)
#    0.000    0.667    3.333    9.000    2.333    0.000 
#    0.000    2.500    0.000    8.000    0.000    0.000 
#    0.000    0.000    0.000    0.000    0.000    0.000 
#
# Total GULP energy -133946.127750 kJ/mol
# GULP energy per Si atom -5581.088656 kJ/mol
# Density = 2.199797 g / cm^3
# Si number density = 22.048154 Si / 1000 Ang^3
#
#
#
# Elastic Constant Matrix: (Units=GPa)
#
#
# Indices 1 2 3 4 5 6 
#
# 1 55.7152 33.7298 26.0272 -0.0002 0.0000 0.0001
# 2 33.7298 116.5332 23.8317 0.0004 0.0000 -0.0003
# 3 26.0272 23.8317 106.9727 -0.0009 -0.0003 0.0000
# 4 -0.0002 0.0004 -0.0009 -1.2596 0.0000 -0.0041
# 5 0.0000 0.0000 -0.0003 0.0000 49.2707 0.0001
# 6 0.0001 -0.0003 0.0000 -0.0041 0.0001 -31.9293
#
#
#
# Elastic Compliance Matrix: (Units=1/GPa)
#
#
# Indices 1 2 3 4 5 6 
#
# 1 0.023603 -0.005927 -0.004422 -0.000003 0.000000 0.000000
# 2 -0.005927 0.010479 -0.000892 0.000005 0.000000 0.000000
# 3 -0.004422 -0.000892 0.010623 -0.000007 0.000000 0.000000
# 4 -0.000003 0.000005 -0.000007 -0.793931 0.000000 0.000101
# 5 0.000000 0.000000 0.000000 0.000000 0.020296 0.000000
# 6 0.000000 0.000000 0.000000 0.000101 0.000000 -0.031319
#
#
# Mechanical properties :
#
#
# Convention : Reuss Voigt Hill
#
# Bulk Modulus (GPa) = 45.00232 49.59981 47.30107
# Shear Modulus (GPa) = -6.84595 16.25854 4.70629
#
# Velocity S-wave (km/s) = -1.76401 2.71848 1.46260
# Velocity P-wave (km/s) = 4.03810 5.69196 4.93481
#
# Compressibility (1/GPa) = 0.02222107
#
# Stress axis : x y z
#
# Youngs Moduli (GPa) = 42.36828 95.42561 94.13572
#
# Poissons Ratio (x) = 0.56561 0.41628
# Poissons Ratio (y) = 0.25113 0.08401
# Poissons Ratio (z) = 0.18736 0.08517
#
# Static dielectric constant tensor:
#      x y z
#    x 1.923460 0.000000 0.000000 
#    y 0.000000 1.776390 0.000000 
#    z 0.000000 0.000000 1.922380 
# 
# From -- ./inp_files/11253.got.cif
#   From: 2010.05.17/outbox.cif.g08.bks.cpg/sg24_6_cif.got.tgz:11253.got - 2010.06.04 00:33:39.
