data_PCOD9336939
_publ_section_title
;
Structure prediction by ZEFSAII (Michael W. Deem and Ramdas Pophale) SiO2 
 PCOD9336939
Probable space group: I 21 21 21
;
_chemical_formula_sum "Si O2"
_cell_formula_units_Z 20
_cell_length_a 15.437037
_cell_length_b 4.926151
_cell_length_c 11.185480
_cell_angle_alpha 90.000000
_cell_angle_beta 90.000000
_cell_angle_gamma 90.000000
_cell_volume 850.601787
_symmetry_space_group_name_H-M "I 21 21 21"
_symmetry_group_IT_number 24
_symmetry_cell_setting 'orthorhombic'
loop_
_space_group_symop_operation_xyz
x,y,z
-x,1/2-y,z
x,-y,1/2-z
1/2-x,y,-z
1/2+x,1/2+y,1/2+z
1/2-x,-y,1/2+z
1/2+x,1/2-y,-z
-x,1/2+y,1/2-z
loop_
_atom_site_type_symbol
_atom_site_label
_atom_site_fract_x
_atom_site_fract_y
_atom_site_fract_z
Si Si1 0.403956 0.651604 0.364657
Si Si2 0.651455 0.331503 0.506605
Si Si3 0.562891 0.500000 0.750000
O O1 0.500000 0.750000 0.331876
O O2 0.363803 0.500000 0.250000
O O3 0.407596 0.418972 0.464741
O O4 0.356547 0.914331 0.416205
O O5 0.750000 0.232327 0.500000
O O6 0.621457 0.426660 0.636338
O O7 0.500000 0.750000 0.720083
#
# Coordination Sequence:
#
# PCOD9336939 Si02
#       3
#     8   8   4
#     4  12  25  45  75 105 141 190 239 296 361 442
#     4  12  27  46  72 107 150 187 244 304 366 429
#     4  12  26  46  76 102 144 198 246 296 362 450
#
# _framework density 23.512767
#
# number of rings (size 3 to 8) (size 9 to 14) (size 15 to 20)
#    0.000    0.000    0.000   12.000    5.600    0.000 
#    0.000    0.000    0.000    0.000    0.000    0.000 
#    0.000    0.000    0.000    0.000    0.000    0.000 
#
# Total GULP energy -56085.269896 kJ/mol
# GULP energy per Si atom -5608.526990 kJ/mol
# Density = 2.345925 g / cm^3
# Si number density = 23.512767 Si / 1000 Ang^3
#
#
#
# Elastic Constant Matrix: (Units=GPa)
#
#
# Indices 1 2 3 4 5 6 
#
# 1 65.4894 7.9302 17.5233 0.0000 0.0000 0.0000
# 2 7.9302 142.6403 26.5586 0.0000 0.0000 0.0000
# 3 17.5233 26.5586 101.2262 0.0000 0.0000 0.0000
# 4 0.0000 0.0000 0.0000 24.6777 0.0000 0.0000
# 5 0.0000 0.0000 0.0000 0.0000 -1.0754 0.0000
# 6 0.0000 0.0000 0.0000 0.0000 0.0000 28.6641
#
#
#
# Elastic Compliance Matrix: (Units=1/GPa)
#
#
# Indices 1 2 3 4 5 6 
#
# 1 0.016032 -0.000394 -0.002672 0.000000 0.000000 0.000000
# 2 -0.000394 0.007380 -0.001868 0.000000 0.000000 0.000000
# 3 -0.002672 -0.001868 0.010832 0.000000 0.000000 0.000000
# 4 0.000000 0.000000 0.000000 0.040522 0.000000 0.000000
# 5 0.000000 0.000000 0.000000 0.000000 -0.929862 0.000000
# 6 0.000000 0.000000 0.000000 0.000000 0.000000 0.034887
#
#
# Mechanical properties :
#
#
# Convention : Reuss Voigt Hill
#
# Bulk Modulus (GPa) = 41.02370 45.93113 43.47741
# Shear Modulus (GPa) = -6.23274 27.60952 10.68839
#
# Velocity S-wave (km/s) = -1.62989 3.43043 2.13440
# Velocity P-wave (km/s) = 3.73406 5.93864 4.96038
#
# Compressibility (1/GPa) = 0.02437615
#
# Stress axis : x y z
#
# Youngs Moduli (GPa) = 62.37404 135.49430 92.32261
#
# Poissons Ratio (x) = 0.05336 0.24669
# Poissons Ratio (y) = 0.02456 0.17248
# Poissons Ratio (z) = 0.16667 0.25313
#
# Static dielectric constant tensor:
#      x y z
#    x 1.818160 0.000000 0.000000 
#    y 0.000000 1.862390 0.000000 
#    z 0.000000 0.000000 1.904970 
# 
# From -- ./inp_files/1608.got.cif
#   From: 2010.05.17/outbox.cif.g08.bks.cpg/sg24_1_cif.got.tgz:1608.got - 2010.06.04 00:33:39.
