data_PCOD9336410
_publ_section_title
;
Structure prediction by ZEFSAII (Michael W. Deem and Ramdas Pophale) SiO2 
 PCOD9336410
Probable space group: I 21 21 21
;
_chemical_formula_sum "Si O2"
_cell_formula_units_Z 52
_cell_length_a 22.655666
_cell_length_b 16.632123
_cell_length_c 5.425258
_cell_angle_alpha 90.000000
_cell_angle_beta 90.000000
_cell_angle_gamma 90.000000
_cell_volume 2044.301360
_symmetry_space_group_name_H-M "I 21 21 21"
_symmetry_group_IT_number 24
_symmetry_cell_setting 'orthorhombic'
loop_
_space_group_symop_operation_xyz
x,y,z
-x,1/2-y,z
x,-y,1/2-z
1/2-x,y,-z
1/2+x,1/2+y,1/2+z
1/2-x,-y,1/2+z
1/2+x,1/2-y,-z
-x,1/2+y,1/2-z
loop_
_atom_site_type_symbol
_atom_site_label
_atom_site_fract_x
_atom_site_fract_y
_atom_site_fract_z
Si Si1 0.694065 0.418915 0.535439
Si Si2 0.812731 0.898549 0.890760
Si Si3 0.905904 0.500000 0.750000
Si Si4 0.111545 0.201223 0.158178
Si Si5 0.484739 0.918190 0.595886
Si Si6 0.298845 0.224802 0.206438
Si Si7 0.378970 0.391505 0.868515
O O1 0.750000 0.479353 0.500000
O O2 0.638367 0.473551 0.463252
O O3 0.661209 0.355030 0.715273
O O4 0.718533 0.359964 0.317897
O O5 0.804024 0.801815 0.878783
O O6 0.836418 0.910962 0.606911
O O7 0.750000 0.929964 0.000000
O O8 0.858281 0.925278 0.103251
O O9 0.949693 0.568490 0.657369
O O10 0.048702 0.159922 0.204834
O O11 0.117813 0.296092 0.201560
O O12 0.134759 0.204503 0.877757
O O13 0.554209 0.911051 0.561646
O O14 0.475124 0.000000 0.750000
O O15 0.250000 0.246838 0.000000
#
# Coordination Sequence:
#
# PCOD9336410 Si02
#       7
#     8   8   4   8   8   8   8
#     4  12  23  38  65  99 143 191 246 301 363 437
#     4  11  22  43  71 111 144 176 219 300 387 449
#     4  12  28  44  66  96 142 208 258 300 358 436
#     4  11  22  42  64 101 137 188 239 309 360 422
#     4  12  27  47  70  93 139 201 250 307 360 434
#     4  11  20  35  65  98 141 183 231 289 373 436
#     4  11  26  43  75 112 143 184 249 301 367 446
#
# _framework density 25.436565000000002
#
# number of rings (size 3 to 8) (size 9 to 14) (size 15 to 20)
#    0.000    0.615    6.154    3.231    2.154    1.846 
#    0.000    1.538    0.000    1.846    0.000    0.000 
#    0.000    0.000    0.000    0.000    0.000    0.000 
#
# Total GULP energy -144830.837080 kJ/mol
# GULP energy per Si atom -5570.416811 kJ/mol
# Density = 2.537867 g / cm^3
# Si number density = 25.436565 Si / 1000 Ang^3
#
#
#
# Elastic Constant Matrix: (Units=GPa)
#
#
# Indices 1 2 3 4 5 6 
#
# 1 199.0001 28.4050 53.2683 0.0000 0.0000 0.0000
# 2 28.4050 84.3510 39.7621 0.0000 0.0000 0.0000
# 3 53.2683 39.7621 93.5327 0.0000 0.0000 0.0000
# 4 0.0000 0.0000 0.0000 44.8716 0.0000 0.0000
# 5 0.0000 0.0000 0.0000 0.0000 28.1997 0.0000
# 6 0.0000 0.0000 0.0000 0.0000 0.0000 -20.8101
#
#
#
# Elastic Compliance Matrix: (Units=1/GPa)
#
#
# Indices 1 2 3 4 5 6 
#
# 1 0.005946 -0.000508 -0.003171 0.000000 0.000000 0.000000
# 2 -0.000508 0.014870 -0.006032 0.000000 0.000000 0.000000
# 3 -0.003171 -0.006032 0.015062 0.000000 0.000000 0.000000
# 4 0.000000 0.000000 0.000000 0.022286 0.000000 0.000000
# 5 0.000000 0.000000 0.000000 0.000000 0.035461 0.000000
# 6 0.000000 0.000000 0.000000 0.000000 0.000000 -0.048054
#
#
# Mechanical properties :
#
#
# Convention : Reuss Voigt Hill
#
# Bulk Modulus (GPa) = 60.76665 68.86164 64.81414
# Shear Modulus (GPa) = 70.94439 27.48213 49.21326
#
# Velocity S-wave (km/s) = 5.28690 3.29054 4.40335
# Velocity P-wave (km/s) = 7.82366 6.44729 7.16859
#
# Compressibility (1/GPa) = 0.01645639
#
# Stress axis : x y z
#
# Youngs Moduli (GPa) = 168.17107 67.25088 66.39436
#
# Poissons Ratio (x) = 0.03415 0.21051
# Poissons Ratio (y) = 0.08540 0.40050
# Poissons Ratio (z) = 0.53321 0.40567
#
# Static dielectric constant tensor:
#      x y z
#    x 7.603640 0.000000 0.000000 
#    y 0.000000 2.311820 0.000000 
#    z 0.000000 0.000000 3.172290 
# 
# From -- ./inp_files/5667.got.cif
#   From: 2010.05.17/outbox.cif.g08.bks.cpg/sg24_3_cif.got.tgz:5667.got - 2010.06.04 00:33:39.
