data_PCOD9336946
_publ_section_title
;
Structure prediction by ZEFSAII (Michael W. Deem and Ramdas Pophale) SiO2 
 PCOD9336946
Probable space group: I 21 21 21
;
_chemical_formula_sum "Si O2"
_cell_formula_units_Z 24
_cell_length_a 8.916128
_cell_length_b 5.043073
_cell_length_c 21.818949
_cell_angle_alpha 90.000000
_cell_angle_beta 90.000000
_cell_angle_gamma 90.000000
_cell_volume 981.082155
_symmetry_space_group_name_H-M "I 21 21 21"
_symmetry_group_IT_number 24
_symmetry_cell_setting 'orthorhombic'
loop_
_space_group_symop_operation_xyz
x,y,z
-x,1/2-y,z
x,-y,1/2-z
1/2-x,y,-z
1/2+x,1/2+y,1/2+z
1/2-x,-y,1/2+z
1/2+x,1/2-y,-z
-x,1/2+y,1/2-z
loop_
_atom_site_type_symbol
_atom_site_label
_atom_site_fract_x
_atom_site_fract_y
_atom_site_fract_z
Si Si1 0.500000 0.250000 0.066175
Si Si2 0.241586 0.630779 0.875571
Si Si3 0.500000 0.250000 0.291363
Si Si4 0.750000 0.409627 0.500000
Si Si5 0.500000 0.250000 0.711673
O O1 0.376323 0.402248 0.106853
O O2 0.395767 0.069558 0.022587
O O3 0.137080 0.826607 0.835624
O O4 0.381694 0.596049 0.831586
O O5 0.292973 0.740170 0.940713
O O6 0.456025 0.500000 0.250000
O O7 0.566271 0.500000 0.750000
#
# Coordination Sequence:
#
# PCOD9336946 Si02
#       5
#     4   8   4   4   4
#     4  12  27  49  82 122 171 217 280 354 434 520
#     4  12  28  50  79 121 163 219 283 349 429 506
#     4  12  25  47  80 109 154 215 280 336 406 498
#     4  12  28  48  80 128 158 228 274 366 432 508
#     4  12  32  54  84 125 175 228 282 354 424 512
#
# _framework density 24.462785
#
# number of rings (size 3 to 8) (size 9 to 14) (size 15 to 20)
#    0.000    0.000    3.333    4.000   14.000    0.000 
#    0.000    0.000    0.000    0.000    0.000    0.000 
#    0.000    0.000    0.000    0.000    0.000    0.000 
#
# Total GULP energy -67095.482336 kJ/mol
# GULP energy per Si atom -5591.290195 kJ/mol
# Density = 2.440711 g / cm^3
# Si number density = 24.462785 Si / 1000 Ang^3
#
#
#
# Elastic Constant Matrix: (Units=GPa)
#
#
# Indices 1 2 3 4 5 6 
#
# 1 130.7055 43.2697 59.0704 0.0000 0.0000 0.0000
# 2 43.2697 120.1987 61.0999 0.0000 0.0000 0.0000
# 3 59.0704 61.0999 163.2297 0.0000 0.0000 0.0000
# 4 0.0000 0.0000 0.0000 22.6878 0.0000 0.0000
# 5 0.0000 0.0000 0.0000 0.0000 21.9888 0.0000
# 6 0.0000 0.0000 0.0000 0.0000 0.0000 26.0133
#
#
#
# Elastic Compliance Matrix: (Units=1/GPa)
#
#
# Indices 1 2 3 4 5 6 
#
# 1 0.009548 -0.002076 -0.002678 0.000000 0.000000 0.000000
# 2 -0.002076 0.010726 -0.003264 0.000000 0.000000 0.000000
# 3 -0.002678 -0.003264 0.008317 0.000000 0.000000 0.000000
# 4 0.000000 0.000000 0.000000 0.044077 0.000000 0.000000
# 5 0.000000 0.000000 0.000000 0.000000 0.045478 0.000000
# 6 0.000000 0.000000 0.000000 0.000000 0.000000 0.038442
#
#
# Mechanical properties :
#
#
# Convention : Reuss Voigt Hill
#
# Bulk Modulus (GPa) = 79.64479 82.33487 80.98983
# Shear Modulus (GPa) = 28.27915 30.85091 29.56503
#
# Velocity S-wave (km/s) = 3.40370 3.55510 3.48022
# Velocity P-wave (km/s) = 6.93362 7.11210 7.02343
#
# Compressibility (1/GPa) = 0.01255575
#
# Stress axis : x y z
#
# Youngs Moduli (GPa) = 104.72914 93.23300 120.23163
#
# Poissons Ratio (x) = 0.19353 0.32203
# Poissons Ratio (y) = 0.21739 0.39240
# Poissons Ratio (z) = 0.28051 0.30428
#
# Static dielectric constant tensor:
#      x y z
#    x -2.616510 0.000000 0.000000 
#    y 0.000000 2.035610 0.000000 
#    z 0.000000 0.000000 1.942710 
# 
# From -- ./inp_files/6059.got.cif
#   From: 2010.05.17/outbox.cif.g08.bks.cpg/sg24_4_cif.got.tgz:6059.got - 2010.06.04 00:33:39.
