data_PCOD9336892
_publ_section_title
;
Structure prediction by ZEFSAII (Michael W. Deem and Ramdas Pophale) SiO2 
 PCOD9336892
Probable space group: I 21 21 21
;
_chemical_formula_sum "Si O2"
_cell_formula_units_Z 40
_cell_length_a 5.620990
_cell_length_b 17.581698
_cell_length_c 16.479154
_cell_angle_alpha 90.000000
_cell_angle_beta 90.000000
_cell_angle_gamma 90.000000
_cell_volume 1628.577914
_symmetry_space_group_name_H-M "I 21 21 21"
_symmetry_group_IT_number 24
_symmetry_cell_setting 'orthorhombic'
loop_
_space_group_symop_operation_xyz
x,y,z
-x,1/2-y,z
x,-y,1/2-z
1/2-x,y,-z
1/2+x,1/2+y,1/2+z
1/2-x,-y,1/2+z
1/2+x,1/2-y,-z
-x,1/2+y,1/2-z
loop_
_atom_site_type_symbol
_atom_site_label
_atom_site_fract_x
_atom_site_fract_y
_atom_site_fract_z
Si Si1 0.496214 0.529585 0.878360
Si Si2 0.500000 0.750000 0.634888
Si Si3 0.000000 0.250000 0.622799
Si Si4 0.251263 0.861858 0.241573
Si Si5 0.120230 0.500000 0.750000
Si Si6 0.750000 0.571529 0.500000
Si Si7 0.250000 0.636381 0.000000
Si Si8 0.750000 0.838596 0.500000
O O1 0.572730 0.584165 0.805999
O O2 0.270194 0.492637 0.834231
O O3 0.696288 0.475459 0.916772
O O4 0.429554 0.581589 0.954207
O O5 0.376468 0.817822 0.685476
O O6 0.700743 0.786492 0.577838
O O7 0.823667 0.294964 0.680603
O O8 0.872654 0.189290 0.565926
O O9 0.468844 0.921363 0.251066
O O10 0.497909 0.615266 0.489742
#
# Coordination Sequence:
#
# PCOD9336892 Si02
#       8
#     8   4   4   8   4   4   4   4
#     4  12  28  52  81 128 166 223 287 367 442 527
#     4  12  32  58  86 124 182 232 310 362 454 520
#     4  12  24  46  82 120 168 220 284 354 450 532
#     4  12  29  53  85 123 171 228 288 372 440 536
#     4  12  30  54  82 128 176 230 296 358 452 532
#     4  12  31  53  94 127 177 226 300 366 449 531
#     4  12  23  47  80 120 174 218 288 354 446 536
#     4  12  32  58  88 129 173 246 296 370 433 537
#
# _framework density 24.561302999999999
#
# number of rings (size 3 to 8) (size 9 to 14) (size 15 to 20)
#    0.000    0.000    2.000    5.400    8.400    4.000 
#    0.000    0.000    0.000    0.000    0.000    0.000 
#    0.000    0.000    0.000    0.000    0.000    0.000 
#
# Total GULP energy -112062.881964 kJ/mol
# GULP energy per Si atom -5603.144098 kJ/mol
# Density = 2.450540 g / cm^3
# Si number density = 24.561303 Si / 1000 Ang^3
#
#
#
# Elastic Constant Matrix: (Units=GPa)
#
#
# Indices 1 2 3 4 5 6 
#
# 1 136.5890 74.4266 74.0608 0.0000 0.0000 0.0000
# 2 74.4266 125.2519 85.0524 0.0000 0.0000 0.0000
# 3 74.0608 85.0524 153.1339 0.0000 0.0000 0.0000
# 4 0.0000 0.0000 0.0000-1114.6220 0.0000 0.0001
# 5 0.0000 0.0000 0.0000 0.0000 85.2586 0.0000
# 6 0.0000 0.0000 0.0000 0.0001 0.0000 -77.4044
#
#
#
# Elastic Compliance Matrix: (Units=1/GPa)
#
#
# Indices 1 2 3 4 5 6 
#
# 1 0.011552 -0.004930 -0.002849 0.000000 0.000000 0.000000
# 2 -0.004930 0.014922 -0.005904 0.000000 0.000000 0.000000
# 3 -0.002849 -0.005904 0.011187 0.000000 0.000000 0.000000
# 4 0.000000 0.000000 0.000000 -0.000897 0.000000 0.000000
# 5 0.000000 0.000000 0.000000 0.000000 0.011729 0.000000
# 6 0.000000 0.000000 0.000000 0.000000 0.000000 -0.012919
#
#
# Mechanical properties :
#
#
# Convention : Reuss Voigt Hill
#
# Bulk Modulus (GPa) = 97.12111 98.00606 97.56358
# Shear Modulus (GPa) = 75.33331 -209.25790 -66.96230
#
# Velocity S-wave (km/s) = 5.54420 -9.24030 -5.22709
# Velocity P-wave (km/s) = 8.97844 8.59389 1.83812
#
# Compressibility (1/GPa) = 0.01029642
#
# Stress axis : x y z
#
# Youngs Moduli (GPa) = 86.56301 67.01374 89.38906
#
# Poissons Ratio (x) = 0.33038 0.25466
# Poissons Ratio (y) = 0.42675 0.52773
# Poissons Ratio (z) = 0.24661 0.39563
#
# Static dielectric constant tensor:
#      x y z
#    x 2.013790 0.000000 0.000000 
#    y 0.000000 1.901620 0.000000 
#    z 0.000000 0.000000 1.899280 
# 
# From -- ./inp_files/28668.got.cif
#   From: 2010.05.17/outbox.cif.g08.bks.cpg/sg24_15_cif.got.tgz:28668.got - 2010.06.04 00:33:39.
