data_PCOD9336460
_publ_section_title
;
Structure prediction by ZEFSAII (Michael W. Deem and Ramdas Pophale) SiO2 
 PCOD9336460
Probable space group: I 21 21 21
;
_chemical_formula_sum "Si O2"
_cell_formula_units_Z 64
_cell_length_a 21.036521
_cell_length_b 9.361174
_cell_length_c 17.890698
_cell_angle_alpha 90.000000
_cell_angle_beta 90.000000
_cell_angle_gamma 90.000000
_cell_volume 3523.153138
_symmetry_space_group_name_H-M "I 21 21 21"
_symmetry_group_IT_number 24
_symmetry_cell_setting 'orthorhombic'
loop_
_space_group_symop_operation_xyz
x,y,z
-x,1/2-y,z
x,-y,1/2-z
1/2-x,y,-z
1/2+x,1/2+y,1/2+z
1/2-x,-y,1/2+z
1/2+x,1/2-y,-z
-x,1/2+y,1/2-z
loop_
_atom_site_type_symbol
_atom_site_label
_atom_site_fract_x
_atom_site_fract_y
_atom_site_fract_z
Si Si1 0.247497 0.113649 0.313917
Si Si2 0.060538 0.154408 0.716834
Si Si3 0.741335 0.126550 0.798502
Si Si4 0.871414 0.444775 0.581686
Si Si5 0.815922 0.917262 0.451886
Si Si6 0.926151 0.239981 0.956899
Si Si7 0.383605 0.618462 0.308398
Si Si8 0.315969 0.755407 0.954051
O O1 0.254732 0.252912 0.262261
O O2 0.308622 0.059562 0.363313
O O3 0.196850 0.161712 0.376748
O O4 0.229951 0.000000 0.250000
O O5 0.077222 0.138487 0.630998
O O6 0.114801 0.233355 0.763687
O O7 0.000000 0.250000 0.729410
O O8 0.052583 0.000000 0.750000
O O9 0.699911 0.152862 0.871517
O O10 0.811221 0.079516 0.828771
O O11 0.712036 0.000000 0.750000
O O12 0.896276 0.604314 0.563995
O O13 0.859320 0.352818 0.507439
O O14 0.750000 0.904709 0.500000
O O15 0.875224 0.836091 0.489087
O O16 0.831690 0.087216 0.443771
O O17 0.924892 0.143352 0.881553
O O18 0.000000 0.250000 0.981626
O O19 0.406085 0.500000 0.250000
O O20 0.250000 0.751534 0.000000
#
# Coordination Sequence:
#
# PCOD9336460 Si02
#       8
#     8   8   8   8   8   8   8   8
#     4  11  21  37  61  92 129 160 199 265 335 386
#     4  12  24  38  54  80 119 169 213 249 296 367
#     4  11  21  38  64  98 124 160 214 267 324 384
#     4  11  24  40  56  85 130 168 213 256 314 383
#     4  11  23  40  66  92 129 170 216 270 321 381
#     4  12  27  43  61  93 132 179 223 262 317 388
#     4  11  23  36  60  89 128 165 210 253 309 374
#     4   9  22  39  58  91 126 165 210 263 322 383
#
# _framework density 18.165547
#
# number of rings (size 3 to 8) (size 9 to 14) (size 15 to 20)
#    0.000    1.000    5.000    1.875    5.250    0.500 
#    0.000    0.000    0.000    0.000    3.250    0.000 
#    0.000    0.000    0.000    0.000    0.000    0.000 
#
# Total GULP energy -178408.242084 kJ/mol
# GULP energy per Si atom -5575.257565 kJ/mol
# Density = 1.812420 g / cm^3
# Si number density = 18.165547 Si / 1000 Ang^3
#
#
#
# Elastic Constant Matrix: (Units=GPa)
#
#
# Indices 1 2 3 4 5 6 
#
# 1 81.5602 43.0296 59.4683 0.0000 0.0000 0.0000
# 2 43.0296 71.6407 40.7935 0.0000 0.0000 0.0000
# 3 59.4683 40.7935 121.0451 0.0000 0.0000 0.0000
# 4 0.0000 0.0000 0.0000 32.9406 0.0000 0.0000
# 5 0.0000 0.0000 0.0000 0.0000 58.9024 0.0000
# 6 0.0000 0.0000 0.0000 0.0000 0.0000 50.6580
#
#
#
# Elastic Compliance Matrix: (Units=1/GPa)
#
#
# Indices 1 2 3 4 5 6 
#
# 1 0.023140 -0.009188 -0.008272 0.000000 0.000000 0.000000
# 2 -0.009188 0.020922 -0.002537 0.000000 0.000000 0.000000
# 3 -0.008272 -0.002537 0.013180 0.000000 0.000000 0.000000
# 4 0.000000 0.000000 0.000000 0.030358 0.000000 0.000000
# 5 0.000000 0.000000 0.000000 0.000000 0.016977 0.000000
# 6 0.000000 0.000000 0.000000 0.000000 0.000000 0.019740
#
#
# Mechanical properties :
#
#
# Convention : Reuss Voigt Hill
#
# Bulk Modulus (GPa) = 57.97773 62.31429 60.14601
# Shear Modulus (GPa) = 29.40146 37.23050 33.31598
#
# Velocity S-wave (km/s) = 4.02746 4.53206 4.28719
# Velocity P-wave (km/s) = 7.32208 7.85902 7.59529
#
# Compressibility (1/GPa) = 0.01724800
#
# Stress axis : x y z
#
# Youngs Moduli (GPa) = 43.21587 47.79703 75.87192
#
# Poissons Ratio (x) = 0.43917 0.62759
# Poissons Ratio (y) = 0.39708 0.19247
# Poissons Ratio (z) = 0.35747 0.12125
#
# Static dielectric constant tensor:
#      x y z
#    x 1.647900 0.000000 0.000000 
#    y 0.000000 1.553130 0.000000 
#    z 0.000000 0.000000 1.640770 
# 
# From -- ./inp_files/31400.got.cif
#   From: 2010.05.17/outbox.cif.g08.bks.cpg/sg24_16_cif.got.tgz:31400.got - 2010.06.04 00:33:39.
