data_PCOD9336666
_publ_section_title
;
Structure prediction by ZEFSAII (Michael W. Deem and Ramdas Pophale) SiO2 
 PCOD9336666
Probable space group: I 21 21 21
;
_chemical_formula_sum "Si O2"
_cell_formula_units_Z 40
_cell_length_a 20.583992
_cell_length_b 5.133383
_cell_length_c 15.754472
_cell_angle_alpha 90.000000
_cell_angle_beta 90.000000
_cell_angle_gamma 90.000000
_cell_volume 1664.704391
_symmetry_space_group_name_H-M "I 21 21 21"
_symmetry_group_IT_number 24
_symmetry_cell_setting 'orthorhombic'
loop_
_space_group_symop_operation_xyz
x,y,z
-x,1/2-y,z
x,-y,1/2-z
1/2-x,y,-z
1/2+x,1/2+y,1/2+z
1/2-x,-y,1/2+z
1/2+x,1/2-y,-z
-x,1/2+y,1/2-z
loop_
_atom_site_type_symbol
_atom_site_label
_atom_site_fract_x
_atom_site_fract_y
_atom_site_fract_z
Si Si1 0.770349 0.807615 0.398980
Si Si2 0.326253 0.500000 0.250000
Si Si3 0.041309 0.996593 0.998631
Si Si4 0.351854 0.821097 0.887548
Si Si5 0.431109 0.821471 0.185159
Si Si6 0.956465 0.500000 0.250000
O O1 0.750000 0.820737 0.500000
O O2 0.791390 0.513023 0.376919
O O3 0.722571 0.876444 0.320404
O O4 0.828541 0.023863 0.392155
O O5 0.380889 0.409190 0.321346
O O6 0.000000 0.250000 0.020904
O O7 0.048221 0.970859 0.898168
O O8 0.000000 0.750000 0.029757
O O9 0.113477 0.944652 0.030189
O O10 0.407540 0.877002 0.818694
O O11 0.500000 0.750000 0.225875
O O12 0.392151 0.000000 0.250000
O O13 0.000000 0.250000 0.221542
#
# Coordination Sequence:
#
# PCOD9336666 Si02
#       6
#     8   4   8   8   8   4
#     4  12  28  47  71 101 140 192 240 291 342 415
#     4  12  28  45  70 101 138 190 236 286 354 414
#     4  11  24  42  71 104 140 179 226 284 358 418
#     4  12  25  47  70 101 144 182 239 291 345 411
#     4  11  24  41  69  99 137 172 220 281 346 420
#     4  12  24  43  74 107 142 184 234 294 362 420
#
# _framework density 24.028289000000001
#
# number of rings (size 3 to 8) (size 9 to 14) (size 15 to 20)
#    0.000    0.400    1.000    7.200    8.400    0.000 
#    0.000    0.000    0.000    0.000    0.000    0.000 
#    0.000    0.000    0.000    0.000    0.000    0.000 
#
# Total GULP energy -111417.393599 kJ/mol
# GULP energy per Si atom -5570.869680 kJ/mol
# Density = 2.397360 g / cm^3
# Si number density = 24.028289 Si / 1000 Ang^3
#
#
#
# Elastic Constant Matrix: (Units=GPa)
#
#
# Indices 1 2 3 4 5 6 
#
# 1 65.2199 -9.7161 16.6950 0.0000 0.0000 0.0000
# 2 -9.7161 74.4649 -1.6736 0.0000 0.0000 0.0000
# 3 16.6950 -1.6736 93.6118 0.0000 0.0000 0.0000
# 4 0.0000 0.0000 0.0000 148.7169 0.0000 0.0000
# 5 0.0000 0.0000 0.0000 0.0000 47.0965 0.0000
# 6 0.0000 0.0000 0.0000 0.0000 0.0000 -24.5220
#
#
#
# Elastic Compliance Matrix: (Units=1/GPa)
#
#
# Indices 1 2 3 4 5 6 
#
# 1 0.016380 0.002072 -0.002884 0.000000 0.000000 0.000000
# 2 0.002072 0.013697 -0.000125 0.000000 0.000000 0.000000
# 3 -0.002884 -0.000125 0.011195 0.000000 0.000000 0.000000
# 4 0.000000 0.000000 0.000000 0.006724 0.000000 0.000000
# 5 0.000000 0.000000 0.000000 0.000000 0.021233 0.000000
# 6 0.000000 0.000000 0.000000 0.000000 0.000000 -0.040780
#
#
# Mechanical properties :
#
#
# Convention : Reuss Voigt Hill
#
# Bulk Modulus (GPa) = 25.38194 27.10080 26.24137
# Shear Modulus (GPa) = 115.06360 49.45769 82.26064
#
# Velocity S-wave (km/s) = 6.92753 4.54178 5.85741
# Velocity P-wave (km/s) = 8.63562 6.22952 7.52930
#
# Compressibility (1/GPa) = 0.03939808
#
# Stress axis : x y z
#
# Youngs Moduli (GPa) = 61.05090 73.01002 89.32919
#
# Poissons Ratio (x) = -0.15131 0.25764
# Poissons Ratio (y) = -0.12652 0.01114
# Poissons Ratio (z) = 0.17608 0.00911
#
# Static dielectric constant tensor:
#      x y z
#    x 1.730570 0.000000 0.000000 
#    y 0.000000 1.512180 0.000000 
#    z 0.000000 0.000000 2.085510 
# 
# From -- ./inp_files/31006.got.cif
#   From: 2010.05.17/outbox.cif.g08.bks.cpg/sg24_16_cif.got.tgz:31006.got - 2010.06.04 00:33:39.
