data_PCOD9336929
_publ_section_title
;
Structure prediction by ZEFSAII (Michael W. Deem and Ramdas Pophale) SiO2 
 PCOD9336929
Probable space group: I 21 21 21
;
_chemical_formula_sum "Si O2"
_cell_formula_units_Z 32
_cell_length_a 21.444930
_cell_length_b 7.508535
_cell_length_c 9.407768
_cell_angle_alpha 90.000000
_cell_angle_beta 90.000000
_cell_angle_gamma 90.000000
_cell_volume 1514.838874
_symmetry_space_group_name_H-M "I 21 21 21"
_symmetry_group_IT_number 24
_symmetry_cell_setting 'orthorhombic'
loop_
_space_group_symop_operation_xyz
x,y,z
-x,1/2-y,z
x,-y,1/2-z
1/2-x,y,-z
1/2+x,1/2+y,1/2+z
1/2-x,-y,1/2+z
1/2+x,1/2-y,-z
-x,1/2+y,1/2-z
loop_
_atom_site_type_symbol
_atom_site_label
_atom_site_fract_x
_atom_site_fract_y
_atom_site_fract_z
Si Si1 0.500000 0.750000 0.537569
Si Si2 0.233637 0.819016 0.665761
Si Si3 0.435584 0.000000 0.750000
Si Si4 0.647239 0.168187 0.661404
Si Si5 0.117676 0.432650 0.896586
O O1 0.478384 0.914755 0.631705
O O2 0.563063 0.813661 0.462361
O O3 0.250000 0.861693 0.500000
O O4 0.287947 0.721157 0.758497
O O5 0.176025 0.687695 0.647943
O O6 0.219217 0.000000 0.750000
O O7 0.393702 0.844105 0.817859
O O8 0.621991 0.000000 0.750000
O O9 0.643634 0.088457 0.501877
O O10 0.089785 0.500000 0.750000
#
# Coordination Sequence:
#
# PCOD9336929 Si02
#       5
#     4   8   4   8   8
#     4  12  26  50  74 114 154 208 264 308 392 466
#     4  12  27  47  77 115 156 199 257 329 397 471
#     4  12  24  48  88 110 152 202 274 332 374 472
#     4  12  24  51  78 116 149 201 267 316 397 456
#     4  12  30  47  74 113 162 208 254 326 385 468
#
# _framework density 21.124358999999998
#
# number of rings (size 3 to 8) (size 9 to 14) (size 15 to 20)
#    0.000    0.000    6.250    2.250    3.500    3.000 
#    0.000    0.000    0.000    0.000    0.000    0.000 
#    0.000    0.000    0.000    0.000    0.000    0.000 
#
# Total GULP energy -89404.937484 kJ/mol
# GULP energy per Si atom -5587.808593 kJ/mol
# Density = 2.107628 g / cm^3
# Si number density = 21.124359 Si / 1000 Ang^3
#
#
#
# Elastic Constant Matrix: (Units=GPa)
#
#
# Indices 1 2 3 4 5 6 
#
# 1 120.4938 40.0308 24.4327 0.0000 0.0000 0.0000
# 2 40.0308 136.8586 36.2526 0.0000 0.0000 0.0000
# 3 24.4327 36.2526 110.9028 0.0000 0.0000 0.0000
# 4 0.0000 0.0000 0.0000 49.2990 0.0000 0.0000
# 5 0.0000 0.0000 0.0000 0.0000 440.0194 0.0000
# 6 0.0000 0.0000 0.0000 0.0000 0.0000 -26.7141
#
#
#
# Elastic Compliance Matrix: (Units=1/GPa)
#
#
# Indices 1 2 3 4 5 6 
#
# 1 0.009355 -0.002398 -0.001277 0.000000 0.000000 0.000000
# 2 -0.002398 0.008614 -0.002288 0.000000 0.000000 0.000000
# 3 -0.001277 -0.002288 0.010046 0.000000 0.000000 0.000000
# 4 0.000000 0.000000 0.000000 0.020284 0.000000 0.000000
# 5 0.000000 0.000000 0.000000 0.000000 0.002273 0.000000
# 6 0.000000 0.000000 0.000000 0.000000 0.000000 -0.037433
#
#
# Mechanical properties :
#
#
# Convention : Reuss Voigt Hill
#
# Bulk Modulus (GPa) = 62.15121 63.29858 62.72489
# Shear Modulus (GPa) = 164.32760 110.35681 137.34220
#
# Velocity S-wave (km/s) = 8.82946 7.23567 8.07200
# Velocity P-wave (km/s) = 11.55125 9.99181 10.79972
#
# Compressibility (1/GPa) = 0.01608979
#
# Stress axis : x y z
#
# Youngs Moduli (GPa) = 106.89710 116.08785 99.54183
#
# Poissons Ratio (x) = 0.27837 0.12712
# Poissons Ratio (y) = 0.25634 0.22771
# Poissons Ratio (z) = 0.13651 0.26556
#
# Static dielectric constant tensor:
#      x y z
#    x 1.771890 0.000000 0.000000 
#    y 0.000000 1.598600 0.000000 
#    z 0.000000 0.000000 2.044200 
# 
# From -- ./inp_files/8966.got.cif
#   From: 2010.05.17/outbox.cif.g08.bks.cpg/sg24_5_cif.got.tgz:8966.got - 2010.06.04 00:33:39.
