data_PCOD9336506
_publ_section_title
;
Structure prediction by ZEFSAII (Michael W. Deem and Ramdas Pophale) SiO2 
 PCOD9336506
Probable space group: I 21 21 21
;
_chemical_formula_sum "Si O2"
_cell_formula_units_Z 40
_cell_length_a 13.543750
_cell_length_b 9.141412
_cell_length_c 17.530200
_cell_angle_alpha 90.000000
_cell_angle_beta 90.000000
_cell_angle_gamma 90.000000
_cell_volume 2170.396510
_symmetry_space_group_name_H-M "I 21 21 21"
_symmetry_group_IT_number 24
_symmetry_cell_setting 'orthorhombic'
loop_
_space_group_symop_operation_xyz
x,y,z
-x,1/2-y,z
x,-y,1/2-z
1/2-x,y,-z
1/2+x,1/2+y,1/2+z
1/2-x,-y,1/2+z
1/2+x,1/2-y,-z
-x,1/2+y,1/2-z
loop_
_atom_site_type_symbol
_atom_site_label
_atom_site_fract_x
_atom_site_fract_y
_atom_site_fract_z
Si Si1 0.738038 0.010273 0.415590
Si Si2 0.613479 0.282338 0.050636
Si Si3 0.296722 0.130294 0.191706
Si Si4 0.087965 0.354062 0.705972
Si Si5 0.886317 0.771663 0.376626
O O1 0.750000 0.080535 0.500000
O O2 0.672370 0.101765 0.355704
O O3 0.674511 0.864022 0.431669
O O4 0.841523 0.937645 0.385602
O O5 0.500000 0.250000 0.067042
O O6 0.656056 0.401449 0.108693
O O7 0.623493 0.303699 0.960422
O O8 0.360007 0.259903 0.228421
O O9 0.186644 0.188339 0.179421
O O10 0.299775 0.000000 0.250000
O O11 0.050418 0.500000 0.750000
O O12 0.000000 0.250000 0.675234
O O13 0.000000 0.750000 0.355000
#
# Coordination Sequence:
#
# PCOD9336506 Si02
#       5
#     8   8   8   8   8
#     4   9  19  37  59  83 116 157 198 243 299 359
#     4   9  17  32  60  84 111 151 201 245 287 350
#     4  11  22  35  54  89 123 150 191 253 303 355
#     4  12  23  37  61  91 122 156 195 251 319 366
#     4   9  18  37  61  84 110 162 213 244 282 359
#
# _framework density 18.429812999999999
#
# number of rings (size 3 to 8) (size 9 to 14) (size 15 to 20)
#    0.000    2.000    4.000    3.000    2.800    0.000 
#    3.600    2.000    0.000    0.000    0.000    0.000 
#    0.000    0.000    0.000    0.000    0.000    0.000 
#
# Total GULP energy -111411.624999 kJ/mol
# GULP energy per Si atom -5570.581250 kJ/mol
# Density = 1.838787 g / cm^3
# Si number density = 18.429813 Si / 1000 Ang^3
#
#
#
# Elastic Constant Matrix: (Units=GPa)
#
#
# Indices 1 2 3 4 5 6 
#
# 1 129.6042 28.4563 23.2111 0.0000 0.0000 0.0000
# 2 28.4563 61.5477 25.6758 0.0000 0.0000 0.0000
# 3 23.2111 25.6758 61.8953 0.0000 0.0000 0.0000
# 4 0.0000 0.0000 0.0000 23.9289 0.0000 0.0000
# 5 0.0000 0.0000 0.0000 0.0000 32.0814 0.0000
# 6 0.0000 0.0000 0.0000 0.0000 0.0000 26.5969
#
#
#
# Elastic Compliance Matrix: (Units=1/GPa)
#
#
# Indices 1 2 3 4 5 6 
#
# 1 0.008777 -0.003247 -0.001945 0.000000 0.000000 0.000000
# 2 -0.003247 0.020849 -0.007431 0.000000 0.000000 0.000000
# 3 -0.001945 -0.007431 0.019968 0.000000 0.000000 0.000000
# 4 0.000000 0.000000 0.000000 0.041790 0.000000 0.000000
# 5 0.000000 0.000000 0.000000 0.000000 0.031171 0.000000
# 6 0.000000 0.000000 0.000000 0.000000 0.000000 0.037598
#
#
# Mechanical properties :
#
#
# Convention : Reuss Voigt Hill
#
# Bulk Modulus (GPa) = 41.06939 45.30373 43.18656
# Shear Modulus (GPa) = 25.83788 28.23504 27.03646
#
# Velocity S-wave (km/s) = 3.74834 3.91836 3.83429
# Velocity P-wave (km/s) = 6.40827 6.71614 6.56401
#
# Compressibility (1/GPa) = 0.02434903
#
# Stress axis : x y z
#
# Youngs Moduli (GPa) = 113.93522 47.96463 50.07978
#
# Poissons Ratio (x) = 0.15573 0.09738
# Poissons Ratio (y) = 0.36992 0.37215
# Poissons Ratio (z) = 0.22155 0.35643
#
# Static dielectric constant tensor:
#      x y z
#    x 1.689990 0.000000 0.000000 
#    y 0.000000 1.651430 0.000000 
#    z 0.000000 0.000000 1.699180 
# 
# From -- ./inp_files/12528.got.cif
#   From: 2010.05.17/outbox.cif.g08.bks.cpg/sg24_7_cif.got.tgz:12528.got - 2010.06.04 00:33:39.
