data_PCOD9336602
_publ_section_title
;
Structure prediction by ZEFSAII (Michael W. Deem and Ramdas Pophale) SiO2 
 PCOD9336602
Probable space group: I 21 21 21
;
_chemical_formula_sum "Si O2"
_cell_formula_units_Z 52
_cell_length_a 21.100129
_cell_length_b 5.906199
_cell_length_c 18.901424
_cell_angle_alpha 90.000000
_cell_angle_beta 90.000000
_cell_angle_gamma 90.000000
_cell_volume 2355.524960
_symmetry_space_group_name_H-M "I 21 21 21"
_symmetry_group_IT_number 24
_symmetry_cell_setting 'orthorhombic'
loop_
_space_group_symop_operation_xyz
x,y,z
-x,1/2-y,z
x,-y,1/2-z
1/2-x,y,-z
1/2+x,1/2+y,1/2+z
1/2-x,-y,1/2+z
1/2+x,1/2-y,-z
-x,1/2+y,1/2-z
loop_
_atom_site_type_symbol
_atom_site_label
_atom_site_fract_x
_atom_site_fract_y
_atom_site_fract_z
Si Si1 0.794851 0.681204 0.310434
Si Si2 0.148985 0.747241 0.714329
Si Si3 0.440070 0.627946 0.885367
Si Si4 0.105494 0.500000 0.250000
Si Si5 0.368537 0.823913 0.450835
Si Si6 0.000000 0.250000 0.029653
Si Si7 0.750000 0.980865 0.500000
Si Si8 0.815344 0.362437 0.438802
O O1 0.812377 0.500000 0.250000
O O2 0.725380 0.765376 0.290567
O O3 0.794212 0.563120 0.386845
O O4 0.848211 0.869870 0.303515
O O5 0.128689 0.500000 0.750000
O O6 0.127545 0.778029 0.632781
O O7 0.135010 0.000000 0.750000
O O8 0.500000 0.750000 0.918063
O O9 0.437375 0.643952 0.801374
O O10 0.453776 0.382003 0.915368
O O11 0.379583 0.759092 0.910739
O O12 0.441418 0.833039 0.479324
O O13 0.316066 0.642642 0.480893
O O14 0.332948 0.045348 0.483097
O O15 0.767288 0.153913 0.437183
#
# Coordination Sequence:
#
# PCOD9336602 Si02
#       8
#     8   8   8   4   8   4   4   8
#     4  11  23  41  66 105 152 198 245 310 383 443
#     4  11  27  47  75 114 154 192 250 324 406 480
#     4  12  27  44  68  97 147 199 258 304 369 466
#     4  12  26  40  66 102 146 206 250 316 360 450
#     4  12  27  47  77 107 147 199 253 325 390 471
#     4  12  26  52  72 104 146 200 254 312 394 458
#     4  12  26  42  76 114 144 190 262 330 382 458
#     4  12  25  45  70 107 146 202 261 319 383 459
#
# _framework density 22.075756999999999
#
# number of rings (size 3 to 8) (size 9 to 14) (size 15 to 20)
#    0.000    0.308    5.385    3.231    9.692    0.000 
#    0.000    0.769    0.000    0.000    0.000    0.000 
#    0.000    0.000    0.000    0.000    0.000    0.000 
#
# Total GULP energy -144761.967892 kJ/mol
# GULP energy per Si atom -5567.767996 kJ/mol
# Density = 2.202551 g / cm^3
# Si number density = 22.075757 Si / 1000 Ang^3
#
#
#
# Elastic Constant Matrix: (Units=GPa)
#
#
# Indices 1 2 3 4 5 6 
#
# 1 77.9217 25.7549 11.6703 0.0000 0.0000 0.0000
# 2 25.7549 73.0399 39.8220 0.0000 0.0000 0.0000
# 3 11.6703 39.8220 115.7329 0.0000 0.0000 0.0000
# 4 0.0000 0.0000 0.0000 49.1751 0.0000 0.0000
# 5 0.0000 0.0000 0.0000 0.0000 47.3563 0.0000
# 6 0.0000 0.0000 0.0000 0.0000 0.0000 -90.7506
#
#
#
# Elastic Compliance Matrix: (Units=1/GPa)
#
#
# Indices 1 2 3 4 5 6 
#
# 1 0.014539 -0.005327 0.000367 0.000000 0.000000 0.000000
# 2 -0.005327 0.018804 -0.005933 0.000000 0.000000 0.000000
# 3 0.000367 -0.005933 0.010645 0.000000 0.000000 0.000000
# 4 0.000000 0.000000 0.000000 0.020335 0.000000 0.000000
# 5 0.000000 0.000000 0.000000 0.000000 0.021117 0.000000
# 6 0.000000 0.000000 0.000000 0.000000 0.000000 -0.011019
#
#
# Mechanical properties :
#
#
# Convention : Reuss Voigt Hill
#
# Bulk Modulus (GPa) = 45.04038 46.79877 45.91957
# Shear Modulus (GPa) = 48.25888 13.78598 31.02243
#
# Velocity S-wave (km/s) = 4.68060 2.50168 3.75276
# Velocity P-wave (km/s) = 7.04682 5.43964 6.29474
#
# Compressibility (1/GPa) = 0.02220230
#
# Stress axis : x y z
#
# Youngs Moduli (GPa) = 68.78028 53.17974 93.93997
#
# Poissons Ratio (x) = 0.28327 -0.03445
# Poissons Ratio (y) = 0.36637 0.55736
# Poissons Ratio (z) = -0.02522 0.31552
#
# Static dielectric constant tensor:
#      x y z
#    x 1.462580 0.000000 0.000000 
#    y 0.000000 1.569530 0.000000 
#    z 0.000000 0.000000 1.838530 
# 
# From -- ./inp_files/34147.got.cif
#   From: 2010.05.17/outbox.cif.g08.bks.cpg/sg24_18_cif.got.tgz:34147.got - 2010.06.04 00:33:39.
