data_PCOD9336137
_publ_section_title
;
Structure prediction by ZEFSAII (Michael W. Deem and Ramdas Pophale) SiO2 
 PCOD9336137
Probable space group: I 21 21 21
;
_chemical_formula_sum "Si O2"
_cell_formula_units_Z 40
_cell_length_a 9.088982
_cell_length_b 11.946970
_cell_length_c 16.806899
_cell_angle_alpha 90.000000
_cell_angle_beta 90.000000
_cell_angle_gamma 90.000000
_cell_volume 1824.990494
_symmetry_space_group_name_H-M "I 21 21 21"
_symmetry_group_IT_number 24
_symmetry_cell_setting 'orthorhombic'
loop_
_space_group_symop_operation_xyz
x,y,z
-x,1/2-y,z
x,-y,1/2-z
1/2-x,y,-z
1/2+x,1/2+y,1/2+z
1/2-x,-y,1/2+z
1/2+x,1/2-y,-z
-x,1/2+y,1/2-z
loop_
_atom_site_type_symbol
_atom_site_label
_atom_site_fract_x
_atom_site_fract_y
_atom_site_fract_z
Si Si1 0.500000 0.250000 0.766945
Si Si2 0.615188 0.434885 0.881769
Si Si3 0.575333 0.631540 0.351824
Si Si4 0.733890 0.341274 0.314490
Si Si5 0.083445 0.491181 0.523731
Si Si6 0.500000 0.250000 0.438058
O O1 0.521201 0.359884 0.820964
O O2 0.648420 0.249929 0.715438
O O3 0.768605 0.372143 0.896548
O O4 0.671119 0.552293 0.843980
O O5 0.523744 0.452725 0.960324
O O6 0.500000 0.750000 0.363423
O O7 0.627615 0.625583 0.259460
O O8 0.470143 0.536432 0.389713
O O9 0.633551 0.293730 0.383800
O O10 0.250000 0.517700 0.500000
O O11 0.056531 0.358364 0.516007
#
# Coordination Sequence:
#
# PCOD9336137 Si02
#       6
#     4   8   8   8   8   4
#     4  10  24  43  79 106 142 192 252 310 380 443
#     4  11  26  49  73 111 153 197 247 314 385 437
#     4  11  24  46  76 108 147 190 250 305 383 438
#     4  11  25  48  79 107 145 199 246 322 370 442
#     4  12  31  45  74 109 148 204 249 310 373 462
#     4  12  28  49  73 102 152 198 262 300 380 453
#
# _framework density 21.917922999999998
#
# number of rings (size 3 to 8) (size 9 to 14) (size 15 to 20)
#    0.000    0.800    3.000    3.000   12.600    0.000 
#    0.000    0.000    0.000    0.000    0.000    0.000 
#    0.000    0.000    0.000    0.000    0.000    0.000 
#
# Total GULP energy -111843.726304 kJ/mol
# GULP energy per Si atom -5592.186315 kJ/mol
# Density = 2.186804 g / cm^3
# Si number density = 21.917923 Si / 1000 Ang^3
#
#
#
# Elastic Constant Matrix: (Units=GPa)
#
#
# Indices 1 2 3 4 5 6 
#
# 1 132.8462 45.9234 43.8251 0.0000 0.0000 0.0000
# 2 45.9234 85.9336 -7.0315 0.0000 0.0000 0.0000
# 3 43.8251 -7.0315 46.5525 0.0000 0.0000 0.0000
# 4 0.0000 0.0000 0.0000 32.9859 0.0000 0.0000
# 5 0.0000 0.0000 0.0000 0.0000 -42.9869 0.0000
# 6 0.0000 0.0000 0.0000 0.0000 0.0000 56.3725
#
#
#
# Elastic Compliance Matrix: (Units=1/GPa)
#
#
# Indices 1 2 3 4 5 6 
#
# 1 0.016932 -0.010482 -0.017523 0.000000 0.000000 0.000000
# 2 -0.010482 0.018272 0.012628 0.000000 0.000000 0.000000
# 3 -0.017523 0.012628 0.039885 0.000000 0.000000 0.000000
# 4 0.000000 0.000000 0.000000 0.030316 0.000000 0.000000
# 5 0.000000 0.000000 0.000000 0.000000 -0.023263 0.000000
# 6 0.000000 0.000000 0.000000 0.000000 0.000000 0.017739
#
#
# Mechanical properties :
#
#
# Convention : Reuss Voigt Hill
#
# Bulk Modulus (GPa) = 22.55597 47.86290 35.20944
# Shear Modulus (GPa) = 34.38449 21.44866 27.91657
#
# Velocity S-wave (km/s) = 3.96508 3.13164 3.57275
# Velocity P-wave (km/s) = 5.59249 5.91278 5.75486
#
# Compressibility (1/GPa) = 0.04433417
#
# Stress axis : x y z
#
# Youngs Moduli (GPa) = 59.05994 54.72844 25.07198
#
# Poissons Ratio (x) = 0.57368 0.43934
# Poissons Ratio (y) = 0.61909 -0.31661
# Poissons Ratio (z) = 1.03492 -0.69112
#
# Static dielectric constant tensor:
#      x y z
#    x 1.765010 0.000000 0.000000 
#    y 0.000000 1.816490 0.000000 
#    z 0.000000 0.000000 1.826710 
# 
# From -- ./inp_files/29280.got.cif
#   From: 2010.05.17/outbox.cif.g08.bks.cpg/sg24_15_cif.got.tgz:29280.got - 2010.06.04 00:33:39.
