data_PCOD9336601
_publ_section_title
;
Structure prediction by ZEFSAII (Michael W. Deem and Ramdas Pophale) SiO2 
 PCOD9336601
Probable space group: I 21 21 21
;
_chemical_formula_sum "Si O2"
_cell_formula_units_Z 32
_cell_length_a 4.847278
_cell_length_b 24.954857
_cell_length_c 11.739178
_cell_angle_alpha 90.000000
_cell_angle_beta 90.000000
_cell_angle_gamma 90.000000
_cell_volume 1420.007707
_symmetry_space_group_name_H-M "I 21 21 21"
_symmetry_group_IT_number 24
_symmetry_cell_setting 'orthorhombic'
loop_
_space_group_symop_operation_xyz
x,y,z
-x,1/2-y,z
x,-y,1/2-z
1/2-x,y,-z
1/2+x,1/2+y,1/2+z
1/2-x,-y,1/2+z
1/2+x,1/2-y,-z
-x,1/2+y,1/2-z
loop_
_atom_site_type_symbol
_atom_site_label
_atom_site_fract_x
_atom_site_fract_y
_atom_site_fract_z
Si Si1 0.262666 0.713970 0.788170
Si Si2 0.391399 0.062274 0.744351
Si Si3 0.511178 0.351460 0.922271
Si Si4 0.389058 0.601394 0.117634
O O1 0.500000 0.750000 0.844721
O O2 0.402507 0.687846 0.676286
O O3 0.162949 0.664256 0.863496
O O4 0.000000 0.750000 0.759120
O O5 0.353993 0.097254 0.858410
O O6 0.711088 0.070820 0.713475
O O7 0.204575 0.088388 0.644947
O O8 0.325863 0.000000 0.750000
O O9 0.250000 0.366290 0.000000
O O10 0.750000 0.326425 0.000000
O O11 0.250000 0.584442 0.000000
#
# Coordination Sequence:
#
# PCOD9336601 Si02
#       4
#     8   8   8   8
#     4  11  23  41  63  90 124 162 206 256 309 368
#     4  11  24  43  65  93 128 164 207 260 313 372
#     4  11  23  41  63  92 128 164 207 257 310 374
#     4  11  24  43  65  93 126 162 210 261 311 372
#
# _framework density 22.535091000000001
#
# number of rings (size 3 to 8) (size 9 to 14) (size 15 to 20)
#    0.000    1.000    0.000    9.000    0.000    6.000 
#    0.000    2.500    0.000    0.000    0.000    0.000 
#    0.000    0.000    0.000    0.000    0.000    0.000 
#
# Total GULP energy -89511.300760 kJ/mol
# GULP energy per Si atom -5594.456298 kJ/mol
# Density = 2.248380 g / cm^3
# Si number density = 22.535091 Si / 1000 Ang^3
#
#
#
# Elastic Constant Matrix: (Units=GPa)
#
#
# Indices 1 2 3 4 5 6 
#
# 1 107.0434 15.3633 -6.9525 0.0000 0.0000 0.0000
# 2 15.3633 112.9980 -13.7991 0.0000 0.0000 0.0000
# 3 -6.9525 -13.7991 29.9631 -0.0001 0.0000 0.0000
# 4 0.0000 0.0000 -0.0001 3.1857 0.0000 0.0000
# 5 0.0000 0.0000 0.0000 0.0000 33.5404 0.0000
# 6 0.0000 0.0000 0.0000 0.0000 0.0000 27.9611
#
#
#
# Elastic Compliance Matrix: (Units=1/GPa)
#
#
# Indices 1 2 3 4 5 6 
#
# 1 0.009611 -0.001096 0.001725 0.000000 0.000000 0.000000
# 2 -0.001096 0.009502 0.004122 0.000000 0.000000 0.000000
# 3 0.001725 0.004122 0.035673 0.000001 0.000000 0.000000
# 4 0.000000 0.000000 0.000001 0.313898 0.000000 0.000000
# 5 0.000000 0.000000 0.000000 0.000000 0.029815 0.000000
# 6 0.000000 0.000000 0.000000 0.000000 0.000000 0.035764
#
#
# Mechanical properties :
#
#
# Convention : Reuss Voigt Hill
#
# Bulk Modulus (GPa) = 15.55488 26.58087 21.06787
# Shear Modulus (GPa) = 11.20596 29.96364 20.58480
#
# Velocity S-wave (km/s) = 2.23237 3.65038 3.02562
# Velocity P-wave (km/s) = 3.68268 5.43948 4.64490
#
# Compressibility (1/GPa) = 0.06428850
#
# Stress axis : x y z
#
# Youngs Moduli (GPa) = 104.04325 105.24015 28.03248
#
# Poissons Ratio (x) = 0.11535 -0.04837
# Poissons Ratio (y) = 0.11404 -0.11554
# Poissons Ratio (z) = -0.17952 -0.43377
#
# Static dielectric constant tensor:
#      x y z
#    x 1.783540 0.000000 0.000000 
#    y 0.000000 1.815190 0.000000 
#    z 0.000000 0.000000 1.827070 
# 
# From -- ./inp_files/2163.got.cif
#   From: 2010.05.17/outbox.cif.g08.bks.cpg/sg24_2_cif.got.tgz:2163.got - 2010.06.04 00:33:39.
