data_PCOD9336008
_publ_section_title
;
Structure prediction by ZEFSAII (Michael W. Deem and Ramdas Pophale) SiO2 
 PCOD9336008
Probable space group: I 21 21 21
;
_chemical_formula_sum "Si O2"
_cell_formula_units_Z 24
_cell_length_a 7.355453
_cell_length_b 8.328743
_cell_length_c 13.975184
_cell_angle_alpha 90.000000
_cell_angle_beta 90.000000
_cell_angle_gamma 90.000000
_cell_volume 856.143218
_symmetry_space_group_name_H-M "I 21 21 21"
_symmetry_group_IT_number 24
_symmetry_cell_setting 'orthorhombic'
loop_
_space_group_symop_operation_xyz
x,y,z
-x,1/2-y,z
x,-y,1/2-z
1/2-x,y,-z
1/2+x,1/2+y,1/2+z
1/2-x,-y,1/2+z
1/2+x,1/2-y,-z
-x,1/2+y,1/2-z
loop_
_atom_site_type_symbol
_atom_site_label
_atom_site_fract_x
_atom_site_fract_y
_atom_site_fract_z
Si Si1 0.205126 0.185826 0.203806
Si Si2 0.000000 0.750000 0.841655
Si Si3 0.538768 0.086029 0.520613
Si Si4 0.000000 0.750000 0.534606
O O1 0.328860 0.289498 0.278146
O O2 0.327581 0.225059 0.107188
O O3 0.000000 0.250000 0.208509
O O4 0.212208 0.000000 0.250000
O O5 0.943647 0.614906 0.917591
O O6 0.500000 0.250000 0.577018
O O7 0.750000 0.091296 0.500000
O O8 0.497512 0.903544 0.536433
#
# Coordination Sequence:
#
# PCOD9336008 Si02
#       4
#     8   4   8   4
#     4  11  23  39  70 101 131 175 226 289 356 404
#     4   9  22  44  62  90 138 167 222 288 336 399
#     4  10  23  45  67  92 135 186 225 280 339 402
#     4  11  24  48  66 100 140 177 232 294 336 413
#
# _framework density 28.032692999999998
#
# number of rings (size 3 to 8) (size 9 to 14) (size 15 to 20)
#    1.000    0.667    3.333    0.000    4.667    2.667 
#    9.000    0.000    0.000    0.000    0.000    0.000 
#    0.000    0.000    0.000    0.000    0.000    0.000 
#
# Total GULP energy -66854.810536 kJ/mol
# GULP energy per Si atom -5571.234211 kJ/mol
# Density = 2.796889 g / cm^3
# Si number density = 28.032693 Si / 1000 Ang^3
#
#
#
# Elastic Constant Matrix: (Units=GPa)
#
#
# Indices 1 2 3 4 5 6 
#
# 1 196.2629 39.7968 29.7238 0.0000 0.0000 0.0000
# 2 39.7968 246.5892 31.9385 0.0000 0.0000 0.0000
# 3 29.7238 31.9385 109.8915 0.0000 0.0000 0.0000
# 4 0.0000 0.0000 0.0000 -60.8543 0.0000 0.0000
# 5 0.0000 0.0000 0.0000 0.0000 23.3195 0.0000
# 6 0.0000 0.0000 0.0000 0.0000 0.0000 45.9531
#
#
#
# Elastic Compliance Matrix: (Units=1/GPa)
#
#
# Indices 1 2 3 4 5 6 
#
# 1 0.005431 -0.000713 -0.001262 0.000000 0.000000 0.000000
# 2 -0.000713 0.004308 -0.001059 0.000000 0.000000 0.000000
# 3 -0.001262 -0.001059 0.009749 0.000000 0.000000 0.000000
# 4 0.000000 0.000000 0.000000 -0.016433 0.000000 0.000000
# 5 0.000000 0.000000 0.000000 0.000000 0.042882 0.000000
# 6 0.000000 0.000000 0.000000 0.000000 0.000000 0.021761
#
#
# Mechanical properties :
#
#
# Convention : Reuss Voigt Hill
#
# Bulk Modulus (GPa) = 74.51720 83.96241 79.23981
# Shear Modulus (GPa) = 63.90636 31.76930 47.83783
#
# Velocity S-wave (km/s) = 4.77981 3.37010 4.13546
# Velocity P-wave (km/s) = 7.55659 6.72012 7.15060
#
# Compressibility (1/GPa) = 0.01341972
#
# Stress axis : x y z
#
# Youngs Moduli (GPa) = 184.13213 232.14886 102.57498
#
# Poissons Ratio (x) = 0.16554 0.12942
# Poissons Ratio (y) = 0.13130 0.10863
# Poissons Ratio (z) = 0.23232 0.24586
#
# Static dielectric constant tensor:
#      x y z
#    x 2.220010 0.000000 0.000000 
#    y 0.000000 2.433400 0.000000 
#    z 0.000000 0.000000 2.222390 
# 
# From -- ./inp_files/34449.got.cif
#   From: 2010.05.17/outbox.cif.g08.bks.cpg/sg24_18_cif.got.tgz:34449.got - 2010.06.04 00:33:39.
