data_PCOD9336220
_publ_section_title
;
Structure prediction by ZEFSAII (Michael W. Deem and Ramdas Pophale) SiO2 
 PCOD9336220
Probable space group: I 21 21 21
;
_chemical_formula_sum "Si O2"
_cell_formula_units_Z 28
_cell_length_a 5.952083
_cell_length_b 20.368649
_cell_length_c 9.784267
_cell_angle_alpha 90.000000
_cell_angle_beta 90.000000
_cell_angle_gamma 90.000000
_cell_volume 1186.204312
_symmetry_space_group_name_H-M "I 21 21 21"
_symmetry_group_IT_number 24
_symmetry_cell_setting 'orthorhombic'
loop_
_space_group_symop_operation_xyz
x,y,z
-x,1/2-y,z
x,-y,1/2-z
1/2-x,y,-z
1/2+x,1/2+y,1/2+z
1/2-x,-y,1/2+z
1/2+x,1/2-y,-z
-x,1/2+y,1/2-z
loop_
_atom_site_type_symbol
_atom_site_label
_atom_site_fract_x
_atom_site_fract_y
_atom_site_fract_z
Si Si1 0.131030 0.607645 0.641231
Si Si2 0.931994 0.321181 0.638936
Si Si3 0.508284 0.097515 0.621679
Si Si4 0.250000 0.978614 0.500000
O O1 0.250000 0.619646 0.500000
O O2 0.315049 0.586698 0.755957
O O3 0.038653 0.672203 0.713262
O O4 0.919515 0.561466 0.599328
O O5 0.676901 0.345958 0.659118
O O6 0.039534 0.374825 0.535086
O O7 0.000000 0.250000 0.583844
O O8 0.398333 0.027243 0.592147
#
# Coordination Sequence:
#
# PCOD9336220 Si02
#       4
#     8   8   8   4
#     4  12  26  45  71 108 152 201 247 322 390 463
#     4  10  24  47  72 105 147 193 265 323 373 466
#     4  10  26  45  76 110 142 211 261 316 390 456
#     4  10  26  48  70 112 162 198 260 320 390 474
#
# _framework density 23.604703000000001
#
# number of rings (size 3 to 8) (size 9 to 14) (size 15 to 20)
#    0.000    1.714    0.000    2.571    8.000   19.429 
#    7.714    0.000    0.000    0.000    0.000    0.000 
#    0.000    0.000    0.000    0.000    0.000    0.000 
#
# Total GULP energy -77946.983024 kJ/mol
# GULP energy per Si atom -5567.641645 kJ/mol
# Density = 2.355098 g / cm^3
# Si number density = 23.604703 Si / 1000 Ang^3
#
#
#
# Elastic Constant Matrix: (Units=GPa)
#
#
# Indices 1 2 3 4 5 6 
#
# 1 103.4274 52.6692 86.9497 0.0001 0.0000 0.0000
# 2 52.6692 95.3882 54.3630 0.0002 0.0000 0.0000
# 3 86.9497 54.3630 194.0565 0.0006 0.0000 0.0001
# 4 0.0001 0.0002 0.0006 5.0203 0.0001 0.0000
# 5 0.0000 0.0000 0.0000 0.0001 71.5223 0.0000
# 6 0.0000 0.0000 0.0001 0.0000 0.0000 12.3567
#
#
#
# Elastic Compliance Matrix: (Units=1/GPa)
#
#
# Indices 1 2 3 4 5 6 
#
# 1 0.018359 -0.006484 -0.006410 0.000001 0.000000 0.000000
# 2 -0.006484 0.014765 -0.001231 0.000000 0.000000 0.000000
# 3 -0.006410 -0.001231 0.008370 -0.000001 0.000000 0.000000
# 4 0.000001 0.000000 -0.000001 0.199193 0.000000 -0.000001
# 5 0.000000 0.000000 0.000000 0.000000 0.013982 0.000000
# 6 0.000000 0.000000 0.000000 -0.000001 0.000000 0.080928
#
#
# Mechanical properties :
#
#
# Convention : Reuss Voigt Hill
#
# Bulk Modulus (GPa) = 75.50167 86.75955 81.13061
# Shear Modulus (GPa) = 13.57734 31.03920 22.30827
#
# Velocity S-wave (km/s) = 2.40093 3.63017 3.07755
# Velocity P-wave (km/s) = 6.30406 7.37603 6.86102
#
# Compressibility (1/GPa) = 0.01324474
#
# Stress axis : x y z
#
# Youngs Moduli (GPa) = 54.46923 67.72618 119.47610
#
# Poissons Ratio (x) = 0.43915 0.76578
# Poissons Ratio (y) = 0.35319 0.14708
# Poissons Ratio (z) = 0.34912 0.08337
#
# Static dielectric constant tensor:
#      x y z
#    x 2.145880 0.000000 0.000000 
#    y 0.000000 1.836720 0.000000 
#    z 0.000000 0.000000 1.928440 
# 
# From -- ./inp_files/17328.got.cif
#   From: 2010.05.17/outbox.cif.g08.bks.cpg/sg24_9_cif.got.tgz:17328.got - 2010.06.04 00:33:39.
