data_PCOD9336732
_publ_section_title
;
Structure prediction by ZEFSAII (Michael W. Deem and Ramdas Pophale) SiO2 
 PCOD9336732
Probable space group: I 21 21 21
;
_chemical_formula_sum "Si O2"
_cell_formula_units_Z 40
_cell_length_a 8.183499
_cell_length_b 24.234888
_cell_length_c 8.900521
_cell_angle_alpha 90.000000
_cell_angle_beta 90.000000
_cell_angle_gamma 90.000000
_cell_volume 1765.206345
_symmetry_space_group_name_H-M "I 21 21 21"
_symmetry_group_IT_number 24
_symmetry_cell_setting 'orthorhombic'
loop_
_space_group_symop_operation_xyz
x,y,z
-x,1/2-y,z
x,-y,1/2-z
1/2-x,y,-z
1/2+x,1/2+y,1/2+z
1/2-x,-y,1/2+z
1/2+x,1/2-y,-z
-x,1/2+y,1/2-z
loop_
_atom_site_type_symbol
_atom_site_label
_atom_site_fract_x
_atom_site_fract_y
_atom_site_fract_z
Si Si1 0.000000 0.750000 0.920636
Si Si2 0.262607 0.627378 0.328587
Si Si3 0.098439 0.454707 0.620420
Si Si4 0.750000 0.425685 0.500000
Si Si5 0.765080 0.259430 0.172153
Si Si6 0.032612 0.842896 0.161502
O O1 0.142253 0.770669 0.810871
O O2 0.964487 0.803361 0.026928
O O3 0.250000 0.606636 0.500000
O O4 0.398272 0.601510 0.220785
O O5 0.263277 0.693544 0.334534
O O6 0.099127 0.616944 0.234347
O O7 0.125574 0.500000 0.750000
O O8 0.250000 0.456394 0.500000
O O9 0.915162 0.458056 0.549891
O O10 0.681401 0.382453 0.621929
O O11 0.916681 0.296926 0.219752
O O12 0.750000 0.277049 0.000000
#
# Coordination Sequence:
#
# PCOD9336732 Si02
#       6
#     4   8   8   4   8   8
#     4  12  22  36  62  96 146 200 248 294 364 442
#     4  11  25  45  72 107 152 201 251 312 381 456
#     4  12  28  53  82 109 146 197 263 333 396 458
#     4  12  26  48  78 114 150 192 260 314 390 460
#     4  11  25  36  63 103 155 197 246 303 370 453
#     4  12  23  43  70 111 148 202 250 303 371 475
#
# _framework density 22.660240999999999
#
# number of rings (size 3 to 8) (size 9 to 14) (size 15 to 20)
#    0.000    0.400    6.000    1.800    5.600    0.800 
#    3.600    0.000    0.000    0.000    0.000    0.000 
#    0.000    0.000    0.000    0.000    0.000    0.000 
#
# Total GULP energy -111364.805608 kJ/mol
# GULP energy per Si atom -5568.240280 kJ/mol
# Density = 2.260867 g / cm^3
# Si number density = 22.660241 Si / 1000 Ang^3
#
#
#
# Elastic Constant Matrix: (Units=GPa)
#
#
# Indices 1 2 3 4 5 6 
#
# 1 95.0667 16.8347 61.8382 0.0000 -0.0004 0.0001
# 2 16.8347 53.5348 44.6545 0.0002 0.0007 -0.0001
# 3 61.8382 44.6545 165.7644 0.0050 0.0089 -0.0024
# 4 0.0000 0.0002 0.0050 10.2592 0.0015 -0.0004
# 5 -0.0004 0.0007 0.0089 0.0015 -2.1659 -0.0003
# 6 0.0001 -0.0001 -0.0024 -0.0004 -0.0003 21.0045
#
#
#
# Elastic Compliance Matrix: (Units=1/GPa)
#
#
# Indices 1 2 3 4 5 6 
#
# 1 0.013889 -0.000059 -0.005166 0.000003 -0.000024 -0.000001
# 2 -0.000059 0.024093 -0.006468 0.000003 -0.000019 -0.000001
# 3 -0.005166 -0.006468 0.009702 -0.000005 0.000039 0.000001
# 4 0.000003 0.000003 -0.000005 0.097473 0.000069 0.000002
# 5 -0.000024 -0.000019 0.000039 0.000069 -0.461697 -0.000007
# 6 -0.000001 -0.000001 0.000001 0.000002 -0.000007 0.047609
#
#
# Mechanical properties :
#
#
# Convention : Reuss Voigt Hill
#
# Bulk Modulus (GPa) = 41.15381 62.33562 51.74472
# Shear Modulus (GPa) = -21.05756 18.55547 -1.25105
#
# Velocity S-wave (km/s) = -3.05171 2.86467 -0.74383
# Velocity P-wave (km/s) = 2.40488 6.20567 4.70605
#
# Compressibility (1/GPa) = 0.02429908
#
# Stress axis : x y z
#
# Youngs Moduli (GPa) = 71.99726 41.50514 103.07008
#
# Poissons Ratio (x) = 0.00245 0.53241
# Poissons Ratio (y) = 0.00425 0.66670
# Poissons Ratio (z) = 0.37190 0.26847
#
# Static dielectric constant tensor:
#      x y z
#    x 1.974330 0.000000 0.000000 
#    y 0.000000 1.924710 0.000000 
#    z 0.000000 0.000000 1.852780 
# 
# From -- ./inp_files/9326.got.cif
#   From: 2010.05.17/outbox.cif.g08.bks.cpg/sg24_5_cif.got.tgz:9326.got - 2010.06.04 00:33:39.
