data_PCOD9336259
_publ_section_title
;
Structure prediction by ZEFSAII (Michael W. Deem and Ramdas Pophale) SiO2 
 PCOD9336259
Probable space group: I 21 21 21
;
_chemical_formula_sum "Si O2"
_cell_formula_units_Z 40
_cell_length_a 15.828551
_cell_length_b 9.050879
_cell_length_c 10.596379
_cell_angle_alpha 90.000000
_cell_angle_beta 90.000000
_cell_angle_gamma 90.000000
_cell_volume 1518.061626
_symmetry_space_group_name_H-M "I 21 21 21"
_symmetry_group_IT_number 24
_symmetry_cell_setting 'orthorhombic'
loop_
_space_group_symop_operation_xyz
x,y,z
-x,1/2-y,z
x,-y,1/2-z
1/2-x,y,-z
1/2+x,1/2+y,1/2+z
1/2-x,-y,1/2+z
1/2+x,1/2-y,-z
-x,1/2+y,1/2-z
loop_
_atom_site_type_symbol
_atom_site_label
_atom_site_fract_x
_atom_site_fract_y
_atom_site_fract_z
Si Si1 0.683550 0.059018 0.606943
Si Si2 0.776076 0.324091 0.258314
Si Si3 0.089993 0.811330 0.456454
Si Si4 0.003319 0.073806 0.388077
Si Si5 0.084576 0.823379 0.744911
O O1 0.750000 0.019801 0.500000
O O2 0.678803 0.235395 0.631052
O O3 0.588947 0.018058 0.568095
O O4 0.702769 0.000000 0.750000
O O5 0.779126 0.500000 0.250000
O O6 0.828836 0.279282 0.130786
O O7 0.678680 0.285252 0.289281
O O8 0.093836 0.765757 0.600827
O O9 0.000000 0.750000 0.405416
O O10 0.075803 0.989474 0.464047
O O11 0.000000 0.250000 0.386780
O O12 0.015664 0.000000 0.250000
O O13 0.000000 0.750000 0.801448
O O14 0.073763 0.000000 0.750000
#
# Coordination Sequence:
#
# PCOD9336259 Si02
#       5
#     8   8   8   8   8
#     4  11  26  45  68 101 139 182 230 282 344 411
#     4  11  24  42  68  97 132 174 224 284 342 405
#     4  11  22  40  66  96 132 176 226 282 342 403
#     4  11  22  39  65  95 130 173 225 284 340 400
#     4  10  25  44  64  93 133 181 228 278 340 409
#
# _framework density 26.349392999999999
#
# number of rings (size 3 to 8) (size 9 to 14) (size 15 to 20)
#    0.000    1.200    0.000    6.600    0.000   14.400 
#    0.000    0.000    0.000    0.000    0.000    0.000 
#    0.000    0.000    0.000    0.000    0.000    0.000 
#
# Total GULP energy -111766.829029 kJ/mol
# GULP energy per Si atom -5588.341451 kJ/mol
# Density = 2.628942 g / cm^3
# Si number density = 26.349393 Si / 1000 Ang^3
#
#
#
# Elastic Constant Matrix: (Units=GPa)
#
#
# Indices 1 2 3 4 5 6 
#
# 1 183.2209 27.0082 17.9799 0.0000 0.0000 0.0000
# 2 27.0082 110.7040 10.3404 0.0000 0.0000 0.0000
# 3 17.9799 10.3404 83.0406 0.0000 0.0000 0.0000
# 4 0.0000 0.0000 0.0000 28.8264 0.0000 0.0000
# 5 0.0000 0.0000 0.0000 0.0000 29.5107 0.0000
# 6 0.0000 0.0000 0.0000 0.0000 0.0000 43.5244
#
#
#
# Elastic Compliance Matrix: (Units=1/GPa)
#
#
# Indices 1 2 3 4 5 6 
#
# 1 0.005756 -0.001303 -0.001084 0.000000 0.000000 0.000000
# 2 -0.001303 0.009434 -0.000893 0.000000 0.000000 0.000000
# 3 -0.001084 -0.000893 0.012388 0.000000 0.000000 0.000000
# 4 0.000000 0.000000 0.000000 0.034690 0.000000 0.000000
# 5 0.000000 0.000000 0.000000 0.000000 0.033886 0.000000
# 6 0.000000 0.000000 0.000000 0.000000 0.000000 0.022976
#
#
# Mechanical properties :
#
#
# Convention : Reuss Voigt Hill
#
# Bulk Modulus (GPa) = 47.57546 54.18028 50.87787
# Shear Modulus (GPa) = 37.67979 41.81477 39.74728
#
# Velocity S-wave (km/s) = 3.78564 3.98796 3.88812
# Velocity P-wave (km/s) = 6.09942 6.46622 6.28550
#
# Compressibility (1/GPa) = 0.02101924
#
# Stress axis : x y z
#
# Youngs Moduli (GPa) = 173.72077 105.99523 80.72209
#
# Poissons Ratio (x) = 0.13812 0.08751
# Poissons Ratio (y) = 0.22638 0.07206
# Poissons Ratio (z) = 0.18833 0.09462
#
# Static dielectric constant tensor:
#      x y z
#    x 2.100900 0.000000 0.000000 
#    y 0.000000 2.224230 0.000000 
#    z 0.000000 0.000000 2.084360 
# 
# From -- ./inp_files/21355.got.cif
#   From: 2010.05.17/outbox.cif.g08.bks.cpg/sg24_11_cif.got.tgz:21355.got - 2010.06.04 00:33:39.
