data_PCOD9336521
_publ_section_title
;
Structure prediction by ZEFSAII (Michael W. Deem and Ramdas Pophale) SiO2 
 PCOD9336521
Probable space group: I 21 21 21
;
_chemical_formula_sum "Si O2"
_cell_formula_units_Z 32
_cell_length_a 8.574115
_cell_length_b 11.033653
_cell_length_c 16.025166
_cell_angle_alpha 90.000000
_cell_angle_beta 90.000000
_cell_angle_gamma 90.000000
_cell_volume 1516.041755
_symmetry_space_group_name_H-M "I 21 21 21"
_symmetry_group_IT_number 24
_symmetry_cell_setting 'orthorhombic'
loop_
_space_group_symop_operation_xyz
x,y,z
-x,1/2-y,z
x,-y,1/2-z
1/2-x,y,-z
1/2+x,1/2+y,1/2+z
1/2-x,-y,1/2+z
1/2+x,1/2-y,-z
-x,1/2+y,1/2-z
loop_
_atom_site_type_symbol
_atom_site_label
_atom_site_fract_x
_atom_site_fract_y
_atom_site_fract_z
Si Si1 0.815178 0.013939 0.405533
Si Si2 0.346088 0.997735 0.844269
Si Si3 0.815856 0.263107 0.594247
Si Si4 0.811328 0.751106 0.405585
O O1 0.750000 0.013777 0.500000
O O2 0.765632 0.882848 0.369192
O O3 0.755074 0.139379 0.367414
O O4 0.003036 0.016867 0.403590
O O5 0.236436 0.883277 0.858120
O O6 0.407143 0.000000 0.750000
O O7 0.263979 0.126279 0.861854
O O8 0.750000 0.274459 0.500000
O O9 0.000000 0.250000 0.590543
O O10 0.750000 0.745623 0.500000
O O11 0.000000 0.750000 0.405298
#
# Coordination Sequence:
#
# PCOD9336521 Si02
#       4
#     8   8   8   8
#     4   9  19  37  60  88 117 154 204 249 297 357
#     4  11  23  39  60  91 126 161 199 247 310 367
#     4  11  22  39  63  90 120 159 209 256 298 355
#     4   9  19  35  57  85 113 148 197 246 295 353
#
# _framework density 21.107597999999999
#
# number of rings (size 3 to 8) (size 9 to 14) (size 15 to 20)
#    0.000    2.000    0.000    4.500    0.000   12.000 
#    0.000    5.000    0.000    0.000    0.000    0.000 
#    0.000    0.000    0.000    0.000    0.000    0.000 
#
# Total GULP energy -89267.390174 kJ/mol
# GULP energy per Si atom -5579.211886 kJ/mol
# Density = 2.105956 g / cm^3
# Si number density = 21.107598 Si / 1000 Ang^3
#
#
#
# Elastic Constant Matrix: (Units=GPa)
#
#
# Indices 1 2 3 4 5 6 
#
# 1 73.7428 41.8155 6.5575 0.0000 0.0000 0.0000
# 2 41.8155 236.1773 17.4329 0.0000 0.0000 0.0000
# 3 6.5575 17.4329 42.1152 0.0000 0.0000 0.0000
# 4 0.0000 0.0000 0.0000 -39.0360 0.0000 0.0000
# 5 0.0000 0.0000 0.0000 0.0000 5.8899 0.0000
# 6 0.0000 0.0000 0.0000 0.0000 0.0000 12.2528
#
#
#
# Elastic Compliance Matrix: (Units=1/GPa)
#
#
# Indices 1 2 3 4 5 6 
#
# 1 0.015141 -0.002586 -0.001287 0.000000 0.000000 0.000000
# 2 -0.002586 0.004809 -0.001588 0.000000 0.000000 0.000000
# 3 -0.001287 -0.001588 0.024602 0.000000 0.000000 0.000000
# 4 0.000000 0.000000 0.000000 -0.025617 0.000000 0.000000
# 5 0.000000 0.000000 0.000000 0.000000 0.169782 0.000000
# 6 0.000000 0.000000 0.000000 0.000000 0.000000 0.081614
#
#
# Mechanical properties :
#
#
# Convention : Reuss Voigt Hill
#
# Bulk Modulus (GPa) = 29.73487 53.73856 41.73671
# Shear Modulus (GPa) = 17.09618 14.90331 15.99975
#
# Velocity S-wave (km/s) = 2.84906 2.66007 2.75618
# Velocity P-wave (km/s) = 4.99407 5.91179 5.47220
#
# Compressibility (1/GPa) = 0.03363055
#
# Stress axis : x y z
#
# Youngs Moduli (GPa) = 66.04421 207.93725 40.64682
#
# Poissons Ratio (x) = 0.53768 0.05232
# Poissons Ratio (y) = 0.17078 0.06455
# Poissons Ratio (z) = 0.08501 0.33021
#
# Static dielectric constant tensor:
#      x y z
#    x 1.717470 0.000000 0.000000 
#    y 0.000000 1.843820 0.000000 
#    z 0.000000 0.000000 1.749380 
# 
# From -- ./inp_files/10375.got.cif
#   From: 2010.05.17/outbox.cif.g08.bks.cpg/sg24_6_cif.got.tgz:10375.got - 2010.06.04 00:33:39.
