data_PCOD9336644
_publ_section_title
;
Structure prediction by ZEFSAII (Michael W. Deem and Ramdas Pophale) SiO2 
 PCOD9336644
Probable space group: I 21 21 21
;
_chemical_formula_sum "Si O2"
_cell_formula_units_Z 56
_cell_length_a 5.703270
_cell_length_b 15.474232
_cell_length_c 27.613155
_cell_angle_alpha 90.000000
_cell_angle_beta 90.000000
_cell_angle_gamma 90.000000
_cell_volume 2436.963736
_symmetry_space_group_name_H-M "I 21 21 21"
_symmetry_group_IT_number 24
_symmetry_cell_setting 'orthorhombic'
loop_
_space_group_symop_operation_xyz
x,y,z
-x,1/2-y,z
x,-y,1/2-z
1/2-x,y,-z
1/2+x,1/2+y,1/2+z
1/2-x,-y,1/2+z
1/2+x,1/2-y,-z
-x,1/2+y,1/2-z
loop_
_atom_site_type_symbol
_atom_site_label
_atom_site_fract_x
_atom_site_fract_y
_atom_site_fract_z
Si Si1 0.985726 0.418544 0.374921
Si Si2 0.760264 0.201895 0.687742
Si Si3 0.043106 0.648419 0.628433
Si Si4 0.124061 0.341405 0.212323
Si Si5 0.234927 0.032360 0.797186
Si Si6 0.860474 0.661574 0.946498
Si Si7 0.183606 0.490251 0.944872
O O1 0.818982 0.457842 0.333601
O O2 0.841638 0.350036 0.406625
O O3 0.208154 0.377159 0.347856
O O4 0.086156 0.487538 0.413090
O O5 0.500000 0.250000 0.687807
O O6 0.800302 0.171760 0.743100
O O7 0.000000 0.250000 0.673750
O O8 0.279746 0.638616 0.659480
O O9 0.055080 0.589615 0.581036
O O10 0.000000 0.750000 0.620332
O O11 0.869628 0.604651 0.667186
O O12 0.000000 0.250000 0.207961
O O13 0.951309 0.417332 0.226960
O O14 0.092484 0.000000 0.750000
O O15 0.000000 0.750000 0.939328
O O16 0.024792 0.576768 0.944080
O O17 0.750000 0.664325 0.000000
O O18 0.250000 0.471549 0.000000
#
# Coordination Sequence:
#
# PCOD9336644 Si02
#       7
#     8   8   8   8   8   8   8
#     4  12  27  46  72 108 153 204 259 328 404 488
#     4  11  28  45  70 112 162 210 265 327 390 480
#     4  12  26  46  80 111 153 208 269 336 413 492
#     4  11  23  45  72 105 153 203 261 323 397 486
#     4  12  25  46  73 114 154 206 265 327 400 490
#     4  12  28  50  78 109 150 208 267 334 410 500
#     4  12  27  49  74 109 152 201 268 340 415 485
#
# _framework density 22.979416000000001
#
# number of rings (size 3 to 8) (size 9 to 14) (size 15 to 20)
#    0.000    0.286    7.143    0.857    6.000    1.714 
#    0.000    3.571    0.000    0.000    0.000    0.000 
#    0.000    0.000    0.000    0.000    0.000    0.000 
#
# Total GULP energy -156674.768425 kJ/mol
# GULP energy per Si atom -5595.527444 kJ/mol
# Density = 2.292711 g / cm^3
# Si number density = 22.979416 Si / 1000 Ang^3
#
#
#
# Elastic Constant Matrix: (Units=GPa)
#
#
# Indices 1 2 3 4 5 6 
#
# 1 66.4687 47.7353 35.9043 0.0000 0.0000 0.0000
# 2 47.7353 155.7094 77.1224 0.0000 0.0000 0.0000
# 3 35.9043 77.1224 177.2446 0.0000 0.0000 0.0000
# 4 0.0000 0.0000 0.0000 39.1328 0.0000 0.0000
# 5 0.0000 0.0000 0.0000 0.0000 26.1707 0.0000
# 6 0.0000 0.0000 0.0000 0.0000 0.0000 39.4691
#
#
#
# Elastic Compliance Matrix: (Units=1/GPa)
#
#
# Indices 1 2 3 4 5 6 
#
# 1 0.019703 -0.005180 -0.001737 0.000000 0.000000 0.000000
# 2 -0.005180 0.009548 -0.003105 0.000000 0.000000 0.000000
# 3 -0.001737 -0.003105 0.007345 0.000000 0.000000 0.000000
# 4 0.000000 0.000000 0.000000 0.025554 0.000000 0.000000
# 5 0.000000 0.000000 0.000000 0.000000 0.038211 0.000000
# 6 0.000000 0.000000 0.000000 0.000000 0.000000 0.025336
#
#
# Mechanical properties :
#
#
# Convention : Reuss Voigt Hill
#
# Bulk Modulus (GPa) = 60.41824 80.10519 70.26172
# Shear Modulus (GPa) = 33.05577 36.86523 34.96050
#
# Velocity S-wave (km/s) = 3.79686 4.00968 3.90472
# Velocity P-wave (km/s) = 6.75063 7.50813 7.13943
#
# Compressibility (1/GPa) = 0.01655129
#
# Stress axis : x y z
#
# Youngs Moduli (GPa) = 50.75352 104.73147 136.14580
#
# Poissons Ratio (x) = 0.54248 0.23654
# Poissons Ratio (y) = 0.26289 0.42278
# Poissons Ratio (z) = 0.08818 0.32523
#
# Static dielectric constant tensor:
#      x y z
#    x 1.931390 0.000000 0.000000 
#    y 0.000000 1.751930 0.000000 
#    z 0.000000 0.000000 1.819550 
# 
# From -- ./inp_files/37924.got.cif
#   From: 2010.05.17/outbox.cif.g08.bks.cpg/sg24_19_cif.got.tgz:37924.got - 2010.06.04 00:33:39.
