data_PCOD9336910
_publ_section_title
;
Structure prediction by ZEFSAII (Michael W. Deem and Ramdas Pophale) SiO2 
 PCOD9336910
Probable space group: I 21 21 21
;
_chemical_formula_sum "Si O2"
_cell_formula_units_Z 40
_cell_length_a 6.031750
_cell_length_b 11.427648
_cell_length_c 24.944456
_cell_angle_alpha 90.000000
_cell_angle_beta 90.000000
_cell_angle_gamma 90.000000
_cell_volume 1719.389319
_symmetry_space_group_name_H-M "I 21 21 21"
_symmetry_group_IT_number 24
_symmetry_cell_setting 'orthorhombic'
loop_
_space_group_symop_operation_xyz
x,y,z
-x,1/2-y,z
x,-y,1/2-z
1/2-x,y,-z
1/2+x,1/2+y,1/2+z
1/2-x,-y,1/2+z
1/2+x,1/2-y,-z
-x,1/2+y,1/2-z
loop_
_atom_site_type_symbol
_atom_site_label
_atom_site_fract_x
_atom_site_fract_y
_atom_site_fract_z
Si Si1 0.866047 0.364393 0.746172
Si Si2 0.250000 0.544037 0.000000
Si Si3 0.000000 0.250000 0.182691
Si Si4 0.482747 0.425274 0.907257
Si Si5 0.685890 0.336413 0.633784
Si Si6 0.750000 0.306172 0.000000
Si Si7 0.500000 0.250000 0.456535
O O1 0.940426 0.500000 0.750000
O O2 0.639921 0.337771 0.779260
O O3 0.850828 0.352420 0.682359
O O4 0.000000 0.250000 0.765572
O O5 0.293511 0.465102 0.948654
O O6 0.048820 0.633638 0.989956
O O7 0.107077 0.338834 0.138659
O O8 0.579152 0.540752 0.880597
O O9 0.678656 0.373791 0.945474
O O10 0.500000 0.250000 0.654847
O O11 0.795687 0.276803 0.582307
O O12 0.500000 0.250000 0.010956
#
# Coordination Sequence:
#
# PCOD9336910 Si02
#       7
#     8   4   4   8   8   4   4
#     4  12  28  50  78 114 151 202 265 333 407 495
#     4  12  25  45  76 114 160 205 269 324 406 492
#     4  12  28  48  79 108 149 206 260 324 406 478
#     4  12  26  48  74 110 153 206 253 333 398 489
#     4  12  24  46  75 106 147 194 255 320 405 473
#     4  12  27  51  78 110 160 211 275 328 402 496
#     4  12  24  44  73 112 145 204 252 324 388 482
#
# _framework density 23.264073
#
# number of rings (size 3 to 8) (size 9 to 14) (size 15 to 20)
#    0.000    0.000    7.000    3.000    0.000    4.800 
#    0.000    0.000    0.000    0.000    0.000    0.000 
#    0.000    0.000    0.000    0.000    0.000    0.000 
#
# Total GULP energy -111555.914935 kJ/mol
# GULP energy per Si atom -5577.795747 kJ/mol
# Density = 2.321112 g / cm^3
# Si number density = 23.264073 Si / 1000 Ang^3
#
#
#
# Elastic Constant Matrix: (Units=GPa)
#
#
# Indices 1 2 3 4 5 6 
#
# 1 41.4748 35.3395 5.3395 0.0000 0.0000 0.0000
# 2 35.3395 145.1435 36.3986 0.0000 0.0000 0.0000
# 3 5.3395 36.3986 94.4597 0.0000 0.0000 0.0000
# 4 0.0000 0.0000 0.0000 -411.4061 0.0000 0.0000
# 5 0.0000 0.0000 0.0000 0.0000 25.3568 0.0000
# 6 0.0000 0.0000 0.0000 0.0000 0.0000 44.4709
#
#
#
# Elastic Compliance Matrix: (Units=1/GPa)
#
#
# Indices 1 2 3 4 5 6 
#
# 1 0.030558 -0.007757 0.001262 0.000000 0.000000 0.000000
# 2 -0.007757 0.009596 -0.003259 0.000000 0.000000 0.000000
# 3 0.001262 -0.003259 0.011771 0.000000 0.000000 0.000000
# 4 0.000000 0.000000 0.000000 -0.002431 0.000000 0.000000
# 5 0.000000 0.000000 0.000000 0.000000 0.039437 0.000000
# 6 0.000000 0.000000 0.000000 0.000000 0.000000 0.022487
#
#
# Mechanical properties :
#
#
# Convention : Reuss Voigt Hill
#
# Bulk Modulus (GPa) = 30.84873 48.35924 39.60398
# Shear Modulus (GPa) = 35.27811 -54.71564 -9.71877
#
# Velocity S-wave (km/s) = 3.89835 -4.85494 -2.04613
# Velocity P-wave (km/s) = 5.79240 3.25500 3.38798
#
# Compressibility (1/GPa) = 0.03241625
#
# Stress axis : x y z
#
# Youngs Moduli (GPa) = 32.72492 104.21449 84.95426
#
# Poissons Ratio (x) = 0.80835 -0.10717
# Poissons Ratio (y) = 0.25383 0.27687
# Poissons Ratio (z) = -0.04128 0.33964
#
# Static dielectric constant tensor:
#      x y z
#    x 2.116250 0.000000 0.000000 
#    y 0.000000 1.814530 0.000000 
#    z 0.000000 0.000000 1.825150 
# 
# From -- ./inp_files/36356.got.cif
#   From: 2010.05.17/outbox.cif.g08.bks.cpg/sg24_19_cif.got.tgz:36356.got - 2010.06.04 00:33:39.
