data_PCOD9336499
_publ_section_title
;
Structure prediction by ZEFSAII (Michael W. Deem and Ramdas Pophale) SiO2 
 PCOD9336499
Probable space group: I 21 21 21
;
_chemical_formula_sum "Si O2"
_cell_formula_units_Z 40
_cell_length_a 15.975999
_cell_length_b 15.591868
_cell_length_c 7.534475
_cell_angle_alpha 90.000000
_cell_angle_beta 90.000000
_cell_angle_gamma 90.000000
_cell_volume 1876.805080
_symmetry_space_group_name_H-M "I 21 21 21"
_symmetry_group_IT_number 24
_symmetry_cell_setting 'orthorhombic'
loop_
_space_group_symop_operation_xyz
x,y,z
-x,1/2-y,z
x,-y,1/2-z
1/2-x,y,-z
1/2+x,1/2+y,1/2+z
1/2-x,-y,1/2+z
1/2+x,1/2-y,-z
-x,1/2+y,1/2-z
loop_
_atom_site_type_symbol
_atom_site_label
_atom_site_fract_x
_atom_site_fract_y
_atom_site_fract_z
Si Si1 0.631370 0.593021 0.797563
Si Si2 0.241136 0.757690 0.714786
Si Si3 0.181524 0.586752 0.351318
Si Si4 0.564759 0.323401 0.359407
Si Si5 0.004324 0.647592 0.488832
O O1 0.667703 0.500000 0.750000
O O2 0.701304 0.665983 0.784688
O O3 0.560893 0.607886 0.648548
O O4 0.589407 0.609601 0.988518
O O5 0.250000 0.760621 0.500000
O O6 0.279826 0.665200 0.763608
O O7 0.147618 0.775351 0.782965
O O8 0.163059 0.500000 0.250000
O O9 0.250000 0.567284 0.500000
O O10 0.097206 0.618979 0.443439
O O11 0.500000 0.250000 0.426358
O O12 0.522231 0.369063 0.190964
O O13 0.000000 0.750000 0.467020
#
# Coordination Sequence:
#
# PCOD9336499 Si02
#       5
#     8   8   8   8   8
#     4  12  26  44  70 106 145 189 241 294 353 423
#     4  11  22  47  74  99 146 187 234 303 354 422
#     4  11  24  45  72 105 144 187 233 298 362 425
#     4  11  24  44  77 106 136 193 240 285 360 428
#     4  11  21  48  72  97 148 190 229 297 354 415
#
# _framework density 21.312816000000002
#
# number of rings (size 3 to 8) (size 9 to 14) (size 15 to 20)
#    0.000    0.800    4.000    5.400    0.000    4.000 
#   10.800    0.000    0.000    0.000    0.000    0.000 
#    0.000    0.000    0.000    0.000    0.000    0.000 
#
# Total GULP energy -111918.615062 kJ/mol
# GULP energy per Si atom -5595.930753 kJ/mol
# Density = 2.126431 g / cm^3
# Si number density = 21.312816 Si / 1000 Ang^3
#
#
#
# Elastic Constant Matrix: (Units=GPa)
#
#
# Indices 1 2 3 4 5 6 
#
# 1 128.0490 45.8923 28.1733 0.0000 0.0000 0.0000
# 2 45.8923 127.8181 69.8444 0.0000 0.0000 0.0000
# 3 28.1733 69.8444 77.7111 0.0000 0.0000 0.0000
# 4 0.0000 0.0000 0.0000 10.8441 0.0000 0.0000
# 5 0.0000 0.0000 0.0000 0.0000 17.9237 0.0000
# 6 0.0000 0.0000 0.0000 0.0000 0.0000 19.0359
#
#
#
# Elastic Compliance Matrix: (Units=1/GPa)
#
#
# Indices 1 2 3 4 5 6 
#
# 1 0.008982 -0.002841 -0.000703 0.000000 0.000000 0.000000
# 2 -0.002841 0.016273 -0.013595 0.000000 0.000000 0.000000
# 3 -0.000703 -0.013595 0.025342 0.000000 0.000000 0.000000
# 4 0.000000 0.000000 0.000000 0.092216 0.000000 0.000000
# 5 0.000000 0.000000 0.000000 0.000000 0.055792 0.000000
# 6 0.000000 0.000000 0.000000 0.000000 0.000000 0.052532
#
#
# Mechanical properties :
#
#
# Convention : Reuss Voigt Hill
#
# Bulk Modulus (GPa) = 61.28072 69.04424 65.16248
# Shear Modulus (GPa) = 17.19065 22.20530 19.69797
#
# Velocity S-wave (km/s) = 2.84313 3.23131 3.04342
# Velocity P-wave (km/s) = 6.29232 6.81086 6.55672
#
# Compressibility (1/GPa) = 0.01631834
#
# Stress axis : x y z
#
# Youngs Moduli (GPa) = 111.32928 61.45288 39.45966
#
# Poissons Ratio (x) = 0.17457 0.02775
# Poissons Ratio (y) = 0.31626 0.53647
# Poissons Ratio (z) = 0.07829 0.83548
#
# Static dielectric constant tensor:
#      x y z
#    x 1.750010 0.000000 0.000000 
#    y 0.000000 1.782020 0.000000 
#    z 0.000000 0.000000 1.829710 
# 
# From -- ./inp_files/12331.got.cif
#   From: 2010.05.17/outbox.cif.g08.bks.cpg/sg24_7_cif.got.tgz:12331.got - 2010.06.04 00:33:39.
