data_PCOD9336096
_publ_section_title
;
Structure prediction by ZEFSAII (Michael W. Deem and Ramdas Pophale) SiO2 
 PCOD9336096
Probable space group: I 21 21 21
;
_chemical_formula_sum "Si O2"
_cell_formula_units_Z 56
_cell_length_a 8.496678
_cell_length_b 22.371369
_cell_length_c 13.656973
_cell_angle_alpha 90.000000
_cell_angle_beta 90.000000
_cell_angle_gamma 90.000000
_cell_volume 2595.949096
_symmetry_space_group_name_H-M "I 21 21 21"
_symmetry_group_IT_number 24
_symmetry_cell_setting 'orthorhombic'
loop_
_space_group_symop_operation_xyz
x,y,z
-x,1/2-y,z
x,-y,1/2-z
1/2-x,y,-z
1/2+x,1/2+y,1/2+z
1/2-x,-y,1/2+z
1/2+x,1/2-y,-z
-x,1/2+y,1/2-z
loop_
_atom_site_type_symbol
_atom_site_label
_atom_site_fract_x
_atom_site_fract_y
_atom_site_fract_z
Si Si1 0.005059 0.584589 0.622999
Si Si2 0.925209 0.631239 0.967892
Si Si3 0.400773 0.689870 0.703480
Si Si4 0.555328 0.185481 0.276755
Si Si5 0.019890 0.413255 0.333344
Si Si6 0.299840 0.014469 0.361997
Si Si7 0.223216 0.500000 0.750000
Si Si8 0.250000 0.345259 0.000000
O O1 0.981142 0.635042 0.705936
O O2 0.122738 0.536669 0.672014
O O3 0.105129 0.615394 0.538611
O O4 0.851226 0.548275 0.590667
O O5 0.897509 0.566692 0.915422
O O6 0.998416 0.672976 0.886076
O O7 0.750000 0.651409 0.000000
O O8 0.026873 0.623405 0.065623
O O9 0.500000 0.750000 0.716828
O O10 0.243503 0.684633 0.769058
O O11 0.501399 0.632527 0.741860
O O12 0.326255 0.687960 0.593822
O O13 0.500000 0.250000 0.242019
O O14 0.875095 0.458795 0.353885
O O15 0.169184 0.453008 0.307648
O O16 0.340949 0.000000 0.250000
#
# Coordination Sequence:
#
# PCOD9336096 Si02
#       8
#     8   8   8   8   8   8   4   4
#     4  11  23  43  68 104 138 187 238 295 362 435
#     4  10  24  42  65 109 146 184 242 293 359 447
#     4  11  27  50  76 105 144 192 251 311 367 442
#     4  11  24  46  73 100 140 198 238 300 365 430
#     4  11  25  43  68 105 147 190 231 298 369 436
#     4  11  21  40  68  96 150 184 230 288 356 428
#     4  12  20  42  68 100 138 182 228 284 358 438
#     4  10  24  46  70 108 140 188 254 298 372 438
#
# _framework density 21.572071000000001
#
# number of rings (size 3 to 8) (size 9 to 14) (size 15 to 20)
#    0.000    1.143    5.714    0.000    6.000    3.429 
#    2.571    0.000    0.000    0.000    0.000    0.000 
#    0.000    0.000    0.000    0.000    0.000    0.000 
#
# Total GULP energy -156320.959818 kJ/mol
# GULP energy per Si atom -5582.891422 kJ/mol
# Density = 2.152297 g / cm^3
# Si number density = 21.572071 Si / 1000 Ang^3
#
#
#
# Elastic Constant Matrix: (Units=GPa)
#
#
# Indices 1 2 3 4 5 6 
#
# 1 83.8052 53.6643 38.5564 0.0000 0.0000 0.0000
# 2 53.6643 122.9594 29.1475 0.0000 0.0000 0.0000
# 3 38.5564 29.1475 109.3629 0.0001 0.0000 0.0000
# 4 0.0000 0.0000 0.0001 5.4524 0.0000 0.0000
# 5 0.0000 0.0000 0.0000 0.0000 37.7544 0.0000
# 6 0.0000 0.0000 0.0000 0.0000 0.0000 37.9647
#
#
#
# Elastic Compliance Matrix: (Units=1/GPa)
#
#
# Indices 1 2 3 4 5 6 
#
# 1 0.018563 -0.006992 -0.004681 0.000000 0.000000 0.000000
# 2 -0.006992 0.011315 -0.000551 0.000000 0.000000 0.000000
# 3 -0.004681 -0.000551 0.010941 0.000000 0.000000 0.000000
# 4 0.000000 0.000000 0.000000 0.183404 0.000000 0.000000
# 5 0.000000 0.000000 0.000000 0.000000 0.026487 0.000000
# 6 0.000000 0.000000 0.000000 0.000000 0.000000 0.026340
#
#
# Mechanical properties :
#
#
# Convention : Reuss Voigt Hill
#
# Bulk Modulus (GPa) = 61.08082 62.09597 61.58840
# Shear Modulus (GPa) = 16.28901 29.21827 22.75364
#
# Velocity S-wave (km/s) = 2.75088 3.68428 3.25125
# Velocity P-wave (km/s) = 6.20210 6.85174 6.53500
#
# Compressibility (1/GPa) = 0.01637175
#
# Stress axis : x y z
#
# Youngs Moduli (GPa) = 53.86920 88.37881 91.39982
#
# Poissons Ratio (x) = 0.61796 0.42785
# Poissons Ratio (y) = 0.37666 0.05032
# Poissons Ratio (z) = 0.25217 0.04866
#
# Static dielectric constant tensor:
#      x y z
#    x 1.837530 0.000000 0.000000 
#    y 0.000000 1.808580 0.000000 
#    z 0.000000 0.000000 1.825660 
# 
# From -- ./inp_files/25093.got.cif
#   From: 2010.05.17/outbox.cif.g08.bks.cpg/sg24_13_cif.got.tgz:25093.got - 2010.06.04 00:33:39.
