data_PCOD9336252
_publ_section_title
;
Structure prediction by ZEFSAII (Michael W. Deem and Ramdas Pophale) SiO2 
 PCOD9336252
Probable space group: I 21 21 21
;
_chemical_formula_sum "Si O2"
_cell_formula_units_Z 40
_cell_length_a 15.281871
_cell_length_b 6.373587
_cell_length_c 18.496211
_cell_angle_alpha 90.000000
_cell_angle_beta 90.000000
_cell_angle_gamma 90.000000
_cell_volume 1801.537135
_symmetry_space_group_name_H-M "I 21 21 21"
_symmetry_group_IT_number 24
_symmetry_cell_setting 'orthorhombic'
loop_
_space_group_symop_operation_xyz
x,y,z
-x,1/2-y,z
x,-y,1/2-z
1/2-x,y,-z
1/2+x,1/2+y,1/2+z
1/2-x,-y,1/2+z
1/2+x,1/2-y,-z
-x,1/2+y,1/2-z
loop_
_atom_site_type_symbol
_atom_site_label
_atom_site_fract_x
_atom_site_fract_y
_atom_site_fract_z
Si Si1 0.625577 0.813611 0.085832
Si Si2 0.784436 0.133010 0.107833
Si Si3 0.000000 0.750000 0.158323
Si Si4 0.034449 0.523249 0.463122
Si Si5 0.750000 0.503112 0.000000
Si Si6 0.860815 0.000000 0.250000
Si Si7 0.000000 0.250000 0.714281
O O1 0.672374 0.640526 0.035028
O O2 0.585579 0.742747 0.162218
O O3 0.699173 0.992287 0.096293
O O4 0.548380 0.918352 0.039625
O O5 0.868951 0.023948 0.071706
O O6 0.776809 0.350885 0.065920
O O7 0.804848 0.130758 0.192636
O O8 0.923960 0.838596 0.208181
O O9 0.973697 0.573693 0.099730
O O10 0.000000 0.750000 0.476818
O O11 0.003241 0.500000 0.750000
#
# Coordination Sequence:
#
# PCOD9336252 Si02
#       7
#     8   8   4   8   4   4   4
#     4  12  27  50  77 116 150 207 281 342 414 485
#     4  11  25  45  72 108 160 197 265 331 411 498
#     4  10  25  42  62 105 150 190 248 298 388 495
#     4  11  24  43  73 110 148 194 253 333 405 488
#     4  12  24  46  80 112 146 206 270 358 400 492
#     4  10  26  44  66 106 156 208 236 320 402 502
#     4  12  35  56  84 117 172 234 290 352 420 517
#
# _framework density 22.203261000000001
#
# number of rings (size 3 to 8) (size 9 to 14) (size 15 to 20)
#    0.000    0.800    4.000    0.600   16.800    0.000 
#    0.000    0.000    0.000    0.000    0.000    0.000 
#    0.000    0.000    0.000    0.000    0.000    0.000 
#
# Total GULP energy -111551.564340 kJ/mol
# GULP energy per Si atom -5577.578217 kJ/mol
# Density = 2.215273 g / cm^3
# Si number density = 22.203261 Si / 1000 Ang^3
#
#
#
# Elastic Constant Matrix: (Units=GPa)
#
#
# Indices 1 2 3 4 5 6 
#
# 1 86.9526 67.2489 53.6841 0.0000 0.0000 0.0000
# 2 67.2489 160.3043 95.2642 0.0000 0.0000 0.0000
# 3 53.6841 95.2642 166.7213 0.0000 0.0000 0.0000
# 4 0.0000 0.0000 0.0000 24.9177 0.0000 0.0000
# 5 0.0000 0.0000 0.0000 0.0000 -1.7239 0.0000
# 6 0.0000 0.0000 0.0000 0.0000 0.0000 166.0002
#
#
#
# Elastic Compliance Matrix: (Units=1/GPa)
#
#
# Indices 1 2 3 4 5 6 
#
# 1 0.017534 -0.006057 -0.002185 0.000000 0.000000 0.000000
# 2 -0.006057 0.011538 -0.004642 0.000000 0.000000 0.000000
# 3 -0.002185 -0.004642 0.009354 0.000000 0.000000 0.000000
# 4 0.000000 0.000000 0.000000 0.040132 0.000000 0.000000
# 5 0.000000 0.000000 0.000000 0.000000 -0.580077 0.000000
# 6 0.000000 0.000000 0.000000 0.000000 0.000000 0.006024
#
#
# Mechanical properties :
#
#
# Convention : Reuss Voigt Hill
#
# Bulk Modulus (GPa) = 79.00557 94.04137 86.52347
# Shear Modulus (GPa) = -10.74099 51.02419 20.14160
#
# Velocity S-wave (km/s) = -2.20183 4.79900 3.01515
# Velocity P-wave (km/s) = 5.40333 8.55300 7.15367
#
# Compressibility (1/GPa) = 0.01265734
#
# Stress axis : x y z
#
# Youngs Moduli (GPa) = 57.03159 86.66980 106.90398
#
# Poissons Ratio (x) = 0.52499 0.23357
# Poissons Ratio (y) = 0.34546 0.49629
# Poissons Ratio (z) = 0.12460 0.40235
#
# Static dielectric constant tensor:
#      x y z
#    x 1.865090 0.000000 0.000000 
#    y 0.000000 1.896750 0.000000 
#    z 0.000000 0.000000 1.549970 
# 
# From -- ./inp_files/31038.got.cif
#   From: 2010.05.17/outbox.cif.g08.bks.cpg/sg24_16_cif.got.tgz:31038.got - 2010.06.04 00:33:39.
