data_PCOD9336684
_publ_section_title
;
Structure prediction by ZEFSAII (Michael W. Deem and Ramdas Pophale) SiO2 
 PCOD9336684
Probable space group: I 21 21 21
;
_chemical_formula_sum "Si O2"
_cell_formula_units_Z 36
_cell_length_a 9.533502
_cell_length_b 14.784621
_cell_length_c 12.806865
_cell_angle_alpha 90.000000
_cell_angle_beta 90.000000
_cell_angle_gamma 90.000000
_cell_volume 1805.117554
_symmetry_space_group_name_H-M "I 21 21 21"
_symmetry_group_IT_number 24
_symmetry_cell_setting 'orthorhombic'
loop_
_space_group_symop_operation_xyz
x,y,z
-x,1/2-y,z
x,-y,1/2-z
1/2-x,y,-z
1/2+x,1/2+y,1/2+z
1/2-x,-y,1/2+z
1/2+x,1/2-y,-z
-x,1/2+y,1/2-z
loop_
_atom_site_type_symbol
_atom_site_label
_atom_site_fract_x
_atom_site_fract_y
_atom_site_fract_z
Si Si1 0.750000 0.632877 0.500000
Si Si2 0.836245 0.732857 0.291887
Si Si3 0.027924 0.520449 0.511068
Si Si4 0.763120 0.928537 0.333346
Si Si5 0.392943 0.165923 0.566764
O O1 0.775072 0.689579 0.395812
O O2 0.616299 0.571998 0.477510
O O3 0.758424 0.829742 0.281061
O O4 0.839541 0.671654 0.187425
O O5 0.000000 0.750000 0.311624
O O6 0.122936 0.571440 0.425421
O O7 0.121120 0.530746 0.615658
O O8 0.983705 0.421548 0.468450
O O9 0.815785 0.000000 0.250000
O O10 0.500000 0.250000 0.553845
O O11 0.250000 0.171962 0.500000
#
# Coordination Sequence:
#
# PCOD9336684 Si02
#       5
#     4   8   8   8   8
#     4  12  24  44  68  98 136 174 232 288 350 410
#     4  11  24  43  70  98 136 182 227 286 353 423
#     4  11  25  44  69  99 136 179 230 286 351 424
#     4  11  24  43  70  99 135 181 231 284 349 421
#     4  11  26  46  69  99 137 184 227 283 358 432
#
# _framework density 19.943300000000001
#
# number of rings (size 3 to 8) (size 9 to 14) (size 15 to 20)
#    0.000    0.889    3.333    4.000    6.222    1.778 
#    0.000    0.000    0.000    0.000    0.000    0.000 
#    0.000    0.000    0.000    0.000    0.000    0.000 
#
# Total GULP energy -100462.071354 kJ/mol
# GULP energy per Si atom -5581.226186 kJ/mol
# Density = 1.989791 g / cm^3
# Si number density = 19.943300 Si / 1000 Ang^3
#
#
#
# Elastic Constant Matrix: (Units=GPa)
#
#
# Indices 1 2 3 4 5 6 
#
# 1 100.9208 12.5238 33.9665 0.0000 0.0000 0.0000
# 2 12.5238 92.2480 36.2582 -0.0001 0.0000 0.0000
# 3 33.9665 36.2582 86.1679 -0.0001 0.0000 0.0000
# 4 0.0000 -0.0001 -0.0001 25.4820 0.0000 0.0000
# 5 0.0000 0.0000 0.0000 0.0000 21.1645 0.0000
# 6 0.0000 0.0000 0.0000 0.0000 0.0000 -39.6328
#
#
#
# Elastic Compliance Matrix: (Units=1/GPa)
#
#
# Indices 1 2 3 4 5 6 
#
# 1 0.011430 0.000263 -0.004616 0.000000 0.000000 0.000000
# 2 0.000263 0.012995 -0.005571 0.000000 0.000000 0.000000
# 3 -0.004616 -0.005571 0.015769 0.000000 0.000000 0.000000
# 4 0.000000 0.000000 0.000000 0.039243 0.000000 0.000000
# 5 0.000000 0.000000 0.000000 0.000000 0.047249 0.000000
# 6 0.000000 0.000000 0.000000 0.000000 0.000000 -0.025232
#
#
# Mechanical properties :
#
#
# Convention : Reuss Voigt Hill
#
# Bulk Modulus (GPa) = 49.15488 49.42596 49.29042
# Shear Modulus (GPa) = 39.03655 14.50862 26.77258
#
# Velocity S-wave (km/s) = 4.42902 2.70013 3.66790
# Velocity P-wave (km/s) = 7.13133 5.87861 6.53505
#
# Compressibility (1/GPa) = 0.02034386
#
# Stress axis : x y z
#
# Youngs Moduli (GPa) = 87.49088 76.95533 63.41479
#
# Poissons Ratio (x) = -0.02021 0.29272
# Poissons Ratio (y) = -0.02297 0.35331
# Poissons Ratio (z) = 0.40386 0.42875
#
# Static dielectric constant tensor:
#      x y z
#    x 1.671020 0.000000 0.000000 
#    y 0.000000 1.738930 0.000000 
#    z 0.000000 0.000000 1.759070 
# 
# From -- ./inp_files/24455.got.cif
#   From: 2010.05.17/outbox.cif.g08.bks.cpg/sg24_13_cif.got.tgz:24455.got - 2010.06.04 00:33:39.
