data_PCOD9336206
_publ_section_title
;
Structure prediction by ZEFSAII (Michael W. Deem and Ramdas Pophale) SiO2 
 PCOD9336206
Probable space group: I 21 21 21
;
_chemical_formula_sum "Si O2"
_cell_formula_units_Z 32
_cell_length_a 12.544177
_cell_length_b 9.275958
_cell_length_c 12.261230
_cell_angle_alpha 90.000000
_cell_angle_beta 90.000000
_cell_angle_gamma 90.000000
_cell_volume 1426.707637
_symmetry_space_group_name_H-M "I 21 21 21"
_symmetry_group_IT_number 24
_symmetry_cell_setting 'orthorhombic'
loop_
_space_group_symop_operation_xyz
x,y,z
-x,1/2-y,z
x,-y,1/2-z
1/2-x,y,-z
1/2+x,1/2+y,1/2+z
1/2-x,-y,1/2+z
1/2+x,1/2-y,-z
-x,1/2+y,1/2-z
loop_
_atom_site_type_symbol
_atom_site_label
_atom_site_fract_x
_atom_site_fract_y
_atom_site_fract_z
Si Si1 0.853049 0.330101 0.058063
Si Si2 0.246400 0.162740 0.731781
Si Si3 0.560292 0.964222 0.481016
Si Si4 0.458461 0.000000 0.250000
Si Si5 0.250000 0.315407 0.500000
O O1 0.815451 0.263139 0.173880
O O2 0.750000 0.399223 0.000000
O O3 0.884918 0.191809 0.986692
O O4 0.952857 0.439157 0.052926
O O5 0.249756 0.223474 0.611110
O O6 0.289512 0.000000 0.750000
O O7 0.121581 0.137049 0.757626
O O8 0.524579 0.002918 0.359394
O O9 0.645760 0.084042 0.512374
#
# Coordination Sequence:
#
# PCOD9336206 Si02
#       5
#     8   8   8   4   4
#     4  11  22  49  75 105 151 199 242 301 397 445
#     4  10  26  50  75 101 151 201 249 316 377 450
#     4  11  26  43  77 115 148 195 251 321 370 457
#     4  10  24  46  74 102 146 202 256 296 378 444
#     4  12  28  48  74 120 148 188 272 314 370 452
#
# _framework density 22.429262999999999
#
# number of rings (size 3 to 8) (size 9 to 14) (size 15 to 20)
#    0.750    0.500    3.750    0.000    8.750    2.000 
#    9.000    0.000    0.000    0.000    0.000    0.000 
#    0.000    0.000    0.000    0.000    0.000    0.000 
#
# Total GULP energy -89293.006401 kJ/mol
# GULP energy per Si atom -5580.812900 kJ/mol
# Density = 2.237821 g / cm^3
# Si number density = 22.429263 Si / 1000 Ang^3
#
#
#
# Elastic Constant Matrix: (Units=GPa)
#
#
# Indices 1 2 3 4 5 6 
#
# 1 134.9481 45.4134 50.0324 0.0000 0.0000 0.0000
# 2 45.4134 75.2946 38.6447 0.0000 0.0000 0.0000
# 3 50.0324 38.6447 122.6548 0.0000 0.0000 0.0000
# 4 0.0000 0.0000 0.0000 29.2362 0.0000 0.0000
# 5 0.0000 0.0000 0.0000 0.0000 91.1711 0.0000
# 6 0.0000 0.0000 0.0000 0.0000 0.0000 9.5639
#
#
#
# Elastic Compliance Matrix: (Units=1/GPa)
#
#
# Indices 1 2 3 4 5 6 
#
# 1 0.009939 -0.004669 -0.002583 0.000000 0.000000 0.000000
# 2 -0.004669 0.018036 -0.003778 0.000000 0.000000 0.000000
# 3 -0.002583 -0.003778 0.010397 0.000000 0.000000 0.000000
# 4 0.000000 0.000000 0.000000 0.034204 0.000000 0.000000
# 5 0.000000 0.000000 0.000000 0.000000 0.010968 0.000000
# 6 0.000000 0.000000 0.000000 0.000000 0.000000 0.104560
#
#
# Mechanical properties :
#
#
# Convention : Reuss Voigt Hill
#
# Bulk Modulus (GPa) = 61.30501 66.78651 64.04576
# Shear Modulus (GPa) = 23.19076 39.24804 31.21940
#
# Velocity S-wave (km/s) = 3.21900 4.18767 3.73487
# Velocity P-wave (km/s) = 6.41934 7.29543 6.87136
#
# Compressibility (1/GPa) = 0.01631188
#
# Stress axis : x y z
#
# Youngs Moduli (GPa) = 100.61144 55.44369 96.18057
#
# Poissons Ratio (x) = 0.25886 0.24846
# Poissons Ratio (y) = 0.46974 0.36339
# Poissons Ratio (z) = 0.25991 0.20948
#
# Static dielectric constant tensor:
#      x y z
#    x 1.860690 0.000000 0.000000 
#    y 0.000000 1.922960 0.000000 
#    z 0.000000 0.000000 1.990100 
# 
# From -- ./inp_files/19168.got.cif
#   From: 2010.05.17/outbox.cif.g08.bks.cpg/sg24_10_cif.got.tgz:19168.got - 2010.06.04 00:33:39.
