data_PCOD9336572
_publ_section_title
;
Structure prediction by ZEFSAII (Michael W. Deem and Ramdas Pophale) SiO2 
 PCOD9336572
Probable space group: I 21 21 21
;
_chemical_formula_sum "Si O2"
_cell_formula_units_Z 56
_cell_length_a 15.346639
_cell_length_b 9.347999
_cell_length_c 18.546553
_cell_angle_alpha 90.000000
_cell_angle_beta 90.000000
_cell_angle_gamma 90.000000
_cell_volume 2660.695282
_symmetry_space_group_name_H-M "I 21 21 21"
_symmetry_group_IT_number 24
_symmetry_cell_setting 'orthorhombic'
loop_
_space_group_symop_operation_xyz
x,y,z
-x,1/2-y,z
x,-y,1/2-z
1/2-x,y,-z
1/2+x,1/2+y,1/2+z
1/2-x,-y,1/2+z
1/2+x,1/2-y,-z
-x,1/2+y,1/2-z
loop_
_atom_site_type_symbol
_atom_site_label
_atom_site_fract_x
_atom_site_fract_y
_atom_site_fract_z
Si Si1 0.982745 0.918345 0.088294
Si Si2 0.369984 0.539746 0.333355
Si Si3 0.717593 0.397302 0.359733
Si Si4 0.242569 0.196636 0.804350
Si Si5 0.524718 0.412475 0.419654
Si Si6 0.071324 0.135738 0.198451
Si Si7 0.781101 0.879756 0.081111
O O1 0.877957 0.935902 0.094361
O O2 0.000000 0.750000 0.109039
O O3 0.031659 0.045613 0.131054
O O4 0.009995 0.930320 0.004575
O O5 0.383996 0.500000 0.250000
O O6 0.327709 0.696149 0.336082
O O7 0.458766 0.515213 0.376778
O O8 0.293823 0.440927 0.366890
O O9 0.752276 0.555425 0.351837
O O10 0.713284 0.339390 0.277355
O O11 0.624072 0.418066 0.395664
O O12 0.777603 0.290391 0.404740
O O13 0.343576 0.238468 0.804144
O O14 0.500000 0.250000 0.400477
O O15 0.000000 0.250000 0.224070
O O16 0.092337 0.000000 0.250000
O O17 0.750000 0.909896 0.000000
#
# Coordination Sequence:
#
# PCOD9336572 Si02
#       7
#     8   8   8   8   8   8   8
#     4  11  24  42  72 100 136 184 231 289 353 419
#     4  12  24  42  73 102 135 181 230 288 348 410
#     4  11  23  43  67  96 144 176 230 284 342 421
#     4  11  25  45  65 105 137 180 231 294 349 416
#     4  11  22  45  68 107 137 179 235 281 341 419
#     4  12  26  45  71 101 139 179 241 299 352 424
#     4  12  22  43  70 100 136 182 233 287 346 425
#
# _framework density 21.047129999999999
#
# number of rings (size 3 to 8) (size 9 to 14) (size 15 to 20)
#    0.000    0.571    5.714    3.000    4.000    1.714 
#    2.571    0.714    0.000    0.000    0.000    0.000 
#    0.000    0.000    0.000    0.000    0.000    0.000 
#
# Total GULP energy -156326.841919 kJ/mol
# GULP energy per Si atom -5583.101497 kJ/mol
# Density = 2.099923 g / cm^3
# Si number density = 21.047130 Si / 1000 Ang^3
#
#
#
# Elastic Constant Matrix: (Units=GPa)
#
#
# Indices 1 2 3 4 5 6 
#
# 1 118.1570 3.7485 37.8598 0.0000 0.0000 0.0000
# 2 3.7485 57.9075 16.0181 0.0000 0.0000 0.0000
# 3 37.8598 16.0181 89.7199 0.0000 0.0000 0.0000
# 4 0.0000 0.0000 0.0000 24.3621 0.0000 0.0000
# 5 0.0000 0.0000 0.0000 0.0000 28.0949 0.0000
# 6 0.0000 0.0000 0.0000 0.0000 0.0000 40.7388
#
#
#
# Elastic Compliance Matrix: (Units=1/GPa)
#
#
# Indices 1 2 3 4 5 6 
#
# 1 0.009802 0.000536 -0.004232 0.000000 0.000000 0.000000
# 2 0.000536 0.018195 -0.003475 0.000000 0.000000 0.000000
# 3 -0.004232 -0.003475 0.013552 0.000000 0.000000 0.000000
# 4 0.000000 0.000000 0.000000 0.041047 0.000000 0.000000
# 5 0.000000 0.000000 0.000000 0.000000 0.035594 0.000000
# 6 0.000000 0.000000 0.000000 0.000000 0.000000 0.024547
#
#
# Mechanical properties :
#
#
# Convention : Reuss Voigt Hill
#
# Bulk Modulus (GPa) = 36.75346 42.33749 39.54547
# Shear Modulus (GPa) = 30.09361 32.51636 31.30498
#
# Velocity S-wave (km/s) = 3.78540 3.93483 3.86083
# Velocity P-wave (km/s) = 6.05029 6.38772 6.22130
#
# Compressibility (1/GPa) = 0.02720832
#
# Stress axis : x y z
#
# Youngs Moduli (GPa) = 102.01634 54.95903 73.78976
#
# Poissons Ratio (x) = -0.02947 0.31229
# Poissons Ratio (y) = -0.05469 0.25640
# Poissons Ratio (z) = 0.43174 0.19097
#
# Static dielectric constant tensor:
#      x y z
#    x 1.642040 0.000000 0.000000 
#    y 0.000000 1.774510 0.000000 
#    z 0.000000 0.000000 1.752960 
# 
# From -- ./inp_files/33746.got.cif
#   From: 2010.05.17/outbox.cif.g08.bks.cpg/sg24_17_cif.got.tgz:33746.got - 2010.06.04 00:33:39.
