data_PCOD9336131
_publ_section_title
;
Structure prediction by ZEFSAII (Michael W. Deem and Ramdas Pophale) SiO2 
 PCOD9336131
Probable space group: I 21 21 21
;
_chemical_formula_sum "Si O2"
_cell_formula_units_Z 56
_cell_length_a 15.640746
_cell_length_b 5.515919
_cell_length_c 29.858229
_cell_angle_alpha 90.000000
_cell_angle_beta 90.000000
_cell_angle_gamma 90.000000
_cell_volume 2575.961619
_symmetry_space_group_name_H-M "I 21 21 21"
_symmetry_group_IT_number 24
_symmetry_cell_setting 'orthorhombic'
loop_
_space_group_symop_operation_xyz
x,y,z
-x,1/2-y,z
x,-y,1/2-z
1/2-x,y,-z
1/2+x,1/2+y,1/2+z
1/2-x,-y,1/2+z
1/2+x,1/2-y,-z
-x,1/2+y,1/2-z
loop_
_atom_site_type_symbol
_atom_site_label
_atom_site_fract_x
_atom_site_fract_y
_atom_site_fract_z
Si Si1 0.330302 0.755811 0.178501
Si Si2 0.274800 0.000000 0.750000
Si Si3 0.552472 0.490968 0.017392
Si Si4 0.821152 0.560684 0.595432
Si Si5 0.000000 0.750000 0.776996
Si Si6 0.194518 0.740814 0.038719
Si Si7 0.097136 0.669771 0.293220
Si Si8 0.310636 0.528943 0.620797
O O1 0.284950 0.811558 0.225322
O O2 0.422200 0.659721 0.191880
O O3 0.261901 0.604489 0.150628
O O4 0.345416 0.984663 0.145748
O O5 0.336612 0.889022 0.712790
O O6 0.500000 0.750000 0.022918
O O7 0.596535 0.403470 0.064112
O O8 0.500000 0.250000 0.002065
O O9 0.630009 0.569197 0.984077
O O10 0.770074 0.354225 0.568490
O O11 0.747608 0.759374 0.600350
O O12 0.975684 0.500000 0.750000
O O13 0.147444 0.588595 0.076707
O O14 0.250000 0.607347 0.000000
O O15 0.114006 0.500000 0.250000
O O16 0.116786 0.570346 0.342215
O O17 0.000000 0.750000 0.289557
#
# Coordination Sequence:
#
# PCOD9336131 Si02
#       8
#     8   4   8   8   4   8   8   8
#     4  11  25  43  68 101 140 191 244 295 362 436
#     4  12  22  44  68  96 140 188 248 284 378 434
#     4  11  27  47  73 109 146 189 237 300 378 442
#     4  10  24  43  71 102 135 189 239 297 357 453
#     4  12  30  44  66 104 146 192 244 300 350 418
#     4   9  23  47  72  99 138 188 239 299 369 444
#     4  12  25  43  69 101 141 189 241 313 371 443
#     4  11  24  43  78 101 139 193 251 301 376 452
#
# _framework density 21.739453000000001
#
# number of rings (size 3 to 8) (size 9 to 14) (size 15 to 20)
#    0.000    1.143    4.286    0.000   13.000    0.571 
#    2.571    0.000    0.000    0.000    0.000    0.000 
#    0.000    0.000    0.000    0.000    0.000    0.000 
#
# Total GULP energy -155936.534300 kJ/mol
# GULP energy per Si atom -5569.161939 kJ/mol
# Density = 2.168997 g / cm^3
# Si number density = 21.739453 Si / 1000 Ang^3
#
#
#
# Elastic Constant Matrix: (Units=GPa)
#
#
# Indices 1 2 3 4 5 6 
#
# 1 78.7541 -6.0748 17.7870 0.0000 0.0000 0.0000
# 2 -6.0748 32.1752 18.8436 0.0000 0.0000 0.0000
# 3 17.7870 18.8436 104.2071 0.0000 0.0000 0.0000
# 4 0.0000 0.0000 0.0000 26.1287 0.0000 0.0000
# 5 0.0000 0.0000 0.0000 0.0000 98.3861 0.0000
# 6 0.0000 0.0000 0.0000 0.0000 0.0000 36.8129
#
#
#
# Elastic Compliance Matrix: (Units=1/GPa)
#
#
# Indices 1 2 3 4 5 6 
#
# 1 0.013752 0.004441 -0.003150 0.000000 0.000000 0.000000
# 2 0.004441 0.036196 -0.007303 0.000000 0.000000 0.000000
# 3 -0.003150 -0.007303 0.011455 0.000000 0.000000 0.000000
# 4 0.000000 0.000000 0.000000 0.038272 0.000000 0.000000
# 5 0.000000 0.000000 0.000000 0.000000 0.010164 0.000000
# 6 0.000000 0.000000 0.000000 0.000000 0.000000 0.027164
#
#
# Mechanical properties :
#
#
# Convention : Reuss Voigt Hill
#
# Bulk Modulus (GPa) = 20.25207 30.69423 25.47315
# Shear Modulus (GPa) = 30.21393 44.57091 37.39242
#
# Velocity S-wave (km/s) = 3.73207 4.53286 4.15182
# Velocity P-wave (km/s) = 5.28273 6.44558 5.89291
#
# Compressibility (1/GPa) = 0.04937768
#
# Stress axis : x y z
#
# Youngs Moduli (GPa) = 72.71730 27.62761 87.30067
#
# Poissons Ratio (x) = -0.12271 0.27504
# Poissons Ratio (y) = -0.32297 0.63759
# Poissons Ratio (z) = 0.22909 0.20177
#
# Static dielectric constant tensor:
#      x y z
#    x 1.811890 0.000000 0.000000 
#    y 0.000000 1.814460 0.000000 
#    z 0.000000 0.000000 1.626090 
# 
# From -- ./inp_files/38741.got.cif
#   From: 2010.05.17/outbox.cif.g08.bks.cpg/sg24_20_cif.got.tgz:38741.got - 2010.06.04 00:33:39.
