data_PCOD9336078
_publ_section_title
;
Structure prediction by ZEFSAII (Michael W. Deem and Ramdas Pophale) SiO2 
 PCOD9336078
Probable space group: I 21 21 21
;
_chemical_formula_sum "Si O2"
_cell_formula_units_Z 60
_cell_length_a 11.984050
_cell_length_b 28.811711
_cell_length_c 8.416786
_cell_angle_alpha 90.000000
_cell_angle_beta 90.000000
_cell_angle_gamma 90.000000
_cell_volume 2906.156162
_symmetry_space_group_name_H-M "I 21 21 21"
_symmetry_group_IT_number 24
_symmetry_cell_setting 'orthorhombic'
loop_
_space_group_symop_operation_xyz
x,y,z
-x,1/2-y,z
x,-y,1/2-z
1/2-x,y,-z
1/2+x,1/2+y,1/2+z
1/2-x,-y,1/2+z
1/2+x,1/2-y,-z
-x,1/2+y,1/2-z
loop_
_atom_site_type_symbol
_atom_site_label
_atom_site_fract_x
_atom_site_fract_y
_atom_site_fract_z
Si Si1 0.876099 0.998919 0.940482
Si Si2 0.250000 0.665231 0.000000
Si Si3 0.876480 0.897636 0.560838
Si Si4 0.823323 0.753063 0.361904
Si Si5 0.929306 0.101288 0.568086
Si Si6 0.123322 0.840674 0.037395
Si Si7 0.376658 0.249272 0.348033
Si Si8 0.006883 0.175786 0.144014
O O1 0.940727 0.952024 0.984611
O O2 0.874954 0.000000 0.750000
O O3 0.913620 0.050262 0.991395
O O4 0.750000 0.992539 0.000000
O O5 0.345755 0.628621 0.949356
O O6 0.325820 0.700792 0.103607
O O7 0.750000 0.891403 0.500000
O O8 0.879256 0.896185 0.753074
O O9 0.955655 0.859240 0.482504
O O10 0.750000 0.776024 0.500000
O O11 0.727319 0.730625 0.253531
O O12 0.903940 0.792354 0.290475
O O13 0.904664 0.712985 0.424384
O O14 0.044253 0.128630 0.572526
O O15 0.075092 0.847582 0.213278
O O16 0.250000 0.852466 0.000000
O O17 0.107507 0.786133 0.993890
O O18 0.500000 0.250000 0.272242
#
# Coordination Sequence:
#
# PCOD9336078 Si02
#       8
#     8   4   8   8   8   8   8   8
#     4   9  19  39  62  96 131 162 200 265 332 390
#     4  12  22  34  62  90 120 160 212 250 320 374
#     4  10  24  40  65  98 135 162 206 263 335 396
#     4  11  26  40  61  87 133 170 215 257 317 390
#     4  11  24  38  67  94 128 166 210 263 325 388
#     4  12  25  43  63  89 123 174 226 267 308 378
#     4  12  25  38  59  86 126 165 214 264 315 363
#     4  11  25  42  63  91 130 172 211 268 317 377
#
# _framework density 20.645828999999999
#
# number of rings (size 3 to 8) (size 9 to 14) (size 15 to 20)
#    0.000    1.067    4.000    1.200   11.200    1.067 
#    0.000    0.000    0.000    5.600    0.000    0.000 
#    0.000    0.000    0.000    0.000    0.000    0.000 
#
# Total GULP energy -167380.455915 kJ/mol
# GULP energy per Si atom -5579.348531 kJ/mol
# Density = 2.059884 g / cm^3
# Si number density = 20.645829 Si / 1000 Ang^3
#
#
#
# Elastic Constant Matrix: (Units=GPa)
#
#
# Indices 1 2 3 4 5 6 
#
# 1 156.5431 58.1843 28.2446 0.0005 0.0002 0.0000
# 2 58.1843 142.2370 21.0798 0.0009 -0.0001 -0.0003
# 3 28.2446 21.0798 41.2733 0.0035 0.0012 -0.0012
# 4 0.0005 0.0009 0.0035 23.5194 -0.0005 -0.0004
# 5 0.0002 -0.0001 0.0012 -0.0005 35.0642 0.0001
# 6 0.0000 -0.0003 -0.0012 -0.0004 0.0001 22.0704
#
#
#
# Elastic Compliance Matrix: (Units=1/GPa)
#
#
# Indices 1 2 3 4 5 6 
#
# 1 0.008153 -0.002714 -0.004194 0.000001 0.000000 0.000000
# 2 -0.002714 0.008509 -0.002489 0.000000 0.000000 0.000000
# 3 -0.004194 -0.002489 0.028370 -0.000004 -0.000001 0.000002
# 4 0.000001 0.000000 -0.000004 0.042518 0.000001 0.000001
# 5 0.000000 0.000000 -0.000001 0.000001 0.028519 0.000000
# 6 0.000000 0.000000 0.000002 0.000001 0.000000 0.045310
#
#
# Mechanical properties :
#
#
# Convention : Reuss Voigt Hill
#
# Bulk Modulus (GPa) = 38.10988 61.67453 49.89221
# Shear Modulus (GPa) = 26.46642 31.63377 29.05010
#
# Velocity S-wave (km/s) = 3.58428 3.91859 3.75516
# Velocity P-wave (km/s) = 5.96895 7.10009 6.55895
#
# Compressibility (1/GPa) = 0.02623991
#
# Stress axis : x y z
#
# Youngs Moduli (GPa) = 122.64978 117.51576 35.24883
#
# Poissons Ratio (x) = 0.31891 0.14782
# Poissons Ratio (y) = 0.33284 0.08773
# Poissons Ratio (z) = 0.51434 0.29250
#
# Static dielectric constant tensor:
#      x y z
#    x 1.722900 0.000000 0.000000 
#    y 0.000000 1.762590 0.000000 
#    z 0.000000 0.000000 1.844950 
# 
# From -- ./inp_files/11611.got.cif
#   From: 2010.05.17/outbox.cif.g08.bks.cpg/sg24_6_cif.got.tgz:11611.got - 2010.06.04 00:33:39.
