data_PCOD9336178
_publ_section_title
;
Structure prediction by ZEFSAII (Michael W. Deem and Ramdas Pophale) SiO2 
 PCOD9336178
Probable space group: I 21 21 21
;
_chemical_formula_sum "Si O2"
_cell_formula_units_Z 20
_cell_length_a 9.856645
_cell_length_b 14.571568
_cell_length_c 5.310074
_cell_angle_alpha 90.000000
_cell_angle_beta 90.000000
_cell_angle_gamma 90.000000
_cell_volume 762.668792
_symmetry_space_group_name_H-M "I 21 21 21"
_symmetry_group_IT_number 24
_symmetry_cell_setting 'orthorhombic'
loop_
_space_group_symop_operation_xyz
x,y,z
-x,1/2-y,z
x,-y,1/2-z
1/2-x,y,-z
1/2+x,1/2+y,1/2+z
1/2-x,-y,1/2+z
1/2+x,1/2-y,-z
-x,1/2+y,1/2-z
loop_
_atom_site_type_symbol
_atom_site_label
_atom_site_fract_x
_atom_site_fract_y
_atom_site_fract_z
Si Si1 0.750000 0.619238 0.000000
Si Si2 0.450486 0.445179 0.506112
Si Si3 0.355171 0.281278 0.189921
O O1 0.781726 0.688531 0.773942
O O2 0.887467 0.564373 0.037867
O O3 0.425994 0.500000 0.250000
O O4 0.393725 0.344469 0.431391
O O5 0.398891 0.500000 0.750000
O O6 0.500000 0.250000 0.074395
O O7 0.250000 0.328081 0.000000
#
# Coordination Sequence:
#
# PCOD9336178 Si02
#       3
#     4   8   8
#     4  10  24  44  78 108 150 206 258 308 372 470
#     4  11  26  47  75 115 152 199 250 322 384 443
#     4  10  25  46  81 113 152 205 256 314 379 465
#
# _framework density 26.223704000000001
#
# number of rings (size 3 to 8) (size 9 to 14) (size 15 to 20)
#    0.000    1.600    0.000    1.200   16.800    1.600 
#    3.600    0.000    0.000    0.000    0.000    0.000 
#    0.000    0.000    0.000    0.000    0.000    0.000 
#
# Total GULP energy -56014.637752 kJ/mol
# GULP energy per Si atom -5601.463775 kJ/mol
# Density = 2.616402 g / cm^3
# Si number density = 26.223704 Si / 1000 Ang^3
#
#
#
# Elastic Constant Matrix: (Units=GPa)
#
#
# Indices 1 2 3 4 5 6 
#
# 1 196.2976 26.3328 67.0526 0.0000 0.0000 0.0000
# 2 26.3328 90.6647 71.3320 0.0000 0.0000 0.0000
# 3 67.0526 71.3320 183.6180 0.0000 0.0000 0.0000
# 4 0.0000 0.0000 0.0000 46.9469 0.0000 0.0000
# 5 0.0000 0.0000 0.0000 0.0000 34.9972 0.0000
# 6 0.0000 0.0000 0.0000 0.0000 0.0000 27.5594
#
#
#
# Elastic Compliance Matrix: (Units=1/GPa)
#
#
# Indices 1 2 3 4 5 6 
#
# 1 0.005820 -0.000026 -0.002115 0.000000 0.000000 0.000000
# 2 -0.000026 0.015885 -0.006161 0.000000 0.000000 0.000000
# 3 -0.002115 -0.006161 0.008612 0.000000 0.000000 0.000000
# 4 0.000000 0.000000 0.000000 0.021301 0.000000 0.000000
# 5 0.000000 0.000000 0.000000 0.000000 0.028574 0.000000
# 6 0.000000 0.000000 0.000000 0.000000 0.000000 0.036285
#
#
# Mechanical properties :
#
#
# Convention : Reuss Voigt Hill
#
# Bulk Modulus (GPa) = 72.93122 88.89056 80.91089
# Shear Modulus (GPa) = 36.32319 42.29157 39.30738
#
# Velocity S-wave (km/s) = 3.72577 4.02023 3.87580
# Velocity P-wave (km/s) = 6.81029 7.45119 7.13794
#
# Compressibility (1/GPa) = 0.01371155
#
# Stress axis : x y z
#
# Youngs Moduli (GPa) = 171.81048 62.95318 116.11596
#
# Poissons Ratio (x) = 0.00165 0.24561
# Poissons Ratio (y) = 0.00451 0.71543
# Poissons Ratio (z) = 0.36342 0.38788
#
# Static dielectric constant tensor:
#      x y z
#    x 2.070000 0.000000 0.000000 
#    y 0.000000 2.094430 0.000000 
#    z 0.000000 0.000000 2.069370 
# 
# From -- ./inp_files/641.got.cif
#   From: 2010.05.17/outbox.cif.g08.bks.cpg/sg24_1_cif.got.tgz:641.got - 2010.06.04 00:33:39.
