data_PCOD9336481
_publ_section_title
;
Structure prediction by ZEFSAII (Michael W. Deem and Ramdas Pophale) SiO2 
 PCOD9336481
Probable space group: I 21 21 21
;
_chemical_formula_sum "Si O2"
_cell_formula_units_Z 32
_cell_length_a 10.709111
_cell_length_b 17.718133
_cell_length_c 7.758389
_cell_angle_alpha 90.000000
_cell_angle_beta 90.000000
_cell_angle_gamma 90.000000
_cell_volume 1472.119035
_symmetry_space_group_name_H-M "I 21 21 21"
_symmetry_group_IT_number 24
_symmetry_cell_setting 'orthorhombic'
loop_
_space_group_symop_operation_xyz
x,y,z
-x,1/2-y,z
x,-y,1/2-z
1/2-x,y,-z
1/2+x,1/2+y,1/2+z
1/2-x,-y,1/2+z
1/2+x,1/2-y,-z
-x,1/2+y,1/2-z
loop_
_atom_site_type_symbol
_atom_site_label
_atom_site_fract_x
_atom_site_fract_y
_atom_site_fract_z
Si Si1 0.028264 0.912592 0.299920
Si Si2 0.386087 0.807365 0.993516
Si Si3 0.755379 0.087963 0.706035
Si Si4 0.504211 0.338793 0.150957
O O1 0.881438 0.892170 0.275910
O O2 0.055181 0.889247 0.495427
O O3 0.106627 0.864890 0.163611
O O4 0.040296 0.000000 0.250000
O O5 0.500000 0.750000 0.970912
O O6 0.250000 0.770478 0.000000
O O7 0.413339 0.846038 0.176890
O O8 0.750000 0.094899 0.500000
O O9 0.865579 0.135445 0.792284
O O10 0.779509 0.000000 0.750000
O O11 0.500000 0.250000 0.102020
#
# Coordination Sequence:
#
# PCOD9336481 Si02
#       4
#     8   8   8   8
#     4  11  24  46  72 104 142 191 239 300 357 428
#     4  11  27  48  73 107 145 190 237 297 362 428
#     4  11  21  41  74 109 145 183 243 304 356 422
#     4  11  25  42  68 107 144 187 238 296 360 422
#
# _framework density 21.737372000000001
#
# number of rings (size 3 to 8) (size 9 to 14) (size 15 to 20)
#    0.000    1.000    2.500    4.500    7.000    1.000 
#   13.500    0.000    0.000    0.000    0.000    0.000 
#    0.000    0.000    0.000    0.000    0.000    0.000 
#
# Total GULP energy -89567.553895 kJ/mol
# GULP energy per Si atom -5597.972118 kJ/mol
# Density = 2.168790 g / cm^3
# Si number density = 21.737372 Si / 1000 Ang^3
#
#
#
# Elastic Constant Matrix: (Units=GPa)
#
#
# Indices 1 2 3 4 5 6 
#
# 1 103.9129 49.9029 -3.5838 0.0000 -0.0001 0.0000
# 2 49.9029 90.1605 51.3688 -0.0002 0.0000 0.0000
# 3 -3.5838 51.3688 140.5078 -0.0012 0.0000 0.0000
# 4 0.0000 -0.0002 -0.0012 33.4170 0.0001 0.0000
# 5 -0.0001 0.0000 0.0000 0.0001 -10.0026 0.0000
# 6 0.0000 0.0000 0.0000 0.0000 0.0000 35.1853
#
#
#
# Elastic Compliance Matrix: (Units=1/GPa)
#
#
# Indices 1 2 3 4 5 6 
#
# 1 0.014908 -0.010696 0.004291 0.000000 0.000000 0.000000
# 2 -0.010696 0.021684 -0.008200 0.000000 0.000000 0.000000
# 3 0.004291 -0.008200 0.010224 0.000000 0.000000 0.000000
# 4 0.000000 0.000000 0.000000 0.029925 0.000000 0.000000
# 5 0.000000 0.000000 0.000000 0.000000 -0.099974 0.000000
# 6 0.000000 0.000000 0.000000 0.000000 0.000000 0.028421
#
#
# Mechanical properties :
#
#
# Convention : Reuss Voigt Hill
#
# Bulk Modulus (GPa) = 56.80250 58.88413 57.84332
# Shear Modulus (GPa) = 124.16896 27.51283 75.84089
#
# Velocity S-wave (km/s) = 7.56613 3.56152 5.91315
# Velocity P-wave (km/s) = 10.12504 6.63779 8.56086
#
# Compressibility (1/GPa) = 0.01760486
#
# Stress axis : x y z
#
# Youngs Moduli (GPa) = 67.07764 46.11789 97.80502
#
# Poissons Ratio (x) = 0.49328 -0.41965
# Poissons Ratio (y) = 0.71747 0.80202
# Poissons Ratio (z) = -0.28781 0.37818
#
# Static dielectric constant tensor:
#      x y z
#    x 1.792790 0.000000 0.000000 
#    y 0.000000 1.794350 0.000000 
#    z 0.000000 0.000000 1.815000 
# 
# From -- ./inp_files/10379.got.cif
#   From: 2010.05.17/outbox.cif.g08.bks.cpg/sg24_6_cif.got.tgz:10379.got - 2010.06.04 00:33:39.
