data_PCOD9336705
_publ_section_title
;
Structure prediction by ZEFSAII (Michael W. Deem and Ramdas Pophale) SiO2 
 PCOD9336705
Probable space group: I 21 21 21
;
_chemical_formula_sum "Si O2"
_cell_formula_units_Z 48
_cell_length_a 16.939992
_cell_length_b 16.026721
_cell_length_c 7.878428
_cell_angle_alpha 90.000000
_cell_angle_beta 90.000000
_cell_angle_gamma 90.000000
_cell_volume 2138.934315
_symmetry_space_group_name_H-M "I 21 21 21"
_symmetry_group_IT_number 24
_symmetry_cell_setting 'orthorhombic'
loop_
_space_group_symop_operation_xyz
x,y,z
-x,1/2-y,z
x,-y,1/2-z
1/2-x,y,-z
1/2+x,1/2+y,1/2+z
1/2-x,-y,1/2+z
1/2+x,1/2-y,-z
-x,1/2+y,1/2-z
loop_
_atom_site_type_symbol
_atom_site_label
_atom_site_fract_x
_atom_site_fract_y
_atom_site_fract_z
Si Si1 0.032371 0.410750 0.039864
Si Si2 0.990386 0.403648 0.411193
Si Si3 0.729989 0.259269 0.198395
Si Si4 0.553378 0.325793 0.233877
Si Si5 0.192411 0.915571 0.156460
Si Si6 0.309986 0.584572 0.350097
O O1 0.020701 0.371170 0.227229
O O2 0.037485 0.510701 0.060040
O O3 0.110723 0.383220 0.941798
O O4 0.959725 0.394742 0.911566
O O5 0.985630 0.351149 0.585000
O O6 0.899077 0.426223 0.383022
O O7 0.644880 0.300432 0.241831
O O8 0.795043 0.324969 0.260098
O O9 0.724813 0.162678 0.257281
O O10 0.750000 0.251481 0.000000
O O11 0.500000 0.250000 0.169037
O O12 0.217630 0.000000 0.250000
O O13 0.250000 0.911489 0.000000
O O14 0.326439 0.500000 0.250000
O O15 0.250000 0.562981 0.500000
#
# Coordination Sequence:
#
# PCOD9336705 Si02
#       6
#     8   8   8   8   8   8
#     4  11  24  46  72 103 143 183 241 307 364 444
#     4  11  25  44  73 109 139 185 244 298 378 445
#     4  11  25  45  69 101 145 192 245 297 370 442
#     4  12  24  44  69 104 143 194 236 298 369 440
#     4  12  24  42  68 106 146 188 231 294 372 456
#     4  11  26  49  73 103 138 198 251 313 377 432
#
# _framework density 22.441082999999999
#
# number of rings (size 3 to 8) (size 9 to 14) (size 15 to 20)
#    0.000    0.667    5.000    3.000    4.667    1.333 
#    6.000    0.000    0.000    0.000    0.000    0.000 
#    0.000    0.000    0.000    0.000    0.000    0.000 
#
# Total GULP energy -133971.647040 kJ/mol
# GULP energy per Si atom -5582.151960 kJ/mol
# Density = 2.239001 g / cm^3
# Si number density = 22.441083 Si / 1000 Ang^3
#
#
#
# Elastic Constant Matrix: (Units=GPa)
#
#
# Indices 1 2 3 4 5 6 
#
# 1 51.4043 0.2261 -1.1947 0.0000 0.0000 0.0000
# 2 0.2261 92.1188 43.6709 0.0000 0.0000 0.0000
# 3 -1.1947 43.6709 93.7887 0.0000 0.0000 0.0000
# 4 0.0000 0.0000 0.0000 -0.3320 0.0000 0.0000
# 5 0.0000 0.0000 0.0000 0.0000 29.2608 0.0000
# 6 0.0000 0.0000 0.0000 0.0000 0.0000 41.4881
#
#
#
# Elastic Compliance Matrix: (Units=1/GPa)
#
#
# Indices 1 2 3 4 5 6 
#
# 1 0.019463 -0.000212 0.000347 0.000000 0.000000 0.000000
# 2 -0.000212 0.013933 -0.006490 0.000000 0.000000 0.000000
# 3 0.000347 -0.006490 0.013689 0.000000 0.000000 0.000000
# 4 0.000000 0.000000 0.000000 -3.012207 0.000000 0.000000
# 5 0.000000 0.000000 0.000000 0.000000 0.034175 0.000000
# 6 0.000000 0.000000 0.000000 0.000000 0.000000 0.024103
#
#
# Mechanical properties :
#
#
# Convention : Reuss Voigt Hill
#
# Bulk Modulus (GPa) = 29.09274 35.85737 32.47506
# Shear Modulus (GPa) = -1.73450 27.05736 12.66143
#
# Velocity S-wave (km/s) = -0.88011 3.47610 2.37788
# Velocity P-wave (km/s) = 3.45824 5.66781 4.69487
#
# Compressibility (1/GPa) = 0.03437284
#
# Stress axis : x y z
#
# Youngs Moduli (GPa) = 51.38060 71.77239 73.05257
#
# Poissons Ratio (x) = 0.01522 -0.02533
# Poissons Ratio (y) = 0.01090 0.47413
# Poissons Ratio (z) = -0.01781 0.46582
#
# Static dielectric constant tensor:
#      x y z
#    x 1.808300 0.000000 0.000000 
#    y 0.000000 5.251120 0.000000 
#    z 0.000000 0.000000 1.895540 
# 
# From -- ./inp_files/14187.got.cif
#   From: 2010.05.17/outbox.cif.g08.bks.cpg/sg24_8_cif.got.tgz:14187.got - 2010.06.04 00:33:39.
