data_PCOD9336875
_publ_section_title
;
Structure prediction by ZEFSAII (Michael W. Deem and Ramdas Pophale) SiO2 
 PCOD9336875
Probable space group: I 21 21 21
;
_chemical_formula_sum "Si O2"
_cell_formula_units_Z 40
_cell_length_a 8.636311
_cell_length_b 10.995697
_cell_length_c 20.516919
_cell_angle_alpha 90.000000
_cell_angle_beta 90.000000
_cell_angle_gamma 90.000000
_cell_volume 1948.332975
_symmetry_space_group_name_H-M "I 21 21 21"
_symmetry_group_IT_number 24
_symmetry_cell_setting 'orthorhombic'
loop_
_space_group_symop_operation_xyz
x,y,z
-x,1/2-y,z
x,-y,1/2-z
1/2-x,y,-z
1/2+x,1/2+y,1/2+z
1/2-x,-y,1/2+z
1/2+x,1/2-y,-z
-x,1/2+y,1/2-z
loop_
_atom_site_type_symbol
_atom_site_label
_atom_site_fract_x
_atom_site_fract_y
_atom_site_fract_z
Si Si1 0.497974 0.502500 0.125922
Si Si2 0.067329 0.377998 0.500227
Si Si3 0.232584 0.310455 0.701209
Si Si4 0.646852 0.411923 0.627110
Si Si5 0.000000 0.750000 0.698344
Si Si6 0.467975 0.500000 0.750000
O O1 0.448477 0.513310 0.051324
O O2 0.390675 0.598995 0.166241
O O3 0.679256 0.536619 0.121822
O O4 0.474156 0.370951 0.157120
O O5 0.250000 0.355722 0.500000
O O6 0.000000 0.250000 0.526743
O O7 0.966057 0.408276 0.435752
O O8 0.321749 0.226876 0.649960
O O9 0.141956 0.227382 0.752466
O O10 0.354607 0.385740 0.743314
O O11 0.567627 0.488867 0.684776
#
# Coordination Sequence:
#
# PCOD9336875 Si02
#       6
#     8   8   8   8   4   4
#     4  12  24  44  70  99 137 187 232 290 354 433
#     4  12  25  44  71 101 138 180 236 297 358 423
#     4  12  23  43  72 103 139 182 237 296 354 421
#     4  12  25  43  71 105 139 184 237 295 359 419
#     4  12  24  42  72  98 140 184 234 282 370 422
#     4  12  24  38  66 106 142 172 224 290 356 422
#
# _framework density 20.530370999999999
#
# number of rings (size 3 to 8) (size 9 to 14) (size 15 to 20)
#    0.000    0.000    4.000    8.400    0.000    0.000 
#    0.000    2.000    4.400    0.000    0.000    0.000 
#    0.000    0.000    0.000    0.000    0.000    0.000 
#
# Total GULP energy -111768.986828 kJ/mol
# GULP energy per Si atom -5588.449341 kJ/mol
# Density = 2.048364 g / cm^3
# Si number density = 20.530371 Si / 1000 Ang^3
#
#
#
# Elastic Constant Matrix: (Units=GPa)
#
#
# Indices 1 2 3 4 5 6 
#
# 1 149.2515 36.2038 48.0864 0.0000 0.0000 0.0000
# 2 36.2038 78.7710 67.7947 0.0000 0.0000 0.0000
# 3 48.0864 67.7947 121.9484 0.0000 0.0000 0.0000
# 4 0.0000 0.0000 0.0000 38.5027 0.0000 0.0000
# 5 0.0000 0.0000 0.0000 0.0000 33.8261 0.0000
# 6 0.0000 0.0000 0.0000 0.0000 0.0000 36.0898
#
#
#
# Elastic Compliance Matrix: (Units=1/GPa)
#
#
# Indices 1 2 3 4 5 6 
#
# 1 0.007806 -0.001800 -0.002078 0.000000 0.000000 0.000000
# 2 -0.001800 0.024756 -0.013053 0.000000 0.000000 0.000000
# 3 -0.002078 -0.013053 0.016276 0.000000 0.000000 0.000000
# 4 0.000000 0.000000 0.000000 0.025972 0.000000 0.000000
# 5 0.000000 0.000000 0.000000 0.000000 0.029563 0.000000
# 6 0.000000 0.000000 0.000000 0.000000 0.000000 0.027709
#
#
# Mechanical properties :
#
#
# Convention : Reuss Voigt Hill
#
# Bulk Modulus (GPa) = 66.76591 72.68230 69.72410
# Shear Modulus (GPa) = 29.25073 34.87611 32.06342
#
# Velocity S-wave (km/s) = 3.77869 4.12607 3.95619
# Velocity P-wave (km/s) = 7.18534 7.62748 7.40971
#
# Compressibility (1/GPa) = 0.01497770
#
# Stress axis : x y z
#
# Youngs Moduli (GPa) = 128.10669 40.39344 61.43975
#
# Poissons Ratio (x) = 0.07269 0.12765
# Poissons Ratio (y) = 0.23054 0.80199
# Poissons Ratio (z) = 0.26615 0.52727
#
# Static dielectric constant tensor:
#      x y z
#    x 1.821180 0.000000 0.000000 
#    y 0.000000 1.729610 0.000000 
#    z 0.000000 0.000000 1.754380 
# 
# From -- ./inp_files/10735.got.cif
#   From: 2010.05.17/outbox.cif.g08.bks.cpg/sg24_6_cif.got.tgz:10735.got - 2010.06.04 00:33:39.
