data_PCOD9336066
_publ_section_title
;
Structure prediction by ZEFSAII (Michael W. Deem and Ramdas Pophale) SiO2 
 PCOD9336066
Probable space group: I 21 21 21
;
_chemical_formula_sum "Si O2"
_cell_formula_units_Z 40
_cell_length_a 9.423423
_cell_length_b 22.272833
_cell_length_c 9.617991
_cell_angle_alpha 90.000000
_cell_angle_beta 90.000000
_cell_angle_gamma 90.000000
_cell_volume 2018.684802
_symmetry_space_group_name_H-M "I 21 21 21"
_symmetry_group_IT_number 24
_symmetry_cell_setting 'orthorhombic'
loop_
_space_group_symop_operation_xyz
x,y,z
-x,1/2-y,z
x,-y,1/2-z
1/2-x,y,-z
1/2+x,1/2+y,1/2+z
1/2-x,-y,1/2+z
1/2+x,1/2-y,-z
-x,1/2+y,1/2-z
loop_
_atom_site_type_symbol
_atom_site_label
_atom_site_fract_x
_atom_site_fract_y
_atom_site_fract_z
Si Si1 0.000000 0.250000 0.310483
Si Si2 0.205110 0.660829 0.354165
Si Si3 0.099589 0.857680 0.020788
Si Si4 0.982694 0.678055 0.711060
Si Si5 0.480132 0.930348 0.714826
Si Si6 0.750000 0.621815 0.500000
O O1 0.104677 0.291496 0.222011
O O2 0.098446 0.206913 0.402768
O O3 0.250000 0.688525 0.500000
O O4 0.360163 0.649550 0.294864
O O5 0.113909 0.600021 0.363229
O O6 0.018956 0.897960 0.133420
O O7 0.250000 0.888362 0.000000
O O8 0.059858 0.842486 0.864490
O O9 0.868280 0.657694 0.593224
O O10 0.000000 0.750000 0.703679
O O11 0.343949 0.913748 0.616980
O O12 0.488097 0.000000 0.750000
#
# Coordination Sequence:
#
# PCOD9336066 Si02
#       6
#     4   8   8   8   8   4
#     4  10  24  38  66  98 144 174 220 272 352 416
#     4  11  25  44  67 105 139 180 228 287 345 413
#     4  11  22  43  65 101 134 174 226 279 339 414
#     4  12  26  41  73 105 143 183 222 280 358 419
#     4  11  27  48  70  95 139 181 239 289 332 399
#     4  12  26  44  70 106 132 184 236 276 354 412
#
# _framework density 19.814879999999999
#
# number of rings (size 3 to 8) (size 9 to 14) (size 15 to 20)
#    0.000    0.800    5.000    1.200    7.000    2.400 
#    3.600    1.000    0.000    0.000    0.000    0.000 
#    0.000    0.000    0.000    0.000    0.000    0.000 
#
# Total GULP energy -111378.243910 kJ/mol
# GULP energy per Si atom -5568.912195 kJ/mol
# Density = 1.976978 g / cm^3
# Si number density = 19.814880 Si / 1000 Ang^3
#
#
#
# Elastic Constant Matrix: (Units=GPa)
#
#
# Indices 1 2 3 4 5 6 
#
# 1 135.3466 42.4425 48.0134 0.0000 0.0000 0.0000
# 2 42.4425 109.0493 45.3619 -0.0003 0.0000 0.0000
# 3 48.0134 45.3619 140.2187 0.0005 -0.0006 -0.0001
# 4 0.0000 -0.0003 0.0005 49.9493 0.0001 0.0000
# 5 0.0000 0.0000 -0.0006 0.0001 27.2123 0.0000
# 6 0.0000 0.0000 -0.0001 0.0000 0.0000 16.0695
#
#
#
# Elastic Compliance Matrix: (Units=1/GPa)
#
#
# Indices 1 2 3 4 5 6 
#
# 1 0.008990 -0.002563 -0.002249 0.000000 0.000000 0.000000
# 2 -0.002563 0.011327 -0.002787 0.000000 0.000000 0.000000
# 3 -0.002249 -0.002787 0.008803 0.000000 0.000000 0.000000
# 4 0.000000 0.000000 0.000000 0.020020 0.000000 0.000000
# 5 0.000000 0.000000 0.000000 0.000000 0.036748 0.000000
# 6 0.000000 0.000000 0.000000 0.000000 0.000000 0.062230
#
#
# Mechanical properties :
#
#
# Convention : Reuss Voigt Hill
#
# Bulk Modulus (GPa) = 71.82764 72.91668 72.37216
# Shear Modulus (GPa) = 29.76943 35.23268 32.50105
#
# Velocity S-wave (km/s) = 3.88026 4.22132 4.05437
# Velocity P-wave (km/s) = 7.51021 7.78705 7.64988
#
# Compressibility (1/GPa) = 0.01392222
#
# Stress axis : x y z
#
# Youngs Moduli (GPa) = 111.23288 88.28431 113.59327
#
# Poissons Ratio (x) = 0.22631 0.25548
# Poissons Ratio (y) = 0.28514 0.31654
# Poissons Ratio (z) = 0.25017 0.24601
#
# Static dielectric constant tensor:
#      x y z
#    x 0.758790 0.000000 0.000000 
#    y 0.000000 1.688520 0.000000 
#    z 0.000000 0.000000 1.496070 
# 
# From -- ./inp_files/9314.got.cif
#   From: 2010.05.17/outbox.cif.g08.bks.cpg/sg24_5_cif.got.tgz:9314.got - 2010.06.04 00:33:39.
