data_PCOD9336665
_publ_section_title
;
Structure prediction by ZEFSAII (Michael W. Deem and Ramdas Pophale) SiO2 
 PCOD9336665
Probable space group: I 21 21 21
;
_chemical_formula_sum "Si O2"
_cell_formula_units_Z 40
_cell_length_a 9.284625
_cell_length_b 26.536837
_cell_length_c 7.332160
_cell_angle_alpha 90.000000
_cell_angle_beta 90.000000
_cell_angle_gamma 90.000000
_cell_volume 1806.531164
_symmetry_space_group_name_H-M "I 21 21 21"
_symmetry_group_IT_number 24
_symmetry_cell_setting 'orthorhombic'
loop_
_space_group_symop_operation_xyz
x,y,z
-x,1/2-y,z
x,-y,1/2-z
1/2-x,y,-z
1/2+x,1/2+y,1/2+z
1/2-x,-y,1/2+z
1/2+x,1/2-y,-z
-x,1/2+y,1/2-z
loop_
_atom_site_type_symbol
_atom_site_label
_atom_site_fract_x
_atom_site_fract_y
_atom_site_fract_z
Si Si1 0.380774 0.206444 0.640056
Si Si2 0.750000 0.883608 0.500000
Si Si3 0.887873 0.875135 0.131201
Si Si4 0.750000 0.344160 0.000000
Si Si5 0.463949 0.066252 0.095424
Si Si6 0.085399 0.041067 0.489247
O O1 0.500000 0.250000 0.665010
O O2 0.250000 0.218423 0.500000
O O3 0.482433 0.161043 0.567552
O O4 0.309215 0.188553 0.830847
O O5 0.824353 0.856681 0.326614
O O6 0.627101 0.919842 0.431346
O O7 0.750000 0.876973 0.000000
O O8 0.971989 0.928721 0.135087
O O9 0.626281 0.383139 0.061698
O O10 0.458780 0.050910 0.304235
O O11 0.413666 0.019521 0.969551
O O12 0.250000 0.059749 0.500000
#
# Coordination Sequence:
#
# PCOD9336665 Si02
#       6
#     8   4   8   4   8   8
#     4  12  29  52  82 111 148 190 255 322 390 460
#     4  12  26  41  68 104 148 188 253 294 364 444
#     4  12  25  46  73 103 148 197 247 312 379 440
#     4  12  24  51  76 110 152 198 245 316 382 460
#     4  11  24  42  69 105 150 199 251 305 364 458
#     4  11  24  41  69 104 149 206 251 305 373 444
#
# _framework density 22.141883
#
# number of rings (size 3 to 8) (size 9 to 14) (size 15 to 20)
#    0.000    0.400    5.000    3.600    1.400    2.400 
#    0.000    0.000    0.000    0.000    0.000    0.000 
#    0.000    0.000    0.000    0.000    0.000    0.000 
#
# Total GULP energy -111681.429260 kJ/mol
# GULP energy per Si atom -5584.071463 kJ/mol
# Density = 2.209149 g / cm^3
# Si number density = 22.141883 Si / 1000 Ang^3
#
#
#
# Elastic Constant Matrix: (Units=GPa)
#
#
# Indices 1 2 3 4 5 6 
#
# 1 189.0003 52.9004 51.3427 -0.0042 0.0014 -0.0071
# 2 52.9004 105.8172 42.2481 -0.0016 0.0022 -0.0029
# 3 51.3427 42.2481 95.3797 -0.0349 0.0130 -0.0271
# 4 -0.0042 -0.0016 -0.0349 43.2062 -0.0083 0.0069
# 5 0.0014 0.0022 0.0130 -0.0083 28.8262 -0.0036
# 6 -0.0071 -0.0029 -0.0271 0.0069 -0.0036 82.1640
#
#
#
# Elastic Compliance Matrix: (Units=1/GPa)
#
#
# Indices 1 2 3 4 5 6 
#
# 1 0.006626 -0.002294 -0.002551 -0.000002 0.000001 0.000000
# 2 -0.002294 0.012275 -0.004202 -0.000003 0.000001 -0.000001
# 3 -0.002551 -0.004202 0.013719 0.000011 -0.000006 0.000004
# 4 -0.000002 -0.000003 0.000011 0.023145 0.000007 -0.000002
# 5 0.000001 0.000001 -0.000006 0.000007 0.034691 0.000002
# 6 0.000000 -0.000001 0.000004 -0.000002 0.000002 0.012171
#
#
# Mechanical properties :
#
#
# Convention : Reuss Voigt Hill
#
# Bulk Modulus (GPa) = 68.84301 75.90883 72.37592
# Shear Modulus (GPa) = 39.82105 47.08634 43.45369
#
# Velocity S-wave (km/s) = 4.24541 4.61648 4.43483
# Velocity P-wave (km/s) = 7.42904 7.92295 7.67997
#
# Compressibility (1/GPa) = 0.01452580
#
# Stress axis : x y z
#
# Youngs Moduli (GPa) = 150.92069 81.46702 72.89306
#
# Poissons Ratio (x) = 0.18690 0.18592
# Poissons Ratio (y) = 0.34624 0.30631
# Poissons Ratio (z) = 0.38493 0.34234
#
# Static dielectric constant tensor:
#      x y z
#    x 1.748330 0.000000 -0.000010 
#    y 0.000000 1.889590 -0.000010 
#    z -0.000010 -0.000010 1.821790 
# 
# From -- ./inp_files/9508.got.cif
#   From: 2010.05.17/outbox.cif.g08.bks.cpg/sg24_5_cif.got.tgz:9508.got - 2010.06.04 00:33:39.
