data_PCOD9336580
_publ_section_title
;
Structure prediction by ZEFSAII (Michael W. Deem and Ramdas Pophale) SiO2 
 PCOD9336580
Probable space group: I 21 21 21
;
_chemical_formula_sum "Si O2"
_cell_formula_units_Z 44
_cell_length_a 25.268218
_cell_length_b 9.097588
_cell_length_c 9.711590
_cell_angle_alpha 90.000000
_cell_angle_beta 90.000000
_cell_angle_gamma 90.000000
_cell_volume 2232.498725
_symmetry_space_group_name_H-M "I 21 21 21"
_symmetry_group_IT_number 24
_symmetry_cell_setting 'orthorhombic'
loop_
_space_group_symop_operation_xyz
x,y,z
-x,1/2-y,z
x,-y,1/2-z
1/2-x,y,-z
1/2+x,1/2+y,1/2+z
1/2-x,-y,1/2+z
1/2+x,1/2-y,-z
-x,1/2+y,1/2-z
loop_
_atom_site_type_symbol
_atom_site_label
_atom_site_fract_x
_atom_site_fract_y
_atom_site_fract_z
Si Si1 0.313660 0.262195 0.480311
Si Si2 0.697184 0.238401 0.035345
Si Si3 0.194757 0.500000 0.750000
Si Si4 0.457949 0.875957 0.646040
Si Si5 0.867402 0.162063 0.235598
Si Si6 0.885212 0.518658 0.597804
O O1 0.250000 0.243629 0.500000
O O2 0.328279 0.383210 0.362550
O O3 0.332859 0.313976 0.629400
O O4 0.346623 0.115550 0.444131
O O5 0.668214 0.173855 0.901430
O O6 0.750000 0.328626 0.000000
O O7 0.718511 0.114681 0.140295
O O8 0.653128 0.339898 0.102950
O O9 0.500000 0.750000 0.607662
O O10 0.410927 0.788601 0.723375
O O11 0.430459 0.951923 0.514621
O O12 0.479015 0.000000 0.750000
O O13 0.891358 0.000000 0.250000
O O14 0.907999 0.500000 0.750000
#
# Coordination Sequence:
#
# PCOD9336580 Si02
#       6
#     8   8   4   8   8   8
#     4  12  24  39  63  96 143 189 224 265 328 398
#     4  11  23  36  58  91 133 179 222 261 321 392
#     4  12  22  36  58  92 130 188 226 266 316 378
#     4  11  24  47  74  99 124 167 225 288 346 397
#     4  11  23  39  63  96 135 173 223 275 322 396
#     4  11  24  45  66  94 135 172 221 275 339 414
#
# _framework density 19.708856999999998
#
# number of rings (size 3 to 8) (size 9 to 14) (size 15 to 20)
#    0.000    0.727    5.455    2.727    2.545    0.000 
#    0.000    0.909    8.000    0.000    0.000    0.000 
#    0.000    0.000    0.000    0.000    0.000    0.000 
#
# Total GULP energy -122618.643260 kJ/mol
# GULP energy per Si atom -5573.574694 kJ/mol
# Density = 1.966400 g / cm^3
# Si number density = 19.708857 Si / 1000 Ang^3
#
#
#
# Elastic Constant Matrix: (Units=GPa)
#
#
# Indices 1 2 3 4 5 6 
#
# 1 81.4484 32.6747 41.5566 0.0000 0.0000 0.0000
# 2 32.6747 107.6643 54.1581 0.0000 0.0000 0.0000
# 3 41.5566 54.1581 138.3516 0.0000 0.0000 0.0000
# 4 0.0000 0.0000 0.0000 36.0239 0.0000 0.0000
# 5 0.0000 0.0000 0.0000 0.0000 6.7220 0.0000
# 6 0.0000 0.0000 0.0000 0.0000 0.0000 23.2075
#
#
#
# Elastic Compliance Matrix: (Units=1/GPa)
#
#
# Indices 1 2 3 4 5 6 
#
# 1 0.015185 -0.002882 -0.003433 0.000000 0.000000 0.000000
# 2 -0.002882 0.012112 -0.003876 0.000000 0.000000 0.000000
# 3 -0.003433 -0.003876 0.009776 0.000000 0.000000 0.000000
# 4 0.000000 0.000000 0.000000 0.027759 0.000000 0.000000
# 5 0.000000 0.000000 0.000000 0.000000 0.148765 0.000000
# 6 0.000000 0.000000 0.000000 0.000000 0.000000 0.043089
#
#
# Mechanical properties :
#
#
# Convention : Reuss Voigt Hill
#
# Bulk Modulus (GPa) = 59.90600 64.91590 62.41095
# Shear Modulus (GPa) = 17.69072 26.46233 22.07653
#
# Velocity S-wave (km/s) = 2.99925 3.66821 3.35047
# Velocity P-wave (km/s) = 6.51579 7.13792 6.83394
#
# Compressibility (1/GPa) = 0.01669282
#
# Stress axis : x y z
#
# Youngs Moduli (GPa) = 65.85260 82.56062 102.28694
#
# Poissons Ratio (x) = 0.23790 0.35118
# Poissons Ratio (y) = 0.18976 0.39645
# Poissons Ratio (z) = 0.22609 0.31999
#
# Static dielectric constant tensor:
#      x y z
#    x 1.667160 0.000000 0.000000 
#    y 0.000000 1.730130 0.000000 
#    z 0.000000 0.000000 1.695430 
# 
# From -- ./inp_files/16732.got.cif
#   From: 2010.05.17/outbox.cif.g08.bks.cpg/sg24_9_cif.got.tgz:16732.got - 2010.06.04 00:33:39.
