data_PCOD9336176
_publ_section_title
;
Structure prediction by ZEFSAII (Michael W. Deem and Ramdas Pophale) SiO2 
 PCOD9336176
Probable space group: I 21 21 21
;
_chemical_formula_sum "Si O2"
_cell_formula_units_Z 48
_cell_length_a 7.529742
_cell_length_b 15.306649
_cell_length_c 16.065655
_cell_angle_alpha 90.000000
_cell_angle_beta 90.000000
_cell_angle_gamma 90.000000
_cell_volume 1851.648960
_symmetry_space_group_name_H-M "I 21 21 21"
_symmetry_group_IT_number 24
_symmetry_cell_setting 'orthorhombic'
loop_
_space_group_symop_operation_xyz
x,y,z
-x,1/2-y,z
x,-y,1/2-z
1/2-x,y,-z
1/2+x,1/2+y,1/2+z
1/2-x,-y,1/2+z
1/2+x,1/2-y,-z
-x,1/2+y,1/2-z
loop_
_atom_site_type_symbol
_atom_site_label
_atom_site_fract_x
_atom_site_fract_y
_atom_site_fract_z
Si Si1 0.187260 0.083563 0.810580
Si Si2 0.954923 0.350600 0.425020
Si Si3 0.927244 0.658836 0.844776
Si Si4 0.960262 0.475113 0.978280
Si Si5 0.210466 0.598850 0.223834
Si Si6 0.051409 0.348275 0.114420
O O1 0.049286 0.057969 0.883057
O O2 0.378468 0.105850 0.845729
O O3 0.141106 0.163276 0.750196
O O4 0.199046 0.000000 0.750000
O O5 0.752942 0.362739 0.600515
O O6 0.062986 0.368783 0.340615
O O7 0.000000 0.250000 0.447202
O O8 0.008224 0.425843 0.491875
O O9 0.105607 0.604046 0.826806
O O10 0.000000 0.750000 0.875191
O O11 0.750000 0.466715 0.000000
O O12 0.074610 0.409255 0.034264
O O13 0.178550 0.500000 0.250000
O O14 0.194410 0.650588 0.311163
O O15 0.000000 0.250000 0.090221
#
# Coordination Sequence:
#
# PCOD9336176 Si02
#       6
#     8   8   8   8   8   8
#     4  11  23  46  75 103 150 207 265 326 395 471
#     4  12  24  49  82 111 159 213 259 320 402 476
#     4  12  24  40  74 121 152 193 267 326 386 469
#     4  10  24  44  76 108 149 211 262 320 400 466
#     4  12  23  40  74 117 155 211 260 319 390 478
#     4  11  21  40  71 107 151 203 263 316 392 475
#
# _framework density 25.922840999999998
#
# number of rings (size 3 to 8) (size 9 to 14) (size 15 to 20)
#    0.000    0.667    5.000    4.500    0.000    1.333 
#    0.000    5.833    7.333    1.000    0.000    0.000 
#    0.000    0.000    0.000    0.000    0.000    0.000 
#
# Total GULP energy -134284.687130 kJ/mol
# GULP energy per Si atom -5595.195297 kJ/mol
# Density = 2.586384 g / cm^3
# Si number density = 25.922841 Si / 1000 Ang^3
#
#
#
# Elastic Constant Matrix: (Units=GPa)
#
#
# Indices 1 2 3 4 5 6 
#
# 1 135.1904 40.0352 58.6335 0.0000 0.0000 0.0000
# 2 40.0352 173.5893 77.7688 0.0000 0.0000 0.0000
# 3 58.6335 77.7688 180.8619 0.0000 0.0000 0.0000
# 4 0.0000 0.0000 0.0000 -30.1492 0.0000 0.0000
# 5 0.0000 0.0000 0.0000 0.0000 27.5646 0.0000
# 6 0.0000 0.0000 0.0000 0.0000 0.0000 28.7330
#
#
#
# Elastic Compliance Matrix: (Units=1/GPa)
#
#
# Indices 1 2 3 4 5 6 
#
# 1 0.008725 -0.000923 -0.002432 0.000000 0.000000 0.000000
# 2 -0.000923 0.007233 -0.002811 0.000000 0.000000 0.000000
# 3 -0.002432 -0.002811 0.007526 0.000000 0.000000 0.000000
# 4 0.000000 0.000000 0.000000 -0.033168 0.000000 0.000000
# 5 0.000000 0.000000 0.000000 0.000000 0.036278 0.000000
# 6 0.000000 0.000000 0.000000 0.000000 0.000000 0.034803
#
#
# Mechanical properties :
#
#
# Convention : Reuss Voigt Hill
#
# Bulk Modulus (GPa) = 89.66208 93.61294 91.63751
# Shear Modulus (GPa) = 64.56149 26.10996 45.33573
#
# Velocity S-wave (km/s) = 4.99593 3.17711 4.18649
# Velocity P-wave (km/s) = 8.24271 7.04622 7.66784
#
# Compressibility (1/GPa) = 0.01115299
#
# Stress axis : x y z
#
# Youngs Moduli (GPa) = 114.61424 138.25829 132.87147
#
# Poissons Ratio (x) = 0.12759 0.32311
# Poissons Ratio (y) = 0.10577 0.37349
# Poissons Ratio (z) = 0.27871 0.38863
#
# Static dielectric constant tensor:
#      x y z
#    x 2.037440 0.000000 0.000000 
#    y 0.000000 2.073410 0.000000 
#    z 0.000000 0.000000 2.117210 
# 
# From -- ./inp_files/24787.got.cif
#   From: 2010.05.17/outbox.cif.g08.bks.cpg/sg24_13_cif.got.tgz:24787.got - 2010.06.04 00:33:39.
