data_PCOD9336441
_publ_section_title
;
Structure prediction by ZEFSAII (Michael W. Deem and Ramdas Pophale) SiO2 
 PCOD9336441
Probable space group: I 21 21 21
;
_chemical_formula_sum "Si O2"
_cell_formula_units_Z 36
_cell_length_a 8.251583
_cell_length_b 12.754105
_cell_length_c 16.504033
_cell_angle_alpha 90.000000
_cell_angle_beta 90.000000
_cell_angle_gamma 90.000000
_cell_volume 1736.910113
_symmetry_space_group_name_H-M "I 21 21 21"
_symmetry_group_IT_number 24
_symmetry_cell_setting 'orthorhombic'
loop_
_space_group_symop_operation_xyz
x,y,z
-x,1/2-y,z
x,-y,1/2-z
1/2-x,y,-z
1/2+x,1/2+y,1/2+z
1/2-x,-y,1/2+z
1/2+x,1/2-y,-z
-x,1/2+y,1/2-z
loop_
_atom_site_type_symbol
_atom_site_label
_atom_site_fract_x
_atom_site_fract_y
_atom_site_fract_z
Si Si1 0.806759 0.497664 0.589076
Si Si2 0.318324 0.448078 0.088496
Si Si3 0.690300 0.270857 0.864706
Si Si4 0.122450 0.500000 0.250000
Si Si5 0.376786 0.829293 0.804363
O O1 0.750000 0.467616 0.500000
O O2 0.732940 0.612559 0.606824
O O3 0.737199 0.406911 0.646638
O O4 0.998342 0.513361 0.594700
O O5 0.295646 0.321951 0.096306
O O6 0.222143 0.492565 0.166615
O O7 0.250000 0.478943 0.000000
O O8 0.500000 0.250000 0.882803
O O9 0.717991 0.270037 0.767287
O O10 0.001998 0.402645 0.255940
O O11 0.500000 0.750000 0.850271
#
# Coordination Sequence:
#
# PCOD9336441 Si02
#       5
#     8   8   8   4   8
#     4  12  25  43  70 100 143 184 234 295 349 422
#     4  12  26  43  69 109 141 181 238 290 356 416
#     4  11  20  42  70 101 138 181 228 291 351 414
#     4  12  22  44  72  96 144 180 228 296 346 420
#     4  11  22  44  72  96 137 185 236 279 360 417
#
# _framework density 20.726461
#
# number of rings (size 3 to 8) (size 9 to 14) (size 15 to 20)
#    0.000    0.444    6.667    4.000    3.111    0.000 
#    0.000    4.444    0.000    0.000    0.000    0.000 
#    0.000    0.000    0.000    0.000    0.000    0.000 
#
# Total GULP energy -100554.328966 kJ/mol
# GULP energy per Si atom -5586.351609 kJ/mol
# Density = 2.067929 g / cm^3
# Si number density = 20.726461 Si / 1000 Ang^3
#
#
#
# Elastic Constant Matrix: (Units=GPa)
#
#
# Indices 1 2 3 4 5 6 
#
# 1 154.7999 39.6807 69.2120 0.0000 0.0000 0.0000
# 2 39.6807 54.5198 21.9041 0.0000 0.0000 0.0000
# 3 69.2120 21.9041 140.1600 0.0000 0.0000 0.0000
# 4 0.0000 0.0000 0.0000 22.2747 0.0000 0.0000
# 5 0.0000 0.0000 0.0000 0.0000 32.9258 0.0000
# 6 0.0000 0.0000 0.0000 0.0000 0.0000 39.0798
#
#
#
# Elastic Compliance Matrix: (Units=1/GPa)
#
#
# Indices 1 2 3 4 5 6 
#
# 1 0.009586 -0.005415 -0.003887 0.000000 0.000000 0.000000
# 2 -0.005415 0.022630 -0.000863 0.000000 0.000000 0.000000
# 3 -0.003887 -0.000863 0.009189 0.000000 0.000000 0.000000
# 4 0.000000 0.000000 0.000000 0.044894 0.000000 0.000000
# 5 0.000000 0.000000 0.000000 0.000000 0.030371 0.000000
# 6 0.000000 0.000000 0.000000 0.000000 0.000000 0.025589
#
#
# Mechanical properties :
#
#
# Convention : Reuss Voigt Hill
#
# Bulk Modulus (GPa) = 47.44999 67.89705 57.67352
# Shear Modulus (GPa) = 29.47865 33.43492 31.45678
#
# Velocity S-wave (km/s) = 3.77539 4.02076 3.90001
# Velocity P-wave (km/s) = 6.47672 7.37463 6.94021
#
# Compressibility (1/GPa) = 0.02107482
#
# Stress axis : x y z
#
# Youngs Moduli (GPa) = 104.31715 44.18953 108.82419
#
# Poissons Ratio (x) = 0.23929 0.42305
# Poissons Ratio (y) = 0.56490 0.09386
# Poissons Ratio (z) = 0.40553 0.03811
#
# Static dielectric constant tensor:
#      x y z
#    x 1.734640 0.000000 0.000000 
#    y 0.000000 1.794550 0.000000 
#    z 0.000000 0.000000 1.798170 
# 
# From -- ./inp_files/24469.got.cif
#   From: 2010.05.17/outbox.cif.g08.bks.cpg/sg24_13_cif.got.tgz:24469.got - 2010.06.04 00:33:39.
