data_PCOD9336209
_publ_section_title
;
Structure prediction by ZEFSAII (Michael W. Deem and Ramdas Pophale) SiO2 
 PCOD9336209
Probable space group: I 21 21 21
;
_chemical_formula_sum "Si O2"
_cell_formula_units_Z 36
_cell_length_a 6.139058
_cell_length_b 17.737146
_cell_length_c 13.918736
_cell_angle_alpha 90.000000
_cell_angle_beta 90.000000
_cell_angle_gamma 90.000000
_cell_volume 1515.602367
_symmetry_space_group_name_H-M "I 21 21 21"
_symmetry_group_IT_number 24
_symmetry_cell_setting 'orthorhombic'
loop_
_space_group_symop_operation_xyz
x,y,z
-x,1/2-y,z
x,-y,1/2-z
1/2-x,y,-z
1/2+x,1/2+y,1/2+z
1/2-x,-y,1/2+z
1/2+x,1/2-y,-z
-x,1/2+y,1/2-z
loop_
_atom_site_type_symbol
_atom_site_label
_atom_site_fract_x
_atom_site_fract_y
_atom_site_fract_z
Si Si1 0.647283 0.309794 0.760890
Si Si2 0.472576 0.952811 0.654202
Si Si3 0.421079 0.163282 0.414094
Si Si4 0.500000 0.250000 0.089376
Si Si5 0.750000 0.623184 0.500000
Si Si6 0.250000 0.544868 0.000000
O O1 0.500000 0.250000 0.704707
O O2 0.479840 0.368745 0.807757
O O3 0.804869 0.351458 0.687331
O O4 0.795510 0.266154 0.839333
O O5 0.260732 0.931638 0.591365
O O6 0.445335 0.000000 0.750000
O O7 0.627053 0.992931 0.577686
O O8 0.500000 0.250000 0.410014
O O9 0.250000 0.157404 0.500000
O O10 0.600615 0.101650 0.438492
O O11 0.541890 0.321893 0.019171
#
# Coordination Sequence:
#
# PCOD9336209 Si02
#       6
#     8   8   8   4   4   4
#     4  11  26  47  80 112 151 203 263 325 391 469
#     4  11  28  50  74 111 157 203 259 320 394 469
#     4  12  25  47  80 116 154 202 267 324 394 477
#     4  10  24  46  74 114 144 190 256 326 380 460
#     4  10  26  47  81 110 150 202 256 326 392 471
#     4  12  30  51  77 114 162 214 256 332 398 471
#
# _framework density 23.752929000000002
#
# number of rings (size 3 to 8) (size 9 to 14) (size 15 to 20)
#    0.000    0.889    2.222    2.000   17.111    0.000 
#    4.000    0.000    0.000    0.000    0.000    0.000 
#    0.000    0.000    0.000    0.000    0.000    0.000 
#
# Total GULP energy -100458.121912 kJ/mol
# GULP energy per Si atom -5581.006773 kJ/mol
# Density = 2.369887 g / cm^3
# Si number density = 23.752929 Si / 1000 Ang^3
#
#
#
# Elastic Constant Matrix: (Units=GPa)
#
#
# Indices 1 2 3 4 5 6 
#
# 1 68.7790 90.3977 48.5470 0.0000 0.0000 0.0000
# 2 90.3977 164.6367 81.3587 0.0000 0.0000 0.0000
# 3 48.5470 81.3587 176.7146 0.0000 0.0000 0.0000
# 4 0.0000 0.0000 0.0000 36.3146 0.0000 0.0000
# 5 0.0000 0.0000 0.0000 0.0000 26.6596 0.0000
# 6 0.0000 0.0000 0.0000 0.0000 0.0000 30.9875
#
#
#
# Elastic Compliance Matrix: (Units=1/GPa)
#
#
# Indices 1 2 3 4 5 6 
#
# 1 0.052537 -0.028110 -0.001491 0.000000 0.000000 0.000000
# 2 -0.028110 0.022903 -0.002822 0.000000 0.000000 0.000000
# 3 -0.001491 -0.002822 0.007368 0.000000 0.000000 0.000000
# 4 0.000000 0.000000 0.000000 0.027537 0.000000 0.000000
# 5 0.000000 0.000000 0.000000 0.000000 0.037510 0.000000
# 6 0.000000 0.000000 0.000000 0.000000 0.000000 0.032271
#
#
# Mechanical properties :
#
#
# Convention : Reuss Voigt Hill
#
# Bulk Modulus (GPa) = 55.67472 94.52632 75.10052
# Shear Modulus (GPa) = 19.92347 31.44746 25.68546
#
# Velocity S-wave (km/s) = 2.89931 3.64255 3.29197
# Velocity P-wave (km/s) = 5.89050 7.58768 6.79231
#
# Compressibility (1/GPa) = 0.01796147
#
# Stress axis : x y z
#
# Youngs Moduli (GPa) = 19.03405 43.66245 135.72508
#
# Poissons Ratio (x) = 1.22735 0.20242
# Poissons Ratio (y) = 0.53505 0.38303
# Poissons Ratio (z) = 0.02839 0.12322
#
# Static dielectric constant tensor:
#      x y z
#    x 1.903540 0.000000 0.000000 
#    y 0.000000 1.916880 0.000000 
#    z 0.000000 0.000000 1.972520 
# 
# From -- ./inp_files/23658.got.cif
#   From: 2010.05.17/outbox.cif.g08.bks.cpg/sg24_12_cif.got.tgz:23658.got - 2010.06.04 00:33:39.
