data_PCOD9336554
_publ_section_title
;
Structure prediction by ZEFSAII (Michael W. Deem and Ramdas Pophale) SiO2 
 PCOD9336554
Probable space group: I 21 21 21
;
_chemical_formula_sum "Si O2"
_cell_formula_units_Z 40
_cell_length_a 5.005117
_cell_length_b 14.673529
_cell_length_c 21.358374
_cell_angle_alpha 90.000000
_cell_angle_beta 90.000000
_cell_angle_gamma 90.000000
_cell_volume 1568.617283
_symmetry_space_group_name_H-M "I 21 21 21"
_symmetry_group_IT_number 24
_symmetry_cell_setting 'orthorhombic'
loop_
_space_group_symop_operation_xyz
x,y,z
-x,1/2-y,z
x,-y,1/2-z
1/2-x,y,-z
1/2+x,1/2+y,1/2+z
1/2-x,-y,1/2+z
1/2+x,1/2-y,-z
-x,1/2+y,1/2-z
loop_
_atom_site_type_symbol
_atom_site_label
_atom_site_fract_x
_atom_site_fract_y
_atom_site_fract_z
Si Si1 0.696639 0.991138 0.365342
Si Si2 0.250000 0.410377 0.000000
Si Si3 0.750000 0.685726 0.000000
Si Si4 0.500000 0.750000 0.570745
Si Si5 0.788986 0.394985 0.366693
Si Si6 0.831629 0.671720 0.681799
Si Si7 0.500000 0.750000 0.775250
O O1 0.512074 0.076915 0.352396
O O2 0.999975 0.022597 0.351527
O O3 0.670981 0.967769 0.439351
O O4 0.533926 0.910487 0.330384
O O5 0.457272 0.338180 0.971393
O O6 0.500000 0.750000 0.016172
O O7 0.677284 0.625340 0.940077
O O8 0.735355 0.717498 0.616929
O O9 0.833937 0.304600 0.328032
O O10 0.560450 0.668611 0.722609
O O11 0.000000 0.750000 0.717476
#
# Coordination Sequence:
#
# PCOD9336554 Si02
#       7
#     8   4   4   4   8   8   4
#     4  12  27  47  75 118 157 195 265 331 390 465
#     4  12  22  43  75 110 160 208 248 320 407 479
#     4  12  24  47  85 114 162 208 268 328 401 481
#     4  11  22  42  72 112 150 209 256 300 394 501
#     4  12  28  51  77 118 151 207 264 329 395 465
#     4  11  25  50  74 106 153 204 256 321 384 477
#     4  11  30  52  82 102 154 215 266 316 402 471
#
# _framework density 25.500166
#
# number of rings (size 3 to 8) (size 9 to 14) (size 15 to 20)
#    0.000    0.400    3.000    4.800    5.600    2.400 
#    0.000    0.000    0.000    0.000    0.000    0.000 
#    0.000    0.000    0.000    0.000    0.000    0.000 
#
# Total GULP energy -111471.869368 kJ/mol
# GULP energy per Si atom -5573.593468 kJ/mol
# Density = 2.544213 g / cm^3
# Si number density = 25.500166 Si / 1000 Ang^3
#
#
#
# Elastic Constant Matrix: (Units=GPa)
#
#
# Indices 1 2 3 4 5 6 
#
# 1 110.6093 28.4493 26.4141 0.0000 0.0000 0.0000
# 2 28.4493 62.2107 5.2480 0.0000 0.0000 0.0000
# 3 26.4141 5.2480 83.4049 0.0000 0.0000 0.0000
# 4 0.0000 0.0000 0.0000 164.7186 0.0000 0.0000
# 5 0.0000 0.0000 0.0000 0.0000 5.4554 0.0000
# 6 0.0000 0.0000 0.0000 0.0000 0.0000 41.2356
#
#
#
# Elastic Compliance Matrix: (Units=1/GPa)
#
#
# Indices 1 2 3 4 5 6 
#
# 1 0.011032 -0.004775 -0.003193 0.000000 0.000000 0.000000
# 2 -0.004775 0.018227 0.000365 0.000000 0.000000 0.000000
# 3 -0.003193 0.000365 0.012978 0.000000 0.000000 0.000000
# 4 0.000000 0.000000 0.000000 0.006071 0.000000 0.000000
# 5 0.000000 0.000000 0.000000 0.000000 0.183305 0.000000
# 6 0.000000 0.000000 0.000000 0.000000 0.000000 0.024251
#
#
# Mechanical properties :
#
#
# Convention : Reuss Voigt Hill
#
# Bulk Modulus (GPa) = 36.99501 41.82752 39.41127
# Shear Modulus (GPa) = 17.85198 55.35614 36.60406
#
# Velocity S-wave (km/s) = 2.64876 4.66426 3.79284
# Velocity P-wave (km/s) = 4.88813 6.74133 5.88809
#
# Compressibility (1/GPa) = 0.02703067
#
# Stress axis : x y z
#
# Youngs Moduli (GPa) = 90.64815 54.86237 77.05350
#
# Poissons Ratio (x) = 0.26199 0.24605
# Poissons Ratio (y) = 0.43289 -0.02816
# Poissons Ratio (z) = 0.28946 -0.02005
#
# Static dielectric constant tensor:
#      x y z
#    x 1.707920 0.000000 0.000000 
#    y 0.000000 1.864840 0.000000 
#    z 0.000000 0.000000 1.993080 
# 
# From -- ./inp_files/34638.got.cif
#   From: 2010.05.17/outbox.cif.g08.bks.cpg/sg24_18_cif.got.tgz:34638.got - 2010.06.04 00:33:39.
