data_PCOD9336640
_publ_section_title
;
Structure prediction by ZEFSAII (Michael W. Deem and Ramdas Pophale) SiO2 
 PCOD9336640
Probable space group: I 21 21 21
;
_chemical_formula_sum "Si O2"
_cell_formula_units_Z 48
_cell_length_a 25.991345
_cell_length_b 6.326276
_cell_length_c 14.284236
_cell_angle_alpha 90.000000
_cell_angle_beta 90.000000
_cell_angle_gamma 90.000000
_cell_volume 2348.734386
_symmetry_space_group_name_H-M "I 21 21 21"
_symmetry_group_IT_number 24
_symmetry_cell_setting 'orthorhombic'
loop_
_space_group_symop_operation_xyz
x,y,z
-x,1/2-y,z
x,-y,1/2-z
1/2-x,y,-z
1/2+x,1/2+y,1/2+z
1/2-x,-y,1/2+z
1/2+x,1/2-y,-z
-x,1/2+y,1/2-z
loop_
_atom_site_type_symbol
_atom_site_label
_atom_site_fract_x
_atom_site_fract_y
_atom_site_fract_z
Si Si1 0.724434 0.000000 0.250000
Si Si2 0.750000 0.311735 0.500000
Si Si3 0.378260 0.822163 0.536382
Si Si4 0.778815 0.608322 0.347276
Si Si5 0.555252 0.277593 0.482431
Si Si6 0.456926 0.430105 0.856658
Si Si7 0.341526 0.434364 0.425797
O O1 0.757483 0.164562 0.186761
O O2 0.686659 0.096495 0.327592
O O3 0.741180 0.464881 0.410547
O O4 0.699606 0.159785 0.501263
O O5 0.328316 0.908853 0.586937
O O6 0.403580 0.678757 0.616920
O O7 0.356756 0.674214 0.453287
O O8 0.421948 0.991282 0.507341
O O9 0.790953 0.500000 0.250000
O O10 0.500000 0.250000 0.431890
O O11 0.603774 0.179840 0.429290
O O12 0.544585 0.131951 0.574496
O O13 0.500000 0.250000 0.875164
O O14 0.461663 0.500000 0.750000
#
# Coordination Sequence:
#
# PCOD9336640 Si02
#       7
#     4   4   8   8   8   8   8
#     4  12  26  46  68 104 138 184 236 302 368 446
#     4  12  22  48  66 104 142 190 234 302 366 442
#     4  11  25  41  65  99 136 187 228 293 351 433
#     4  12  26  40  69  99 140 180 231 286 355 437
#     4  11  23  45  68  94 134 187 240 291 361 430
#     4  11  24  36  62  95 135 181 231 288 347 426
#     4  11  25  43  71  97 140 181 237 292 368 429
#
# _framework density 20.436537000000001
#
# number of rings (size 3 to 8) (size 9 to 14) (size 15 to 20)
#    0.000    0.667    5.000    2.500    3.500    0.000 
#    0.000    0.000    3.667    0.000    0.000    0.000 
#    0.000    0.000    0.000    0.000    0.000    0.000 
#
# Total GULP energy -133700.143288 kJ/mol
# GULP energy per Si atom -5570.839304 kJ/mol
# Density = 2.039002 g / cm^3
# Si number density = 20.436537 Si / 1000 Ang^3
#
#
#
# Elastic Constant Matrix: (Units=GPa)
#
#
# Indices 1 2 3 4 5 6 
#
# 1 134.2061 48.7963 13.0312 0.0000 0.0000 0.0000
# 2 48.7963 104.7935 23.9864 0.0000 0.0000 0.0000
# 3 13.0312 23.9864 59.4347 0.0000 0.0000 0.0000
# 4 0.0000 0.0000 0.0000 18.4712 0.0000 0.0000
# 5 0.0000 0.0000 0.0000 0.0000 6.1450 0.0000
# 6 0.0000 0.0000 0.0000 0.0000 0.0000 50.2104
#
#
#
# Elastic Compliance Matrix: (Units=1/GPa)
#
#
# Indices 1 2 3 4 5 6 
#
# 1 0.008975 -0.004108 -0.000310 0.000000 0.000000 0.000000
# 2 -0.004108 0.012394 -0.004101 0.000000 0.000000 0.000000
# 3 -0.000310 -0.004101 0.018548 0.000000 0.000000 0.000000
# 4 0.000000 0.000000 0.000000 0.054138 0.000000 0.000000
# 5 0.000000 0.000000 0.000000 0.000000 0.162734 0.000000
# 6 0.000000 0.000000 0.000000 0.000000 0.000000 0.019916
#
#
# Mechanical properties :
#
#
# Convention : Reuss Voigt Hill
#
# Bulk Modulus (GPa) = 43.70831 52.22910 47.96871
# Shear Modulus (GPa) = 16.59086 29.14004 22.86545
#
# Velocity S-wave (km/s) = 2.85234 3.78018 3.34855
# Velocity P-wave (km/s) = 5.68169 6.68320 6.20269
#
# Compressibility (1/GPa) = 0.02287895
#
# Stress axis : x y z
#
# Youngs Moduli (GPa) = 111.42027 80.68231 53.91330
#
# Poissons Ratio (x) = 0.33146 0.01670
# Poissons Ratio (y) = 0.45774 0.22111
# Poissons Ratio (z) = 0.03452 0.33090
#
# Static dielectric constant tensor:
#      x y z
#    x 1.784400 0.000000 0.000000 
#    y 0.000000 1.939450 0.000000 
#    z 0.000000 0.000000 1.736830 
# 
# From -- ./inp_files/28048.got.cif
#   From: 2010.05.17/outbox.cif.g08.bks.cpg/sg24_15_cif.got.tgz:28048.got - 2010.06.04 00:33:39.
