data_PCOD9336616
_publ_section_title
;
Structure prediction by ZEFSAII (Michael W. Deem and Ramdas Pophale) SiO2 
 PCOD9336616
Probable space group: I 21 21 21
;
_chemical_formula_sum "Si O2"
_cell_formula_units_Z 56
_cell_length_a 16.116640
_cell_length_b 11.442463
_cell_length_c 13.807452
_cell_angle_alpha 90.000000
_cell_angle_beta 90.000000
_cell_angle_gamma 90.000000
_cell_volume 2546.288239
_symmetry_space_group_name_H-M "I 21 21 21"
_symmetry_group_IT_number 24
_symmetry_cell_setting 'orthorhombic'
loop_
_space_group_symop_operation_xyz
x,y,z
-x,1/2-y,z
x,-y,1/2-z
1/2-x,y,-z
1/2+x,1/2+y,1/2+z
1/2-x,-y,1/2+z
1/2+x,1/2-y,-z
-x,1/2+y,1/2-z
loop_
_atom_site_type_symbol
_atom_site_label
_atom_site_fract_x
_atom_site_fract_y
_atom_site_fract_z
Si Si1 0.821408 0.000000 0.250000
Si Si2 0.359065 0.870323 0.231214
Si Si3 0.902199 0.246452 0.924140
Si Si4 0.413744 0.701539 0.865663
Si Si5 0.750000 0.591369 0.500000
Si Si6 0.193642 0.488309 0.908825
Si Si7 0.813080 0.572663 0.172674
Si Si8 0.588513 0.794225 0.089894
O O1 0.875350 0.097648 0.303715
O O2 0.759752 0.054616 0.170262
O O3 0.396587 0.784516 0.310980
O O4 0.260718 0.881335 0.242181
O O5 0.362919 0.821822 0.121654
O O6 0.394695 0.000000 0.250000
O O7 0.867346 0.115989 0.936962
O O8 0.000000 0.250000 0.953874
O O9 0.831977 0.330653 0.973393
O O10 0.500000 0.750000 0.825538
O O11 0.355024 0.813382 0.868632
O O12 0.424616 0.669614 0.978683
O O13 0.779049 0.507557 0.413035
O O14 0.139640 0.596589 0.868552
O O15 0.250000 0.528472 0.000000
O O16 0.868425 0.500000 0.250000
O O17 0.500000 0.750000 0.128424
#
# Coordination Sequence:
#
# PCOD9336616 Si02
#       8
#     4   8   8   8   4   8   8   8
#     4  12  26  48  72 104 154 202 258 320 394 470
#     4  11  23  43  73 106 141 186 248 314 383 449
#     4  12  27  45  71 110 152 201 249 315 391 459
#     4  11  26  44  73 108 146 199 260 318 382 463
#     4  12  24  48  72 110 156 196 254 322 378 472
#     4  12  25  46  73 104 147 202 252 306 392 460
#     4  11  23  42  72  99 136 193 247 303 385 438
#     4  11  25  45  73 107 144 186 249 313 379 451
#
# _framework density 21.992795999999998
#
# number of rings (size 3 to 8) (size 9 to 14) (size 15 to 20)
#    0.000    0.571    5.000    3.857    3.000    1.143 
#    0.000    1.429    0.000    0.000    0.000    0.000 
#    0.000    0.000    0.000    0.000    0.000    0.000 
#
# Total GULP energy -156149.969298 kJ/mol
# GULP energy per Si atom -5576.784618 kJ/mol
# Density = 2.194274 g / cm^3
# Si number density = 21.992796 Si / 1000 Ang^3
#
#
#
# Elastic Constant Matrix: (Units=GPa)
#
#
# Indices 1 2 3 4 5 6 
#
# 1 139.7760 64.3563 32.7704 0.0000 0.0000 0.0000
# 2 64.3563 133.7025 27.6083 0.0000 0.0000 0.0000
# 3 32.7704 27.6083 78.5146 0.0000 0.0000 0.0000
# 4 0.0000 0.0000 0.0000 33.9495 0.0000 0.0000
# 5 0.0000 0.0000 0.0000 0.0000 44.3382 0.0000
# 6 0.0000 0.0000 0.0000 0.0000 0.0000 11.4503
#
#
#
# Elastic Compliance Matrix: (Units=1/GPa)
#
#
# Indices 1 2 3 4 5 6 
#
# 1 0.009654 -0.004113 -0.002583 0.000000 0.000000 0.000000
# 2 -0.004113 0.009818 -0.001735 0.000000 0.000000 0.000000
# 3 -0.002583 -0.001735 0.014425 0.000000 0.000000 0.000000
# 4 0.000000 0.000000 0.000000 0.029456 0.000000 0.000000
# 5 0.000000 0.000000 0.000000 0.000000 0.022554 0.000000
# 6 0.000000 0.000000 0.000000 0.000000 0.000000 0.087334
#
#
# Mechanical properties :
#
#
# Convention : Reuss Voigt Hill
#
# Bulk Modulus (GPa) = 58.71009 66.82922 62.76965
# Shear Modulus (GPa) = 25.53879 33.09811 29.31845
#
# Velocity S-wave (km/s) = 3.41139 3.88358 3.65512
# Velocity P-wave (km/s) = 6.50153 7.11073 6.81294
#
# Compressibility (1/GPa) = 0.01703285
#
# Stress axis : x y z
#
# Youngs Moduli (GPa) = 103.58643 101.85824 69.32540
#
# Poissons Ratio (x) = 0.41898 0.17906
# Poissons Ratio (y) = 0.42609 0.12030
# Poissons Ratio (z) = 0.26755 0.17676
#
# Static dielectric constant tensor:
#      x y z
#    x 1.824440 0.000000 0.000000 
#    y 0.000000 1.889500 0.000000 
#    z 0.000000 0.000000 1.899060 
# 
# From -- ./inp_files/26564.got.cif
#   From: 2010.05.17/outbox.cif.g08.bks.cpg/sg24_14_cif.got.tgz:26564.got - 2010.06.04 00:33:39.
