data_PCOD9336170
_publ_section_title
;
Structure prediction by ZEFSAII (Michael W. Deem and Ramdas Pophale) SiO2 
 PCOD9336170
Probable space group: I 21 21 21
;
_chemical_formula_sum "Si O2"
_cell_formula_units_Z 16
_cell_length_a 9.903516
_cell_length_b 4.526147
_cell_length_c 14.000603
_cell_angle_alpha 90.000000
_cell_angle_beta 90.000000
_cell_angle_gamma 90.000000
_cell_volume 627.573799
_symmetry_space_group_name_H-M "I 21 21 21"
_symmetry_group_IT_number 24
_symmetry_cell_setting 'orthorhombic'
loop_
_space_group_symop_operation_xyz
x,y,z
-x,1/2-y,z
x,-y,1/2-z
1/2-x,y,-z
1/2+x,1/2+y,1/2+z
1/2-x,-y,1/2+z
1/2+x,1/2-y,-z
-x,1/2+y,1/2-z
loop_
_atom_site_type_symbol
_atom_site_label
_atom_site_fract_x
_atom_site_fract_y
_atom_site_fract_z
Si Si1 0.694556 0.733407 0.902719
Si Si2 0.000000 0.750000 0.396994
Si Si3 0.099881 0.500000 0.750000
O O1 0.606089 0.480124 0.851642
O O2 0.600431 0.003910 0.939815
O O3 0.805932 0.858945 0.831272
O O4 0.750000 0.594763 0.000000
O O5 0.000000 0.250000 0.790863
#
# Coordination Sequence:
#
# PCOD9336170 Si02
#       3
#     8   4   4
#     4  11  25  45  74 111 148 197 244 308 370 434
#     4  10  24  44  74 102 146 194 256 294 362 432
#     4  12  28  46  74 112 154 194 244 300 380 442
#
# _framework density 25.495007999999999
#
# number of rings (size 3 to 8) (size 9 to 14) (size 15 to 20)
#    0.000    1.000    0.000    4.500   10.500    4.000 
#    0.000    0.000    0.000    0.000    0.000    0.000 
#    0.000    0.000    0.000    0.000    0.000    0.000 
#
# Total GULP energy -44618.984193 kJ/mol
# GULP energy per Si atom -5577.373024 kJ/mol
# Density = 2.543698 g / cm^3
# Si number density = 25.495008 Si / 1000 Ang^3
#
#
#
# Elastic Constant Matrix: (Units=GPa)
#
#
# Indices 1 2 3 4 5 6 
#
# 1 157.9566 81.5907 67.0451 0.0000 0.0000 0.0000
# 2 81.5907 185.8371 30.7590 0.0000 0.0000 0.0000
# 3 67.0451 30.7590 145.6081 0.0000 0.0000 0.0000
# 4 0.0000 0.0000 0.0000 4.4140 0.0000 0.0000
# 5 0.0000 0.0000 0.0000 0.0000 -12.9720 0.0000
# 6 0.0000 0.0000 0.0000 0.0000 0.0000 89.2220
#
#
#
# Elastic Compliance Matrix: (Units=1/GPa)
#
#
# Indices 1 2 3 4 5 6 
#
# 1 0.009830 -0.003696 -0.003745 0.000000 0.000000 0.000000
# 2 -0.003696 0.006966 0.000230 0.000000 0.000000 0.000000
# 3 -0.003745 0.000230 0.008544 0.000000 0.000000 0.000000
# 4 0.000000 0.000000 0.000000 0.226551 0.000000 0.000000
# 5 0.000000 0.000000 0.000000 0.000000 -0.077089 0.000000
# 6 0.000000 0.000000 0.000000 0.000000 0.000000 0.011208
#
#
# Mechanical properties :
#
#
# Convention : Reuss Voigt Hill
#
# Bulk Modulus (GPa) = 91.59867 94.24348 92.92107
# Shear Modulus (GPa) = 24.50153 36.79994 30.65074
#
# Velocity S-wave (km/s) = 3.10342 3.80336 3.47107
# Velocity P-wave (km/s) = 6.98911 7.50554 7.25192
#
# Compressibility (1/GPa) = 0.01091719
#
# Stress axis : x y z
#
# Youngs Moduli (GPa) = 101.73439 143.56438 117.04622
#
# Poissons Ratio (x) = 0.53057 0.43837
# Poissons Ratio (y) = 0.37598 -0.02695
# Poissons Ratio (z) = 0.38103 -0.03306
#
# Static dielectric constant tensor:
#      x y z
#    x 2.235200 0.000000 0.000000 
#    y 0.000000 2.036700 0.000000 
#    z 0.000000 0.000000 1.893640 
# 
# From -- ./inp_files/52.got.cif
#   From: 2010.05.17/outbox.cif.g08.bks.cpg/sg24_1_cif.got.tgz:52.got - 2010.06.04 00:33:39.
