data_PCOD9336250
_publ_section_title
;
Structure prediction by ZEFSAII (Michael W. Deem and Ramdas Pophale) SiO2 
 PCOD9336250
Probable space group: I 21 21 21
;
_chemical_formula_sum "Si O2"
_cell_formula_units_Z 60
_cell_length_a 8.455536
_cell_length_b 29.376874
_cell_length_c 12.549918
_cell_angle_alpha 90.000000
_cell_angle_beta 90.000000
_cell_angle_gamma 90.000000
_cell_volume 3117.364688
_symmetry_space_group_name_H-M "I 21 21 21"
_symmetry_group_IT_number 24
_symmetry_cell_setting 'orthorhombic'
loop_
_space_group_symop_operation_xyz
x,y,z
-x,1/2-y,z
x,-y,1/2-z
1/2-x,y,-z
1/2+x,1/2+y,1/2+z
1/2-x,-y,1/2+z
1/2+x,1/2-y,-z
-x,1/2+y,1/2-z
loop_
_atom_site_type_symbol
_atom_site_label
_atom_site_fract_x
_atom_site_fract_y
_atom_site_fract_z
Si Si1 0.371816 0.111491 0.596531
Si Si2 0.250000 0.873188 0.500000
Si Si3 0.314990 0.657529 0.883294
Si Si4 0.437092 0.538683 0.017941
Si Si5 0.700848 0.658491 0.266278
Si Si6 0.583389 0.098775 0.275687
Si Si7 0.811787 0.741127 0.119459
Si Si8 0.933304 0.067409 0.962480
O O1 0.250000 0.118895 0.500000
O O2 0.499150 0.151969 0.599864
O O3 0.463363 0.065397 0.570595
O O4 0.291579 0.116003 0.710519
O O5 0.264952 0.843662 0.391615
O O6 0.415773 0.902419 0.502739
O O7 0.254844 0.618931 0.803619
O O8 0.254801 0.707469 0.853770
O O9 0.250000 0.646764 0.000000
O O10 0.469513 0.565645 0.128429
O O11 0.471501 0.485346 0.015756
O O12 0.250000 0.542818 0.000000
O O13 0.523287 0.643989 0.237041
O O14 0.751945 0.704266 0.205029
O O15 0.573975 0.073540 0.164591
O O16 0.000000 0.750000 0.118511
O O17 0.750000 0.730312 0.000000
O O18 0.750000 0.077687 0.000000
#
# Coordination Sequence:
#
# PCOD9336250 Si02
#       8
#     8   4   8   8   8   8   8   8
#     4  12  20  34  64  95 128 165 201 254 326 395
#     4  10  26  48  66  84 130 170 224 272 308 376
#     4  11  21  36  60  91 126 159 198 253 320 385
#     4  11  21  37  58  93 131 159 207 264 320 386
#     4  11  24  41  64  89 125 172 209 262 320 381
#     4  11  21  40  61  86 127 169 207 260 321 382
#     4  11  25  36  62 100 132 157 199 265 322 390
#     4  10  25  41  63  90 122 172 223 267 309 377
#
# _framework density 19.247026999999999
#
# number of rings (size 3 to 8) (size 9 to 14) (size 15 to 20)
#    0.000    1.067    5.333    0.800    6.533    0.000 
#    0.000    0.667    7.333    0.000    0.000    0.000 
#    0.000    0.000    0.000    0.000    0.000    0.000 
#
# Total GULP energy -167204.130184 kJ/mol
# GULP energy per Si atom -5573.471006 kJ/mol
# Density = 1.920322 g / cm^3
# Si number density = 19.247027 Si / 1000 Ang^3
#
#
#
# Elastic Constant Matrix: (Units=GPa)
#
#
# Indices 1 2 3 4 5 6 
#
# 1 83.4459 27.9301 28.6357 0.0000 0.0000 0.0000
# 2 27.9301 109.9781 29.8906 0.0000 0.0000 0.0000
# 3 28.6357 29.8906 87.6949 0.0013 -0.0001 -0.0001
# 4 0.0000 0.0000 0.0013 77.1534 0.0002 0.0002
# 5 0.0000 0.0000 -0.0001 0.0002 26.1655 0.0000
# 6 0.0000 0.0000 -0.0001 0.0002 0.0000 17.2921
#
#
#
# Elastic Compliance Matrix: (Units=1/GPa)
#
#
# Indices 1 2 3 4 5 6 
#
# 1 0.014127 -0.002572 -0.003736 0.000000 0.000000 0.000000
# 2 -0.002572 0.010489 -0.002735 0.000000 0.000000 0.000000
# 3 -0.003736 -0.002735 0.013556 0.000000 0.000000 0.000000
# 4 0.000000 0.000000 0.000000 0.012961 0.000000 0.000000
# 5 0.000000 0.000000 0.000000 0.000000 0.038218 0.000000
# 6 0.000000 0.000000 0.000000 0.000000 0.000000 0.057830
#
#
# Mechanical properties :
#
#
# Convention : Reuss Voigt Hill
#
# Bulk Modulus (GPa) = 49.79035 50.44796 50.11915
# Shear Modulus (GPa) = 29.07590 37.09968 33.08779
#
# Velocity S-wave (km/s) = 3.89095 4.39515 4.15072
# Velocity P-wave (km/s) = 6.79053 7.21278 7.00484
#
# Compressibility (1/GPa) = 0.02008421
#
# Stress axis : x y z
#
# Youngs Moduli (GPa) = 70.78691 95.33435 73.77062
#
# Poissons Ratio (x) = 0.24522 0.27562
# Poissons Ratio (y) = 0.18208 0.20179
# Poissons Ratio (z) = 0.26448 0.26077
#
# Static dielectric constant tensor:
#      x y z
#    x 1.801310 0.000000 0.000000 
#    y 0.000000 1.701650 0.000000 
#    z 0.000000 0.000000 1.637150 
# 
# From -- ./inp_files/18880.got.cif
#   From: 2010.05.17/outbox.cif.g08.bks.cpg/sg24_10_cif.got.tgz:18880.got - 2010.06.04 00:33:39.
