data_PCOD9336858
_publ_section_title
;
Structure prediction by ZEFSAII (Michael W. Deem and Ramdas Pophale) SiO2 
 PCOD9336858
Probable space group: I 21 21 21
;
_chemical_formula_sum "Si O2"
_cell_formula_units_Z 48
_cell_length_a 16.126018
_cell_length_b 5.128633
_cell_length_c 24.907890
_cell_angle_alpha 90.000000
_cell_angle_beta 90.000000
_cell_angle_gamma 90.000000
_cell_volume 2059.992797
_symmetry_space_group_name_H-M "I 21 21 21"
_symmetry_group_IT_number 24
_symmetry_cell_setting 'orthorhombic'
loop_
_space_group_symop_operation_xyz
x,y,z
-x,1/2-y,z
x,-y,1/2-z
1/2-x,y,-z
1/2+x,1/2+y,1/2+z
1/2-x,-y,1/2+z
1/2+x,1/2-y,-z
-x,1/2+y,1/2-z
loop_
_atom_site_type_symbol
_atom_site_label
_atom_site_fract_x
_atom_site_fract_y
_atom_site_fract_z
Si Si1 0.401680 0.251872 0.114360
Si Si2 0.302812 0.748084 0.152429
Si Si3 0.280477 0.000000 0.750000
Si Si4 0.352003 0.159728 0.573111
Si Si5 0.342290 0.642547 0.505776
Si Si6 0.409251 0.659497 0.702243
Si Si7 0.000000 0.750000 0.130301
O O1 0.500000 0.250000 0.124528
O O2 0.350093 0.474934 0.145598
O O3 0.362634 0.976374 0.130924
O O4 0.384874 0.308567 0.051177
O O5 0.222931 0.758340 0.112383
O O6 0.276486 0.812510 0.213532
O O7 0.342814 0.110355 0.797094
O O8 0.383795 0.414756 0.540666
O O9 0.435175 0.060618 0.602207
O O10 0.329123 0.916163 0.535941
O O11 0.250000 0.527183 0.500000
O O12 0.500000 0.750000 0.721303
O O13 0.368999 0.500000 0.750000
O O14 0.435783 0.447765 0.658936
#
# Coordination Sequence:
#
# PCOD9336858 Si02
#       7
#     8   8   4   8   8   8   4
#     4  12  28  50  82 111 149 197 252 327 401 457
#     4  12  26  51  76 114 147 199 264 313 387 459
#     4  12  30  44  82 106 150 210 270 316 390 462
#     4  12  26  44  71 113 156 203 248 306 366 457
#     4  12  24  48  73 109 149 198 254 305 380 454
#     4  12  22  45  64 103 152 209 251 302 367 449
#     4  12  30  40  70 110 166 198 252 304 372 458
#
# _framework density 23.301051999999999
#
# number of rings (size 3 to 8) (size 9 to 14) (size 15 to 20)
#    0.000    0.000    5.000    4.000   11.667    0.000 
#    0.000    1.667    0.000    0.000    0.000    0.000 
#    0.000    0.000    0.000    0.000    0.000    0.000 
#
# Total GULP energy -134042.474327 kJ/mol
# GULP energy per Si atom -5585.103097 kJ/mol
# Density = 2.324802 g / cm^3
# Si number density = 23.301052 Si / 1000 Ang^3
#
#
#
# Elastic Constant Matrix: (Units=GPa)
#
#
# Indices 1 2 3 4 5 6 
#
# 1 116.8171 -2.7416 17.1727 0.0000 0.0000 0.0000
# 2 -2.7416 68.9527 -5.6814 0.0000 0.0000 0.0000
# 3 17.1727 -5.6814 69.5448 0.0000 0.0000 0.0000
# 4 0.0000 0.0000 0.0000 27.9156 0.0000 0.0000
# 5 0.0000 0.0000 0.0000 0.0000 10.1102 0.0000
# 6 0.0000 0.0000 0.0000 0.0000 0.0000 -1.5522
#
#
#
# Elastic Compliance Matrix: (Units=1/GPa)
#
#
# Indices 1 2 3 4 5 6 
#
# 1 0.008885 0.000174 -0.002180 0.000000 0.000000 0.000000
# 2 0.000174 0.014604 0.001150 0.000000 0.000000 0.000000
# 3 -0.002180 0.001150 0.015011 0.000000 0.000000 0.000000
# 4 0.000000 0.000000 0.000000 0.035822 0.000000 0.000000
# 5 0.000000 0.000000 0.000000 0.000000 0.098910 0.000000
# 6 0.000000 0.000000 0.000000 0.000000 0.000000 -0.644253
#
#
# Mechanical properties :
#
#
# Convention : Reuss Voigt Hill
#
# Bulk Modulus (GPa) = 27.18208 30.31266 28.74737
# Shear Modulus (GPa) = -10.93983 23.73240 6.39629
#
# Velocity S-wave (km/s) = -2.16914 3.19488 1.65862
# Velocity P-wave (km/s) = 2.32752 5.16208 4.00402
#
# Compressibility (1/GPa) = 0.03678894
#
# Stress axis : x y z
#
# Youngs Moduli (GPa) = 112.55053 68.47267 66.61590
#
# Poissons Ratio (x) = -0.01189 0.14521
# Poissons Ratio (y) = -0.01955 -0.07662
# Poissons Ratio (z) = 0.24533 -0.07876
#
# Static dielectric constant tensor:
#      x y z
#    x 1.834480 0.000000 0.000000 
#    y 0.000000 1.783850 0.000000 
#    z 0.000000 0.000000 2.383960 
# 
# From -- ./inp_files/37372.got.cif
#   From: 2010.05.17/outbox.cif.g08.bks.cpg/sg24_19_cif.got.tgz:37372.got - 2010.06.04 00:33:39.
