data_PCOD9336777
_publ_section_title
;
Structure prediction by ZEFSAII (Michael W. Deem and Ramdas Pophale) SiO2 
 PCOD9336777
Probable space group: I 21 21 21
;
_chemical_formula_sum "Si O2"
_cell_formula_units_Z 48
_cell_length_a 16.417684
_cell_length_b 15.356439
_cell_length_c 9.013378
_cell_angle_alpha 90.000000
_cell_angle_beta 90.000000
_cell_angle_gamma 90.000000
_cell_volume 2272.427289
_symmetry_space_group_name_H-M "I 21 21 21"
_symmetry_group_IT_number 24
_symmetry_cell_setting 'orthorhombic'
loop_
_space_group_symop_operation_xyz
x,y,z
-x,1/2-y,z
x,-y,1/2-z
1/2-x,y,-z
1/2+x,1/2+y,1/2+z
1/2-x,-y,1/2+z
1/2+x,1/2-y,-z
-x,1/2+y,1/2-z
loop_
_atom_site_type_symbol
_atom_site_label
_atom_site_fract_x
_atom_site_fract_y
_atom_site_fract_z
Si Si1 0.159882 0.262560 0.486023
Si Si2 0.500000 0.250000 0.069779
Si Si3 0.250000 0.417661 0.000000
Si Si4 0.954319 0.632890 0.847551
Si Si5 0.324466 0.000000 0.250000
Si Si6 0.750000 0.380820 0.000000
Si Si7 0.349043 0.725514 0.639570
Si Si8 0.874680 0.947869 0.904279
O O1 0.250000 0.220160 0.500000
O O2 0.086561 0.211415 0.563310
O O3 0.135769 0.270562 0.314145
O O4 0.167711 0.354840 0.571054
O O5 0.474763 0.172551 0.184276
O O6 0.428572 0.288115 0.964078
O O7 0.277901 0.347318 0.876913
O O8 0.172653 0.482527 0.004527
O O9 0.883167 0.563542 0.838845
O O10 0.031577 0.582421 0.915995
O O11 0.276547 0.058509 0.134535
O O12 0.815788 0.315639 0.071563
O O13 0.866818 0.000000 0.750000
#
# Coordination Sequence:
#
# PCOD9336777 Si02
#       8
#     8   4   4   8   4   4   8   8
#     4  12  26  46  76 107 148 196 253 306 376 453
#     4  12  24  48  74 102 152 196 248 302 378 454
#     4  11  26  44  75 108 150 184 247 314 380 453
#     4  12  26  46  75 103 144 206 247 302 379 455
#     4  12  26  46  72 110 140 200 248 316 364 446
#     4  11  26  48  71 108 150 190 259 302 378 437
#     4  11  27  47  75 110 146 201 242 313 379 447
#     4  12  24  44  72 107 145 187 245 304 370 452
#
# _framework density 21.122788
#
# number of rings (size 3 to 8) (size 9 to 14) (size 15 to 20)
#    0.000    0.333    5.000    3.000    8.167    0.000 
#    0.000    0.000    3.667    0.000    0.000    0.000 
#    0.000    0.000    0.000    0.000    0.000    0.000 
#
# Total GULP energy -133819.954329 kJ/mol
# GULP energy per Si atom -5575.831430 kJ/mol
# Density = 2.107471 g / cm^3
# Si number density = 21.122788 Si / 1000 Ang^3
#
#
#
# Elastic Constant Matrix: (Units=GPa)
#
#
# Indices 1 2 3 4 5 6 
#
# 1 102.2987 37.6442 64.0012 0.0000 0.0000 0.0000
# 2 37.6442 125.1180 51.8944 0.0000 0.0000 0.0000
# 3 64.0012 51.8944 115.9446 0.0000 0.0000 0.0000
# 4 0.0000 0.0000 0.0000 19.6892 0.0000 0.0000
# 5 0.0000 0.0000 0.0000 0.0000 47.1996 0.0000
# 6 0.0000 0.0000 0.0000 0.0000 0.0000 58.0367
#
#
#
# Elastic Compliance Matrix: (Units=1/GPa)
#
#
# Indices 1 2 3 4 5 6 
#
# 1 0.015111 -0.001335 -0.007744 0.000000 0.000000 0.000000
# 2 -0.001335 0.009932 -0.003709 0.000000 0.000000 0.000000
# 3 -0.007744 -0.003709 0.014560 0.000000 0.000000 0.000000
# 4 0.000000 0.000000 0.000000 0.050789 0.000000 0.000000
# 5 0.000000 0.000000 0.000000 0.000000 0.021187 0.000000
# 6 0.000000 0.000000 0.000000 0.000000 0.000000 0.017230
#
#
# Mechanical properties :
#
#
# Convention : Reuss Voigt Hill
#
# Bulk Modulus (GPa) = 71.28506 72.27120 71.77813
# Shear Modulus (GPa) = 31.43461 37.63989 34.53725
#
# Velocity S-wave (km/s) = 3.86188 4.22590 4.04799
# Velocity P-wave (km/s) = 7.32849 7.62234 7.47686
#
# Compressibility (1/GPa) = 0.01402818
#
# Stress axis : x y z
#
# Youngs Moduli (GPa) = 66.17545 100.68209 68.68363
#
# Poissons Ratio (x) = 0.13437 0.53189
# Poissons Ratio (y) = 0.08832 0.25473
# Poissons Ratio (z) = 0.51247 0.37341
#
# Static dielectric constant tensor:
#      x y z
#    x 1.790110 0.000000 0.000000 
#    y 0.000000 1.809350 0.000000 
#    z 0.000000 0.000000 1.761880 
# 
# From -- ./inp_files/14249.got.cif
#   From: 2010.05.17/outbox.cif.g08.bks.cpg/sg24_8_cif.got.tgz:14249.got - 2010.06.04 00:33:39.
