data_PCOD9336948
_publ_section_title
;
Structure prediction by ZEFSAII (Michael W. Deem and Ramdas Pophale) SiO2 
 PCOD9336948
Probable space group: I 21 21 21
;
_chemical_formula_sum "Si O2"
_cell_formula_units_Z 28
_cell_length_a 19.655827
_cell_length_b 11.731345
_cell_length_c 5.090991
_cell_angle_alpha 90.000000
_cell_angle_beta 90.000000
_cell_angle_gamma 90.000000
_cell_volume 1173.927989
_symmetry_space_group_name_H-M "I 21 21 21"
_symmetry_group_IT_number 24
_symmetry_cell_setting 'orthorhombic'
loop_
_space_group_symop_operation_xyz
x,y,z
-x,1/2-y,z
x,-y,1/2-z
1/2-x,y,-z
1/2+x,1/2+y,1/2+z
1/2-x,-y,1/2+z
1/2+x,1/2-y,-z
-x,1/2+y,1/2-z
loop_
_atom_site_type_symbol
_atom_site_label
_atom_site_fract_x
_atom_site_fract_y
_atom_site_fract_z
Si Si1 0.073424 0.693271 0.978593
Si Si2 0.106172 0.111066 0.930545
Si Si3 0.206249 0.767339 0.262959
Si Si4 0.989403 0.000000 0.250000
O O1 0.097300 0.770649 0.730752
O O2 0.000000 0.750000 0.031039
O O3 0.136917 0.705599 0.175466
O O4 0.053927 0.561355 0.023086
O O5 0.111592 0.000000 0.750000
O O6 0.173625 0.121191 0.104251
O O7 0.039965 0.087706 0.105321
O O8 0.250000 0.712289 0.500000
O O9 0.250000 0.784029 0.000000
#
# Coordination Sequence:
#
# PCOD9336948 Si02
#       4
#     8   8   8   4
#     4  12  26  49  79 118 162 209 283 337 406 501
#     4  12  25  48  77 122 162 216 275 345 426 496
#     4  12  27  52  77 114 169 215 266 345 420 509
#     4  12  28  46  84 124 158 222 274 362 414 486
#
# _framework density 23.85155
#
# number of rings (size 3 to 8) (size 9 to 14) (size 15 to 20)
#    0.000    0.000    8.571    0.000    4.000    0.000 
#    7.714    1.429    0.000    0.000    0.000    0.000 
#    0.000    0.000    0.000    0.000    0.000    0.000 
#
# Total GULP energy -78062.723261 kJ/mol
# GULP energy per Si atom -5575.908804 kJ/mol
# Density = 2.379726 g / cm^3
# Si number density = 23.851550 Si / 1000 Ang^3
#
#
#
# Elastic Constant Matrix: (Units=GPa)
#
#
# Indices 1 2 3 4 5 6 
#
# 1 175.1093 30.2471 83.8811 0.0000 0.0000 0.0000
# 2 30.2471 56.8162 48.7251 0.0000 0.0000 0.0000
# 3 83.8811 48.7251 158.6269 0.0000 0.0000 0.0000
# 4 0.0000 0.0000 0.0000 33.1444 0.0000 0.0000
# 5 0.0000 0.0000 0.0000 0.0000 21.8010 0.0000
# 6 0.0000 0.0000 0.0000 0.0000 0.0000 42.8801
#
#
#
# Elastic Compliance Matrix: (Units=1/GPa)
#
#
# Indices 1 2 3 4 5 6 
#
# 1 0.007676 -0.000822 -0.003807 0.000000 0.000000 0.000000
# 2 -0.000822 0.023983 -0.006932 0.000000 0.000000 0.000000
# 3 -0.003807 -0.006932 0.010446 0.000000 0.000000 0.000000
# 4 0.000000 0.000000 0.000000 0.030171 0.000000 0.000000
# 5 0.000000 0.000000 0.000000 0.000000 0.045870 0.000000
# 6 0.000000 0.000000 0.000000 0.000000 0.000000 0.023321
#
#
# Mechanical properties :
#
#
# Convention : Reuss Voigt Hill
#
# Bulk Modulus (GPa) = 52.67567 79.58434 66.13001
# Shear Modulus (GPa) = 29.25399 34.74503 31.99951
#
# Velocity S-wave (km/s) = 3.50595 3.82084 3.66678
# Velocity P-wave (km/s) = 6.20658 7.27352 6.76113
#
# Compressibility (1/GPa) = 0.01898410
#
# Stress axis : x y z
#
# Youngs Moduli (GPa) = 130.27344 41.69576 95.72695
#
# Poissons Ratio (x) = 0.03427 0.36440
# Poissons Ratio (y) = 0.10709 0.66360
# Poissons Ratio (z) = 0.49590 0.28904
#
# Static dielectric constant tensor:
#      x y z
#    x 1.887470 0.000000 0.000000 
#    y 0.000000 1.967470 0.000000 
#    z 0.000000 0.000000 1.971280 
# 
# From -- ./inp_files/5214.got.cif
#   From: 2010.05.17/outbox.cif.g08.bks.cpg/sg24_3_cif.got.tgz:5214.got - 2010.06.04 00:33:39.
