data_PCOD9336589
_publ_section_title
;
Structure prediction by ZEFSAII (Michael W. Deem and Ramdas Pophale) SiO2 
 PCOD9336589
Probable space group: I 21 21 21
;
_chemical_formula_sum "Si O2"
_cell_formula_units_Z 48
_cell_length_a 17.507546
_cell_length_b 26.252325
_cell_length_c 5.216578
_cell_angle_alpha 90.000000
_cell_angle_beta 90.000000
_cell_angle_gamma 90.000000
_cell_volume 2397.611173
_symmetry_space_group_name_H-M "I 21 21 21"
_symmetry_group_IT_number 24
_symmetry_cell_setting 'orthorhombic'
loop_
_space_group_symop_operation_xyz
x,y,z
-x,1/2-y,z
x,-y,1/2-z
1/2-x,y,-z
1/2+x,1/2+y,1/2+z
1/2-x,-y,1/2+z
1/2+x,1/2-y,-z
-x,1/2+y,1/2-z
loop_
_atom_site_type_symbol
_atom_site_label
_atom_site_fract_x
_atom_site_fract_y
_atom_site_fract_z
Si Si1 0.989113 0.441206 0.267896
Si Si2 0.750000 0.473906 0.000000
Si Si3 0.500000 0.750000 0.157778
Si Si4 0.945954 0.164546 0.282337
Si Si5 0.904648 0.690756 0.522591
Si Si6 0.608599 0.415412 0.231070
Si Si7 0.697264 0.763167 0.749225
O O1 0.014708 0.500000 0.250000
O O2 0.927406 0.430912 0.496489
O O3 0.051154 0.396311 0.317572
O O4 0.950394 0.430604 0.993262
O O5 0.789887 0.500000 0.250000
O O6 0.685830 0.443687 0.156323
O O7 0.577748 0.740088 0.309898
O O8 0.484698 0.698596 0.003253
O O9 0.863730 0.190414 0.251904
O O10 0.009704 0.175495 0.064699
O O11 0.874499 0.644304 0.689125
O O12 0.851437 0.710724 0.294282
O O13 0.750000 0.767455 0.500000
O O14 0.750000 0.761952 0.000000
#
# Coordination Sequence:
#
# PCOD9336589 Si02
#       7
#     8   4   4   8   8   8   8
#     4  11  23  41  66  92 118 156 223 274 312 378
#     4  12  24  42  58  78 126 176 208 258 328 386
#     4  12  16  40  68  88 130 168 224 256 340 376
#     4  11  23  40  66  92 129 173 212 268 330 385
#     4  11  23  39  64  93 130 177 218 273 316 397
#     4  11  24  39  60  92 121 164 214 267 317 374
#     4  12  26  40  62  97 138 171 217 268 331 406
#
# _framework density 20.019929000000001
#
# number of rings (size 3 to 8) (size 9 to 14) (size 15 to 20)
#    0.000    0.667    5.000    4.000    1.167    0.000 
#    1.500    0.000    0.000    1.000    0.000    0.000 
#    0.000    0.000    0.000    0.000    0.000    0.000 
#
# Total GULP energy -133830.673754 kJ/mol
# GULP energy per Si atom -5576.278073 kJ/mol
# Density = 1.997436 g / cm^3
# Si number density = 20.019929 Si / 1000 Ang^3
#
#
#
# Elastic Constant Matrix: (Units=GPa)
#
#
# Indices 1 2 3 4 5 6 
#
# 1 89.9335 41.3033 32.8747 0.0000 0.0000 0.0000
# 2 41.3033 154.2707 23.6945 0.0000 0.0000 0.0000
# 3 32.8747 23.6945 89.1800 0.0000 0.0000 0.0000
# 4 0.0000 0.0000 0.0000 2.7540 0.0000 0.0000
# 5 0.0000 0.0000 0.0000 0.0000 26.7969 0.0000
# 6 0.0000 0.0000 0.0000 0.0000 0.0000 18.8228
#
#
#
# Elastic Compliance Matrix: (Units=1/GPa)
#
#
# Indices 1 2 3 4 5 6 
#
# 1 0.014155 -0.003115 -0.004390 0.000000 0.000000 0.000000
# 2 -0.003115 0.007444 -0.000829 0.000000 0.000000 0.000000
# 3 -0.004390 -0.000829 0.013052 0.000000 0.000000 0.000000
# 4 0.000000 0.000000 0.000000 0.363105 0.000000 0.000000
# 5 0.000000 0.000000 0.000000 0.000000 0.037318 0.000000
# 6 0.000000 0.000000 0.000000 0.000000 0.000000 0.053127
#
#
# Mechanical properties :
#
#
# Convention : Reuss Voigt Hill
#
# Bulk Modulus (GPa) = 55.61527 58.79213 57.20370
# Shear Modulus (GPa) = 9.78736 25.37553 17.58144
#
# Velocity S-wave (km/s) = 2.21346 3.56408 2.96665
# Velocity P-wave (km/s) = 5.86283 6.80936 6.35375
#
# Compressibility (1/GPa) = 0.01798067
#
# Stress axis : x y z
#
# Youngs Moduli (GPa) = 70.64663 134.34383 76.61669
#
# Poissons Ratio (x) = 0.41854 0.33636
# Poissons Ratio (y) = 0.22010 0.06353
# Poissons Ratio (z) = 0.31015 0.11141
#
# Static dielectric constant tensor:
#      x y z
#    x 1.763420 0.000000 0.000000 
#    y 0.000000 1.803510 0.000000 
#    z 0.000000 0.000000 1.839490 
# 
# From -- ./inp_files/3813.got.cif
#   From: 2010.05.17/outbox.cif.g08.bks.cpg/sg24_2_cif.got.tgz:3813.got - 2010.06.04 00:33:39.
