data_PCOD9336433
_publ_section_title
;
Structure prediction by ZEFSAII (Michael W. Deem and Ramdas Pophale) SiO2 
 PCOD9336433
Probable space group: I 21 21 21
;
_chemical_formula_sum "Si O2"
_cell_formula_units_Z 64
_cell_length_a 25.333532
_cell_length_b 14.192657
_cell_length_c 8.271448
_cell_angle_alpha 90.000000
_cell_angle_beta 90.000000
_cell_angle_gamma 90.000000
_cell_volume 2974.000206
_symmetry_space_group_name_H-M "I 21 21 21"
_symmetry_group_IT_number 24
_symmetry_cell_setting 'orthorhombic'
loop_
_space_group_symop_operation_xyz
x,y,z
-x,1/2-y,z
x,-y,1/2-z
1/2-x,y,-z
1/2+x,1/2+y,1/2+z
1/2-x,-y,1/2+z
1/2+x,1/2-y,-z
-x,1/2+y,1/2-z
loop_
_atom_site_type_symbol
_atom_site_label
_atom_site_fract_x
_atom_site_fract_y
_atom_site_fract_z
Si Si1 0.939505 0.785322 0.912711
Si Si2 0.110310 0.607930 0.199699
Si Si3 0.175525 0.229149 0.181484
Si Si4 0.917301 0.619682 0.158707
Si Si5 0.436086 0.044258 0.076270
Si Si6 0.512635 0.852885 0.590631
Si Si7 0.135523 0.783654 0.662418
Si Si8 0.269844 0.891878 0.185321
O O1 0.901681 0.789207 0.757301
O O2 0.000000 0.750000 0.877380
O O3 0.923196 0.871529 0.033952
O O4 0.921024 0.696287 0.018040
O O5 0.120872 0.500000 0.250000
O O6 0.160876 0.676967 0.215198
O O7 0.070260 0.644461 0.338051
O O8 0.132363 0.151768 0.238203
O O9 0.229622 0.176100 0.218895
O O10 0.168150 0.252176 0.992133
O O11 0.971012 0.629220 0.262427
O O12 0.914256 0.521250 0.066208
O O13 0.404446 0.140155 0.088711
O O14 0.431569 0.000000 0.250000
O O15 0.496702 0.068231 0.036358
O O16 0.500000 0.750000 0.526505
O O17 0.173965 0.841428 0.783660
O O18 0.271232 0.000000 0.250000
O O19 0.250000 0.893900 0.000000
#
# Coordination Sequence:
#
# PCOD9336433 Si02
#       8
#     8   8   8   8   8   8   8   8
#     4  11  22  40  65  97 137 182 216 273 333 398
#     4  11  22  42  69  96 132 176 233 276 329 398
#     4  11  25  43  66  96 131 176 220 283 333 398
#     4  11  20  40  61  89 124 174 224 258 331 388
#     4  12  25  36  59  95 133 172 222 271 327 409
#     4  12  21  40  60  90 131 181 225 266 334 398
#     4  12  25  43  65  98 142 171 219 273 336 410
#     4  12  27  45  70 100 134 176 220 274 343 413
#
# _framework density 21.519836999999999
#
# number of rings (size 3 to 8) (size 9 to 14) (size 15 to 20)
#    0.000    0.500    6.250    4.125    3.500    1.500 
#    0.000    0.625    0.000    4.500    0.000    0.000 
#    0.000    0.000    0.000    0.000    0.000    0.000 
#
# Total GULP energy -178715.226930 kJ/mol
# GULP energy per Si atom -5584.850842 kJ/mol
# Density = 2.147086 g / cm^3
# Si number density = 21.519837 Si / 1000 Ang^3
#
#
#
# Elastic Constant Matrix: (Units=GPa)
#
#
# Indices 1 2 3 4 5 6 
#
# 1 94.2732 20.5496 28.3526 0.0000 0.0000 0.0000
# 2 20.5496 105.1502 19.5121 0.0000 0.0000 0.0000
# 3 28.3526 19.5121 108.7530 0.0000 0.0000 0.0000
# 4 0.0000 0.0000 0.0000 9.3601 0.0000 0.0000
# 5 0.0000 0.0000 0.0000 0.0000 31.2679 0.0000
# 6 0.0000 0.0000 0.0000 0.0000 0.0000 25.0209
#
#
#
# Elastic Compliance Matrix: (Units=1/GPa)
#
#
# Indices 1 2 3 4 5 6 
#
# 1 0.011830 -0.001800 -0.002761 0.000000 0.000000 0.000000
# 2 -0.001800 0.010111 -0.001345 0.000000 0.000000 0.000000
# 3 -0.002761 -0.001345 0.010156 0.000000 0.000000 0.000000
# 4 0.000000 0.000000 0.000000 0.106837 0.000000 0.000000
# 5 0.000000 0.000000 0.000000 0.000000 0.031982 0.000000
# 6 0.000000 0.000000 0.000000 0.000000 0.000000 0.039967
#
#
# Mechanical properties :
#
#
# Convention : Reuss Voigt Hill
#
# Bulk Modulus (GPa) = 49.29455 49.44497 49.36976
# Shear Modulus (GPa) = 21.79056 29.11392 25.45224
#
# Velocity S-wave (km/s) = 3.18556 3.68215 3.44282
# Velocity P-wave (km/s) = 6.04042 6.41124 6.22859
#
# Compressibility (1/GPa) = 0.02028622
#
# Stress axis : x y z
#
# Youngs Moduli (GPa) = 84.52938 98.89745 98.46046
#
# Poissons Ratio (x) = 0.17797 0.27188
# Poissons Ratio (y) = 0.15212 0.13243
# Poissons Ratio (z) = 0.23341 0.13302
#
# Static dielectric constant tensor:
#      x y z
#    x 1.851370 0.000000 0.000000 
#    y 0.000000 1.794660 0.000000 
#    z 0.000000 0.000000 1.854600 
# 
# From -- ./inp_files/16075.got.cif
#   From: 2010.05.17/outbox.cif.g08.bks.cpg/sg24_9_cif.got.tgz:16075.got - 2010.06.04 00:33:39.
