data_PCOD9336464
_publ_section_title
;
Structure prediction by ZEFSAII (Michael W. Deem and Ramdas Pophale) SiO2 
 PCOD9336464
Probable space group: I 21 21 21
;
_chemical_formula_sum "Si O2"
_cell_formula_units_Z 60
_cell_length_a 17.134880
_cell_length_b 11.135003
_cell_length_c 14.794934
_cell_angle_alpha 90.000000
_cell_angle_beta 90.000000
_cell_angle_gamma 90.000000
_cell_volume 2822.828138
_symmetry_space_group_name_H-M "I 21 21 21"
_symmetry_group_IT_number 24
_symmetry_cell_setting 'orthorhombic'
loop_
_space_group_symop_operation_xyz
x,y,z
-x,1/2-y,z
x,-y,1/2-z
1/2-x,y,-z
1/2+x,1/2+y,1/2+z
1/2-x,-y,1/2+z
1/2+x,1/2-y,-z
-x,1/2+y,1/2-z
loop_
_atom_site_type_symbol
_atom_site_label
_atom_site_fract_x
_atom_site_fract_y
_atom_site_fract_z
Si Si1 0.556226 0.525967 0.481767
Si Si2 0.417789 0.188237 0.194182
Si Si3 0.194663 0.023040 0.089036
Si Si4 0.748597 0.239869 0.168815
Si Si5 0.250000 0.583913 0.500000
Si Si6 0.623673 0.298212 0.391822
Si Si7 0.106366 0.417065 0.503614
Si Si8 0.697077 0.253353 0.635428
O O1 0.565982 0.600599 0.389608
O O2 0.613332 0.581176 0.556498
O O3 0.595628 0.397068 0.461606
O O4 0.468765 0.499820 0.513505
O O5 0.500000 0.250000 0.210518
O O6 0.345267 0.275332 0.170802
O O7 0.390223 0.145655 0.293331
O O8 0.176486 0.895019 0.134280
O O9 0.238317 0.118158 0.152088
O O10 0.250000 0.009488 0.000000
O O11 0.789937 0.206973 0.262496
O O12 0.777217 0.165922 0.083019
O O13 0.178831 0.499998 0.529509
O O14 0.582123 0.172707 0.414787
O O15 0.714252 0.261866 0.402703
O O16 0.139141 0.330911 0.422588
#
# Coordination Sequence:
#
# PCOD9336464 Si02
#       8
#     8   8   8   8   4   8   8   8
#     4  12  23  36  68  95 133 173 224 292 344 407
#     4  11  22  38  59 102 139 168 214 285 365 423
#     4  12  20  40  70  98 125 171 229 286 363 408
#     4  11  24  42  69  97 132 178 230 292 352 431
#     4  12  24  46  66  92 134 184 232 272 362 440
#     4  11  21  39  61  95 133 172 223 273 343 421
#     4  12  24  42  65  97 135 191 229 273 350 432
#     4  11  22  41  68  97 130 176 229 281 338 433
#
# _framework density 21.255278000000001
#
# number of rings (size 3 to 8) (size 9 to 14) (size 15 to 20)
#    0.000    0.533    6.000    2.800    0.000    2.667 
#    0.000    1.333    8.800    0.000    0.000    0.000 
#    0.000    0.000    0.000    0.000    0.000    0.000 
#
# Total GULP energy -167446.989478 kJ/mol
# GULP energy per Si atom -5581.566316 kJ/mol
# Density = 2.120690 g / cm^3
# Si number density = 21.255278 Si / 1000 Ang^3
#
#
#
# Elastic Constant Matrix: (Units=GPa)
#
#
# Indices 1 2 3 4 5 6 
#
# 1 112.5888 8.8192 26.8189 0.0000 0.0000 0.0000
# 2 8.8192 52.3024 31.8114 0.0000 0.0000 0.0000
# 3 26.8189 31.8114 98.8903 0.0000 0.0000 0.0000
# 4 0.0000 0.0000 0.0000 20.9624 0.0000 0.0000
# 5 0.0000 0.0000 0.0000 0.0000 29.0821 0.0000
# 6 0.0000 0.0000 0.0000 0.0000 0.0000 17.4048
#
#
#
# Elastic Compliance Matrix: (Units=1/GPa)
#
#
# Indices 1 2 3 4 5 6 
#
# 1 0.009495 -0.000043 -0.002561 0.000000 0.000000 0.000000
# 2 -0.000043 0.023771 -0.007635 0.000000 0.000000 0.000000
# 3 -0.002561 -0.007635 0.013263 0.000000 0.000000 0.000000
# 4 0.000000 0.000000 0.000000 0.047704 0.000000 0.000000
# 5 0.000000 0.000000 0.000000 0.000000 0.034385 0.000000
# 6 0.000000 0.000000 0.000000 0.000000 0.000000 0.057455
#
#
# Mechanical properties :
#
#
# Convention : Reuss Voigt Hill
#
# Bulk Modulus (GPa) = 38.38772 44.29782 41.34277
# Shear Modulus (GPa) = 23.23031 26.57866 24.90448
#
# Velocity S-wave (km/s) = 3.30952 3.54001 3.42670
# Velocity P-wave (km/s) = 5.71869 6.13147 5.92868
#
# Compressibility (1/GPa) = 0.02605000
#
# Stress axis : x y z
#
# Youngs Moduli (GPa) = 105.31467 42.06881 75.39880
#
# Poissons Ratio (x) = 0.00182 0.19311
# Poissons Ratio (y) = 0.00456 0.57566
# Poissons Ratio (z) = 0.26973 0.32119
#
# Static dielectric constant tensor:
#      x y z
#    x 1.801340 0.000000 0.000000 
#    y 0.000000 1.828320 0.000000 
#    z 0.000000 0.000000 1.819950 
# 
# From -- ./inp_files/27202.got.cif
#   From: 2010.05.17/outbox.cif.g08.bks.cpg/sg24_14_cif.got.tgz:27202.got - 2010.06.04 00:33:39.
