data_PCOD9336340
_publ_section_title
;
Structure prediction by ZEFSAII (Michael W. Deem and Ramdas Pophale) SiO2 
 PCOD9336340
Probable space group: I 21 21 21
;
_chemical_formula_sum "Si O2"
_cell_formula_units_Z 32
_cell_length_a 5.698309
_cell_length_b 20.289433
_cell_length_c 11.590212
_cell_angle_alpha 90.000000
_cell_angle_beta 90.000000
_cell_angle_gamma 90.000000
_cell_volume 1340.007676
_symmetry_space_group_name_H-M "I 21 21 21"
_symmetry_group_IT_number 24
_symmetry_cell_setting 'orthorhombic'
loop_
_space_group_symop_operation_xyz
x,y,z
-x,1/2-y,z
x,-y,1/2-z
1/2-x,y,-z
1/2+x,1/2+y,1/2+z
1/2-x,-y,1/2+z
1/2+x,1/2-y,-z
-x,1/2+y,1/2-z
loop_
_atom_site_type_symbol
_atom_site_label
_atom_site_fract_x
_atom_site_fract_y
_atom_site_fract_z
Si Si1 0.750000 0.789705 0.000000
Si Si2 0.420559 0.575472 0.600492
Si Si3 0.807578 0.705024 0.380789
Si Si4 0.737950 0.500000 0.250000
Si Si5 0.942992 0.130156 0.719144
O O1 0.500000 0.750000 0.973644
O O2 0.836645 0.834528 0.892447
O O3 0.250000 0.552894 0.500000
O O4 0.564145 0.640349 0.569893
O O5 0.600183 0.521910 0.644258
O O6 0.267443 0.601342 0.706022
O O7 0.750000 0.743067 0.500000
O O8 0.601367 0.680653 0.296396
O O9 0.000000 0.750000 0.316864
O O10 0.598473 0.564054 0.205831
#
# Coordination Sequence:
#
# PCOD9336340 Si02
#       5
#     4   8   8   4   8
#     4  12  34  58  86 122 178 242 290 352 428 532
#     4  11  23  47  76 114 153 205 271 353 430 509
#     4  11  24  41  76 118 156 201 261 346 432 504
#     4  10  26  50  80 118 158 212 278 356 432 518
#     4  11  27  54  76 116 159 220 280 352 420 519
#
# _framework density 23.880458999999998
#
# number of rings (size 3 to 8) (size 9 to 14) (size 15 to 20)
#    0.000    1.000    2.500    1.500   10.500    0.000 
#   13.500    0.000    0.000    0.000    0.000    0.000 
#    0.000    0.000    0.000    0.000    0.000    0.000 
#
# Total GULP energy -89470.652083 kJ/mol
# GULP energy per Si atom -5591.915755 kJ/mol
# Density = 2.382611 g / cm^3
# Si number density = 23.880459 Si / 1000 Ang^3
#
#
#
# Elastic Constant Matrix: (Units=GPa)
#
#
# Indices 1 2 3 4 5 6 
#
# 1 177.5528 93.8860 89.7952 0.0000 0.0000 0.0000
# 2 93.8860 144.2138 78.9889 0.0001 0.0000 0.0000
# 3 89.7952 78.9889 167.6898 0.0001 0.0000 0.0000
# 4 0.0000 0.0001 0.0001 285.2389 0.0000 0.0001
# 5 0.0000 0.0000 0.0000 0.0000 28.3886 0.0000
# 6 0.0000 0.0000 0.0000 0.0001 0.0000 -46.9213
#
#
#
# Elastic Compliance Matrix: (Units=1/GPa)
#
#
# Indices 1 2 3 4 5 6 
#
# 1 0.009560 -0.004609 -0.002948 0.000000 0.000000 0.000000
# 2 -0.004609 0.011567 -0.002981 0.000000 0.000000 0.000000
# 3 -0.002948 -0.002981 0.008946 0.000000 0.000000 0.000000
# 4 0.000000 0.000000 0.000000 0.003506 0.000000 0.000000
# 5 0.000000 0.000000 0.000000 0.000000 0.035225 0.000000
# 6 0.000000 0.000000 0.000000 0.000000 0.000000 -0.021312
#
#
# Mechanical properties :
#
#
# Convention : Reuss Voigt Hill
#
# Bulk Modulus (GPa) = 111.13869 112.75518 111.94694
# Shear Modulus (GPa) = 69.86331 68.46032 69.16182
#
# Velocity S-wave (km/s) = 5.41470 5.36005 5.38744
# Velocity P-wave (km/s) = 9.25919 9.25343 9.25631
#
# Compressibility (1/GPa) = 0.00899777
#
# Stress axis : x y z
#
# Youngs Moduli (GPa) = 104.59765 86.45048 111.77976
#
# Poissons Ratio (x) = 0.39846 0.32957
# Poissons Ratio (y) = 0.48211 0.33317
# Poissons Ratio (z) = 0.30839 0.25767
#
# Static dielectric constant tensor:
#      x y z
#    x 2.022250 0.000000 0.000000 
#    y 0.000000 2.155100 0.000000 
#    z 0.000000 0.000000 1.953030 
# 
# From -- ./inp_files/17394.got.cif
#   From: 2010.05.17/outbox.cif.g08.bks.cpg/sg24_9_cif.got.tgz:17394.got - 2010.06.04 00:33:39.
