data_PCOD9336838
_publ_section_title
;
Structure prediction by ZEFSAII (Michael W. Deem and Ramdas Pophale) SiO2 
 PCOD9336838
Probable space group: I 21 21 21
;
_chemical_formula_sum "Si O2"
_cell_formula_units_Z 40
_cell_length_a 15.877268
_cell_length_b 7.015512
_cell_length_c 16.335010
_cell_angle_alpha 90.000000
_cell_angle_beta 90.000000
_cell_angle_gamma 90.000000
_cell_volume 1819.510441
_symmetry_space_group_name_H-M "I 21 21 21"
_symmetry_group_IT_number 24
_symmetry_cell_setting 'orthorhombic'
loop_
_space_group_symop_operation_xyz
x,y,z
-x,1/2-y,z
x,-y,1/2-z
1/2-x,y,-z
1/2+x,1/2+y,1/2+z
1/2-x,-y,1/2+z
1/2+x,1/2-y,-z
-x,1/2+y,1/2-z
loop_
_atom_site_type_symbol
_atom_site_label
_atom_site_fract_x
_atom_site_fract_y
_atom_site_fract_z
Si Si1 0.925535 0.401963 0.033834
Si Si2 0.390925 0.500000 0.750000
Si Si3 0.750000 0.894204 0.000000
Si Si4 0.167515 0.000000 0.750000
Si Si5 0.000000 0.250000 0.370767
Si Si6 0.095482 0.832225 0.906080
Si Si7 0.222667 0.270662 0.131993
O O1 0.950064 0.600433 0.075257
O O2 0.837108 0.342932 0.070451
O O3 0.000000 0.250000 0.048261
O O4 0.914328 0.451828 0.939574
O O5 0.444642 0.383223 0.685849
O O6 0.335778 0.349233 0.796649
O O7 0.830976 0.769034 0.964416
O O8 0.743669 0.040916 0.922413
O O9 0.120827 0.149549 0.689194
O O10 0.217370 0.128574 0.817308
O O11 0.000000 0.750000 0.912431
#
# Coordination Sequence:
#
# PCOD9336838 Si02
#       7
#     8   4   4   4   4   8   8
#     4  12  23  45  72 109 145 198 257 314 393 470
#     4  12  22  37  65 102 148 190 236 318 399 457
#     4  12  26  50  78 112 148 208 266 314 388 470
#     4  12  28  47  69 108 152 200 256 318 381 453
#     4  12  22  40  62 110 148 190 252 316 396 474
#     4  12  27  49  77 109 150 199 260 321 381 455
#     4  12  24  44  70 104 151 200 250 315 391 462
#
# _framework density 21.983934999999999
#
# number of rings (size 3 to 8) (size 9 to 14) (size 15 to 20)
#    0.000    0.000    3.000    8.400    0.000    2.400 
#    0.000    0.000    0.000    0.000    0.000    0.000 
#    0.000    0.000    0.000    0.000    0.000    0.000 
#
# Total GULP energy -111459.828095 kJ/mol
# GULP energy per Si atom -5572.991405 kJ/mol
# Density = 2.193390 g / cm^3
# Si number density = 21.983935 Si / 1000 Ang^3
#
#
#
# Elastic Constant Matrix: (Units=GPa)
#
#
# Indices 1 2 3 4 5 6 
#
# 1 136.3235 63.8195 69.0409 0.0000 0.0000 0.0000
# 2 63.8195 100.0081 31.4204 0.0000 0.0000 0.0000
# 3 69.0409 31.4204 110.4264 0.0000 0.0000 0.0000
# 4 0.0000 0.0000 0.0000 25.5186 0.0000 0.0000
# 5 0.0000 0.0000 0.0000 0.0000 -124.7913 0.0000
# 6 0.0000 0.0000 0.0000 0.0000 0.0000 44.0659
#
#
#
# Elastic Compliance Matrix: (Units=1/GPa)
#
#
# Indices 1 2 3 4 5 6 
#
# 1 0.013941 -0.006763 -0.006792 0.000000 0.000000 0.000000
# 2 -0.006763 0.014261 0.000170 0.000000 0.000000 0.000000
# 3 -0.006792 0.000170 0.013254 0.000000 0.000000 0.000000
# 4 0.000000 0.000000 0.000000 0.039187 0.000000 0.000000
# 5 0.000000 0.000000 0.000000 0.000000 -0.008013 0.000000
# 6 0.000000 0.000000 0.000000 0.000000 0.000000 0.022693
#
#
# Mechanical properties :
#
#
# Convention : Reuss Voigt Hill
#
# Bulk Modulus (GPa) = 68.08527 75.03552 71.56039
# Shear Modulus (GPa) = 39.37375 1.12379 20.24877
#
# Velocity S-wave (km/s) = 4.23664 0.71575 3.03821
# Velocity P-wave (km/s) = 7.41417 5.90670 6.70295
#
# Compressibility (1/GPa) = 0.01468747
#
# Stress axis : x y z
#
# Youngs Moduli (GPa) = 71.72956 70.12044 75.44907
#
# Poissons Ratio (x) = 0.47419 0.51246
# Poissons Ratio (y) = 0.48508 -0.01285
# Poissons Ratio (z) = 0.48720 -0.01194
#
# Static dielectric constant tensor:
#      x y z
#    x 1.900300 0.000000 0.000000 
#    y 0.000000 1.745750 0.000000 
#    z 0.000000 0.000000 1.880530 
# 
# From -- ./inp_files/31032.got.cif
#   From: 2010.05.17/outbox.cif.g08.bks.cpg/sg24_16_cif.got.tgz:31032.got - 2010.06.04 00:33:39.
