data_PCOD9336068
_publ_section_title
;
Structure prediction by ZEFSAII (Michael W. Deem and Ramdas Pophale) SiO2 
 PCOD9336068
Probable space group: I 21 21 21
;
_chemical_formula_sum "Si O2"
_cell_formula_units_Z 36
_cell_length_a 22.443092
_cell_length_b 5.101452
_cell_length_c 15.090506
_cell_angle_alpha 90.000000
_cell_angle_beta 90.000000
_cell_angle_gamma 90.000000
_cell_volume 1727.747594
_symmetry_space_group_name_H-M "I 21 21 21"
_symmetry_group_IT_number 24
_symmetry_cell_setting 'orthorhombic'
loop_
_space_group_symop_operation_xyz
x,y,z
-x,1/2-y,z
x,-y,1/2-z
1/2-x,y,-z
1/2+x,1/2+y,1/2+z
1/2-x,-y,1/2+z
1/2+x,1/2-y,-z
-x,1/2+y,1/2-z
loop_
_atom_site_type_symbol
_atom_site_label
_atom_site_fract_x
_atom_site_fract_y
_atom_site_fract_z
Si Si1 0.118303 0.500000 0.250000
Si Si2 0.654452 0.074791 0.450665
Si Si3 0.069899 0.718195 0.429525
Si Si4 0.327830 0.133688 0.616076
Si Si5 0.800298 0.570931 0.646999
O O1 0.079583 0.579930 0.334308
O O2 0.158268 0.267766 0.289841
O O3 0.593143 0.955746 0.488462
O O4 0.680850 0.857269 0.385431
O O5 0.685415 0.134137 0.545693
O O6 0.659482 0.353227 0.402606
O O7 0.000000 0.750000 0.440596
O O8 0.114520 0.969205 0.417894
O O9 0.268419 0.965960 0.619280
O O10 0.805051 0.500000 0.750000
#
# Coordination Sequence:
#
# PCOD9336068 Si02
#       5
#     4   8   8   8   8
#     4  10  24  38  68 102 144 188 230 268 344 410
#     4  11  26  44  70 102 135 186 225 282 347 408
#     4  11  25  44  68 100 142 188 233 279 336 419
#     4  11  25  43  68 104 146 182 229 277 353 416
#     4  12  26  44  72 104 143 172 233 289 350 409
#
# _framework density 20.836375
#
# number of rings (size 3 to 8) (size 9 to 14) (size 15 to 20)
#    0.000    0.889    2.222    3.333   15.556    2.667 
#    0.000    0.000    0.000    2.667    0.000    0.000 
#    0.000    0.000    0.000    0.000    0.000    0.000 
#
# Total GULP energy -100529.991396 kJ/mol
# GULP energy per Si atom -5584.999522 kJ/mol
# Density = 2.078895 g / cm^3
# Si number density = 20.836375 Si / 1000 Ang^3
#
#
#
# Elastic Constant Matrix: (Units=GPa)
#
#
# Indices 1 2 3 4 5 6 
#
# 1 89.3969 12.1965 35.3372 0.0000 0.0000 0.0000
# 2 12.1965 89.9217 19.8889 0.0000 0.0000 0.0000
# 3 35.3372 19.8889 88.7367 0.0000 0.0000 0.0000
# 4 0.0000 0.0000 0.0000 48.9786 0.0000 0.0000
# 5 0.0000 0.0000 0.0000 0.0000 19.5002 0.0000
# 6 0.0000 0.0000 0.0000 0.0000 0.0000 17.5597
#
#
#
# Elastic Compliance Matrix: (Units=1/GPa)
#
#
# Indices 1 2 3 4 5 6 
#
# 1 0.013314 -0.000666 -0.005153 0.000000 0.000000 0.000000
# 2 -0.000666 0.011734 -0.002365 0.000000 0.000000 0.000000
# 3 -0.005153 -0.002365 0.013851 0.000000 0.000000 0.000000
# 4 0.000000 0.000000 0.000000 0.020417 0.000000 0.000000
# 5 0.000000 0.000000 0.000000 0.000000 0.051282 0.000000
# 6 0.000000 0.000000 0.000000 0.000000 0.000000 0.056948
#
#
# Mechanical properties :
#
#
# Convention : Reuss Voigt Hill
#
# Bulk Modulus (GPa) = 44.38103 44.76674 44.57388
# Shear Modulus (GPa) = 26.12005 30.58321 28.35163
#
# Velocity S-wave (km/s) = 3.54443 3.83532 3.69274
# Velocity P-wave (km/s) = 6.17225 6.41439 6.29449
#
# Compressibility (1/GPa) = 0.02253215
#
# Stress axis : x y z
#
# Youngs Moduli (GPa) = 75.11073 85.22115 72.19598
#
# Poissons Ratio (x) = 0.05677 0.37199
# Poissons Ratio (y) = 0.05004 0.17073
# Poissons Ratio (z) = 0.38701 0.20153
#
# Static dielectric constant tensor:
#      x y z
#    x 1.756710 0.000000 0.000000 
#    y 0.000000 1.840220 0.000000 
#    z 0.000000 0.000000 1.788930 
# 
# From -- ./inp_files/23620.got.cif
#   From: 2010.05.17/outbox.cif.g08.bks.cpg/sg24_12_cif.got.tgz:23620.got - 2010.06.04 00:33:39.
