data_PCOD9336360
_publ_section_title
;
Structure prediction by ZEFSAII (Michael W. Deem and Ramdas Pophale) SiO2 
 PCOD9336360
Probable space group: I 21 21 21
;
_chemical_formula_sum "Si O2"
_cell_formula_units_Z 48
_cell_length_a 20.596384
_cell_length_b 9.442099
_cell_length_c 15.062576
_cell_angle_alpha 90.000000
_cell_angle_beta 90.000000
_cell_angle_gamma 90.000000
_cell_volume 2929.265800
_symmetry_space_group_name_H-M "I 21 21 21"
_symmetry_group_IT_number 24
_symmetry_cell_setting 'orthorhombic'
loop_
_space_group_symop_operation_xyz
x,y,z
-x,1/2-y,z
x,-y,1/2-z
1/2-x,y,-z
1/2+x,1/2+y,1/2+z
1/2-x,-y,1/2+z
1/2+x,1/2-y,-z
-x,1/2+y,1/2-z
loop_
_atom_site_type_symbol
_atom_site_label
_atom_site_fract_x
_atom_site_fract_y
_atom_site_fract_z
Si Si1 0.263809 0.663966 0.760690
Si Si2 0.393337 0.336722 0.264390
Si Si3 0.897364 0.421690 0.845840
Si Si4 0.308918 0.817595 0.935600
Si Si5 0.246771 0.921826 0.346049
Si Si6 0.065079 0.184199 0.554683
O O1 0.279540 0.500000 0.750000
O O2 0.185279 0.676202 0.772642
O O3 0.300028 0.728439 0.845642
O O4 0.276788 0.763748 0.675426
O O5 0.410736 0.500000 0.250000
O O6 0.414664 0.238423 0.181429
O O7 0.421303 0.273595 0.355210
O O8 0.899110 0.500000 0.750000
O O9 0.821869 0.423375 0.876240
O O10 0.937287 0.520239 0.912774
O O11 0.296463 0.981242 0.908673
O O12 0.250000 0.775170 0.000000
O O13 0.375458 0.799459 0.987479
O O14 0.247310 0.000000 0.250000
O O15 0.000000 0.250000 0.515721
#
# Coordination Sequence:
#
# PCOD9336360 Si02
#       6
#     8   8   8   8   8   8
#     4   9  17  31  52  77 101 125 161 209 257 300
#     4   9  17  30  49  74 102 133 163 191 245 317
#     4   8  14  28  46  67  95 127 163 193 233 298
#     4  11  17  31  52  71  97 131 168 209 251 292
#     4   8  14  27  50  72  91 123 161 199 241 296
#     4  11  21  31  46  71 100 134 169 210 248 289
#
# _framework density 16.386358999999999
#
# number of rings (size 3 to 8) (size 9 to 14) (size 15 to 20)
#    0.000    2.667    3.333    2.000    0.000    2.000 
#    0.000    2.500    0.000    3.000    0.000    0.000 
#    0.000    0.000    0.000    0.000    0.000    0.000 
#
# Total GULP energy -133691.820139 kJ/mol
# GULP energy per Si atom -5570.492506 kJ/mol
# Density = 1.634906 g / cm^3
# Si number density = 16.386359 Si / 1000 Ang^3
#
#
#
# Elastic Constant Matrix: (Units=GPa)
#
#
# Indices 1 2 3 4 5 6 
#
# 1 77.5782 31.4021 28.3640 0.0000 0.0000 0.0000
# 2 31.4021 131.3793 23.8552 0.0000 0.0000 0.0000
# 3 28.3640 23.8552 42.5730 0.0000 0.0000 0.0000
# 4 0.0000 0.0000 0.0000 17.3149 0.0000 0.0000
# 5 0.0000 0.0000 0.0000 0.0000 16.1849 0.0000
# 6 0.0000 0.0000 0.0000 0.0000 0.0000 11.1061
#
#
#
# Elastic Compliance Matrix: (Units=1/GPa)
#
#
# Indices 1 2 3 4 5 6 
#
# 1 0.017655 -0.002320 -0.010462 0.000000 0.000000 0.000000
# 2 -0.002320 0.008779 -0.003373 0.000000 0.000000 0.000000
# 3 -0.010462 -0.003373 0.032350 0.000000 0.000000 0.000000
# 4 0.000000 0.000000 0.000000 0.057754 0.000000 0.000000
# 5 0.000000 0.000000 0.000000 0.000000 0.061786 0.000000
# 6 0.000000 0.000000 0.000000 0.000000 0.000000 0.090040
#
#
# Mechanical properties :
#
#
# Convention : Reuss Voigt Hill
#
# Bulk Modulus (GPa) = 37.77620 46.53034 42.15327
# Shear Modulus (GPa) = 16.15521 20.11514 18.13517
#
# Velocity S-wave (km/s) = 3.14330 3.50745 3.33035
# Velocity P-wave (km/s) = 6.02306 6.69779 6.36936
#
# Compressibility (1/GPa) = 0.02647169
#
# Stress axis : x y z
#
# Youngs Moduli (GPa) = 56.64277 113.91364 30.91232
#
# Poissons Ratio (x) = 0.26429 0.32341
# Poissons Ratio (y) = 0.13142 0.10427
# Poissons Ratio (z) = 0.59261 0.38425
#
# Static dielectric constant tensor:
#      x y z
#    x 1.555420 0.000000 0.000000 
#    y 0.000000 1.601830 0.000000 
#    z 0.000000 0.000000 1.548110 
# 
# From -- ./inp_files/12969.got.cif
#   From: 2010.05.17/outbox.cif.g08.bks.cpg/sg24_7_cif.got.tgz:12969.got - 2010.06.04 00:33:39.
