data_PCOD9336874
_publ_section_title
;
Structure prediction by ZEFSAII (Michael W. Deem and Ramdas Pophale) SiO2 
 PCOD9336874
Probable space group: I 21 21 21
;
_chemical_formula_sum "Si O2"
_cell_formula_units_Z 32
_cell_length_a 17.966335
_cell_length_b 12.169595
_cell_length_c 6.036819
_cell_angle_alpha 90.000000
_cell_angle_beta 90.000000
_cell_angle_gamma 90.000000
_cell_volume 1319.908341
_symmetry_space_group_name_H-M "I 21 21 21"
_symmetry_group_IT_number 24
_symmetry_cell_setting 'orthorhombic'
loop_
_space_group_symop_operation_xyz
x,y,z
-x,1/2-y,z
x,-y,1/2-z
1/2-x,y,-z
1/2+x,1/2+y,1/2+z
1/2-x,-y,1/2+z
1/2+x,1/2-y,-z
-x,1/2+y,1/2-z
loop_
_atom_site_type_symbol
_atom_site_label
_atom_site_fract_x
_atom_site_fract_y
_atom_site_fract_z
Si Si1 0.559424 0.912956 0.429827
Si Si2 0.924488 0.621611 0.232416
Si Si3 0.000000 0.250000 0.645480
Si Si4 0.777835 0.244699 0.252028
Si Si5 0.815658 0.000000 0.250000
O O1 0.492960 0.886838 0.597885
O O2 0.566760 0.801021 0.290894
O O3 0.628739 0.968202 0.550217
O O4 0.534374 0.000000 0.250000
O O5 0.888884 0.500000 0.250000
O O6 0.863376 0.715588 0.262577
O O7 0.964129 0.657129 0.006617
O O8 0.750000 0.286565 0.500000
O O9 0.770572 0.112486 0.271353
O O10 0.750000 0.275118 0.000000
#
# Coordination Sequence:
#
# PCOD9336874 Si02
#       5
#     8   8   4   8   4
#     4  12  23  42  78 116 152 193 243 343 408 465
#     4  12  26  49  74 115 155 202 265 321 403 476
#     4  12  24  44  76 118 156 194 252 334 416 472
#     4  12  31  52  78 111 160 223 270 319 383 482
#     4  12  26  50  78 118 154 194 274 336 410 460
#
# _framework density 24.244109000000002
#
# number of rings (size 3 to 8) (size 9 to 14) (size 15 to 20)
#    0.000    0.000    3.750    6.000   10.500    1.000 
#    0.000    0.000    0.000    0.000    0.000    0.000 
#    0.000    0.000    0.000    0.000    0.000    0.000 
#
# Total GULP energy -89305.757560 kJ/mol
# GULP energy per Si atom -5581.609848 kJ/mol
# Density = 2.418893 g / cm^3
# Si number density = 24.244109 Si / 1000 Ang^3
#
#
#
# Elastic Constant Matrix: (Units=GPa)
#
#
# Indices 1 2 3 4 5 6 
#
# 1 52.7059 -23.9700 48.5316 0.0000 0.0000 0.0000
# 2 -23.9700 64.4074 23.4392 0.0000 0.0000 0.0000
# 3 48.5316 23.4392 189.6913 0.0000 0.0000 0.0000
# 4 0.0000 0.0000 0.0000 50.6165 0.0000 0.0000
# 5 0.0000 0.0000 0.0000 0.0000 317.5624 0.0000
# 6 0.0000 0.0000 0.0000 0.0000 0.0000 38.5824
#
#
#
# Elastic Compliance Matrix: (Units=1/GPa)
#
#
# Indices 1 2 3 4 5 6 
#
# 1 0.038925 0.018964 -0.012302 0.000000 0.000000 0.000000
# 2 0.018964 0.025496 -0.008002 0.000000 0.000000 0.000000
# 3 -0.012302 -0.008002 0.009408 0.000000 0.000000 0.000000
# 4 0.000000 0.000000 0.000000 0.019756 0.000000 0.000000
# 5 0.000000 0.000000 0.000000 0.000000 0.003149 0.000000
# 6 0.000000 0.000000 0.000000 0.000000 0.000000 0.025919
#
#
# Mechanical properties :
#
#
# Convention : Reuss Voigt Hill
#
# Bulk Modulus (GPa) = 14.05525 44.75624 29.40574
# Shear Modulus (GPa) = 33.54571 98.60585 66.07578
#
# Velocity S-wave (km/s) = 3.72380 6.38439 5.22623
# Velocity P-wave (km/s) = 4.92939 8.53510 6.96946
#
# Compressibility (1/GPa) = 0.07114780
#
# Stress axis : x y z
#
# Youngs Moduli (GPa) = 25.69018 39.22211 106.29326
#
# Poissons Ratio (x) = -0.74379 1.30763
# Poissons Ratio (y) = -0.48718 0.85057
# Poissons Ratio (z) = 0.31604 0.31386
#
# Static dielectric constant tensor:
#      x y z
#    x 1.894390 0.000000 0.000000 
#    y 0.000000 1.895000 0.000000 
#    z 0.000000 0.000000 2.012800 
# 
# From -- ./inp_files/2006.got.cif
#   From: 2010.05.17/outbox.cif.g08.bks.cpg/sg24_2_cif.got.tgz:2006.got - 2010.06.04 00:33:39.
