data_PCOD9336238
_publ_section_title
;
Structure prediction by ZEFSAII (Michael W. Deem and Ramdas Pophale) SiO2 
 PCOD9336238
Probable space group: I 21 21 21
;
_chemical_formula_sum "Si O2"
_cell_formula_units_Z 32
_cell_length_a 8.997941
_cell_length_b 11.538118
_cell_length_c 13.817163
_cell_angle_alpha 90.000000
_cell_angle_beta 90.000000
_cell_angle_gamma 90.000000
_cell_volume 1434.488260
_symmetry_space_group_name_H-M "I 21 21 21"
_symmetry_group_IT_number 24
_symmetry_cell_setting 'orthorhombic'
loop_
_space_group_symop_operation_xyz
x,y,z
-x,1/2-y,z
x,-y,1/2-z
1/2-x,y,-z
1/2+x,1/2+y,1/2+z
1/2-x,-y,1/2+z
1/2+x,1/2-y,-z
-x,1/2+y,1/2-z
loop_
_atom_site_type_symbol
_atom_site_label
_atom_site_fract_x
_atom_site_fract_y
_atom_site_fract_z
Si Si1 0.690214 0.500000 0.250000
Si Si2 0.135181 0.665871 0.577089
Si Si3 0.163716 0.250508 0.230747
Si Si4 0.000000 0.250000 0.419179
Si Si5 0.913737 0.474290 0.538670
O O1 0.780910 0.382581 0.226541
O O2 0.600134 0.467113 0.345585
O O3 0.250000 0.717138 0.500000
O O4 0.228473 0.661484 0.676124
O O5 0.000000 0.750000 0.599847
O O6 0.055304 0.557696 0.526532
O O7 0.131538 0.281386 0.342958
O O8 0.000000 0.250000 0.183663
O O9 0.051453 0.144162 0.484069
O O10 0.750000 0.512712 0.500000
#
# Coordination Sequence:
#
# PCOD9336238 Si02
#       5
#     4   8   8   4   8
#     4  12  24  48  80 106 156 200 258 322 388 458
#     4  12  26  44  72 113 154 198 259 325 387 465
#     4  10  24  48  77 108 147 210 263 314 389 466
#     4  10  26  50  82 104 158 202 262 314 388 470
#     4  12  26  49  77 111 152 204 252 323 391 456
#
# _framework density 22.307607999999998
#
# number of rings (size 3 to 8) (size 9 to 14) (size 15 to 20)
#    0.750    0.000    5.000    1.500    3.500    3.000 
#    4.500    0.000    0.000    0.000    0.000    0.000 
#    0.000    0.000    0.000    0.000    0.000    0.000 
#
# Total GULP energy -89308.443029 kJ/mol
# GULP energy per Si atom -5581.777689 kJ/mol
# Density = 2.225684 g / cm^3
# Si number density = 22.307608 Si / 1000 Ang^3
#
#
#
# Elastic Constant Matrix: (Units=GPa)
#
#
# Indices 1 2 3 4 5 6 
#
# 1 119.4183 48.5800 53.0325 0.0000 0.0000 0.0000
# 2 48.5800 71.9516 35.1394 0.0000 0.0000 0.0000
# 3 53.0325 35.1394 157.0478 0.0000 0.0000 0.0000
# 4 0.0000 0.0000 0.0000 23.9546 0.0000 0.0000
# 5 0.0000 0.0000 0.0000 0.0000 22.1559 0.0000
# 6 0.0000 0.0000 0.0000 0.0000 0.0000 13.0871
#
#
#
# Elastic Compliance Matrix: (Units=1/GPa)
#
#
# Indices 1 2 3 4 5 6 
#
# 1 0.012426 -0.007118 -0.002603 0.000000 0.000000 0.000000
# 2 -0.007118 0.019681 -0.002000 0.000000 0.000000 0.000000
# 3 -0.002603 -0.002000 0.007694 0.000000 0.000000 0.000000
# 4 0.000000 0.000000 0.000000 0.041746 0.000000 0.000000
# 5 0.000000 0.000000 0.000000 0.000000 0.045135 0.000000
# 6 0.000000 0.000000 0.000000 0.000000 0.000000 0.076411
#
#
# Mechanical properties :
#
#
# Convention : Reuss Voigt Hill
#
# Bulk Modulus (GPa) = 61.13214 69.10238 65.11726
# Shear Modulus (GPa) = 21.55290 25.95059 23.75175
#
# Velocity S-wave (km/s) = 3.11170 3.41443 3.26657
# Velocity P-wave (km/s) = 6.35404 6.82559 6.59403
#
# Compressibility (1/GPa) = 0.01635801
#
# Stress axis : x y z
#
# Youngs Moduli (GPa) = 80.47814 50.81052 129.97053
#
# Poissons Ratio (x) = 0.36168 0.33835
# Poissons Ratio (y) = 0.57286 0.25993
# Poissons Ratio (z) = 0.20951 0.10162
#
# Static dielectric constant tensor:
#      x y z
#    x 1.800230 0.000000 0.000000 
#    y 0.000000 1.845600 0.000000 
#    z 0.000000 0.000000 1.844370 
# 
# From -- ./inp_files/24374.got.cif
#   From: 2010.05.17/outbox.cif.g08.bks.cpg/sg24_13_cif.got.tgz:24374.got - 2010.06.04 00:33:39.
