data_PCOD9336017
_publ_section_title
;
Structure prediction by ZEFSAII (Michael W. Deem and Ramdas Pophale) SiO2 
 PCOD9336017
Probable space group: I 21 21 21
;
_chemical_formula_sum "Si O2"
_cell_formula_units_Z 32
_cell_length_a 17.188005
_cell_length_b 6.060870
_cell_length_c 13.227339
_cell_angle_alpha 90.000000
_cell_angle_beta 90.000000
_cell_angle_gamma 90.000000
_cell_volume 1377.948303
_symmetry_space_group_name_H-M "I 21 21 21"
_symmetry_group_IT_number 24
_symmetry_cell_setting 'orthorhombic'
loop_
_space_group_symop_operation_xyz
x,y,z
-x,1/2-y,z
x,-y,1/2-z
1/2-x,y,-z
1/2+x,1/2+y,1/2+z
1/2-x,-y,1/2+z
1/2+x,1/2-y,-z
-x,1/2+y,1/2-z
loop_
_atom_site_type_symbol
_atom_site_label
_atom_site_fract_x
_atom_site_fract_y
_atom_site_fract_z
Si Si1 0.750000 0.316749 0.500000
Si Si2 0.302842 0.561239 0.640570
Si Si3 0.000000 0.750000 0.532512
Si Si4 0.654112 0.364414 0.145691
Si Si5 0.931747 0.615404 0.347107
O O1 0.693161 0.462959 0.432225
O O2 0.701782 0.152749 0.571931
O O3 0.333762 0.500000 0.750000
O O4 0.218706 0.671910 0.653880
O O5 0.362732 0.743977 0.602838
O O6 0.074557 0.758422 0.604804
O O7 0.018274 0.946526 0.448538
O O8 0.643644 0.500000 0.250000
O O9 0.893451 0.500000 0.250000
O O10 0.000000 0.750000 0.289807
#
# Coordination Sequence:
#
# PCOD9336017 Si02
#       5
#     4   8   4   8   8
#     4  12  26  48  80 108 150 200 252 320 376 444
#     4  12  25  45  77 111 142 194 258 308 375 451
#     4  10  26  46  68 104 150 194 242 298 368 454
#     4  12  26  52  75 109 154 200 254 310 378 453
#     4  10  23  45  70 109 152 188 244 312 376 445
#
# _framework density 23.222933000000001
#
# number of rings (size 3 to 8) (size 9 to 14) (size 15 to 20)
#    0.750    0.000    2.500    5.250    3.500    1.000 
#    4.500    0.000    0.000    0.000    0.000    0.000 
#    0.000    0.000    0.000    0.000    0.000    0.000 
#
# Total GULP energy -89154.612486 kJ/mol
# GULP energy per Si atom -5572.163280 kJ/mol
# Density = 2.317008 g / cm^3
# Si number density = 23.222933 Si / 1000 Ang^3
#
#
#
# Elastic Constant Matrix: (Units=GPa)
#
#
# Indices 1 2 3 4 5 6 
#
# 1 154.5347 28.2310 46.8185 0.0000 0.0000 0.0000
# 2 28.2310 66.8592 41.3678 0.0000 0.0000 0.0000
# 3 46.8185 41.3678 147.8330 0.0000 0.0000 0.0000
# 4 0.0000 0.0000 0.0000 53.9206 0.0000 0.0000
# 5 0.0000 0.0000 0.0000 0.0000 31.1005 0.0000
# 6 0.0000 0.0000 0.0000 0.0000 0.0000 6.1775
#
#
#
# Elastic Compliance Matrix: (Units=1/GPa)
#
#
# Indices 1 2 3 4 5 6 
#
# 1 0.007376 -0.002019 -0.001771 0.000000 0.000000 0.000000
# 2 -0.002019 0.018641 -0.004577 0.000000 0.000000 0.000000
# 3 -0.001771 -0.004577 0.008606 0.000000 0.000000 0.000000
# 4 0.000000 0.000000 0.000000 0.018546 0.000000 0.000000
# 5 0.000000 0.000000 0.000000 0.000000 0.032154 0.000000
# 6 0.000000 0.000000 0.000000 0.000000 0.000000 0.161879
#
#
# Mechanical properties :
#
#
# Convention : Reuss Voigt Hill
#
# Bulk Modulus (GPa) = 55.89784 66.89574 61.39679
# Shear Modulus (GPa) = 18.52541 35.09367 26.80954
#
# Velocity S-wave (km/s) = 2.82746 3.89159 3.40139
# Velocity P-wave (km/s) = 5.89760 7.00436 6.47467
#
# Compressibility (1/GPa) = 0.01788978
#
# Stress axis : x y z
#
# Youngs Moduli (GPa) = 135.56656 53.64480 116.19677
#
# Poissons Ratio (x) = 0.10830 0.20581
# Poissons Ratio (y) = 0.27368 0.53183
# Poissons Ratio (z) = 0.24012 0.24553
#
# Static dielectric constant tensor:
#      x y z
#    x 1.886690 0.000000 0.000000 
#    y 0.000000 2.054130 0.000000 
#    z 0.000000 0.000000 1.889480 
# 
# From -- ./inp_files/26831.got.cif
#   From: 2010.05.17/outbox.cif.g08.bks.cpg/sg24_14_cif.got.tgz:26831.got - 2010.06.04 00:33:39.
