data_PCOD9336384
_publ_section_title
;
Structure prediction by ZEFSAII (Michael W. Deem and Ramdas Pophale) SiO2 
 PCOD9336384
Probable space group: I 21 21 21
;
_chemical_formula_sum "Si O2"
_cell_formula_units_Z 64
_cell_length_a 9.963897
_cell_length_b 21.683038
_cell_length_c 15.521665
_cell_angle_alpha 90.000000
_cell_angle_beta 90.000000
_cell_angle_gamma 90.000000
_cell_volume 3353.417808
_symmetry_space_group_name_H-M "I 21 21 21"
_symmetry_group_IT_number 24
_symmetry_cell_setting 'orthorhombic'
loop_
_space_group_symop_operation_xyz
x,y,z
-x,1/2-y,z
x,-y,1/2-z
1/2-x,y,-z
1/2+x,1/2+y,1/2+z
1/2-x,-y,1/2+z
1/2+x,1/2-y,-z
-x,1/2+y,1/2-z
loop_
_atom_site_type_symbol
_atom_site_label
_atom_site_fract_x
_atom_site_fract_y
_atom_site_fract_z
Si Si1 0.137361 0.930182 0.222168
Si Si2 0.905605 0.548664 0.523807
Si Si3 0.557296 0.566823 0.275108
Si Si4 0.207221 0.728524 0.402403
Si Si5 0.399950 0.307662 0.253479
Si Si6 0.441277 0.849931 0.615852
Si Si7 0.608248 0.805399 0.049014
Si Si8 0.090501 0.089570 0.476662
O O1 0.299942 0.928043 0.226061
O O2 0.082436 0.884927 0.295011
O O3 0.088256 0.912684 0.127355
O O4 0.100999 0.000000 0.250000
O O5 0.750000 0.546735 0.500000
O O6 0.918273 0.565864 0.622892
O O7 0.961737 0.600069 0.459532
O O8 0.951356 0.478742 0.508412
O O9 0.498087 0.500000 0.250000
O O10 0.470552 0.626401 0.255912
O O11 0.250000 0.714132 0.500000
O O12 0.305100 0.705522 0.327590
O O13 0.181814 0.802347 0.398337
O O14 0.070660 0.692675 0.383722
O O15 0.500000 0.250000 0.251388
O O16 0.346674 0.308364 0.350994
O O17 0.500000 0.750000 0.038935
O O18 0.750000 0.798339 0.000000
O O19 0.516797 0.863184 0.017202
O O20 0.250000 0.101271 0.500000
#
# Coordination Sequence:
#
# PCOD9336384 Si02
#       8
#     8   8   8   8   8   8   8   8
#     4  11  20  38  64  98 127 166 215 273 324 388
#     4  11  19  36  63  95 131 172 220 270 321 393
#     4  11  21  37  65  96 131 169 222 269 329 392
#     4  11  26  41  63  94 129 174 218 264 329 397
#     4  11  25  44  64  94 131 169 217 273 333 396
#     4  11  23  40  63  94 132 168 216 267 329 387
#     4  11  26  47  69  94 129 172 224 277 340 398
#     4  11  22  40  68  97 132 169 226 278 331 392
#
# _framework density 19.085007999999998
#
# number of rings (size 3 to 8) (size 9 to 14) (size 15 to 20)
#    0.000    1.000    2.500    6.000    5.250    3.000 
#    0.000    3.750    0.000    0.000    0.000    0.000 
#    0.000    0.000    0.000    0.000    0.000    0.000 
#
# Total GULP energy -178647.128479 kJ/mol
# GULP energy per Si atom -5582.722765 kJ/mol
# Density = 1.904157 g / cm^3
# Si number density = 19.085008 Si / 1000 Ang^3
#
#
#
# Elastic Constant Matrix: (Units=GPa)
#
#
# Indices 1 2 3 4 5 6 
#
# 1 58.4202 43.9586 52.3412 0.0000 0.0000 0.0000
# 2 43.9586 132.3875 53.1831 0.0000 0.0000 0.0000
# 3 52.3412 53.1831 146.9955 0.0000 0.0000 0.0000
# 4 0.0000 0.0000 0.0000 48.0566 0.0000 0.0000
# 5 0.0000 0.0000 0.0000 0.0000 18.9132 0.0000
# 6 0.0000 0.0000 0.0000 0.0000 0.0000 28.2594
#
#
#
# Elastic Compliance Matrix: (Units=1/GPa)
#
#
# Indices 1 2 3 4 5 6 
#
# 1 0.029197 -0.006457 -0.008060 0.000000 0.000000 0.000000
# 2 -0.006457 0.010266 -0.001415 0.000000 0.000000 0.000000
# 3 -0.008060 -0.001415 0.010185 0.000000 0.000000 0.000000
# 4 0.000000 0.000000 0.000000 0.020809 0.000000 0.000000
# 5 0.000000 0.000000 0.000000 0.000000 0.052873 0.000000
# 6 0.000000 0.000000 0.000000 0.000000 0.000000 0.035386
#
#
# Mechanical properties :
#
#
# Convention : Reuss Voigt Hill
#
# Bulk Modulus (GPa) = 56.23084 70.75208 63.49146
# Shear Modulus (GPa) = 25.44407 31.60054 28.52230
#
# Velocity S-wave (km/s) = 3.65526 4.07354 3.87005
# Velocity P-wave (km/s) = 6.88054 7.69919 7.30135
#
# Compressibility (1/GPa) = 0.01778383
#
# Stress axis : x y z
#
# Youngs Moduli (GPa) = 34.24956 97.40850 98.18350
#
# Poissons Ratio (x) = 0.62895 0.79139
# Poissons Ratio (y) = 0.22114 0.13895
# Poissons Ratio (z) = 0.27606 0.13785
#
# Static dielectric constant tensor:
#      x y z
#    x 1.655310 0.000000 0.000000 
#    y 0.000000 1.682290 0.000000 
#    z 0.000000 0.000000 1.693870 
# 
# From -- ./inp_files/25205.got.cif
#   From: 2010.05.17/outbox.cif.g08.bks.cpg/sg24_13_cif.got.tgz:25205.got - 2010.06.04 00:33:39.
