data_PCOD9336106
_publ_section_title
;
Structure prediction by ZEFSAII (Michael W. Deem and Ramdas Pophale) SiO2 
 PCOD9336106
Probable space group: I 21 21 21
;
_chemical_formula_sum "Si O2"
_cell_formula_units_Z 40
_cell_length_a 13.337972
_cell_length_b 4.962797
_cell_length_c 27.017523
_cell_angle_alpha 90.000000
_cell_angle_beta 90.000000
_cell_angle_gamma 90.000000
_cell_volume 1788.388392
_symmetry_space_group_name_H-M "I 21 21 21"
_symmetry_group_IT_number 24
_symmetry_cell_setting 'orthorhombic'
loop_
_space_group_symop_operation_xyz
x,y,z
-x,1/2-y,z
x,-y,1/2-z
1/2-x,y,-z
1/2+x,1/2+y,1/2+z
1/2-x,-y,1/2+z
1/2+x,1/2-y,-z
-x,1/2+y,1/2-z
loop_
_atom_site_type_symbol
_atom_site_label
_atom_site_fract_x
_atom_site_fract_y
_atom_site_fract_z
Si Si1 0.607388 0.899263 0.912242
Si Si2 0.836397 0.730019 0.784139
Si Si3 0.382289 0.333221 0.699438
Si Si4 0.000000 0.750000 0.559915
Si Si5 0.851390 0.591514 0.475791
Si Si6 0.000000 0.750000 0.869229
O O1 0.500000 0.750000 0.912752
O O2 0.634653 0.953326 0.855232
O O3 0.668278 0.684990 0.945847
O O4 0.609777 0.184455 0.938219
O O5 0.881249 0.500000 0.750000
O O6 0.719456 0.655868 0.796336
O O7 0.903337 0.729207 0.833220
O O8 0.838116 0.000000 0.750000
O O9 0.500000 0.250000 0.698178
O O10 0.378378 0.500000 0.750000
O O11 0.926624 0.593308 0.521886
O O12 0.027318 0.506858 0.596755
O O13 0.750000 0.691626 0.500000
#
# Coordination Sequence:
#
# PCOD9336106 Si02
#       6
#     8   8   8   4   8   4
#     4  11  23  45  68  98 136 180 216 278 343 406
#     4  11  24  44  69  98 138 178 224 279 340 404
#     4  10  24  42  70 101 138 172 228 280 344 406
#     4  12  26  45  68 104 136 173 228 284 328 400
#     4  12  26  44  71  97 138 177 230 277 337 398
#     4  12  26  43  72 100 138 179 232 272 338 404
#
# _framework density 22.366503000000002
#
# number of rings (size 3 to 8) (size 9 to 14) (size 15 to 20)
#    0.000    0.800    2.000    4.200    5.600    6.400 
#    0.000    0.000    0.000    0.000    0.000    0.000 
#    0.000    0.000    0.000    0.000    0.000    0.000 
#
# Total GULP energy -111428.645241 kJ/mol
# GULP energy per Si atom -5571.432262 kJ/mol
# Density = 2.231560 g / cm^3
# Si number density = 22.366503 Si / 1000 Ang^3
#
#
#
# Elastic Constant Matrix: (Units=GPa)
#
#
# Indices 1 2 3 4 5 6 
#
# 1 86.4225 -8.9632 41.7075 0.0000 0.0000 0.0000
# 2 -8.9632 103.4189 54.9713 0.0000 0.0000 0.0000
# 3 41.7075 54.9713 204.2987 0.0000 0.0000 0.0000
# 4 0.0000 0.0000 0.0000 18.0323 0.0000 0.0000
# 5 0.0000 0.0000 0.0000 0.0000 2.0481 0.0000
# 6 0.0000 0.0000 0.0000 0.0000 0.0000 8.9487
#
#
#
# Elastic Compliance Matrix: (Units=1/GPa)
#
#
# Indices 1 2 3 4 5 6 
#
# 1 0.013641 0.003107 -0.003621 0.000000 0.000000 0.000000
# 2 0.003107 0.011991 -0.003861 0.000000 0.000000 0.000000
# 3 -0.003621 -0.003861 0.006673 0.000000 0.000000 0.000000
# 4 0.000000 0.000000 0.000000 0.055456 0.000000 0.000000
# 5 0.000000 0.000000 0.000000 0.000000 0.488266 0.000000
# 6 0.000000 0.000000 0.000000 0.000000 0.000000 0.111748
#
#
# Mechanical properties :
#
#
# Convention : Reuss Voigt Hill
#
# Bulk Modulus (GPa) = 42.45383 63.28569 52.86976
# Shear Modulus (GPa) = 7.09850 26.23412 16.66631
#
# Velocity S-wave (km/s) = 1.78343 3.42851 2.73270
# Velocity P-wave (km/s) = 4.82317 6.63545 5.80052
#
# Compressibility (1/GPa) = 0.02355500
#
# Stress axis : x y z
#
# Youngs Moduli (GPa) = 73.31057 83.39758 149.86336
#
# Poissons Ratio (x) = -0.25910 0.54260
# Poissons Ratio (y) = -0.22776 0.57857
# Poissons Ratio (z) = 0.26543 0.32197
#
# Static dielectric constant tensor:
#      x y z
#    x 1.987490 0.000000 0.000000 
#    y 0.000000 1.823520 0.000000 
#    z 0.000000 0.000000 1.931950 
# 
# From -- ./inp_files/35743.got.cif
#   From: 2010.05.17/outbox.cif.g08.bks.cpg/sg24_18_cif.got.tgz:35743.got - 2010.06.04 00:33:39.
