data_PCOD9336629
_publ_section_title
;
Structure prediction by ZEFSAII (Michael W. Deem and Ramdas Pophale) SiO2 
 PCOD9336629
Probable space group: I 21 21 21
;
_chemical_formula_sum "Si O2"
_cell_formula_units_Z 56
_cell_length_a 14.627470
_cell_length_b 8.886052
_cell_length_c 20.152470
_cell_angle_alpha 90.000000
_cell_angle_beta 90.000000
_cell_angle_gamma 90.000000
_cell_volume 2619.427302
_symmetry_space_group_name_H-M "I 21 21 21"
_symmetry_group_IT_number 24
_symmetry_cell_setting 'orthorhombic'
loop_
_space_group_symop_operation_xyz
x,y,z
-x,1/2-y,z
x,-y,1/2-z
1/2-x,y,-z
1/2+x,1/2+y,1/2+z
1/2-x,-y,1/2+z
1/2+x,1/2-y,-z
-x,1/2+y,1/2-z
loop_
_atom_site_type_symbol
_atom_site_label
_atom_site_fract_x
_atom_site_fract_y
_atom_site_fract_z
Si Si1 0.590178 0.171728 0.231006
Si Si2 0.834847 0.480005 0.546267
Si Si3 0.499348 0.064500 0.553101
Si Si4 0.067966 0.893488 0.316003
Si Si5 0.831204 0.025525 0.966700
Si Si6 0.897090 0.214496 0.620928
Si Si7 0.734918 0.728048 0.369060
O O1 0.500000 0.250000 0.200730
O O2 0.608848 0.247858 0.302161
O O3 0.682225 0.189888 0.190038
O O4 0.568751 0.000000 0.250000
O O5 0.750000 0.513499 0.500000
O O6 0.921734 0.486087 0.498915
O O7 0.830895 0.316978 0.578523
O O8 0.829168 0.589855 0.608597
O O9 0.500000 0.250000 0.555227
O O10 0.475393 0.995949 0.625046
O O11 0.589852 0.984720 0.522439
O O12 0.165309 0.828679 0.344975
O O13 0.000000 0.750000 0.303415
O O14 0.079270 0.000000 0.250000
O O15 0.775373 0.165076 0.933952
O O16 0.877319 0.952880 0.902054
O O17 0.750000 0.932177 0.000000
O O18 0.000000 0.250000 0.600131
#
# Coordination Sequence:
#
# PCOD9336629 Si02
#       7
#     8   8   8   8   8   8   8
#     4  11  27  45  70 105 149 193 241 297 371 451
#     4  12  24  43  72 110 145 192 245 298 381 438
#     4  12  26  48  79 112 154 200 249 322 384 465
#     4  12  30  57  79 110 151 206 268 319 385 458
#     4  12  24  44  71 109 145 191 247 307 377 439
#     4  11  23  44  68 104 147 189 244 295 372 448
#     4  12  29  45  74 110 146 199 244 314 373 452
#
# _framework density 21.378719
#
# number of rings (size 3 to 8) (size 9 to 14) (size 15 to 20)
#    0.000    0.286    5.714    2.143   10.000    0.571 
#    2.571    0.000    0.000    0.000    0.000    0.000 
#    0.000    0.000    0.000    0.000    0.000    0.000 
#
# Total GULP energy -156077.347111 kJ/mol
# GULP energy per Si atom -5574.190968 kJ/mol
# Density = 2.133006 g / cm^3
# Si number density = 21.378719 Si / 1000 Ang^3
#
#
#
# Elastic Constant Matrix: (Units=GPa)
#
#
# Indices 1 2 3 4 5 6 
#
# 1 140.6105 56.4357 57.9434 0.0000 0.0000 0.0000
# 2 56.4357 107.8441 40.3124 0.0000 0.0000 0.0000
# 3 57.9434 40.3124 115.5807 0.0000 0.0000 0.0000
# 4 0.0000 0.0000 0.0000 24.9328 0.0000 0.0000
# 5 0.0000 0.0000 0.0000 0.0000 -11.6887 0.0000
# 6 0.0000 0.0000 0.0000 0.0000 0.0000 24.0819
#
#
#
# Elastic Compliance Matrix: (Units=1/GPa)
#
#
# Indices 1 2 3 4 5 6 
#
# 1 0.010249 -0.003959 -0.003757 0.000000 0.000000 0.000000
# 2 -0.003959 0.012192 -0.002268 0.000000 0.000000 0.000000
# 3 -0.003757 -0.002268 0.011327 0.000000 0.000000 0.000000
# 4 0.000000 0.000000 0.000000 0.040108 0.000000 0.000000
# 5 0.000000 0.000000 0.000000 0.000000 -0.085553 0.000000
# 6 0.000000 0.000000 0.000000 0.000000 0.000000 0.041525
#
#
# Mechanical properties :
#
#
# Convention : Reuss Voigt Hill
#
# Bulk Modulus (GPa) = 72.46456 74.82426 73.64441
# Shear Modulus (GPa) = 91.88556 21.42146 56.65351
#
# Velocity S-wave (km/s) = 6.56302 3.16887 5.15340
# Velocity P-wave (km/s) = 9.56035 6.96164 8.36255
#
# Compressibility (1/GPa) = 0.01379985
#
# Stress axis : x y z
#
# Youngs Moduli (GPa) = 97.56896 82.02073 88.28836
#
# Poissons Ratio (x) = 0.32472 0.33173
# Poissons Ratio (y) = 0.38627 0.20021
# Poissons Ratio (z) = 0.36660 0.18599
#
# Static dielectric constant tensor:
#      x y z
#    x 1.936470 0.000000 0.000000 
#    y 0.000000 2.660790 0.000000 
#    z 0.000000 0.000000 1.742580 
# 
# From -- ./inp_files/33769.got.cif
#   From: 2010.05.17/outbox.cif.g08.bks.cpg/sg24_17_cif.got.tgz:33769.got - 2010.06.04 00:33:39.
