data_PCOD9336042
_publ_section_title
;
Structure prediction by ZEFSAII (Michael W. Deem and Ramdas Pophale) SiO2 
 PCOD9336042
Probable space group: I 21 21 21
;
_chemical_formula_sum "Si O2"
_cell_formula_units_Z 32
_cell_length_a 7.076893
_cell_length_b 25.783121
_cell_length_c 6.686291
_cell_angle_alpha 90.000000
_cell_angle_beta 90.000000
_cell_angle_gamma 90.000000
_cell_volume 1220.009999
_symmetry_space_group_name_H-M "I 21 21 21"
_symmetry_group_IT_number 24
_symmetry_cell_setting 'orthorhombic'
loop_
_space_group_symop_operation_xyz
x,y,z
-x,1/2-y,z
x,-y,1/2-z
1/2-x,y,-z
1/2+x,1/2+y,1/2+z
1/2-x,-y,1/2+z
1/2+x,1/2-y,-z
-x,1/2+y,1/2-z
loop_
_atom_site_type_symbol
_atom_site_label
_atom_site_fract_x
_atom_site_fract_y
_atom_site_fract_z
Si Si1 0.250000 0.163225 0.500000
Si Si2 0.532122 0.511431 0.520506
Si Si3 0.498008 0.121265 0.831403
Si Si4 0.000000 0.250000 0.667022
Si Si5 0.250000 0.292730 0.000000
Si Si6 0.250000 0.428614 0.500000
O O1 0.311506 0.130304 0.695634
O O2 0.069523 0.200206 0.543469
O O3 0.477966 0.500000 0.750000
O O4 0.750000 0.498379 0.500000
O O5 0.511848 0.573306 0.513943
O O6 0.409393 0.467599 0.413262
O O7 0.658606 0.105951 0.670894
O O8 0.570766 0.171923 0.942340
O O9 0.179378 0.261458 0.808735
#
# Coordination Sequence:
#
# PCOD9336042 Si02
#       6
#     4   8   8   4   4   4
#     4  12  26  47  72 102 144 194 236 293 374 448
#     4  10  24  40  66  97 138 184 227 286 340 413
#     4  11  25  43  70 102 137 188 238 290 349 434
#     4  12  26  46  72 102 142 184 234 308 380 426
#     4  12  25  44  72 106 134 180 242 310 355 428
#     4  10  23  47  62 102 144 194 222 289 357 418
#
# _framework density 26.229292999999998
#
# number of rings (size 3 to 8) (size 9 to 14) (size 15 to 20)
#    0.000    1.000    0.000    5.250   10.500    5.000 
#    0.000    0.000    0.000    0.000    0.000    0.000 
#    0.000    0.000    0.000    0.000    0.000    0.000 
#
# Total GULP energy -89634.021083 kJ/mol
# GULP energy per Si atom -5602.126318 kJ/mol
# Density = 2.616959 g / cm^3
# Si number density = 26.229293 Si / 1000 Ang^3
#
#
#
# Elastic Constant Matrix: (Units=GPa)
#
#
# Indices 1 2 3 4 5 6 
#
# 1 114.4328 21.2211 1.6790 0.0001 0.0000 0.0000
# 2 21.2211 90.4964 29.6259 0.0000 0.0000 0.0000
# 3 1.6790 29.6259 69.0009 -0.0002 -0.0001 -0.0001
# 4 0.0001 0.0000 -0.0002 48.5977 0.0000 0.0000
# 5 0.0000 0.0000 -0.0001 0.0000 57.9790 0.0000
# 6 0.0000 0.0000 -0.0001 0.0000 0.0000 58.7241
#
#
#
# Elastic Compliance Matrix: (Units=1/GPa)
#
#
# Indices 1 2 3 4 5 6 
#
# 1 0.009175 -0.002418 0.000815 0.000000 0.000000 0.000000
# 2 -0.002418 0.013495 -0.005735 0.000000 0.000000 0.000000
# 3 0.000815 -0.005735 0.016935 0.000000 0.000000 0.000000
# 4 0.000000 0.000000 0.000000 0.020577 0.000000 0.000000
# 5 0.000000 0.000000 0.000000 0.000000 0.017248 0.000000
# 6 0.000000 0.000000 0.000000 0.000000 0.000000 0.017029
#
#
# Mechanical properties :
#
#
# Convention : Reuss Voigt Hill
#
# Bulk Modulus (GPa) = 40.11521 42.10912 41.11216
# Shear Modulus (GPa) = 42.57306 47.82046 45.19676
#
# Velocity S-wave (km/s) = 4.03316 4.27449 4.15558
# Velocity P-wave (km/s) = 6.08405 6.36009 6.22360
#
# Compressibility (1/GPa) = 0.02492820
#
# Stress axis : x y z
#
# Youngs Moduli (GPa) = 108.98857 74.10260 59.04874
#
# Poissons Ratio (x) = 0.17921 -0.04813
# Poissons Ratio (y) = 0.26358 0.33866
# Poissons Ratio (z) = -0.08884 0.42499
#
# Static dielectric constant tensor:
#      x y z
#    x 2.044220 0.000000 0.000000 
#    y 0.000000 2.054420 0.000000 
#    z 0.000000 0.000000 2.094930 
# 
# From -- ./inp_files/8276.got.cif
#   From: 2010.05.17/outbox.cif.g08.bks.cpg/sg24_5_cif.got.tgz:8276.got - 2010.06.04 00:33:39.
