data_PCOD9336654
_publ_section_title
;
Structure prediction by ZEFSAII (Michael W. Deem and Ramdas Pophale) SiO2 
 PCOD9336654
Probable space group: I 21 21 21
;
_chemical_formula_sum "Si O2"
_cell_formula_units_Z 32
_cell_length_a 17.343568
_cell_length_b 9.865116
_cell_length_c 7.219345
_cell_angle_alpha 90.000000
_cell_angle_beta 90.000000
_cell_angle_gamma 90.000000
_cell_volume 1235.203291
_symmetry_space_group_name_H-M "I 21 21 21"
_symmetry_group_IT_number 24
_symmetry_cell_setting 'orthorhombic'
loop_
_space_group_symop_operation_xyz
x,y,z
-x,1/2-y,z
x,-y,1/2-z
1/2-x,y,-z
1/2+x,1/2+y,1/2+z
1/2-x,-y,1/2+z
1/2+x,1/2-y,-z
-x,1/2+y,1/2-z
loop_
_atom_site_type_symbol
_atom_site_label
_atom_site_fract_x
_atom_site_fract_y
_atom_site_fract_z
Si Si1 0.128737 0.938108 0.543886
Si Si2 0.500000 0.250000 0.106715
Si Si3 0.750000 0.657887 0.000000
Si Si4 0.750000 0.797549 0.500000
Si Si5 0.627098 0.124609 0.374419
Si Si6 0.850299 0.000000 0.250000
O O1 0.184720 0.810241 0.555107
O O2 0.047197 0.865795 0.493030
O O3 0.117427 0.000000 0.750000
O O4 0.180940 0.052656 0.438466
O O5 0.558214 0.179692 0.250207
O O6 0.894383 0.925437 0.081646
O O7 0.797982 0.891518 0.359182
O O8 0.655529 0.000000 0.250000
O O9 0.694350 0.233172 0.402303
#
# Coordination Sequence:
#
# PCOD9336654 Si02
#       6
#     8   4   4   4   8   4
#     4  11  23  47  78 123 169 223 292 349 447 532
#     4  12  26  48  82 128 168 240 280 370 466 524
#     4  11  25  46  78 126 168 222 290 366 419 539
#     4  11  27  46  80 122 168 230 292 374 437 541
#     4  12  28  49  83 122 173 231 299 365 453 530
#     4  12  28  46  74 124 162 210 298 362 428 524
#
# _framework density 25.906668
#
# number of rings (size 3 to 8) (size 9 to 14) (size 15 to 20)
#    0.000    0.500    2.500    4.500   10.500    0.000 
#    0.000    7.500    2.750    0.000    0.000    0.000 
#    0.000    0.000    0.000    0.000    0.000    0.000 
#
# Total GULP energy -89180.292892 kJ/mol
# GULP energy per Si atom -5573.768306 kJ/mol
# Density = 2.584770 g / cm^3
# Si number density = 25.906668 Si / 1000 Ang^3
#
#
#
# Elastic Constant Matrix: (Units=GPa)
#
#
# Indices 1 2 3 4 5 6 
#
# 1 152.3443 71.4889 8.2829 0.0000 0.0000 0.0000
# 2 71.4889 201.0212 38.7940 0.0000 0.0000 0.0000
# 3 8.2829 38.7940 75.8072 0.0000 0.0000 0.0000
# 4 0.0000 0.0000 0.0000 26.1651 0.0000 0.0000
# 5 0.0000 0.0000 0.0000 0.0000 40.3762 0.0000
# 6 0.0000 0.0000 0.0000 0.0000 0.0000 61.7867
#
#
#
# Elastic Compliance Matrix: (Units=1/GPa)
#
#
# Indices 1 2 3 4 5 6 
#
# 1 0.007907 -0.002935 0.000638 0.000000 0.000000 0.000000
# 2 -0.002935 0.006609 -0.003062 0.000000 0.000000 0.000000
# 3 0.000638 -0.003062 0.014688 0.000000 0.000000 0.000000
# 4 0.000000 0.000000 0.000000 0.038219 0.000000 0.000000
# 5 0.000000 0.000000 0.000000 0.000000 0.024767 0.000000
# 6 0.000000 0.000000 0.000000 0.000000 0.000000 0.016185
#
#
# Mechanical properties :
#
#
# Convention : Reuss Voigt Hill
#
# Bulk Modulus (GPa) = 54.09120 74.03382 64.06251
# Shear Modulus (GPa) = 39.91880 46.37270 43.14575
#
# Velocity S-wave (km/s) = 3.92965 4.23542 4.08540
# Velocity P-wave (km/s) = 6.44314 7.24966 6.85827
#
# Compressibility (1/GPa) = 0.01848730
#
# Stress axis : x y z
#
# Youngs Moduli (GPa) = 126.47588 151.30449 68.08109
#
# Poissons Ratio (x) = 0.44407 -0.04344
# Poissons Ratio (y) = 0.37120 0.20843
# Poissons Ratio (z) = -0.08070 0.46323
#
# Static dielectric constant tensor:
#      x y z
#    x 2.125470 0.000000 0.000000 
#    y 0.000000 2.324900 0.000000 
#    z 0.000000 0.000000 2.357030 
# 
# From -- ./inp_files/20424.got.cif
#   From: 2010.05.17/outbox.cif.g08.bks.cpg/sg24_11_cif.got.tgz:20424.got - 2010.06.04 00:33:39.
