data_PCOD9336510
_publ_section_title
;
Structure prediction by ZEFSAII (Michael W. Deem and Ramdas Pophale) SiO2 
 PCOD9336510
Probable space group: I 21 21 21
;
_chemical_formula_sum "Si O2"
_cell_formula_units_Z 32
_cell_length_a 17.125690
_cell_length_b 10.539547
_cell_length_c 7.958881
_cell_angle_alpha 90.000000
_cell_angle_beta 90.000000
_cell_angle_gamma 90.000000
_cell_volume 1436.554261
_symmetry_space_group_name_H-M "I 21 21 21"
_symmetry_group_IT_number 24
_symmetry_cell_setting 'orthorhombic'
loop_
_space_group_symop_operation_xyz
x,y,z
-x,1/2-y,z
x,-y,1/2-z
1/2-x,y,-z
1/2+x,1/2+y,1/2+z
1/2-x,-y,1/2+z
1/2+x,1/2-y,-z
-x,1/2+y,1/2-z
loop_
_atom_site_type_symbol
_atom_site_label
_atom_site_fract_x
_atom_site_fract_y
_atom_site_fract_z
Si Si1 0.093343 0.772552 0.598144
Si Si2 0.163172 0.234653 0.527499
Si Si3 0.619090 0.999549 0.443373
Si Si4 0.951628 0.525471 0.063957
O O1 0.136115 0.776899 0.777668
O O2 0.123866 0.646785 0.500840
O O3 0.098184 0.905648 0.502178
O O4 0.000000 0.750000 0.623221
O O5 0.250000 0.185662 0.500000
O O6 0.160153 0.381803 0.470395
O O7 0.100282 0.150053 0.432131
O O8 0.645578 0.000000 0.250000
O O9 0.527410 0.037265 0.447585
O O10 0.982369 0.500000 0.250000
#
# Coordination Sequence:
#
# PCOD9336510 Si02
#       4
#     8   8   8   8
#     4   9  19  40  66  85 109 151 197 243 291 341
#     4  11  22  37  58  85 116 154 193 231 285 352
#     4   9  19  39  63  85 110 149 197 242 292 343
#     4  11  22  36  59  89 116 148 193 244 289 336
#
# _framework density 22.275524999999998
#
# number of rings (size 3 to 8) (size 9 to 14) (size 15 to 20)
#    0.000    2.000    0.000    6.000    0.000    8.000 
#    0.000   12.500    0.000    0.000    0.000    0.000 
#    0.000    0.000    0.000    0.000    0.000    0.000 
#
# Total GULP energy -89311.958340 kJ/mol
# GULP energy per Si atom -5581.997396 kJ/mol
# Density = 2.222482 g / cm^3
# Si number density = 22.275525 Si / 1000 Ang^3
#
#
#
# Elastic Constant Matrix: (Units=GPa)
#
#
# Indices 1 2 3 4 5 6 
#
# 1 34.9663 6.9451 -10.0454 0.0000 0.0000 0.0000
# 2 6.9451 91.6888 3.3543 0.0000 0.0000 0.0000
# 3 -10.0454 3.3543 43.6276 0.0000 0.0000 0.0000
# 4 0.0000 0.0000 0.0000 1.2929 0.0000 0.0000
# 5 0.0000 0.0000 0.0000 0.0000 -1.7941 0.0000
# 6 0.0000 0.0000 0.0000 0.0000 0.0000 4.4239
#
#
#
# Elastic Compliance Matrix: (Units=1/GPa)
#
#
# Indices 1 2 3 4 5 6 
#
# 1 0.031248 -0.002638 0.007398 0.000000 0.000000 0.000000
# 2 -0.002638 0.011160 -0.001465 0.000000 0.000000 0.000000
# 3 0.007398 -0.001465 0.024737 0.000000 0.000000 0.000000
# 4 0.000000 0.000000 0.000000 0.773461 0.000000 0.000000
# 5 0.000000 0.000000 0.000000 0.000000 -0.557398 0.000000
# 6 0.000000 0.000000 0.000000 0.000000 0.000000 0.226043
#
#
# Mechanical properties :
#
#
# Convention : Reuss Voigt Hill
#
# Bulk Modulus (GPa) = 13.56206 18.97673 16.26939
# Shear Modulus (GPa) = 9.48334 12.11981 10.80157
#
# Velocity S-wave (km/s) = 2.06556 2.33510 2.20445
# Velocity P-wave (km/s) = 3.43369 3.97590 3.71471
#
# Compressibility (1/GPa) = 0.07373510
#
# Stress axis : x y z
#
# Youngs Moduli (GPa) = 32.00191 89.60699 40.42477
#
# Poissons Ratio (x) = 0.23634 -0.29905
# Poissons Ratio (y) = 0.08441 0.05924
# Poissons Ratio (z) = -0.23674 0.13130
#
# Static dielectric constant tensor:
#      x y z
#    x 1.782050 0.000000 0.000000 
#    y 0.000000 1.886450 0.000000 
#    z 0.000000 0.000000 1.808140 
# 
# From -- ./inp_files/10201.got.cif
#   From: 2010.05.17/outbox.cif.g08.bks.cpg/sg24_6_cif.got.tgz:10201.got - 2010.06.04 00:33:39.
