data_PCOD9336055
_publ_section_title
;
Structure prediction by ZEFSAII (Michael W. Deem and Ramdas Pophale) SiO2 
 PCOD9336055
Probable space group: I 21 21 21
;
_chemical_formula_sum "Si O2"
_cell_formula_units_Z 52
_cell_length_a 14.426363
_cell_length_b 17.605046
_cell_length_c 7.971436
_cell_angle_alpha 90.000000
_cell_angle_beta 90.000000
_cell_angle_gamma 90.000000
_cell_volume 2024.559681
_symmetry_space_group_name_H-M "I 21 21 21"
_symmetry_group_IT_number 24
_symmetry_cell_setting 'orthorhombic'
loop_
_space_group_symop_operation_xyz
x,y,z
-x,1/2-y,z
x,-y,1/2-z
1/2-x,y,-z
1/2+x,1/2+y,1/2+z
1/2-x,-y,1/2+z
1/2+x,1/2-y,-z
-x,1/2+y,1/2-z
loop_
_atom_site_type_symbol
_atom_site_label
_atom_site_fract_x
_atom_site_fract_y
_atom_site_fract_z
Si Si1 0.820299 0.615543 0.352640
Si Si2 0.345504 0.659611 0.576124
Si Si3 0.353850 0.843469 0.150497
Si Si4 0.500000 0.750000 0.374147
Si Si5 0.941361 0.514272 0.954862
Si Si6 0.892428 0.251335 0.364681
Si Si7 0.654015 0.989926 0.049083
O O1 0.750000 0.637785 0.500000
O O2 0.737041 0.611578 0.214351
O O3 0.885862 0.548242 0.430906
O O4 0.879223 0.684826 0.280883
O O5 0.250000 0.691637 0.500000
O O6 0.431248 0.696443 0.478064
O O7 0.357247 0.677343 0.770602
O O8 0.342426 0.571124 0.542007
O O9 0.431597 0.810999 0.279216
O O10 0.396112 0.904287 0.022937
O O11 0.340265 0.770024 0.035646
O O12 0.933448 0.500000 0.750000
O O13 0.048544 0.531227 0.993385
O O14 0.000000 0.250000 0.407693
O O15 0.655956 0.000000 0.250000
O O16 0.750000 0.949002 0.000000
#
# Coordination Sequence:
#
# PCOD9336055 Si02
#       7
#     8   8   8   4   8   8   8
#     4  12  26  47  77 115 158 216 272 339 420 512
#     4  11  24  44  76 105 144 205 262 320 402 487
#     4  12  27  46  75 113 165 209 271 342 417 498
#     4  12  22  46  74 110 152 208 268 330 406 492
#     4  11  24  47  78 113 157 214 269 338 415 500
#     4  12  25  46  69 107 155 204 264 331 401 496
#     4  10  23  49  77 113 152 207 274 338 409 491
#
# _framework density 25.684598000000001
#
# number of rings (size 3 to 8) (size 9 to 14) (size 15 to 20)
#    0.000    0.615    3.077    5.538    0.000    3.077 
#    8.308    0.000    0.000    0.000    0.000    0.000 
#    0.000    0.000    0.000    0.000    0.000    0.000 
#
# Total GULP energy -145157.804021 kJ/mol
# GULP energy per Si atom -5582.992462 kJ/mol
# Density = 2.562614 g / cm^3
# Si number density = 25.684598 Si / 1000 Ang^3
#
#
#
# Elastic Constant Matrix: (Units=GPa)
#
#
# Indices 1 2 3 4 5 6 
#
# 1 232.1778 26.6600 45.9450 0.0000 0.0000 0.0000
# 2 26.6600 61.5951 17.7859 0.0000 0.0000 0.0000
# 3 45.9450 17.7859 84.1642 0.0000 0.0000 0.0000
# 4 0.0000 0.0000 0.0000 -29.9373 0.0000 0.0000
# 5 0.0000 0.0000 0.0000 0.0000 32.7455 0.0000
# 6 0.0000 0.0000 0.0000 0.0000 0.0000 24.1684
#
#
#
# Elastic Compliance Matrix: (Units=1/GPa)
#
#
# Indices 1 2 3 4 5 6 
#
# 1 0.004947 -0.001450 -0.002394 0.000000 0.000000 0.000000
# 2 -0.001450 0.017715 -0.002952 0.000000 0.000000 0.000000
# 3 -0.002394 -0.002952 0.013812 0.000000 0.000000 0.000000
# 4 0.000000 0.000000 0.000000 -0.033403 0.000000 0.000000
# 5 0.000000 0.000000 0.000000 0.000000 0.030539 0.000000
# 6 0.000000 0.000000 0.000000 0.000000 0.000000 0.041376
#
#
# Mechanical properties :
#
#
# Convention : Reuss Voigt Hill
#
# Bulk Modulus (GPa) = 43.70229 62.07988 52.89109
# Shear Modulus (GPa) = 51.97140 24.56506 38.26823
#
# Velocity S-wave (km/s) = 4.50315 3.09595 3.86415
# Velocity P-wave (km/s) = 6.64001 6.08296 6.36758
#
# Compressibility (1/GPa) = 0.02288209
#
# Stress axis : x y z
#
# Youngs Moduli (GPa) = 202.12872 56.44913 72.39857
#
# Poissons Ratio (x) = 0.08185 0.17335
# Poissons Ratio (y) = 0.29308 0.21373
# Poissons Ratio (z) = 0.48396 0.16664
#
# Static dielectric constant tensor:
#      x y z
#    x 2.305000 0.000000 0.000000 
#    y 0.000000 2.103500 0.000000 
#    z 0.000000 0.000000 2.230200 
# 
# From -- ./inp_files/13080.got.cif
#   From: 2010.05.17/outbox.cif.g08.bks.cpg/sg24_7_cif.got.tgz:13080.got - 2010.06.04 00:33:39.
