data_PCOD9336146
_publ_section_title
;
Structure prediction by ZEFSAII (Michael W. Deem and Ramdas Pophale) SiO2 
 PCOD9336146
Probable space group: I 21 21 21
;
_chemical_formula_sum "Si O2"
_cell_formula_units_Z 28
_cell_length_a 21.747599
_cell_length_b 7.690672
_cell_length_c 8.073446
_cell_angle_alpha 90.000000
_cell_angle_beta 90.000000
_cell_angle_gamma 90.000000
_cell_volume 1350.313317
_symmetry_space_group_name_H-M "I 21 21 21"
_symmetry_group_IT_number 24
_symmetry_cell_setting 'orthorhombic'
loop_
_space_group_symop_operation_xyz
x,y,z
-x,1/2-y,z
x,-y,1/2-z
1/2-x,y,-z
1/2+x,1/2+y,1/2+z
1/2-x,-y,1/2+z
1/2+x,1/2-y,-z
-x,1/2+y,1/2-z
loop_
_atom_site_type_symbol
_atom_site_label
_atom_site_fract_x
_atom_site_fract_y
_atom_site_fract_z
Si Si1 0.199592 0.145156 0.366060
Si Si2 0.360240 0.500000 0.750000
Si Si3 0.445350 0.532398 0.056460
Si Si4 0.918257 0.442197 0.562889
O O1 0.250000 0.194930 0.500000
O O2 0.177776 0.324639 0.283864
O O3 0.140606 0.044909 0.445777
O O4 0.229250 0.000000 0.250000
O O5 0.401637 0.538570 0.587244
O O6 0.431182 0.500000 0.250000
O O7 0.435355 0.739323 0.048637
O O8 0.515620 0.471759 0.022932
O O9 0.903181 0.500000 0.750000
#
# Coordination Sequence:
#
# PCOD9336146 Si02
#       4
#     8   4   8   8
#     4  11  25  44  64  96 129 178 226 272 329 398
#     4  10  24  44  66  98 128 174 226 278 326 400
#     4   9  19  37  62  96 129 164 214 271 337 391
#     4   9  19  37  60  94 129 165 212 270 331 395
#
# _framework density 20.735928999999999
#
# number of rings (size 3 to 8) (size 9 to 14) (size 15 to 20)
#    0.000    2.286    0.000    0.857    6.000    1.143 
#   10.286    0.000    0.000    0.000    0.000    0.000 
#    0.000    0.000    0.000    0.000    0.000    0.000 
#
# Total GULP energy -78040.226544 kJ/mol
# GULP energy per Si atom -5574.301896 kJ/mol
# Density = 2.068873 g / cm^3
# Si number density = 20.735929 Si / 1000 Ang^3
#
#
#
# Elastic Constant Matrix: (Units=GPa)
#
#
# Indices 1 2 3 4 5 6 
#
# 1 70.5675 43.0800 67.9731 0.0000 0.0000 0.0000
# 2 43.0800 72.8431 44.4845 0.0000 0.0000 0.0000
# 3 67.9731 44.4845 107.8536 0.0000 0.0000 0.0000
# 4 0.0000 0.0000 0.0000 43.1264 0.0000 0.0000
# 5 0.0000 0.0000 0.0000 0.0000 458.2687 0.0000
# 6 0.0000 0.0000 0.0000 0.0000 0.0000 240.0545
#
#
#
# Elastic Compliance Matrix: (Units=1/GPa)
#
#
# Indices 1 2 3 4 5 6 
#
# 1 0.042417 -0.011710 -0.021903 0.000000 0.000000 0.000000
# 2 -0.011710 0.021583 -0.001522 0.000000 0.000000 0.000000
# 3 -0.021903 -0.001522 0.023704 0.000000 0.000000 0.000000
# 4 0.000000 0.000000 0.000000 0.023188 0.000000 0.000000
# 5 0.000000 0.000000 0.000000 0.000000 0.002182 0.000000
# 6 0.000000 0.000000 0.000000 0.000000 0.000000 0.004166
#
#
# Mechanical properties :
#
#
# Convention : Reuss Voigt Hill
#
# Bulk Modulus (GPa) = 57.35928 62.48217 59.92072
# Shear Modulus (GPa) = 25.86382 154.67170 90.26776
#
# Velocity S-wave (km/s) = 3.53554 8.64599 6.60504
# Velocity P-wave (km/s) = 6.66247 11.39599 9.33427
#
# Compressibility (1/GPa) = 0.01743397
#
# Stress axis : x y z
#
# Youngs Moduli (GPa) = 23.57533 46.33289 42.18776
#
# Poissons Ratio (x) = 0.54256 0.92404
# Poissons Ratio (y) = 0.27607 0.06421
# Poissons Ratio (z) = 0.51637 0.07051
#
# Static dielectric constant tensor:
#      x y z
#    x 1.795010 0.000000 0.000000 
#    y 0.000000 1.671150 0.000000 
#    z 0.000000 0.000000 1.609630 
# 
# From -- ./inp_files/8793.got.cif
#   From: 2010.05.17/outbox.cif.g08.bks.cpg/sg24_5_cif.got.tgz:8793.got - 2010.06.04 00:33:39.
