data_PCOD9336111
_publ_section_title
;
Structure prediction by ZEFSAII (Michael W. Deem and Ramdas Pophale) SiO2 
 PCOD9336111
Probable space group: I 21 21 21
;
_chemical_formula_sum "Si O2"
_cell_formula_units_Z 40
_cell_length_a 13.569072
_cell_length_b 17.143840
_cell_length_c 7.549029
_cell_angle_alpha 90.000000
_cell_angle_beta 90.000000
_cell_angle_gamma 90.000000
_cell_volume 1756.100415
_symmetry_space_group_name_H-M "I 21 21 21"
_symmetry_group_IT_number 24
_symmetry_cell_setting 'orthorhombic'
loop_
_space_group_symop_operation_xyz
x,y,z
-x,1/2-y,z
x,-y,1/2-z
1/2-x,y,-z
1/2+x,1/2+y,1/2+z
1/2-x,-y,1/2+z
1/2+x,1/2-y,-z
-x,1/2+y,1/2-z
loop_
_atom_site_type_symbol
_atom_site_label
_atom_site_fract_x
_atom_site_fract_y
_atom_site_fract_z
Si Si1 0.008504 0.636906 0.508127
Si Si2 0.247646 0.000000 0.750000
Si Si3 0.961000 0.167587 0.578670
Si Si4 0.839113 0.253465 0.136422
Si Si5 0.750000 0.787570 0.000000
Si Si6 0.087192 0.027183 0.525789
O O1 0.018779 0.664566 0.711329
O O2 0.101442 0.672031 0.398943
O O3 0.915430 0.678674 0.415368
O O4 0.989628 0.544564 0.532793
O O5 0.161566 0.059444 0.684066
O O6 0.327931 0.992137 0.597193
O O7 0.844229 0.162472 0.557472
O O8 0.000000 0.250000 0.509453
O O9 0.021546 0.100645 0.479854
O O10 0.791455 0.259619 0.331172
O O11 0.750000 0.256764 0.000000
#
# Coordination Sequence:
#
# PCOD9336111 Si02
#       6
#     8   4   8   8   4   8
#     4  11  23  47  73 101 149 193 244 313 380 450
#     4  10  24  42  72 104 144 186 252 318 396 444
#     4  12  25  48  70 108 155 196 257 318 382 464
#     4  11  24  46  74 107 144 192 250 307 381 462
#     4  12  28  46  74 114 146 204 256 310 388 464
#     4  11  25  45  70 109 145 197 251 323 385 459
#
# _framework density 22.777740000000001
#
# number of rings (size 3 to 8) (size 9 to 14) (size 15 to 20)
#    0.000    0.800    6.000    0.000    8.400    3.200 
#    1.800    0.000    0.000    0.000    0.000    0.000 
#    0.000    0.000    0.000    0.000    0.000    0.000 
#
# Total GULP energy -111412.115262 kJ/mol
# GULP energy per Si atom -5570.605763 kJ/mol
# Density = 2.272590 g / cm^3
# Si number density = 22.777740 Si / 1000 Ang^3
#
#
#
# Elastic Constant Matrix: (Units=GPa)
#
#
# Indices 1 2 3 4 5 6 
#
# 1 153.3432 45.9330 40.0375 0.0000 0.0000 0.0000
# 2 45.9330 141.1184 11.9826 0.0000 0.0000 0.0000
# 3 40.0375 11.9826 111.2109 0.0000 0.0000 0.0000
# 4 0.0000 0.0000 0.0000 -2.1503 0.0000 0.0000
# 5 0.0000 0.0000 0.0000 0.0000 51.9178 0.0000
# 6 0.0000 0.0000 0.0000 0.0000 0.0000 39.7591
#
#
#
# Elastic Compliance Matrix: (Units=1/GPa)
#
#
# Indices 1 2 3 4 5 6 
#
# 1 0.007903 -0.002352 -0.002592 0.000000 0.000000 0.000000
# 2 -0.002352 0.007852 0.000001 0.000000 0.000000 0.000000
# 3 -0.002592 0.000001 0.009925 0.000000 0.000000 0.000000
# 4 0.000000 0.000000 0.000000 -0.465053 0.000000 0.000000
# 5 0.000000 0.000000 0.000000 0.000000 0.019261 0.000000
# 6 0.000000 0.000000 0.000000 0.000000 0.000000 0.025151
#
#
# Mechanical properties :
#
#
# Convention : Reuss Voigt Hill
#
# Bulk Modulus (GPa) = 63.31803 66.84207 65.08005
# Shear Modulus (GPa) = -13.16444 38.41994 12.62775
#
# Velocity S-wave (km/s) = -2.40667 4.11144 2.35710
# Velocity P-wave (km/s) = 4.48729 7.20747 6.00348
#
# Compressibility (1/GPa) = 0.01579329
#
# Stress axis : x y z
#
# Youngs Moduli (GPa) = 126.54139 127.35951 100.75725
#
# Poissons Ratio (x) = 0.29957 0.26112
# Poissons Ratio (y) = 0.29765 -0.00008
# Poissons Ratio (z) = 0.32794 -0.00010
#
# Static dielectric constant tensor:
#      x y z
#    x 1.807850 0.000000 0.000000 
#    y 0.000000 1.831430 0.000000 
#    z 0.000000 0.000000 2.058470 
# 
# From -- ./inp_files/10777.got.cif
#   From: 2010.05.17/outbox.cif.g08.bks.cpg/sg24_6_cif.got.tgz:10777.got - 2010.06.04 00:33:39.
