data_PCOD9336447
_publ_section_title
;
Structure prediction by ZEFSAII (Michael W. Deem and Ramdas Pophale) SiO2 
 PCOD9336447
Probable space group: I 21 21 21
;
_chemical_formula_sum "Si O2"
_cell_formula_units_Z 48
_cell_length_a 32.384446
_cell_length_b 8.679603
_cell_length_c 9.158285
_cell_angle_alpha 90.000000
_cell_angle_beta 90.000000
_cell_angle_gamma 90.000000
_cell_volume 2574.248614
_symmetry_space_group_name_H-M "I 21 21 21"
_symmetry_group_IT_number 24
_symmetry_cell_setting 'orthorhombic'
loop_
_space_group_symop_operation_xyz
x,y,z
-x,1/2-y,z
x,-y,1/2-z
1/2-x,y,-z
1/2+x,1/2+y,1/2+z
1/2-x,-y,1/2+z
1/2+x,1/2-y,-z
-x,1/2+y,1/2-z
loop_
_atom_site_type_symbol
_atom_site_label
_atom_site_fract_x
_atom_site_fract_y
_atom_site_fract_z
Si Si1 0.045131 0.434820 0.415445
Si Si2 0.630339 0.933829 0.585275
Si Si3 0.130339 0.933829 0.414725
Si Si4 0.291753 0.934734 0.087536
Si Si5 0.545131 0.434820 0.584555
Si Si6 0.291753 0.565266 0.087536
O O1 0.044023 0.500000 0.250000
O O2 0.086682 0.506917 0.479967
O O3 0.049106 0.250000 0.410155
O O4 0.000000 0.472433 0.481444
O O5 0.630049 0.750000 0.592214
O O6 0.633819 0.000000 0.750000
O O7 0.668793 0.994141 0.493185
O O8 0.133818 0.000000 0.250000
O O9 0.168793 0.994141 0.506815
O O10 0.086682 0.993083 0.479967
O O11 0.295783 0.750000 0.090933
O O12 0.288843 0.000000 0.250000
O O13 0.250000 0.973670 0.000000
O O14 0.544023 0.500000 0.750000
O O15 0.288843 0.500000 0.250000
O O16 0.250000 0.526330 0.000000
#
# Coordination Sequence:
#
# PCOD9336447 Si02
#       6
#     8   8   8   8   8   8
#     4   9  16  27  46  74 108 144 183 227 272 319
#     4  11  21  34  55  82 114 149 186 229 275 325
#     4  11  21  34  55  82 114 149 186 229 275 325
#     4  11  24  41  61  84 111 143 181 225 273 328
#     4   9  16  27  46  74 108 144 183 227 272 319
#     4  11  24  41  61  84 111 143 181 225 273 328
#
# _framework density 18.646218000000001
#
# number of rings (size 3 to 8) (size 9 to 14) (size 15 to 20)
#    0.000    1.667    0.000    8.000    0.000    7.333 
#    0.000    0.000    0.000    1.000    0.000    0.000 
#    0.000    0.000    0.000    0.000    0.000    0.000 
#
# Total GULP energy -133993.964992 kJ/mol
# GULP energy per Si atom -5583.081875 kJ/mol
# Density = 1.860378 g / cm^3
# Si number density = 18.646218 Si / 1000 Ang^3
#
#
#
# Elastic Constant Matrix: (Units=GPa)
#
#
# Indices 1 2 3 4 5 6 
#
# 1 237.1706 101.5699 78.3861 0.0000 0.0000 0.0000
# 2 101.5699 126.0643 45.4404 0.0000 0.0000 0.0000
# 3 78.3861 45.4404 80.0186 0.0000 0.0000 0.0000
# 4 0.0000 0.0000 0.0000 24.5580 0.0000 0.0000
# 5 0.0000 0.0000 0.0000 0.0000 26.5474 0.0000
# 6 0.0000 0.0000 0.0000 0.0000 0.0000 46.3573
#
#
#
# Elastic Compliance Matrix: (Units=1/GPa)
#
#
# Indices 1 2 3 4 5 6 
#
# 1 0.007818 -0.004449 -0.005132 0.000000 0.000000 0.000000
# 2 -0.004449 0.012506 -0.002744 0.000000 0.000000 0.000000
# 3 -0.005132 -0.002744 0.019082 0.000000 0.000000 0.000000
# 4 0.000000 0.000000 0.000000 0.040720 0.000000 0.000000
# 5 0.000000 0.000000 0.000000 0.000000 0.037668 0.000000
# 6 0.000000 0.000000 0.000000 0.000000 0.000000 0.021572
#
#
# Mechanical properties :
#
#
# Convention : Reuss Voigt Hill
#
# Bulk Modulus (GPa) = 67.76362 99.33849 83.55106
# Shear Modulus (GPa) = 29.59741 34.01634 31.80688
#
# Velocity S-wave (km/s) = 3.98843 4.27582 4.13462
# Velocity P-wave (km/s) = 7.59149 8.81861 8.22796
#
# Compressibility (1/GPa) = 0.01475718
#
# Stress axis : x y z
#
# Youngs Moduli (GPa) = 127.91357 79.96201 52.40485
#
# Poissons Ratio (x) = 0.35575 0.26893
# Poissons Ratio (y) = 0.56909 0.14378
# Poissons Ratio (z) = 0.65643 0.21938
#
# Static dielectric constant tensor:
#      x y z
#    x 1.690180 0.000000 0.000000 
#    y 0.000000 1.618450 0.000000 
#    z 0.000000 0.000000 1.625100 
# 
# From -- ./inp_files/16806.got.cif
#   From: 2010.05.17/outbox.cif.g08.bks.cpg/sg24_9_cif.got.tgz:16806.got - 2010.06.04 00:33:39.
