data_PCOD9336290
_publ_section_title
;
Structure prediction by ZEFSAII (Michael W. Deem and Ramdas Pophale) SiO2 
 PCOD9336290
Probable space group: I 21 21 21
;
_chemical_formula_sum "Si O2"
_cell_formula_units_Z 60
_cell_length_a 15.424894
_cell_length_b 8.796207
_cell_length_c 22.414309
_cell_angle_alpha 90.000000
_cell_angle_beta 90.000000
_cell_angle_gamma 90.000000
_cell_volume 3041.186010
_symmetry_space_group_name_H-M "I 21 21 21"
_symmetry_group_IT_number 24
_symmetry_cell_setting 'orthorhombic'
loop_
_space_group_symop_operation_xyz
x,y,z
-x,1/2-y,z
x,-y,1/2-z
1/2-x,y,-z
1/2+x,1/2+y,1/2+z
1/2-x,-y,1/2+z
1/2+x,1/2-y,-z
-x,1/2+y,1/2-z
loop_
_atom_site_type_symbol
_atom_site_label
_atom_site_fract_x
_atom_site_fract_y
_atom_site_fract_z
Si Si1 0.646772 0.711569 0.143737
Si Si2 0.048872 0.084019 0.538498
Si Si3 0.500000 0.750000 0.430439
Si Si4 0.903340 0.313865 0.413779
Si Si5 0.756142 0.936134 0.070953
Si Si6 0.697772 0.490073 0.680117
Si Si7 0.925174 0.837799 0.736819
Si Si8 0.191424 0.722948 0.633382
O O1 0.601362 0.591857 0.100354
O O2 0.674470 0.850295 0.101308
O O3 0.731635 0.642380 0.173200
O O4 0.592009 0.761311 0.200119
O O5 0.104453 0.102361 0.478053
O O6 0.000000 0.250000 0.540107
O O7 0.001285 0.919598 0.537875
O O8 0.400874 0.748437 0.401431
O O9 0.838440 0.169586 0.413498
O O10 0.879362 0.433471 0.362342
O O11 0.000000 0.250000 0.407569
O O12 0.750494 0.104496 0.097307
O O13 0.750000 0.939425 0.000000
O O14 0.675135 0.500000 0.750000
O O15 0.749303 0.634473 0.652766
O O16 0.841090 0.848694 0.696198
O O17 0.000000 0.750000 0.702601
O O18 0.962855 0.000000 0.750000
#
# Coordination Sequence:
#
# PCOD9336290 Si02
#       8
#     8   8   4   8   8   8   8   8
#     4  11  21  40  65  92 137 187 226 269 351 427
#     4  11  23  42  70 102 142 189 227 285 351 426
#     4  12  26  40  66 110 156 184 234 274 342 452
#     4  10  25  49  74  97 128 179 244 300 365 426
#     4  11  23  43  70  98 134 182 237 292 359 426
#     4  11  24  44  69  95 136 185 233 292 361 420
#     4  12  26  37  61  97 141 190 232 272 336 436
#     4  12  25  41  62 105 146 184 229 291 342 425
#
# _framework density 19.729144999999999
#
# number of rings (size 3 to 8) (size 9 to 14) (size 15 to 20)
#    0.000    0.800    6.000    1.200    5.600    1.067 
#    0.000    1.333    0.000    0.000    0.000    0.000 
#    0.000    0.000    0.000    0.000    0.000    0.000 
#
# Total GULP energy -167123.668563 kJ/mol
# GULP energy per Si atom -5570.788952 kJ/mol
# Density = 1.968424 g / cm^3
# Si number density = 19.729145 Si / 1000 Ang^3
#
#
#
# Elastic Constant Matrix: (Units=GPa)
#
#
# Indices 1 2 3 4 5 6 
#
# 1 68.5581 33.3207 34.2842 0.0000 0.0000 0.0000
# 2 33.3207 110.7185 38.4512 0.0000 0.0000 0.0000
# 3 34.2842 38.4512 122.0217 0.0000 0.0000 0.0000
# 4 0.0000 0.0000 0.0000 -8.4619 0.0000 0.0000
# 5 0.0000 0.0000 0.0000 0.0000 29.4687 0.0000
# 6 0.0000 0.0000 0.0000 0.0000 0.0000 36.3637
#
#
#
# Elastic Compliance Matrix: (Units=1/GPa)
#
#
# Indices 1 2 3 4 5 6 
#
# 1 0.018593 -0.004246 -0.003886 0.000000 0.000000 0.000000
# 2 -0.004246 0.011111 -0.002308 0.000000 0.000000 0.000000
# 3 -0.003886 -0.002308 0.010015 0.000000 0.000000 0.000000
# 4 0.000000 0.000000 0.000000 -0.118176 0.000000 0.000000
# 5 0.000000 0.000000 0.000000 0.000000 0.033934 0.000000
# 6 0.000000 0.000000 0.000000 0.000000 0.000000 0.027500
#
#
# Mechanical properties :
#
#
# Convention : Reuss Voigt Hill
#
# Bulk Modulus (GPa) = 53.08388 57.04562 55.06475
# Shear Modulus (GPa) = 493.20961 24.49024 258.84992
#
# Velocity S-wave (km/s) = 15.82824 3.52706 11.46676
# Velocity P-wave (km/s) = 19.00023 6.75012 14.25786
#
# Compressibility (1/GPa) = 0.01883811
#
# Stress axis : x y z
#
# Youngs Moduli (GPa) = 53.78316 89.99736 99.85466
#
# Poissons Ratio (x) = 0.38213 0.38804
# Poissons Ratio (y) = 0.22836 0.23051
# Poissons Ratio (z) = 0.20901 0.20775
#
# Static dielectric constant tensor:
#      x y z
#    x 1.794230 0.000000 0.000000 
#    y 0.000000 1.726320 0.000000 
#    z 0.000000 0.000000 1.720600 
# 
# From -- ./inp_files/35826.got.cif
#   From: 2010.05.17/outbox.cif.g08.bks.cpg/sg24_18_cif.got.tgz:35826.got - 2010.06.04 00:33:39.
