data_PCOD9336876
_publ_section_title
;
Structure prediction by ZEFSAII (Michael W. Deem and Ramdas Pophale) SiO2 
 PCOD9336876
Probable space group: I 21 21 21
;
_chemical_formula_sum "Si O2"
_cell_formula_units_Z 32
_cell_length_a 15.862476
_cell_length_b 7.193599
_cell_length_c 13.015349
_cell_angle_alpha 90.000000
_cell_angle_beta 90.000000
_cell_angle_gamma 90.000000
_cell_volume 1485.159238
_symmetry_space_group_name_H-M "I 21 21 21"
_symmetry_group_IT_number 24
_symmetry_cell_setting 'orthorhombic'
loop_
_space_group_symop_operation_xyz
x,y,z
-x,1/2-y,z
x,-y,1/2-z
1/2-x,y,-z
1/2+x,1/2+y,1/2+z
1/2-x,-y,1/2+z
1/2+x,1/2-y,-z
-x,1/2+y,1/2-z
loop_
_atom_site_type_symbol
_atom_site_label
_atom_site_fract_x
_atom_site_fract_y
_atom_site_fract_z
Si Si1 0.772307 0.348517 0.327033
Si Si2 0.416223 0.638068 0.458555
Si Si3 0.665329 0.000000 0.250000
Si Si4 0.075407 0.615158 0.148399
Si Si5 0.250000 0.875618 0.500000
O O1 0.812345 0.500000 0.250000
O O2 0.718042 0.190648 0.269864
O O3 0.844710 0.236544 0.383993
O O4 0.728010 0.485072 0.406716
O O5 0.500000 0.750000 0.428826
O O6 0.384726 0.534369 0.355820
O O7 0.446795 0.509619 0.551923
O O8 0.334311 0.748614 0.505196
O O9 0.098364 0.500000 0.250000
O O10 0.000000 0.750000 0.177301
#
# Coordination Sequence:
#
# PCOD9336876 Si02
#       5
#     8   8   4   8   4
#     4  12  23  44  73 104 142 192 239 298 374 427
#     4  12  27  47  73 109 149 196 249 301 369 441
#     4  12  26  48  72 106 150 190 248 300 364 448
#     4  12  24  44  70 108 148 187 248 311 370 438
#     4  12  24  46  74 102 146 194 250 296 360 442
#
# _framework density 21.546510999999999
#
# number of rings (size 3 to 8) (size 9 to 14) (size 15 to 20)
#    0.000    0.000    3.750    7.500    0.000    3.000 
#    0.000    0.000    0.000    0.000    0.000    0.000 
#    0.000    0.000    0.000    0.000    0.000    0.000 
#
# Total GULP energy -89339.092942 kJ/mol
# GULP energy per Si atom -5583.693309 kJ/mol
# Density = 2.149747 g / cm^3
# Si number density = 21.546511 Si / 1000 Ang^3
#
#
#
# Elastic Constant Matrix: (Units=GPa)
#
#
# Indices 1 2 3 4 5 6 
#
# 1 75.2180 22.9698 -8.5062 0.0000 0.0000 0.0000
# 2 22.9698 89.9584 21.2478 0.0000 0.0000 0.0000
# 3 -8.5062 21.2478 80.5699 0.0000 0.0000 0.0000
# 4 0.0000 0.0000 0.0000 36.1022 0.0000 0.0000
# 5 0.0000 0.0000 0.0000 0.0000 20.4655 0.0000
# 6 0.0000 0.0000 0.0000 0.0000 0.0000 9.7068
#
#
#
# Elastic Compliance Matrix: (Units=1/GPa)
#
#
# Indices 1 2 3 4 5 6 
#
# 1 0.014974 -0.004476 0.002761 0.000000 0.000000 0.000000
# 2 -0.004476 0.013192 -0.003952 0.000000 0.000000 0.000000
# 3 0.002761 -0.003952 0.013745 0.000000 0.000000 0.000000
# 4 0.000000 0.000000 0.000000 0.027699 0.000000 0.000000
# 5 0.000000 0.000000 0.000000 0.000000 0.048863 0.000000
# 6 0.000000 0.000000 0.000000 0.000000 0.000000 0.103020
#
#
# Mechanical properties :
#
#
# Convention : Reuss Voigt Hill
#
# Bulk Modulus (GPa) = 32.70189 35.24103 33.97146
# Shear Modulus (GPa) = 20.57456 27.25722 23.91589
#
# Velocity S-wave (km/s) = 3.09348 3.56060 3.33523
# Velocity P-wave (km/s) = 5.28865 5.77019 5.53466
#
# Compressibility (1/GPa) = 0.03057927
#
# Stress axis : x y z
#
# Youngs Moduli (GPa) = 66.78400 75.80136 72.75264
#
# Poissons Ratio (x) = 0.33925 -0.20088
# Poissons Ratio (y) = 0.29889 0.28749
# Poissons Ratio (z) = -0.18440 0.29954
#
# Static dielectric constant tensor:
#      x y z
#    x 1.736740 0.000000 0.000000 
#    y 0.000000 1.765840 0.000000 
#    z 0.000000 0.000000 1.810070 
# 
# From -- ./inp_files/3099.got.cif
#   From: 2010.05.17/outbox.cif.g08.bks.cpg/sg24_2_cif.got.tgz:3099.got - 2010.06.04 00:33:39.
