data_PCOD9336715
_publ_section_title
;
Structure prediction by ZEFSAII (Michael W. Deem and Ramdas Pophale) SiO2 
 PCOD9336715
Probable space group: I 21 21 21
;
_chemical_formula_sum "Si O2"
_cell_formula_units_Z 36
_cell_length_a 10.961907
_cell_length_b 12.035106
_cell_length_c 10.274828
_cell_angle_alpha 90.000000
_cell_angle_beta 90.000000
_cell_angle_gamma 90.000000
_cell_volume 1355.534556
_symmetry_space_group_name_H-M "I 21 21 21"
_symmetry_group_IT_number 24
_symmetry_cell_setting 'orthorhombic'
loop_
_space_group_symop_operation_xyz
x,y,z
-x,1/2-y,z
x,-y,1/2-z
1/2-x,y,-z
1/2+x,1/2+y,1/2+z
1/2-x,-y,1/2+z
1/2+x,1/2-y,-z
-x,1/2+y,1/2-z
loop_
_atom_site_type_symbol
_atom_site_label
_atom_site_fract_x
_atom_site_fract_y
_atom_site_fract_z
Si Si1 0.500000 0.750000 0.864887
Si Si2 0.750000 0.502016 0.500000
Si Si3 0.146684 0.450712 0.098569
Si Si4 0.000000 0.250000 0.780012
Si Si5 0.283939 0.203873 0.824437
Si Si6 0.497092 0.073697 0.429831
O O1 0.381953 0.799000 0.793206
O O2 0.547611 0.846672 0.957288
O O3 0.802981 0.586747 0.394223
O O4 0.648526 0.427486 0.431841
O O5 0.139960 0.500000 0.250000
O O6 0.171180 0.320697 0.116471
O O7 0.036369 0.458195 0.993256
O O8 0.250000 0.499459 0.000000
O O9 0.863831 0.282774 0.826531
O O10 0.034848 0.364513 0.700262
#
# Coordination Sequence:
#
# PCOD9336715 Si02
#       6
#     4   4   8   4   8   8
#     4  11  24  47  76 100 142 199 263 302 378 479
#     4  12  28  46  70 110 154 196 246 330 404 446
#     4  12  25  47  78 111 149 203 262 320 383 463
#     4  11  28  49  72 112 154 201 255 322 392 467
#     4  12  26  46  73 109 149 197 256 320 386 465
#     4  11  26  46  75 105 149 200 255 312 388 467
#
# _framework density 26.557787999999999
#
# number of rings (size 3 to 8) (size 9 to 14) (size 15 to 20)
#    0.000    0.444    3.333    4.000    3.111    5.333 
#    0.000    0.000    0.000    0.000    0.000    0.000 
#    0.000    0.000    0.000    0.000    0.000    0.000 
#
# Total GULP energy -100255.743956 kJ/mol
# GULP energy per Si atom -5569.763553 kJ/mol
# Density = 2.649734 g / cm^3
# Si number density = 26.557788 Si / 1000 Ang^3
#
#
#
# Elastic Constant Matrix: (Units=GPa)
#
#
# Indices 1 2 3 4 5 6 
#
# 1 106.3688 -14.3365 6.2088 0.0000 0.0000 0.0000
# 2 -14.3365 48.3697 18.3132 0.0000 0.0000 0.0000
# 3 6.2088 18.3132 89.0175 0.0000 0.0000 0.0000
# 4 0.0000 0.0000 0.0000 56.6696 0.0000 0.0000
# 5 0.0000 0.0000 0.0000 0.0000 68.6428 0.0000
# 6 0.0000 0.0000 0.0000 0.0000 0.0000 13.9127
#
#
#
# Elastic Compliance Matrix: (Units=1/GPa)
#
#
# Indices 1 2 3 4 5 6 
#
# 1 0.009953 0.003484 -0.001411 0.000000 0.000000 0.000000
# 2 0.003484 0.023640 -0.005106 0.000000 0.000000 0.000000
# 3 -0.001411 -0.005106 0.012383 0.000000 0.000000 0.000000
# 4 0.000000 0.000000 0.000000 0.017646 0.000000 0.000000
# 5 0.000000 0.000000 0.000000 0.000000 0.014568 0.000000
# 6 0.000000 0.000000 0.000000 0.000000 0.000000 0.071877
#
#
# Mechanical properties :
#
#
# Convention : Reuss Voigt Hill
#
# Bulk Modulus (GPa) = 25.05650 29.34745 27.20198
# Shear Modulus (GPa) = 29.50957 43.41641 36.46299
#
# Velocity S-wave (km/s) = 3.33700 4.04764 3.70938
# Velocity P-wave (km/s) = 4.92977 5.73750 5.34890
#
# Compressibility (1/GPa) = 0.03990980
#
# Stress axis : x y z
#
# Youngs Moduli (GPa) = 100.46991 42.30094 80.75802
#
# Poissons Ratio (x) = -0.14739 0.11395
# Poissons Ratio (y) = -0.35007 0.41238
# Poissons Ratio (z) = 0.14177 0.21601
#
# Static dielectric constant tensor:
#      x y z
#    x 1.088450 0.000000 0.000000 
#    y 0.000000 0.456060 0.000000 
#    z 0.000000 0.000000 2.276100 
# 
# From -- ./inp_files/19244.got.cif
#   From: 2010.05.17/outbox.cif.g08.bks.cpg/sg24_10_cif.got.tgz:19244.got - 2010.06.04 00:33:39.
