data_PCOD9336257
_publ_section_title
;
Structure prediction by ZEFSAII (Michael W. Deem and Ramdas Pophale) SiO2 
 PCOD9336257
Probable space group: I 21 21 21
;
_chemical_formula_sum "Si O2"
_cell_formula_units_Z 32
_cell_length_a 9.488920
_cell_length_b 10.935265
_cell_length_c 14.153626
_cell_angle_alpha 90.000000
_cell_angle_beta 90.000000
_cell_angle_gamma 90.000000
_cell_volume 1468.634793
_symmetry_space_group_name_H-M "I 21 21 21"
_symmetry_group_IT_number 24
_symmetry_cell_setting 'orthorhombic'
loop_
_space_group_symop_operation_xyz
x,y,z
-x,1/2-y,z
x,-y,1/2-z
1/2-x,y,-z
1/2+x,1/2+y,1/2+z
1/2-x,-y,1/2+z
1/2+x,1/2-y,-z
-x,1/2+y,1/2-z
loop_
_atom_site_type_symbol
_atom_site_label
_atom_site_fract_x
_atom_site_fract_y
_atom_site_fract_z
Si Si1 0.809232 0.344085 0.106048
Si Si2 0.389900 0.570185 0.651415
Si Si3 0.066783 0.125778 0.756431
Si Si4 0.250000 0.408196 0.500000
Si Si5 0.000000 0.250000 0.574341
O O1 0.838487 0.210653 0.152313
O O2 0.697131 0.403928 0.176599
O O3 0.954885 0.418666 0.104935
O O4 0.750000 0.330598 0.000000
O O5 0.403144 0.500000 0.750000
O O6 0.282364 0.494227 0.588116
O O7 0.089733 0.167624 0.648476
O O8 0.000000 0.250000 0.799453
O O9 0.978592 0.000000 0.750000
O O10 0.111453 0.327193 0.516263
#
# Coordination Sequence:
#
# PCOD9336257 Si02
#       5
#     8   8   8   4   4
#     4  11  25  42  73 111 143 197 260 317 387 464
#     4  11  26  45  74 105 152 197 248 330 388 462
#     4  10  25  43  72 101 144 195 248 309 382 457
#     4  12  26  50  72 108 152 196 264 310 394 474
#     4  10  28  42  76 104 146 204 242 314 380 468
#
# _framework density 21.788944000000001
#
# number of rings (size 3 to 8) (size 9 to 14) (size 15 to 20)
#    0.750    0.500    1.250    2.250   10.500    6.000 
#    0.000    0.000    0.000    0.000    0.000    0.000 
#    0.000    0.000    0.000    0.000    0.000    0.000 
#
# Total GULP energy -89297.641876 kJ/mol
# GULP energy per Si atom -5581.102617 kJ/mol
# Density = 2.173935 g / cm^3
# Si number density = 21.788944 Si / 1000 Ang^3
#
#
#
# Elastic Constant Matrix: (Units=GPa)
#
#
# Indices 1 2 3 4 5 6 
#
# 1 90.9710 30.7975 24.0319 0.0000 0.0000 0.0000
# 2 30.7975 119.6220 31.7519 0.0000 0.0000 0.0000
# 3 24.0319 31.7519 89.9504 0.0000 0.0000 0.0000
# 4 0.0000 0.0000 0.0000 20.1222 0.0000 0.0000
# 5 0.0000 0.0000 0.0000 0.0000 33.7989 0.0000
# 6 0.0000 0.0000 0.0000 0.0000 0.0000 18.3454
#
#
#
# Elastic Compliance Matrix: (Units=1/GPa)
#
#
# Indices 1 2 3 4 5 6 
#
# 1 0.012507 -0.002574 -0.002433 0.000000 0.000000 0.000000
# 2 -0.002574 0.009754 -0.002755 0.000000 0.000000 0.000000
# 3 -0.002433 -0.002755 0.012740 0.000000 0.000000 0.000000
# 4 0.000000 0.000000 0.000000 0.049696 0.000000 0.000000
# 5 0.000000 0.000000 0.000000 0.000000 0.029587 0.000000
# 6 0.000000 0.000000 0.000000 0.000000 0.000000 0.054510
#
#
# Mechanical properties :
#
#
# Convention : Reuss Voigt Hill
#
# Bulk Modulus (GPa) = 51.34570 52.63401 51.98985
# Shear Modulus (GPa) = 26.20418 28.71744 27.46081
#
# Velocity S-wave (km/s) = 3.47167 3.63434 3.55394
# Velocity P-wave (km/s) = 6.29969 6.46684 6.38381
#
# Compressibility (1/GPa) = 0.01947583
#
# Stress axis : x y z
#
# Youngs Moduli (GPa) = 79.95755 102.52458 78.49432
#
# Poissons Ratio (x) = 0.26392 0.19095
# Poissons Ratio (y) = 0.20583 0.21627
# Poissons Ratio (z) = 0.19451 0.28248
#
# Static dielectric constant tensor:
#      x y z
#    x 1.814310 0.000000 0.000000 
#    y 0.000000 1.898230 0.000000 
#    z 0.000000 0.000000 1.760380 
# 
# From -- ./inp_files/24322.got.cif
#   From: 2010.05.17/outbox.cif.g08.bks.cpg/sg24_13_cif.got.tgz:24322.got - 2010.06.04 00:33:39.
