data_PCOD9336000
_publ_section_title
;
Structure prediction by ZEFSAII (Michael W. Deem and Ramdas Pophale) SiO2 
 PCOD9336000
Probable space group: I 21 21 21
;
_chemical_formula_sum "Si O2"
_cell_formula_units_Z 28
_cell_length_a 19.692527
_cell_length_b 10.958057
_cell_length_c 5.087522
_cell_angle_alpha 90.000000
_cell_angle_beta 90.000000
_cell_angle_gamma 90.000000
_cell_volume 1097.845700
_symmetry_space_group_name_H-M "I 21 21 21"
_symmetry_group_IT_number 24
_symmetry_cell_setting 'orthorhombic'
loop_
_space_group_symop_operation_xyz
x,y,z
-x,1/2-y,z
x,-y,1/2-z
1/2-x,y,-z
1/2+x,1/2+y,1/2+z
1/2-x,-y,1/2+z
1/2+x,1/2-y,-z
-x,1/2+y,1/2-z
loop_
_atom_site_type_symbol
_atom_site_label
_atom_site_fract_x
_atom_site_fract_y
_atom_site_fract_z
Si Si1 0.527991 0.374908 0.092879
Si Si2 0.177401 0.357549 0.561899
Si Si3 0.929581 0.000000 0.250000
Si Si4 0.176685 0.806036 0.439051
O O1 0.500000 0.250000 0.224557
O O2 0.519162 0.500000 0.250000
O O3 0.606395 0.371547 0.005706
O O4 0.477538 0.392025 0.848368
O O5 0.250000 0.416251 0.500000
O O6 0.118175 0.446164 0.475145
O O7 0.175693 0.307444 0.855930
O O8 0.174573 0.242816 0.358478
O O9 0.250000 0.867698 0.500000
#
# Coordination Sequence:
#
# PCOD9336000 Si02
#       4
#     8   8   4   8
#     4  12  27  48  77 112 158 207 263 325 394 469
#     4  10  23  44  75 107 152 196 260 321 390 459
#     4  12  26  42  74 110 156 202 260 326 396 466
#     4  10  23  48  74 109 150 205 255 320 386 470
#
# _framework density 25.504494000000001
#
# number of rings (size 3 to 8) (size 9 to 14) (size 15 to 20)
#    0.000    1.143    2.857    1.714    4.000    4.571 
#    2.571    0.000    0.000    0.000    0.000    0.000 
#    0.000    0.000    0.000    0.000    0.000    0.000 
#
# Total GULP energy -78436.238580 kJ/mol
# GULP energy per Si atom -5602.588470 kJ/mol
# Density = 2.544644 g / cm^3
# Si number density = 25.504494 Si / 1000 Ang^3
#
#
#
# Elastic Constant Matrix: (Units=GPa)
#
#
# Indices 1 2 3 4 5 6 
#
# 1 240.4218 49.7783 12.3906 0.0000 0.0000 0.0000
# 2 49.7783 95.1595 24.6694 0.0000 0.0000 0.0000
# 3 12.3906 24.6694 79.9466 0.0000 0.0000 0.0000
# 4 0.0000 0.0000 0.0000 22.9999 0.0000 0.0000
# 5 0.0000 0.0000 0.0000 0.0000 28.2160 0.0000
# 6 0.0000 0.0000 0.0000 0.0000 0.0000 45.8780
#
#
#
# Elastic Compliance Matrix: (Units=1/GPa)
#
#
# Indices 1 2 3 4 5 6 
#
# 1 0.004665 -0.002449 0.000033 0.000000 0.000000 0.000000
# 2 -0.002449 0.012708 -0.003542 0.000000 0.000000 0.000000
# 3 0.000033 -0.003542 0.013596 0.000000 0.000000 0.000000
# 4 0.000000 0.000000 0.000000 0.043478 0.000000 0.000000
# 5 0.000000 0.000000 0.000000 0.000000 0.035441 0.000000
# 6 0.000000 0.000000 0.000000 0.000000 0.000000 0.021797
#
#
# Mechanical properties :
#
#
# Convention : Reuss Voigt Hill
#
# Bulk Modulus (GPa) = 52.48489 65.46717 58.97603
# Shear Modulus (GPa) = 33.34419 41.33142 37.33781
#
# Velocity S-wave (km/s) = 3.61970 4.02998 3.83034
# Velocity P-wave (km/s) = 6.17195 6.88323 6.53727
#
# Compressibility (1/GPa) = 0.01905310
#
# Stress axis : x y z
#
# Youngs Moduli (GPa) = 214.37901 78.69255 73.54998
#
# Poissons Ratio (x) = 0.19268 -0.00240
# Poissons Ratio (y) = 0.52491 0.26050
# Poissons Ratio (z) = -0.00699 0.27871
#
# Static dielectric constant tensor:
#      x y z
#    x 2.008880 0.000000 0.000000 
#    y 0.000000 2.033310 0.000000 
#    z 0.000000 0.000000 2.026410 
# 
# From -- ./inp_files/5217.got.cif
#   From: 2010.05.17/outbox.cif.g08.bks.cpg/sg24_3_cif.got.tgz:5217.got - 2010.06.04 00:33:39.
