data_PCOD9336380
_publ_section_title
;
Structure prediction by ZEFSAII (Michael W. Deem and Ramdas Pophale) SiO2 
 PCOD9336380
Probable space group: I 21 21 21
;
_chemical_formula_sum "Si O2"
_cell_formula_units_Z 60
_cell_length_a 22.378353
_cell_length_b 12.246738
_cell_length_c 11.629737
_cell_angle_alpha 90.000000
_cell_angle_beta 90.000000
_cell_angle_gamma 90.000000
_cell_volume 3187.266959
_symmetry_space_group_name_H-M "I 21 21 21"
_symmetry_group_IT_number 24
_symmetry_cell_setting 'orthorhombic'
loop_
_space_group_symop_operation_xyz
x,y,z
-x,1/2-y,z
x,-y,1/2-z
1/2-x,y,-z
1/2+x,1/2+y,1/2+z
1/2-x,-y,1/2+z
1/2+x,1/2-y,-z
-x,1/2+y,1/2-z
loop_
_atom_site_type_symbol
_atom_site_label
_atom_site_fract_x
_atom_site_fract_y
_atom_site_fract_z
Si Si1 0.750000 0.471112 0.500000
Si Si2 0.696699 0.808077 0.406092
Si Si3 0.857465 0.637557 0.441612
Si Si4 0.919854 0.067108 0.367748
Si Si5 0.053393 0.973731 0.113148
Si Si6 0.727773 0.268632 0.341121
Si Si7 0.136179 0.212968 0.321148
Si Si8 0.315907 0.451331 0.446046
O O1 0.803127 0.552176 0.461550
O O2 0.724150 0.387440 0.402054
O O3 0.750000 0.810228 0.500000
O O4 0.647007 0.739800 0.473844
O O5 0.716102 0.739133 0.294799
O O6 0.680674 0.933639 0.376050
O O7 0.920085 0.575840 0.453833
O O8 0.854445 0.673817 0.308914
O O9 0.910324 0.190142 0.327494
O O10 0.868303 0.041198 0.459736
O O11 0.986014 0.054231 0.418893
O O12 0.912506 0.000000 0.250000
O O13 0.104711 0.881665 0.105713
O O14 0.050558 0.000000 0.250000
O O15 0.798705 0.246052 0.361056
O O16 0.686827 0.169119 0.388432
O O17 0.250000 0.457871 0.500000
#
# Coordination Sequence:
#
# PCOD9336380 Si02
#       8
#     4   8   8   8   8   8   8   8
#     4  12  22  36  58  92 128 168 206 256 322 370
#     4  11  23  37  59  91 123 167 206 261 321 375
#     4  11  21  37  58  93 127 165 205 253 315 380
#     4  11  22  37  60  91 124 167 208 255 321 376
#     4   9  21  36  58  88 125 164 202 252 313 383
#     4  12  22  38  59  91 125 163 208 261 318 383
#     4  11  19  35  58  84 130 163 200 253 310 375
#     4  11  23  38  57  88 121 161 208 262 320 375
#
# _framework density 18.824905000000001
#
# number of rings (size 3 to 8) (size 9 to 14) (size 15 to 20)
#    0.000    1.067    5.333    1.600    1.867    1.600 
#    0.000    2.000    0.000    0.000   10.400    0.000 
#    0.000    0.000    0.000    0.000    0.000    0.000 
#
# Total GULP energy -167173.515559 kJ/mol
# GULP energy per Si atom -5572.450519 kJ/mol
# Density = 1.878206 g / cm^3
# Si number density = 18.824905 Si / 1000 Ang^3
#
#
#
# Elastic Constant Matrix: (Units=GPa)
#
#
# Indices 1 2 3 4 5 6 
#
# 1 115.9480 26.8356 21.6426 0.0000 0.0000 0.0000
# 2 26.8356 90.0774 16.6172 0.0000 0.0000 0.0000
# 3 21.6426 16.6172 60.5042 0.0000 0.0000 0.0000
# 4 0.0000 0.0000 0.0000 40.0876 0.0000 0.0000
# 5 0.0000 0.0000 0.0000 0.0000 21.0380 0.0000
# 6 0.0000 0.0000 0.0000 0.0000 0.0000 20.9705
#
#
#
# Elastic Compliance Matrix: (Units=1/GPa)
#
#
# Indices 1 2 3 4 5 6 
#
# 1 0.009699 -0.002370 -0.002819 0.000000 0.000000 0.000000
# 2 -0.002370 0.012273 -0.002523 0.000000 0.000000 0.000000
# 3 -0.002819 -0.002523 0.018229 0.000000 0.000000 0.000000
# 4 0.000000 0.000000 0.000000 0.024945 0.000000 0.000000
# 5 0.000000 0.000000 0.000000 0.000000 0.047533 0.000000
# 6 0.000000 0.000000 0.000000 0.000000 0.000000 0.047686
#
#
# Mechanical properties :
#
#
# Convention : Reuss Voigt Hill
#
# Bulk Modulus (GPa) = 40.35764 44.08003 42.21884
# Shear Modulus (GPa) = 27.16688 29.84815 28.50752
#
# Velocity S-wave (km/s) = 3.80298 3.98624 3.89569
# Velocity P-wave (km/s) = 6.38503 6.68232 6.53536
#
# Compressibility (1/GPa) = 0.02477845
#
# Stress axis : x y z
#
# Youngs Moduli (GPa) = 103.10237 81.48004 54.85772
#
# Poissons Ratio (x) = 0.19307 0.15462
# Poissons Ratio (y) = 0.24431 0.13841
# Poissons Ratio (z) = 0.29061 0.20558
#
# Static dielectric constant tensor:
#      x y z
#    x 1.614200 0.000000 0.000000 
#    y 0.000000 1.759780 0.000000 
#    z 0.000000 0.000000 1.697030 
# 
# From -- ./inp_files/22243.got.cif
#   From: 2010.05.17/outbox.cif.g08.bks.cpg/sg24_12_cif.got.tgz:22243.got - 2010.06.04 00:33:39.
