data_PCOD9336659
_publ_section_title
;
Structure prediction by ZEFSAII (Michael W. Deem and Ramdas Pophale) SiO2 
 PCOD9336659
Probable space group: I 21 21 21
;
_chemical_formula_sum "Si O2"
_cell_formula_units_Z 60
_cell_length_a 26.300839
_cell_length_b 6.793403
_cell_length_c 17.056473
_cell_angle_alpha 90.000000
_cell_angle_beta 90.000000
_cell_angle_gamma 90.000000
_cell_volume 3047.517531
_symmetry_space_group_name_H-M "I 21 21 21"
_symmetry_group_IT_number 24
_symmetry_cell_setting 'orthorhombic'
loop_
_space_group_symop_operation_xyz
x,y,z
-x,1/2-y,z
x,-y,1/2-z
1/2-x,y,-z
1/2+x,1/2+y,1/2+z
1/2-x,-y,1/2+z
1/2+x,1/2-y,-z
-x,1/2+y,1/2-z
loop_
_atom_site_type_symbol
_atom_site_label
_atom_site_fract_x
_atom_site_fract_y
_atom_site_fract_z
Si Si1 0.658834 0.676860 0.188150
Si Si2 0.581159 0.000000 0.250000
Si Si3 0.210658 0.231182 0.061234
Si Si4 0.442674 0.292612 0.551041
Si Si5 0.148067 0.444094 0.341594
Si Si6 0.120846 0.964460 0.534141
Si Si7 0.231270 0.885194 0.170044
Si Si8 0.548985 0.879951 0.416891
O O1 0.662013 0.500000 0.250000
O O2 0.638171 0.601828 0.105370
O O3 0.717315 0.743142 0.177488
O O4 0.619098 0.829085 0.222698
O O5 0.548650 0.055133 0.173698
O O6 0.180303 0.383463 0.115814
O O7 0.240324 0.063310 0.109625
O O8 0.250000 0.328136 0.000000
O O9 0.168388 0.109575 0.014767
O O10 0.500000 0.250000 0.580269
O O11 0.404556 0.395791 0.613206
O O12 0.417078 0.090675 0.520335
O O13 0.447349 0.437247 0.475851
O O14 0.140693 0.500000 0.250000
O O15 0.183747 0.251868 0.348547
O O16 0.095476 0.768408 0.569225
O O17 0.220345 0.000000 0.250000
O O18 0.500000 0.750000 0.435124
#
# Coordination Sequence:
#
# PCOD9336659 Si02
#       8
#     8   4   8   8   8   8   8   8
#     4  11  24  39  64  99 145 184 224 271 335 404
#     4  12  26  40  68 106 142 184 234 284 334 418
#     4  12  25  42  71 106 140 180 230 278 342 418
#     4  12  26  46  72  98 129 181 233 295 359 412
#     4  12  27  46  72 105 139 176 231 295 353 412
#     4  12  23  42  68  96 133 177 232 287 339 410
#     4  11  24  42  67 100 138 184 217 269 338 414
#     4  12  26  43  68 100 137 179 236 291 345 411
#
# _framework density 19.688157
#
# number of rings (size 3 to 8) (size 9 to 14) (size 15 to 20)
#    0.000    0.267    9.333    0.000    0.933    4.267 
#    0.000    2.667    0.000    0.000    0.000    0.000 
#    0.000    0.000    0.000    0.000    0.000    0.000 
#
# Total GULP energy -167669.110354 kJ/mol
# GULP energy per Si atom -5588.970345 kJ/mol
# Density = 1.964335 g / cm^3
# Si number density = 19.688157 Si / 1000 Ang^3
#
#
#
# Elastic Constant Matrix: (Units=GPa)
#
#
# Indices 1 2 3 4 5 6 
#
# 1 83.8268 12.8788 24.5466 0.0000 0.0000 0.0000
# 2 12.8788 54.0011 21.6028 0.0000 0.0000 0.0000
# 3 24.5466 21.6028 101.7741 0.0000 0.0000 0.0000
# 4 0.0000 0.0000 0.0000 33.7355 0.0000 0.0000
# 5 0.0000 0.0000 0.0000 0.0000 34.9180 0.0000
# 6 0.0000 0.0000 0.0000 0.0000 0.0000 36.1035
#
#
#
# Elastic Compliance Matrix: (Units=1/GPa)
#
#
# Indices 1 2 3 4 5 6 
#
# 1 0.013035 -0.002023 -0.002715 0.000000 0.000000 0.000000
# 2 -0.002023 0.020550 -0.003874 0.000000 0.000000 0.000000
# 3 -0.002715 -0.003874 0.011303 0.000000 0.000000 0.000000
# 4 0.000000 0.000000 0.000000 0.029642 0.000000 0.000000
# 5 0.000000 0.000000 0.000000 0.000000 0.028639 0.000000
# 6 0.000000 0.000000 0.000000 0.000000 0.000000 0.027698
#
#
# Mechanical properties :
#
#
# Convention : Reuss Voigt Hill
#
# Bulk Modulus (GPa) = 36.14663 39.73984 37.94324
# Shear Modulus (GPa) = 31.78399 32.98966 32.38683
#
# Velocity S-wave (km/s) = 4.02228 4.09786 4.06025
# Velocity P-wave (km/s) = 6.32227 6.52828 6.42610
#
# Compressibility (1/GPa) = 0.02766509
#
# Stress axis : x y z
#
# Youngs Moduli (GPa) = 76.71645 48.66082 88.47418
#
# Poissons Ratio (x) = 0.09843 0.24016
# Poissons Ratio (y) = 0.15518 0.34277
# Poissons Ratio (z) = 0.20825 0.18852
#
# Static dielectric constant tensor:
#      x y z
#    x 1.698400 0.000000 0.000000 
#    y 0.000000 1.620300 0.000000 
#    z 0.000000 0.000000 1.686250 
# 
# From -- ./inp_files/4998.got.cif
#   From: 2010.05.17/outbox.cif.g08.bks.cpg/sg24_3_cif.got.tgz:4998.got - 2010.06.04 00:33:39.
