data_PCOD9336698
_publ_section_title
;
Structure prediction by ZEFSAII (Michael W. Deem and Ramdas Pophale) SiO2 
 PCOD9336698
Probable space group: I 21 21 21
;
_chemical_formula_sum "Si O2"
_cell_formula_units_Z 28
_cell_length_a 10.082573
_cell_length_b 11.181239
_cell_length_c 9.696094
_cell_angle_alpha 90.000000
_cell_angle_beta 90.000000
_cell_angle_gamma 90.000000
_cell_volume 1093.095541
_symmetry_space_group_name_H-M "I 21 21 21"
_symmetry_group_IT_number 24
_symmetry_cell_setting 'orthorhombic'
loop_
_space_group_symop_operation_xyz
x,y,z
-x,1/2-y,z
x,-y,1/2-z
1/2-x,y,-z
1/2+x,1/2+y,1/2+z
1/2-x,-y,1/2+z
1/2+x,1/2-y,-z
-x,1/2+y,1/2-z
loop_
_atom_site_type_symbol
_atom_site_label
_atom_site_fract_x
_atom_site_fract_y
_atom_site_fract_z
Si Si1 0.859059 0.969492 0.080607
Si Si2 0.872308 0.000000 0.750000
Si Si3 0.500000 0.750000 0.811598
Si Si4 0.500000 0.750000 0.330483
Si Si5 0.626839 0.621220 0.560921
O O1 0.910201 0.833716 0.094971
O O2 0.836637 0.000000 0.250000
O O3 0.994252 0.045520 0.058920
O O4 0.813838 0.984906 0.910309
O O5 0.956413 0.873929 0.741591
O O6 0.606916 0.684726 0.708658
O O7 0.618538 0.718687 0.437290
O O8 0.750000 0.546503 0.500000
#
# Coordination Sequence:
#
# PCOD9336698 Si02
#       5
#     8   4   4   4   8
#     4  12  25  47  75 108 155 203 255 322 393 460
#     4  12  24  50  76 116 156 204 256 324 390 462
#     4  11  24  45  76 106 150 203 250 325 388 450
#     4  11  26  45  78 110 150 205 258 321 376 472
#     4  11  24  45  74 107 145 199 264 306 385 473
#
# _framework density 25.615328000000002
#
# number of rings (size 3 to 8) (size 9 to 14) (size 15 to 20)
#    0.000    0.571    5.714    1.714    4.000    2.286 
#   10.286    0.000    0.000    0.000    0.000    0.000 
#    0.000    0.000    0.000    0.000    0.000    0.000 
#
# Total GULP energy -77990.914607 kJ/mol
# GULP energy per Si atom -5570.779615 kJ/mol
# Density = 2.555703 g / cm^3
# Si number density = 25.615328 Si / 1000 Ang^3
#
#
#
# Elastic Constant Matrix: (Units=GPa)
#
#
# Indices 1 2 3 4 5 6 
#
# 1 325.9708 38.7149 -332.6620 0.0000 0.0000 0.0000
# 2 38.7149 168.1312 158.0711 0.0000 0.0000 0.0000
# 3 -332.6620 158.0711 1284.7150 0.0000 0.0000 0.0000
# 4 0.0000 0.0000 0.0000 50.5846 0.0000 0.0000
# 5 0.0000 0.0000 0.0000 0.0000 34.6065 0.0000
# 6 0.0000 0.0000 0.0000 0.0000 0.0000 -269.7326
#
#
#
# Elastic Compliance Matrix: (Units=1/GPa)
#
#
# Indices 1 2 3 4 5 6 
#
# 1 0.005072 -0.002717 0.001648 0.000000 0.000000 0.000000
# 2 -0.002717 0.008181 -0.001710 0.000000 0.000000 0.000000
# 3 0.001648 -0.001710 0.001415 0.000000 0.000000 0.000000
# 4 0.000000 0.000000 0.000000 0.019769 0.000000 0.000000
# 5 0.000000 0.000000 0.000000 0.000000 0.028896 0.000000
# 6 0.000000 0.000000 0.000000 0.000000 0.000000 -0.003707
#
#
# Mechanical properties :
#
#
# Convention : Reuss Voigt Hill
#
# Bulk Modulus (GPa) = 109.77456 167.45165 138.61311
# Shear Modulus (GPa) = 73.29071 90.73790 82.01431
#
# Velocity S-wave (km/s) = 5.35483 5.95820 5.66455
# Velocity P-wave (km/s) = 9.01001 10.62295 9.84955
#
# Compressibility (1/GPa) = 0.00910958
#
# Stress axis : x y z
#
# Youngs Moduli (GPa) = 197.16765 122.23281 706.50774
#
# Poissons Ratio (x) = 0.33209 -1.16402
# Poissons Ratio (y) = 0.53568 1.20820
# Poissons Ratio (z) = -0.32485 0.20903
#
# Static dielectric constant tensor:
#      x y z
#    x 1.992660 0.000000 0.000000 
#    y 0.000000 2.165890 0.000000 
#    z 0.000000 0.000000 2.026230 
# 
# From -- ./inp_files/10072.got.cif
#   From: 2010.05.17/outbox.cif.g08.bks.cpg/sg24_6_cif.got.tgz:10072.got - 2010.06.04 00:33:39.
