data_PCOD9336584
_publ_section_title
;
Structure prediction by ZEFSAII (Michael W. Deem and Ramdas Pophale) SiO2 
 PCOD9336584
Probable space group: I 21 21 21
;
_chemical_formula_sum "Si O2"
_cell_formula_units_Z 36
_cell_length_a 9.561972
_cell_length_b 9.091245
_cell_length_c 19.933831
_cell_angle_alpha 90.000000
_cell_angle_beta 90.000000
_cell_angle_gamma 90.000000
_cell_volume 1732.852516
_symmetry_space_group_name_H-M "I 21 21 21"
_symmetry_group_IT_number 24
_symmetry_cell_setting 'orthorhombic'
loop_
_space_group_symop_operation_xyz
x,y,z
-x,1/2-y,z
x,-y,1/2-z
1/2-x,y,-z
1/2+x,1/2+y,1/2+z
1/2-x,-y,1/2+z
1/2+x,1/2-y,-z
-x,1/2+y,1/2-z
loop_
_atom_site_type_symbol
_atom_site_label
_atom_site_fract_x
_atom_site_fract_y
_atom_site_fract_z
Si Si1 0.750000 0.895245 0.000000
Si Si2 0.720658 0.454276 0.108490
Si Si3 0.000000 0.250000 0.831790
Si Si4 0.668673 0.762782 0.143324
Si Si5 0.353185 0.500000 0.250000
Si Si6 0.972045 0.420484 0.014742
O O1 0.713550 0.806796 0.067799
O O2 0.883145 0.995056 0.018031
O O3 0.643047 0.308454 0.134341
O O4 0.722100 0.596953 0.155739
O O5 0.874285 0.426870 0.079833
O O6 0.618577 0.490664 0.045397
O O7 0.050053 0.391868 0.792367
O O8 0.500000 0.750000 0.147441
O O9 0.718028 0.888166 0.196252
O O10 0.000000 0.250000 0.999230
#
# Coordination Sequence:
#
# PCOD9336584 Si02
#       6
#     4   8   4   8   4   8
#     4  12  24  42  70  98 144 182 232 292 362 426
#     4  11  23  39  65  98 143 174 235 285 355 410
#     4  12  20  40  64  96 130 180 232 302 332 424
#     4  12  24  42  66 106 135 183 232 293 355 418
#     4  12  24  40  68 100 138 182 244 286 350 426
#     4  11  23  37  63 104 138 184 223 292 352 425
#
# _framework density 20.774992999999998
#
# number of rings (size 3 to 8) (size 9 to 14) (size 15 to 20)
#    0.000    0.444    6.667    2.667    3.111    0.000 
#    0.000    0.000    0.000    6.667    0.000    0.000 
#    0.000    0.000    0.000    0.000    0.000    0.000 
#
# Total GULP energy -100431.974918 kJ/mol
# GULP energy per Si atom -5579.554162 kJ/mol
# Density = 2.072771 g / cm^3
# Si number density = 20.774993 Si / 1000 Ang^3
#
#
#
# Elastic Constant Matrix: (Units=GPa)
#
#
# Indices 1 2 3 4 5 6 
#
# 1 104.9268 43.1617 20.9111 0.0000 0.0000 0.0000
# 2 43.1617 143.2125 38.3721 0.0000 0.0000 0.0000
# 3 20.9111 38.3721 66.5570 0.0000 0.0000 0.0000
# 4 0.0000 0.0000 0.0000 37.2517 0.0000 0.0000
# 5 0.0000 0.0000 0.0000 0.0000 15.4435 0.0000
# 6 0.0000 0.0000 0.0000 0.0000 0.0000 20.4100
#
#
#
# Elastic Compliance Matrix: (Units=1/GPa)
#
#
# Indices 1 2 3 4 5 6 
#
# 1 0.011066 -0.002843 -0.001838 0.000000 0.000000 0.000000
# 2 -0.002843 0.008989 -0.004289 0.000000 0.000000 0.000000
# 3 -0.001838 -0.004289 0.018075 0.000000 0.000000 0.000000
# 4 0.000000 0.000000 0.000000 0.026844 0.000000 0.000000
# 5 0.000000 0.000000 0.000000 0.000000 0.064752 0.000000
# 6 0.000000 0.000000 0.000000 0.000000 0.000000 0.048996
#
#
# Mechanical properties :
#
#
# Convention : Reuss Voigt Hill
#
# Bulk Modulus (GPa) = 49.52873 57.73181 53.63027
# Shear Modulus (GPa) = 24.58316 28.77111 26.67713
#
# Velocity S-wave (km/s) = 3.44365 3.72545 3.58732
# Velocity P-wave (km/s) = 6.30111 6.80843 6.55968
#
# Compressibility (1/GPa) = 0.02019030
#
# Stress axis : x y z
#
# Youngs Moduli (GPa) = 90.36628 111.25238 55.32530
#
# Poissons Ratio (x) = 0.31626 0.10168
# Poissons Ratio (y) = 0.25688 0.23729
# Poissons Ratio (z) = 0.16608 0.47717
#
# Static dielectric constant tensor:
#      x y z
#    x 1.693120 0.000000 0.000000 
#    y 0.000000 1.785100 0.000000 
#    z 0.000000 0.000000 1.860480 
# 
# From -- ./inp_files/9104.got.cif
#   From: 2010.05.17/outbox.cif.g08.bks.cpg/sg24_5_cif.got.tgz:9104.got - 2010.06.04 00:33:39.
