data_PCOD9336480
_publ_section_title
;
Structure prediction by ZEFSAII (Michael W. Deem and Ramdas Pophale) SiO2 
 PCOD9336480
Probable space group: I 21 21 21
;
_chemical_formula_sum "Si O2"
_cell_formula_units_Z 56
_cell_length_a 11.757362
_cell_length_b 12.357500
_cell_length_c 15.227828
_cell_angle_alpha 90.000000
_cell_angle_beta 90.000000
_cell_angle_gamma 90.000000
_cell_volume 2212.475509
_symmetry_space_group_name_H-M "I 21 21 21"
_symmetry_group_IT_number 24
_symmetry_cell_setting 'orthorhombic'
loop_
_space_group_symop_operation_xyz
x,y,z
-x,1/2-y,z
x,-y,1/2-z
1/2-x,y,-z
1/2+x,1/2+y,1/2+z
1/2-x,-y,1/2+z
1/2+x,1/2-y,-z
-x,1/2+y,1/2-z
loop_
_atom_site_type_symbol
_atom_site_label
_atom_site_fract_x
_atom_site_fract_y
_atom_site_fract_z
Si Si1 0.375572 0.721699 0.097802
Si Si2 0.077208 0.856796 0.546585
Si Si3 0.340317 0.172712 0.664846
Si Si4 0.324459 0.424738 0.835164
Si Si5 0.581704 0.006123 0.156270
Si Si6 0.678443 0.322695 0.863444
Si Si7 0.570618 0.880611 0.910783
O O1 0.500000 0.750000 0.132290
O O2 0.283672 0.812535 0.120592
O O3 0.352819 0.606295 0.141048
O O4 0.392320 0.687400 0.996624
O O5 0.109061 0.870537 0.444838
O O6 0.191515 0.837141 0.603532
O O7 0.000000 0.750000 0.556372
O O8 0.007318 0.958540 0.583892
O O9 0.334703 0.132288 0.764742
O O10 0.436217 0.112286 0.608130
O O11 0.383846 0.298075 0.664132
O O12 0.355846 0.500000 0.750000
O O13 0.187811 0.413478 0.837093
O O14 0.361261 0.302646 0.853464
O O15 0.370345 0.503808 0.911186
O O16 0.521556 0.000000 0.250000
#
# Coordination Sequence:
#
# PCOD9336480 Si02
#       7
#     8   8   8   8   8   8   8
#     4  12  26  43  76 103 144 200 247 316 386 468
#     4  11  26  44  71 109 152 198 261 332 396 471
#     4  11  23  45  69 107 146 195 253 315 399 470
#     4  11  21  41  72 112 141 197 263 320 386 472
#     4  11  25  45  72 109 143 191 262 326 388 476
#     4  11  25  45  74 104 152 208 256 321 405 481
#     4  11  24  40  70 108 150 181 251 321 385 464
#
# _framework density 25.311014
#
# number of rings (size 3 to 8) (size 9 to 14) (size 15 to 20)
#    0.000    0.857    5.714    1.286    6.000    0.000 
#    0.000    2.857    0.000    0.000    0.000    0.000 
#    0.000    0.000    0.000    0.000    0.000    0.000 
#
# Total GULP energy -156562.387135 kJ/mol
# GULP energy per Si atom -5591.513826 kJ/mol
# Density = 2.525341 g / cm^3
# Si number density = 25.311014 Si / 1000 Ang^3
#
#
#
# Elastic Constant Matrix: (Units=GPa)
#
#
# Indices 1 2 3 4 5 6 
#
# 1 149.3997 21.2794 61.4156 0.0000 0.0000 0.0000
# 2 21.2794 78.0411 25.1683 0.0000 0.0000 0.0000
# 3 61.4156 25.1683 180.4704 0.0000 0.0000 0.0000
# 4 0.0000 0.0000 0.0000 19.8214 0.0000 0.0000
# 5 0.0000 0.0000 0.0000 0.0000 26.0821 0.0000
# 6 0.0000 0.0000 0.0000 0.0000 0.0000 36.3490
#
#
#
# Elastic Compliance Matrix: (Units=1/GPa)
#
#
# Indices 1 2 3 4 5 6 
#
# 1 0.007916 -0.001350 -0.002505 0.000000 0.000000 0.000000
# 2 -0.001350 0.013648 -0.001444 0.000000 0.000000 0.000000
# 3 -0.002505 -0.001444 0.006595 0.000000 0.000000 0.000000
# 4 0.000000 0.000000 0.000000 0.050451 0.000000 0.000000
# 5 0.000000 0.000000 0.000000 0.000000 0.038340 0.000000
# 6 0.000000 0.000000 0.000000 0.000000 0.000000 0.027511
#
#
# Mechanical properties :
#
#
# Convention : Reuss Voigt Hill
#
# Bulk Modulus (GPa) = 56.95016 69.29308 63.12162
# Shear Modulus (GPa) = 31.07276 36.45369 33.76323
#
# Velocity S-wave (km/s) = 3.50757 3.79915 3.65627
# Velocity P-wave (km/s) = 6.24124 6.83234 6.54347
#
# Compressibility (1/GPa) = 0.01755921
#
# Stress axis : x y z
#
# Youngs Moduli (GPa) = 126.33043 73.27307 151.62877
#
# Poissons Ratio (x) = 0.09895 0.37990
# Poissons Ratio (y) = 0.17059 0.21891
# Poissons Ratio (z) = 0.31652 0.10579
#
# Static dielectric constant tensor:
#      x y z
#    x 2.038880 0.000000 0.000000 
#    y 0.000000 1.990470 0.000000 
#    z 0.000000 0.000000 2.095270 
# 
# From -- ./inp_files/25831.got.cif
#   From: 2010.05.17/outbox.cif.g08.bks.cpg/sg24_13_cif.got.tgz:25831.got - 2010.06.04 00:33:39.
