data_PCOD9336924
_publ_section_title
;
Structure prediction by ZEFSAII (Michael W. Deem and Ramdas Pophale) SiO2 
 PCOD9336924
Probable space group: I 21 21 21
;
_chemical_formula_sum "Si O2"
_cell_formula_units_Z 48
_cell_length_a 13.716575
_cell_length_b 26.962887
_cell_length_c 5.158483
_cell_angle_alpha 90.000000
_cell_angle_beta 90.000000
_cell_angle_gamma 90.000000
_cell_volume 1907.805418
_symmetry_space_group_name_H-M "I 21 21 21"
_symmetry_group_IT_number 24
_symmetry_cell_setting 'orthorhombic'
loop_
_space_group_symop_operation_xyz
x,y,z
-x,1/2-y,z
x,-y,1/2-z
1/2-x,y,-z
1/2+x,1/2+y,1/2+z
1/2-x,-y,1/2+z
1/2+x,1/2-y,-z
-x,1/2+y,1/2-z
loop_
_atom_site_type_symbol
_atom_site_label
_atom_site_fract_x
_atom_site_fract_y
_atom_site_fract_z
Si Si1 0.143017 0.552972 0.103995
Si Si2 0.750000 0.372072 0.500000
Si Si3 0.606619 0.293821 0.641142
Si Si4 0.033841 0.358398 0.122722
Si Si5 0.861055 0.421655 0.900006
Si Si6 0.505350 0.500000 0.250000
Si Si7 0.858191 0.229008 0.878478
O O1 0.151876 0.500000 0.250000
O O2 0.101381 0.596912 0.279145
O O3 0.250000 0.565767 0.000000
O O4 0.064051 0.540594 0.881020
O O5 0.696183 0.332101 0.679602
O O6 0.836229 0.406403 0.605132
O O7 0.507101 0.325705 0.634919
O O8 0.629209 0.257163 0.398413
O O9 0.597303 0.265320 0.908356
O O10 0.090117 0.323751 0.919228
O O11 0.936138 0.381028 0.999826
O O12 0.919970 0.472091 0.939205
O O13 0.750000 0.423432 0.000000
O O14 0.750000 0.222581 0.000000
#
# Coordination Sequence:
#
# PCOD9336924 Si02
#       7
#     8   4   8   8   8   4   8
#     4  12  27  55  83 120 163 216 274 354 425 497
#     4  12  24  46  78 104 160 218 254 324 428 484
#     4  12  26  50  78 117 166 214 272 344 416 493
#     4  12  29  51  83 121 165 218 288 344 421 518
#     4  12  28  47  75 118 164 212 270 344 416 505
#     4  12  28  46  84 116 160 210 278 336 414 512
#     4  12  28  52  81 117 165 219 281 347 414 494
#
# _framework density 25.159797000000001
#
# number of rings (size 3 to 8) (size 9 to 14) (size 15 to 20)
#    0.000    0.000    5.833    2.500    1.167   10.000 
#    0.000    0.000    0.000    0.000    0.000    0.000 
#    0.000    0.000    0.000    0.000    0.000    0.000 
#
# Total GULP energy -134194.115821 kJ/mol
# GULP energy per Si atom -5591.421493 kJ/mol
# Density = 2.510253 g / cm^3
# Si number density = 25.159797 Si / 1000 Ang^3
#
#
#
# Elastic Constant Matrix: (Units=GPa)
#
#
# Indices 1 2 3 4 5 6 
#
# 1 192.7112 64.4586 32.1179 0.0357 0.0019 -0.0095
# 2 64.4586 114.1708 29.4075 0.0672 -0.0316 -0.0219
# 3 32.1179 29.4075 79.1709 0.2081 -0.0753 0.0150
# 4 0.0357 0.0672 0.2081 31.5005 -0.0152 -0.0028
# 5 0.0019 -0.0316 -0.0753 -0.0152 33.0018 -0.0293
# 6 -0.0095 -0.0219 0.0150 -0.0028 -0.0293 33.1966
#
#
#
# Elastic Compliance Matrix: (Units=1/GPa)
#
#
# Indices 1 2 3 4 5 6 
#
# 1 0.006538 -0.003326 -0.001417 0.000009 -0.000007 0.000000
# 2 -0.003326 0.011378 -0.002877 -0.000001 0.000005 0.000008
# 3 -0.001417 -0.002877 0.014274 -0.000087 0.000030 -0.000009
# 4 0.000009 -0.000001 -0.000087 0.031746 0.000014 0.000003
# 5 -0.000007 0.000005 0.000030 0.000014 0.030301 0.000027
# 6 0.000000 0.000008 -0.000009 0.000003 0.000027 0.030124
#
#
# Mechanical properties :
#
#
# Convention : Reuss Voigt Hill
#
# Bulk Modulus (GPa) = 58.99548 70.89119 64.94334
# Shear Modulus (GPa) = 34.42322 36.87772 35.65047
#
# Velocity S-wave (km/s) = 3.70291 3.83265 3.76834
# Velocity P-wave (km/s) = 6.46384 6.91543 6.69345
#
# Compressibility (1/GPa) = 0.01695045
#
# Stress axis : x y z
#
# Youngs Moduli (GPa) = 152.95694 87.89119 70.05504
#
# Poissons Ratio (x) = 0.29234 0.09925
# Poissons Ratio (y) = 0.50876 0.20153
# Poissons Ratio (z) = 0.21671 0.25285
#
# Static dielectric constant tensor:
#      x y z
#    x 2.014580 -0.000080 -0.000040 
#    y -0.000080 2.091350 0.000080 
#    z -0.000040 0.000080 2.112040 
# 
# From -- ./inp_files/3817.got.cif
#   From: 2010.05.17/outbox.cif.g08.bks.cpg/sg24_2_cif.got.tgz:3817.got - 2010.06.04 00:33:39.
