data_PCOD9336630
_publ_section_title
;
Structure prediction by ZEFSAII (Michael W. Deem and Ramdas Pophale) SiO2 
 PCOD9336630
Probable space group: I 21 21 21
;
_chemical_formula_sum "Si O2"
_cell_formula_units_Z 32
_cell_length_a 16.718092
_cell_length_b 13.590555
_cell_length_c 6.355356
_cell_angle_alpha 90.000000
_cell_angle_beta 90.000000
_cell_angle_gamma 90.000000
_cell_volume 1443.988672
_symmetry_space_group_name_H-M "I 21 21 21"
_symmetry_group_IT_number 24
_symmetry_cell_setting 'orthorhombic'
loop_
_space_group_symop_operation_xyz
x,y,z
-x,1/2-y,z
x,-y,1/2-z
1/2-x,y,-z
1/2+x,1/2+y,1/2+z
1/2-x,-y,1/2+z
1/2+x,1/2-y,-z
-x,1/2+y,1/2-z
loop_
_atom_site_type_symbol
_atom_site_label
_atom_site_fract_x
_atom_site_fract_y
_atom_site_fract_z
Si Si1 0.453550 0.389632 0.700791
Si Si2 0.500000 0.750000 0.441591
Si Si3 0.364021 0.256142 0.352138
Si Si4 0.147418 0.110209 0.302478
Si Si5 0.750000 0.256053 0.000000
O O1 0.425670 0.500000 0.750000
O O2 0.404924 0.334665 0.514061
O O3 0.550206 0.391535 0.672825
O O4 0.451776 0.324865 0.912000
O O5 0.434452 0.792422 0.285528
O O6 0.329770 0.165997 0.484934
O O7 0.297161 0.297537 0.190954
O O8 0.173230 0.000000 0.250000
O O9 0.184469 0.176341 0.117368
#
# Coordination Sequence:
#
# PCOD9336630 Si02
#       5
#     8   4   8   8   4
#     4  11  23  44  69 106 142 191 254 301 358 438
#     4  12  20  44  68 104 136 188 242 300 364 428
#     4  12  23  45  67 104 149 190 244 295 365 443
#     4  11  24  41  65 107 153 190 230 291 370 448
#     4  12  26  40  70 106 150 190 234 302 376 432
#
# _framework density 22.160837000000001
#
# number of rings (size 3 to 8) (size 9 to 14) (size 15 to 20)
#    0.000    0.500    7.500    0.750    3.500    1.000 
#    0.000    0.000    0.000    0.000   91.000    0.000 
#    0.000    0.000    0.000    0.000    0.000    0.000 
#
# Total GULP energy -89175.960938 kJ/mol
# GULP energy per Si atom -5573.497559 kJ/mol
# Density = 2.211040 g / cm^3
# Si number density = 22.160837 Si / 1000 Ang^3
#
#
#
# Elastic Constant Matrix: (Units=GPa)
#
#
# Indices 1 2 3 4 5 6 
#
# 1 112.9490 42.4335 68.0674 0.0000 0.0000 0.0000
# 2 42.4335 118.9473 71.7274 0.0000 0.0000 0.0000
# 3 68.0674 71.7274 169.3917 0.0000 0.0000 0.0000
# 4 0.0000 0.0000 0.0000 -9.1576 0.0000 0.0000
# 5 0.0000 0.0000 0.0000 0.0000 67.5646 0.0000
# 6 0.0000 0.0000 0.0000 0.0000 0.0000 -8.8214
#
#
#
# Elastic Compliance Matrix: (Units=1/GPa)
#
#
# Indices 1 2 3 4 5 6 
#
# 1 0.011975 -0.001840 -0.004033 0.000000 0.000000 0.000000
# 2 -0.001840 0.011573 -0.004161 0.000000 0.000000 0.000000
# 3 -0.004033 -0.004161 0.009286 0.000000 0.000000 0.000000
# 4 0.000000 0.000000 0.000000 -0.109199 0.000000 0.000000
# 5 0.000000 0.000000 0.000000 0.000000 0.014801 0.000000
# 6 0.000000 0.000000 0.000000 0.000000 0.000000 -0.113360
#
#
# Mechanical properties :
#
#
# Convention : Reuss Voigt Hill
#
# Bulk Modulus (GPa) = 78.33341 85.08273 81.70807
# Shear Modulus (GPa) = -33.20009 24.52110 -4.33949
#
# Velocity S-wave (km/s) = -3.87478 3.33003 -1.40087
# Velocity P-wave (km/s) = 3.92502 7.29809 5.85952
#
# Compressibility (1/GPa) = 0.01276595
#
# Stress axis : x y z
#
# Youngs Moduli (GPa) = 83.50560 86.41069 107.69015
#
# Poissons Ratio (x) = 0.15901 0.43430
# Poissons Ratio (y) = 0.15367 0.44809
# Poissons Ratio (z) = 0.33677 0.35954
#
# Static dielectric constant tensor:
#      x y z
#    x 1.920140 0.000000 0.000000 
#    y 0.000000 1.783110 0.000000 
#    z 0.000000 0.000000 1.889720 
# 
# From -- ./inp_files/3102.got.cif
#   From: 2010.05.17/outbox.cif.g08.bks.cpg/sg24_2_cif.got.tgz:3102.got - 2010.06.04 00:33:39.
