data_PCOD9336739
_publ_section_title
;
Structure prediction by ZEFSAII (Michael W. Deem and Ramdas Pophale) SiO2 
 PCOD9336739
Probable space group: I 21 21 21
;
_chemical_formula_sum "Si O2"
_cell_formula_units_Z 48
_cell_length_a 9.495736
_cell_length_b 28.095347
_cell_length_c 8.556991
_cell_angle_alpha 90.000000
_cell_angle_beta 90.000000
_cell_angle_gamma 90.000000
_cell_volume 2282.885383
_symmetry_space_group_name_H-M "I 21 21 21"
_symmetry_group_IT_number 24
_symmetry_cell_setting 'orthorhombic'
loop_
_space_group_symop_operation_xyz
x,y,z
-x,1/2-y,z
x,-y,1/2-z
1/2-x,y,-z
1/2+x,1/2+y,1/2+z
1/2-x,-y,1/2+z
1/2+x,1/2-y,-z
-x,1/2+y,1/2-z
loop_
_atom_site_type_symbol
_atom_site_label
_atom_site_fract_x
_atom_site_fract_y
_atom_site_fract_z
Si Si1 0.913393 0.201066 0.944739
Si Si2 0.111577 0.969070 0.905159
Si Si3 0.901085 0.794795 0.928100
Si Si4 0.892750 0.023724 0.081398
Si Si5 0.890172 0.367703 0.455968
Si Si6 0.401960 0.114234 0.912173
O O1 0.904466 0.195788 0.757253
O O2 0.000000 0.250000 0.978912
O O3 0.750000 0.202996 0.000000
O O4 0.003466 0.157733 0.019984
O O5 0.119306 0.000000 0.750000
O O6 0.250000 0.984601 0.000000
O O7 0.115367 0.912065 0.922499
O O8 0.964399 0.982241 0.982277
O O9 0.000000 0.750000 0.958517
O O10 0.750000 0.785823 0.000000
O O11 0.968989 0.839490 0.014523
O O12 0.006649 0.066047 0.074510
O O13 0.868969 0.000000 0.250000
O O14 0.750000 0.040114 0.000000
O O15 0.750000 0.338236 0.500000
O O16 0.881169 0.380620 0.274111
O O17 0.250000 0.112205 0.000000
#
# Coordination Sequence:
#
# PCOD9336739 Si02
#       6
#     8   8   8   8   8   8
#     4  11  25  46  73 109 143 190 236 289 352 419
#     4  11  25  43  71 101 137 183 235 287 346 416
#     4  11  25  45  72 103 146 186 233 288 351 416
#     4  12  26  47  66  99 140 186 233 289 354 414
#     4  11  25  44  68 106 139 183 235 289 349 417
#     4  12  26  46  74 104 142 187 237 293 351 422
#
# _framework density 21.026022999999999
#
# number of rings (size 3 to 8) (size 9 to 14) (size 15 to 20)
#    0.000    0.667    1.667    5.000    9.333    6.000 
#    3.000    0.000    0.000    0.000    0.000    0.000 
#    0.000    0.000    0.000    0.000    0.000    0.000 
#
# Total GULP energy -134086.181746 kJ/mol
# GULP energy per Si atom -5586.924239 kJ/mol
# Density = 2.097817 g / cm^3
# Si number density = 21.026023 Si / 1000 Ang^3
#
#
#
# Elastic Constant Matrix: (Units=GPa)
#
#
# Indices 1 2 3 4 5 6 
#
# 1 188.6290 64.8222 66.6132 0.0008 0.0003 0.0001
# 2 64.8222 108.1410 61.5683 -0.0003 0.0003 0.0005
# 3 66.6132 61.5683 114.1985 0.0010 0.0009 0.0005
# 4 0.0008 -0.0003 0.0010 40.5291 0.0001 0.0005
# 5 0.0003 0.0003 0.0009 0.0001 39.9186 -0.0001
# 6 0.0001 0.0005 0.0005 0.0005 -0.0001 34.7248
#
#
#
# Elastic Compliance Matrix: (Units=1/GPa)
#
#
# Indices 1 2 3 4 5 6 
#
# 1 0.007214 -0.002783 -0.002708 0.000000 0.000000 0.000000
# 2 -0.002783 0.014416 -0.006149 0.000000 0.000000 0.000000
# 3 -0.002708 -0.006149 0.013651 0.000000 0.000000 0.000000
# 4 0.000000 0.000000 0.000000 0.024674 0.000000 0.000000
# 5 0.000000 0.000000 0.000000 0.000000 0.025051 0.000000
# 6 0.000000 0.000000 0.000000 0.000000 0.000000 0.028798
#
#
# Mechanical properties :
#
#
# Convention : Reuss Voigt Hill
#
# Bulk Modulus (GPa) = 83.31642 88.55287 85.93465
# Shear Modulus (GPa) = 35.44012 37.56551 36.50281
#
# Velocity S-wave (km/s) = 4.10998 4.23143 4.17115
# Velocity P-wave (km/s) = 7.88885 8.12900 8.00983
#
# Compressibility (1/GPa) = 0.01200244
#
# Stress axis : x y z
#
# Youngs Moduli (GPa) = 138.62213 69.36759 73.25305
#
# Poissons Ratio (x) = 0.19302 0.19835
# Poissons Ratio (y) = 0.38572 0.45044
# Poissons Ratio (z) = 0.37536 0.42654
#
# Static dielectric constant tensor:
#      x y z
#    x 1.690880 0.000000 0.000010 
#    y 0.000000 1.763830 0.000000 
#    z 0.000010 0.000000 1.586960 
# 
# From -- ./inp_files/9721.got.cif
#   From: 2010.05.17/outbox.cif.g08.bks.cpg/sg24_5_cif.got.tgz:9721.got - 2010.06.04 00:33:39.
