data_PCOD9336448
_publ_section_title
;
Structure prediction by ZEFSAII (Michael W. Deem and Ramdas Pophale) SiO2 
 PCOD9336448
Probable space group: I 21 21 21
;
_chemical_formula_sum "Si O2"
_cell_formula_units_Z 56
_cell_length_a 24.795864
_cell_length_b 5.301093
_cell_length_c 21.343184
_cell_angle_alpha 90.000000
_cell_angle_beta 90.000000
_cell_angle_gamma 90.000000
_cell_volume 2805.458686
_symmetry_space_group_name_H-M "I 21 21 21"
_symmetry_group_IT_number 24
_symmetry_cell_setting 'orthorhombic'
loop_
_space_group_symop_operation_xyz
x,y,z
-x,1/2-y,z
x,-y,1/2-z
1/2-x,y,-z
1/2+x,1/2+y,1/2+z
1/2-x,-y,1/2+z
1/2+x,1/2-y,-z
-x,1/2+y,1/2-z
loop_
_atom_site_type_symbol
_atom_site_label
_atom_site_fract_x
_atom_site_fract_y
_atom_site_fract_z
Si Si1 0.033496 0.000000 0.750000
Si Si2 0.250000 0.837590 0.000000
Si Si3 0.785407 0.756331 0.790833
Si Si4 0.937216 0.325938 0.498386
Si Si5 0.682042 0.736965 0.425839
Si Si6 0.111220 0.894978 0.864584
Si Si7 0.619421 0.850852 0.543224
Si Si8 0.214442 0.507849 0.116203
O O1 0.070021 0.092968 0.692172
O O2 0.000000 0.250000 0.769110
O O3 0.276396 0.684350 0.943930
O O4 0.204049 0.002961 0.967027
O O5 0.784751 0.500000 0.750000
O O6 0.833162 0.735772 0.842449
O O7 0.728092 0.820259 0.823934
O O8 0.798748 0.000000 0.750000
O O9 0.914847 0.309366 0.570034
O O10 0.916539 0.600043 0.471629
O O11 0.000000 0.250000 0.502324
O O12 0.914141 0.106535 0.454202
O O13 0.633648 0.673966 0.379760
O O14 0.656733 0.896104 0.481507
O O15 0.734341 0.822573 0.388756
O O16 0.660072 0.852259 0.602605
#
# Coordination Sequence:
#
# PCOD9336448 Si02
#       8
#     4   4   8   8   8   8   8   8
#     4  12  30  46  62  78 108 162 242 294 310 340
#     4  12  18  34  56  92 130 148 200 254 332 398
#     4  12  27  42  60  89 126 174 215 266 319 389
#     4  11  25  42  62  89 125 163 214 272 333 382
#     4  11  21  34  59  92 122 153 196 267 328 409
#     4  11  24  43  61  82 117 165 221 274 332 362
#     4  11  22  38  63  90 120 161 199 256 330 403
#     4  12  22  35  61  92 129 158 212 262 333 406
#
# _framework density 19.961086000000002
#
# number of rings (size 3 to 8) (size 9 to 14) (size 15 to 20)
#    0.000    0.571    5.000    4.286    1.000    5.714 
#    0.000    0.000    0.000    0.000    0.000    0.000 
#    0.000    3.429    0.000    1.429    0.000    0.000 
#
# Total GULP energy -156158.314673 kJ/mol
# GULP energy per Si atom -5577.082667 kJ/mol
# Density = 1.991565 g / cm^3
# Si number density = 19.961086 Si / 1000 Ang^3
#
#
#
# Elastic Constant Matrix: (Units=GPa)
#
#
# Indices 1 2 3 4 5 6 
#
# 1 112.6523 33.0682 33.6449 0.0000 0.0000 0.0000
# 2 33.0682 70.5763 8.9437 0.0000 0.0000 0.0000
# 3 33.6449 8.9437 28.0194 0.0000 0.0000 0.0000
# 4 0.0000 0.0000 0.0000 -723.3722 0.0000 0.0000
# 5 0.0000 0.0000 0.0000 0.0000 32.4991 0.0000
# 6 0.0000 0.0000 0.0000 0.0000 0.0000 44.6329
#
#
#
# Elastic Compliance Matrix: (Units=1/GPa)
#
#
# Indices 1 2 3 4 5 6 
#
# 1 0.015411 -0.005081 -0.016883 0.000000 0.000000 0.000000
# 2 -0.005081 0.016442 0.000853 0.000000 0.000000 0.000000
# 3 -0.016883 0.000853 0.055690 0.000000 0.000000 0.000000
# 4 0.000000 0.000000 0.000000 -0.001382 0.000000 0.000000
# 5 0.000000 0.000000 0.000000 0.000000 0.030770 0.000000
# 6 0.000000 0.000000 0.000000 0.000000 0.000000 0.022405
#
#
# Mechanical properties :
#
#
# Convention : Reuss Voigt Hill
#
# Bulk Modulus (GPa) = 22.06510 40.28461 31.17486
# Shear Modulus (GPa) = 25.42419 -120.20862 -47.39222
#
# Velocity S-wave (km/s) = 3.57275 -7.76867 -4.87789
# Velocity P-wave (km/s) = 5.30070 7.76172 4.00917
#
# Compressibility (1/GPa) = 0.04532043
#
# Stress axis : x y z
#
# Youngs Moduli (GPa) = 64.89020 60.82103 17.95665
#
# Poissons Ratio (x) = 0.30904 0.30316
# Poissons Ratio (y) = 0.32972 -0.01532
# Poissons Ratio (z) = 1.09553 -0.05189
#
# Static dielectric constant tensor:
#      x y z
#    x 2.250930 0.000000 0.000000 
#    y 0.000000 1.818030 0.000000 
#    z 0.000000 0.000000 1.711380 
# 
# From -- ./inp_files/34274.got.cif
#   From: 2010.05.17/outbox.cif.g08.bks.cpg/sg24_18_cif.got.tgz:34274.got - 2010.06.04 00:33:39.
