data_PCOD9336405
_publ_section_title
;
Structure prediction by ZEFSAII (Michael W. Deem and Ramdas Pophale) SiO2 
 PCOD9336405
Probable space group: I 21 21 21
;
_chemical_formula_sum "Si O2"
_cell_formula_units_Z 48
_cell_length_a 5.115559
_cell_length_b 22.813846
_cell_length_c 16.226866
_cell_angle_alpha 90.000000
_cell_angle_beta 90.000000
_cell_angle_gamma 90.000000
_cell_volume 1893.765731
_symmetry_space_group_name_H-M "I 21 21 21"
_symmetry_group_IT_number 24
_symmetry_cell_setting 'orthorhombic'
loop_
_space_group_symop_operation_xyz
x,y,z
-x,1/2-y,z
x,-y,1/2-z
1/2-x,y,-z
1/2+x,1/2+y,1/2+z
1/2-x,-y,1/2+z
1/2+x,1/2-y,-z
-x,1/2+y,1/2-z
loop_
_atom_site_type_symbol
_atom_site_label
_atom_site_fract_x
_atom_site_fract_y
_atom_site_fract_z
Si Si1 0.595405 0.827607 0.820034
Si Si2 0.659135 0.568621 0.737852
Si Si3 0.501506 0.966786 0.054387
Si Si4 0.609079 0.339174 0.410381
Si Si5 0.656668 0.912458 0.361724
Si Si6 0.757726 0.787946 0.365414
O O1 0.516609 0.896559 0.805369
O O2 0.312490 0.806622 0.850670
O O3 0.668425 0.804864 0.729669
O O4 0.817618 0.818278 0.888561
O O5 0.704035 0.500000 0.750000
O O6 0.452927 0.573253 0.663514
O O7 0.934214 0.596915 0.709612
O O8 0.564510 0.027957 0.096396
O O9 0.427288 0.909236 0.106390
O O10 0.750000 0.948628 0.000000
O O11 0.250000 0.977788 0.000000
O O12 0.750000 0.334937 0.500000
O O13 0.684864 0.850170 0.405947
O O14 0.500000 0.750000 0.364909
O O15 0.000000 0.750000 0.399087
#
# Coordination Sequence:
#
# PCOD9336405 Si02
#       6
#     8   8   8   8   8   8
#     4  11  21  36  58  84 114 151 196 243 294 350
#     4  11  20  33  55  87 122 151 186 241 302 362
#     4  11  22  37  58  88 127 166 195 226 280 359
#     4  11  21  36  57  86 123 161 193 225 278 355
#     4  11  22  37  58  87 118 155 200 242 297 359
#     4  11  23  41  63  86 112 150 201 261 314 345
#
# _framework density 25.346322000000001
#
# number of rings (size 3 to 8) (size 9 to 14) (size 15 to 20)
#    0.000    1.000    0.000   11.000    0.000    0.000 
#    0.000    0.000    0.000   12.000    0.000    0.000 
#    0.000    0.000    0.000    0.000    0.000    0.000 
#
# Total GULP energy -134126.852745 kJ/mol
# GULP energy per Si atom -5588.618864 kJ/mol
# Density = 2.528863 g / cm^3
# Si number density = 25.346322 Si / 1000 Ang^3
#
#
#
# Elastic Constant Matrix: (Units=GPa)
#
#
# Indices 1 2 3 4 5 6 
#
# 1 166.7613 38.2758 16.8900 0.0000 0.0000 0.0000
# 2 38.2758 147.7936 9.0516 0.0000 0.0000 0.0000
# 3 16.8900 9.0516 47.6800 0.0000 0.0000 -0.0001
# 4 0.0000 0.0000 0.0000 10.7883 0.0000 0.0000
# 5 0.0000 0.0000 0.0000 0.0000 12.8735 0.0000
# 6 0.0000 0.0000 -0.0001 0.0000 0.0000 17.5940
#
#
#
# Elastic Compliance Matrix: (Units=1/GPa)
#
#
# Indices 1 2 3 4 5 6 
#
# 1 0.006563 -0.001576 -0.002026 0.000000 0.000000 0.000000
# 2 -0.001576 0.007224 -0.000813 0.000000 0.000000 0.000000
# 3 -0.002026 -0.000813 0.021845 0.000000 0.000000 0.000000
# 4 0.000000 0.000000 0.000000 0.092693 0.000000 0.000000
# 5 0.000000 0.000000 0.000000 0.000000 0.077679 0.000000
# 6 0.000000 0.000000 0.000000 0.000000 0.000000 0.056837
#
#
# Mechanical properties :
#
#
# Convention : Reuss Voigt Hill
#
# Bulk Modulus (GPa) = 37.30923 54.51885 45.91404
# Shear Modulus (GPa) = 17.81859 28.11901 22.96880
#
# Velocity S-wave (km/s) = 2.65430 3.33437 3.01358
# Velocity P-wave (km/s) = 4.91381 6.03161 5.50117
#
# Compressibility (1/GPa) = 0.02680302
#
# Stress axis : x y z
#
# Youngs Moduli (GPa) = 152.35885 138.42578 45.77668
#
# Poissons Ratio (x) = 0.21812 0.09274
# Poissons Ratio (y) = 0.24008 0.03723
# Poissons Ratio (z) = 0.30866 0.11257
#
# Static dielectric constant tensor:
#      x y z
#    x 1.921480 0.000000 0.000000 
#    y 0.000000 2.101610 0.000000 
#    z 0.000000 0.000000 2.169480 
# 
# From -- ./inp_files/32231.got.cif
#   From: 2010.05.17/outbox.cif.g08.bks.cpg/sg24_17_cif.got.tgz:32231.got - 2010.06.04 00:33:39.
