data_PCOD9336747
_publ_section_title
;
Structure prediction by ZEFSAII (Michael W. Deem and Ramdas Pophale) SiO2 
 PCOD9336747
Probable space group: I 21 21 21
;
_chemical_formula_sum "Si O2"
_cell_formula_units_Z 24
_cell_length_a 13.927012
_cell_length_b 12.544655
_cell_length_c 5.221598
_cell_angle_alpha 90.000000
_cell_angle_beta 90.000000
_cell_angle_gamma 90.000000
_cell_volume 912.263093
_symmetry_space_group_name_H-M "I 21 21 21"
_symmetry_group_IT_number 24
_symmetry_cell_setting 'orthorhombic'
loop_
_space_group_symop_operation_xyz
x,y,z
-x,1/2-y,z
x,-y,1/2-z
1/2-x,y,-z
1/2+x,1/2+y,1/2+z
1/2-x,-y,1/2+z
1/2+x,1/2-y,-z
-x,1/2+y,1/2-z
loop_
_atom_site_type_symbol
_atom_site_label
_atom_site_fract_x
_atom_site_fract_y
_atom_site_fract_z
Si Si1 0.092508 0.040642 0.509155
Si Si2 0.107645 0.586149 0.436078
Si Si3 0.637925 0.777303 0.046073
O O1 0.083176 0.165306 0.568753
O O2 0.149447 0.000000 0.750000
O O3 0.990866 0.975817 0.497803
O O4 0.138255 0.000000 0.250000
O O5 0.165877 0.500000 0.250000
O O6 0.136422 0.643615 0.704066
O O7 0.099466 0.676077 0.221991
O O8 0.750000 0.752420 0.000000
#
# Coordination Sequence:
#
# PCOD9336747 Si02
#       3
#     8   8   8
#     4  11  25  44  73 107 143 189 246 298 355 435
#     4  11  25  46  73 105 144 191 244 295 357 438
#     4  12  27  47  73 107 148 190 237 303 372 426
#
# _framework density 26.308198000000001
#
# number of rings (size 3 to 8) (size 9 to 14) (size 15 to 20)
#    0.000    0.667    0.000    8.000    0.000   21.333 
#    0.000    1.667    0.000    0.000    0.000    0.000 
#    0.000    0.000    0.000    0.000    0.000    0.000 
#
# Total GULP energy -66907.615488 kJ/mol
# GULP energy per Si atom -5575.634624 kJ/mol
# Density = 2.624832 g / cm^3
# Si number density = 26.308198 Si / 1000 Ang^3
#
#
#
# Elastic Constant Matrix: (Units=GPa)
#
#
# Indices 1 2 3 4 5 6 
#
# 1 106.4066 35.9719 31.2906 0.0000 0.0000 0.0000
# 2 35.9719 158.9459 62.5214 0.0000 0.0000 0.0000
# 3 31.2906 62.5214 277.8684 0.0000 0.0000 0.0000
# 4 0.0000 0.0000 0.0000 63.1716 0.0000 0.0000
# 5 0.0000 0.0000 0.0000 0.0000 -429.6285 0.0000
# 6 0.0000 0.0000 0.0000 0.0000 0.0000 -22.1195
#
#
#
# Elastic Compliance Matrix: (Units=1/GPa)
#
#
# Indices 1 2 3 4 5 6 
#
# 1 0.010298 -0.002056 -0.000697 0.000000 0.000000 0.000000
# 2 -0.002056 0.007313 -0.001414 0.000000 0.000000 0.000000
# 3 -0.000697 -0.001414 0.003995 0.000000 0.000000 0.000000
# 4 0.000000 0.000000 0.000000 0.015830 0.000000 0.000000
# 5 0.000000 0.000000 0.000000 0.000000 -0.002328 0.000000
# 6 0.000000 0.000000 0.000000 0.000000 0.000000 -0.045209
#
#
# Mechanical properties :
#
#
# Convention : Reuss Voigt Hill
#
# Bulk Modulus (GPa) = 75.34699 89.19876 82.27288
# Shear Modulus (GPa) = 1880.77591 -50.15281 915.31155
#
# Velocity S-wave (km/s) = 26.76664 -4.37092 18.67282
# Velocity P-wave (km/s) = 31.36834 2.91644 22.27643
#
# Compressibility (1/GPa) = 0.01327193
#
# Stress axis : x y z
#
# Youngs Moduli (GPa) = 97.10555 136.74267 250.28566
#
# Poissons Ratio (x) = 0.28121 0.17444
# Poissons Ratio (y) = 0.19969 0.35387
# Poissons Ratio (z) = 0.06768 0.19334
#
# Static dielectric constant tensor:
#      x y z
#    x 2.114650 0.000000 0.000000 
#    y 0.000000 2.941760 0.000000 
#    z 0.000000 0.000000 2.183240 
# 
# From -- ./inp_files/4165.got.cif
#   From: 2010.05.17/outbox.cif.g08.bks.cpg/sg24_3_cif.got.tgz:4165.got - 2010.06.04 00:33:39.
