data_PCOD9336435
_publ_section_title
;
Structure prediction by ZEFSAII (Michael W. Deem and Ramdas Pophale) SiO2 
 PCOD9336435
Probable space group: I 21 21 21
;
_chemical_formula_sum "Si O2"
_cell_formula_units_Z 40
_cell_length_a 14.722638
_cell_length_b 16.749761
_cell_length_c 7.628185
_cell_angle_alpha 90.000000
_cell_angle_beta 90.000000
_cell_angle_gamma 90.000000
_cell_volume 1881.115515
_symmetry_space_group_name_H-M "I 21 21 21"
_symmetry_group_IT_number 24
_symmetry_cell_setting 'orthorhombic'
loop_
_space_group_symop_operation_xyz
x,y,z
-x,1/2-y,z
x,-y,1/2-z
1/2-x,y,-z
1/2+x,1/2+y,1/2+z
1/2-x,-y,1/2+z
1/2+x,1/2-y,-z
-x,1/2+y,1/2-z
loop_
_atom_site_type_symbol
_atom_site_label
_atom_site_fract_x
_atom_site_fract_y
_atom_site_fract_z
Si Si1 0.897079 0.281756 0.234084
Si Si2 0.653971 0.842111 0.024486
Si Si3 0.824985 0.427383 0.640320
Si Si4 0.978240 0.435887 0.392081
Si Si5 0.890937 0.267097 0.836847
O O1 0.848062 0.230975 0.384070
O O2 0.914005 0.372188 0.291308
O O3 0.000000 0.250000 0.229857
O O4 0.860137 0.270088 0.038971
O O5 0.565421 0.893524 0.977649
O O6 0.750000 0.885324 0.000000
O O7 0.647251 0.803769 0.216494
O O8 0.782939 0.500000 0.750000
O O9 0.750000 0.401200 0.500000
O O10 0.912283 0.466412 0.543991
O O11 0.861490 0.350749 0.747198
O O12 0.007807 0.500000 0.250000
O O13 0.000000 0.250000 0.832545
#
# Coordination Sequence:
#
# PCOD9336435 Si02
#       5
#     8   8   8   8   8
#     4   9  20  37  65  96 125 167 222 270 322 387
#     4  11  22  42  66  96 133 176 223 274 327 392
#     4  12  25  42  64 100 139 174 220 275 345 403
#     4  11  22  43  66  93 137 176 217 275 334 395
#     4  11  20  40  69  97 130 177 221 269 333 396
#
# _framework density 21.263978999999999
#
# number of rings (size 3 to 8) (size 9 to 14) (size 15 to 20)
#    0.000    1.200    4.000    3.000    0.000    0.800 
#    0.000    1.000    0.000    0.000    0.000    0.000 
#    0.000    0.000    0.000    0.000    0.000    0.000 
#
# Total GULP energy -111727.325265 kJ/mol
# GULP energy per Si atom -5586.366263 kJ/mol
# Density = 2.121558 g / cm^3
# Si number density = 21.263979 Si / 1000 Ang^3
#
#
#
# Elastic Constant Matrix: (Units=GPa)
#
#
# Indices 1 2 3 4 5 6 
#
# 1 92.3255 5.1589 18.4279 0.0000 0.0000 0.0000
# 2 5.1589 51.5440 3.4456 0.0000 0.0000 0.0000
# 3 18.4279 3.4456 95.0208 0.0000 0.0000 0.0000
# 4 0.0000 0.0000 0.0000 23.7452 0.0000 0.0000
# 5 0.0000 0.0000 0.0000 0.0000 10.8225 0.0000
# 6 0.0000 0.0000 0.0000 0.0000 0.0000 15.4379
#
#
#
# Elastic Compliance Matrix: (Units=1/GPa)
#
#
# Indices 1 2 3 4 5 6 
#
# 1 0.011317 -0.000988 -0.002159 0.000000 0.000000 0.000000
# 2 -0.000988 0.019534 -0.000517 0.000000 0.000000 0.000000
# 3 -0.002159 -0.000517 0.010961 0.000000 0.000000 0.000000
# 4 0.000000 0.000000 0.000000 0.042114 0.000000 0.000000
# 5 0.000000 0.000000 0.000000 0.000000 0.092400 0.000000
# 6 0.000000 0.000000 0.000000 0.000000 0.000000 0.064775
#
#
# Mechanical properties :
#
#
# Convention : Reuss Voigt Hill
#
# Bulk Modulus (GPa) = 28.99801 32.55055 30.77428
# Shear Modulus (GPa) = 19.23623 24.12497 21.68060
#
# Velocity S-wave (km/s) = 3.01099 3.37196 3.19657
# Velocity P-wave (km/s) = 5.07492 5.52279 5.30358
#
# Compressibility (1/GPa) = 0.03448512
#
# Stress axis : x y z
#
# Youngs Moduli (GPa) = 88.35945 51.19182 91.22875
#
# Poissons Ratio (x) = 0.05060 0.19696
# Poissons Ratio (y) = 0.08733 0.04713
# Poissons Ratio (z) = 0.19077 0.02645
#
# Static dielectric constant tensor:
#      x y z
#    x 1.778920 0.000000 0.000000 
#    y 0.000000 1.750530 0.000000 
#    z 0.000000 0.000000 1.796420 
# 
# From -- ./inp_files/12291.got.cif
#   From: 2010.05.17/outbox.cif.g08.bks.cpg/sg24_7_cif.got.tgz:12291.got - 2010.06.04 00:33:39.
