data_PCOD9336970
_publ_section_title
;
Structure prediction by ZEFSAII (Michael W. Deem and Ramdas Pophale) SiO2 
 PCOD9336970
Probable space group: I 21 21 21
;
_chemical_formula_sum "Si O2"
_cell_formula_units_Z 24
_cell_length_a 4.901107
_cell_length_b 20.314632
_cell_length_c 8.919490
_cell_angle_alpha 90.000000
_cell_angle_beta 90.000000
_cell_angle_gamma 90.000000
_cell_volume 888.061753
_symmetry_space_group_name_H-M "I 21 21 21"
_symmetry_group_IT_number 24
_symmetry_cell_setting 'orthorhombic'
loop_
_space_group_symop_operation_xyz
x,y,z
-x,1/2-y,z
x,-y,1/2-z
1/2-x,y,-z
1/2+x,1/2+y,1/2+z
1/2-x,-y,1/2+z
1/2+x,1/2-y,-z
-x,1/2+y,1/2-z
loop_
_atom_site_type_symbol
_atom_site_label
_atom_site_fract_x
_atom_site_fract_y
_atom_site_fract_z
Si Si1 0.983966 0.500000 0.250000
Si Si2 0.830640 0.694683 0.654054
Si Si3 0.976967 0.630085 0.101950
Si Si4 0.750000 0.092379 0.000000
O O1 0.143639 0.543534 0.370943
O O2 0.857251 0.558296 0.151117
O O3 0.750000 0.728782 0.500000
O O4 0.563678 0.670386 0.743692
O O5 0.000000 0.750000 0.741941
O O6 0.018239 0.634521 0.589966
O O7 0.750000 0.662816 0.000000
O O8 0.250000 0.625159 0.000000
#
# Coordination Sequence:
#
# PCOD9336970 Si02
#       4
#     4   8   8   4
#     4  12  26  46  80 122 174 220 272 354 432 520
#     4  12  27  51  86 122 172 231 295 355 425 513
#     4  12  29  51  80 125 175 224 279 350 439 517
#     4  12  26  50  80 124 178 228 280 352 434 514
#
# _framework density 27.025148000000002
#
# number of rings (size 3 to 8) (size 9 to 14) (size 15 to 20)
#    0.000    0.000    6.667    2.000    4.667    1.333 
#    0.000    6.667    0.000    0.000    0.000    0.000 
#    0.000    0.000    0.000    0.000    0.000    0.000 
#
# Total GULP energy -66931.914284 kJ/mol
# GULP energy per Si atom -5577.659524 kJ/mol
# Density = 2.696364 g / cm^3
# Si number density = 27.025148 Si / 1000 Ang^3
#
#
#
# Elastic Constant Matrix: (Units=GPa)
#
#
# Indices 1 2 3 4 5 6 
#
# 1 108.6635 27.5938 51.3571 0.0000 0.0000 0.0000
# 2 27.5938 112.3838 40.5575 0.0000 0.0000 0.0000
# 3 51.3571 40.5575 171.7683 0.0000 0.0000 0.0000
# 4 0.0000 0.0000 0.0000 30.6618 0.0000 0.0000
# 5 0.0000 0.0000 0.0000 0.0000 51.2515 0.0000
# 6 0.0000 0.0000 0.0000 0.0000 0.0000 53.4649
#
#
#
# Elastic Compliance Matrix: (Units=1/GPa)
#
#
# Indices 1 2 3 4 5 6 
#
# 1 0.010991 -0.001654 -0.002896 0.000000 0.000000 0.000000
# 2 -0.001654 0.009976 -0.001861 0.000000 0.000000 0.000000
# 3 -0.002896 -0.001861 0.007127 0.000000 0.000000 0.000000
# 4 0.000000 0.000000 0.000000 0.032614 0.000000 0.000000
# 5 0.000000 0.000000 0.000000 0.000000 0.019512 0.000000
# 6 0.000000 0.000000 0.000000 0.000000 0.000000 0.018704
#
#
# Mechanical properties :
#
#
# Convention : Reuss Voigt Hill
#
# Bulk Modulus (GPa) = 65.47482 70.20359 67.83921
# Shear Modulus (GPa) = 42.79523 45.29611 44.04567
#
# Velocity S-wave (km/s) = 3.98368 4.09843 4.04146
# Velocity P-wave (km/s) = 6.74089 6.95914 6.85089
#
# Compressibility (1/GPa) = 0.01527305
#
# Stress axis : x y z
#
# Youngs Moduli (GPa) = 90.98111 100.24347 140.31065
#
# Poissons Ratio (x) = 0.16577 0.40632
# Poissons Ratio (y) = 0.15045 0.26112
# Poissons Ratio (z) = 0.26347 0.18655
#
# Static dielectric constant tensor:
#      x y z
#    x 2.244860 0.000000 0.000000 
#    y 0.000000 2.129470 0.000000 
#    z 0.000000 0.000000 2.447910 
# 
# From -- ./inp_files/8116.got.cif
#   From: 2010.05.17/outbox.cif.g08.bks.cpg/sg24_5_cif.got.tgz:8116.got - 2010.06.04 00:33:39.
