data_PCOD9336935
_publ_section_title
;
Structure prediction by ZEFSAII (Michael W. Deem and Ramdas Pophale) SiO2 
 PCOD9336935
Probable space group: I 21 21 21
;
_chemical_formula_sum "Si O2"
_cell_formula_units_Z 36
_cell_length_a 9.281998
_cell_length_b 8.499032
_cell_length_c 21.290442
_cell_angle_alpha 90.000000
_cell_angle_beta 90.000000
_cell_angle_gamma 90.000000
_cell_volume 1679.560346
_symmetry_space_group_name_H-M "I 21 21 21"
_symmetry_group_IT_number 24
_symmetry_cell_setting 'orthorhombic'
loop_
_space_group_symop_operation_xyz
x,y,z
-x,1/2-y,z
x,-y,1/2-z
1/2-x,y,-z
1/2+x,1/2+y,1/2+z
1/2-x,-y,1/2+z
1/2+x,1/2-y,-z
-x,1/2+y,1/2-z
loop_
_atom_site_type_symbol
_atom_site_label
_atom_site_fract_x
_atom_site_fract_y
_atom_site_fract_z
Si Si1 0.656077 0.681731 0.435907
Si Si2 0.914259 0.395490 0.306116
Si Si3 0.395384 0.395945 0.901351
Si Si4 0.250000 0.384557 0.500000
Si Si5 0.142307 0.827834 0.888172
O O1 0.500000 0.750000 0.448545
O O2 0.750000 0.666453 0.500000
O O3 0.743356 0.804745 0.391258
O O4 0.632826 0.510664 0.406317
O O5 0.854944 0.500000 0.250000
O O6 0.786137 0.323153 0.346918
O O7 0.000000 0.250000 0.277341
O O8 0.024113 0.498215 0.349200
O O9 0.500000 0.250000 0.913409
O O10 0.360662 0.507603 0.960716
O O11 0.169644 0.275647 0.549773
O O12 0.000000 0.750000 0.858204
#
# Coordination Sequence:
#
# PCOD9336935 Si02
#       5
#     8   8   8   4   8
#     4  12  26  42  67 106 157 202 244 306 387 485
#     4  12  28  53  80 110 146 209 276 329 385 473
#     4  12  25  44  74 111 151 201 254 319 394 473
#     4  12  26  40  70 116 160 192 246 308 412 478
#     4  12  28  45  72 111 155 203 245 329 404 474
#
# _framework density 21.434180000000001
#
# number of rings (size 3 to 8) (size 9 to 14) (size 15 to 20)
#    0.000    0.000    6.667    2.667    6.222    0.000 
#    0.000    2.222    0.000    0.000    0.000    0.000 
#    0.000    0.000    0.000    0.000    0.000    0.000 
#
# Total GULP energy -100655.571476 kJ/mol
# GULP energy per Si atom -5591.976193 kJ/mol
# Density = 2.138539 g / cm^3
# Si number density = 21.434180 Si / 1000 Ang^3
#
#
#
# Elastic Constant Matrix: (Units=GPa)
#
#
# Indices 1 2 3 4 5 6 
#
# 1 130.7011 43.9605 13.7314 0.0000 0.0000 0.0000
# 2 43.9605 104.2399 19.5653 0.0000 0.0000 0.0000
# 3 13.7314 19.5653 45.6837 0.0000 0.0000 0.0000
# 4 0.0000 0.0000 0.0000 16.0122 0.0000 0.0000
# 5 0.0000 0.0000 0.0000 0.0000 -13.0600 0.0000
# 6 0.0000 0.0000 0.0000 0.0000 0.0000 49.0237
#
#
#
# Elastic Compliance Matrix: (Units=1/GPa)
#
#
# Indices 1 2 3 4 5 6 
#
# 1 0.008973 -0.003564 -0.001170 0.000000 0.000000 0.000000
# 2 -0.003564 0.011848 -0.004003 0.000000 0.000000 0.000000
# 3 -0.001170 -0.004003 0.023956 0.000000 0.000000 0.000000
# 4 0.000000 0.000000 0.000000 0.062452 0.000000 0.000000
# 5 0.000000 0.000000 0.000000 0.000000 -0.076569 0.000000
# 6 0.000000 0.000000 0.000000 0.000000 0.000000 0.020398
#
#
# Mechanical properties :
#
#
# Convention : Reuss Voigt Hill
#
# Bulk Modulus (GPa) = 36.62849 48.34877 42.48863
# Shear Modulus (GPa) = 64.40532 23.95300 44.17916
#
# Velocity S-wave (km/s) = 5.48755 3.34655 4.54492
# Velocity P-wave (km/s) = 7.56815 6.12686 6.88532
#
# Compressibility (1/GPa) = 0.02730115
#
# Stress axis : x y z
#
# Youngs Moduli (GPa) = 111.44698 84.40427 41.74360
#
# Poissons Ratio (x) = 0.30085 0.04886
# Poissons Ratio (y) = 0.39724 0.16709
# Poissons Ratio (z) = 0.13045 0.33785
#
# Static dielectric constant tensor:
#      x y z
#    x 1.818960 0.000000 0.000000 
#    y 0.000000 1.827760 0.000000 
#    z 0.000000 0.000000 1.773340 
# 
# From -- ./inp_files/14813.got.cif
#   From: 2010.05.17/outbox.cif.g08.bks.cpg/sg24_8_cif.got.tgz:14813.got - 2010.06.04 00:33:39.
