data_PCOD9336374
_publ_section_title
;
Structure prediction by ZEFSAII (Michael W. Deem and Ramdas Pophale) SiO2 
 PCOD9336374
Probable space group: I 21 21 21
;
_chemical_formula_sum "Si O2"
_cell_formula_units_Z 64
_cell_length_a 11.987508
_cell_length_b 11.846404
_cell_length_c 23.222195
_cell_angle_alpha 90.000000
_cell_angle_beta 90.000000
_cell_angle_gamma 90.000000
_cell_volume 3297.757502
_symmetry_space_group_name_H-M "I 21 21 21"
_symmetry_group_IT_number 24
_symmetry_cell_setting 'orthorhombic'
loop_
_space_group_symop_operation_xyz
x,y,z
-x,1/2-y,z
x,-y,1/2-z
1/2-x,y,-z
1/2+x,1/2+y,1/2+z
1/2-x,-y,1/2+z
1/2+x,1/2-y,-z
-x,1/2+y,1/2-z
loop_
_atom_site_type_symbol
_atom_site_label
_atom_site_fract_x
_atom_site_fract_y
_atom_site_fract_z
Si Si1 0.060816 0.905335 0.015171
Si Si2 0.432858 0.082502 0.382439
Si Si3 0.869001 0.723635 0.775862
Si Si4 0.441876 0.629275 0.510195
Si Si5 0.732289 0.131157 0.092259
Si Si6 0.808200 0.089272 0.652623
Si Si7 0.886369 0.326286 0.850892
Si Si8 0.327775 0.704309 0.946892
O O1 0.152110 0.839058 0.052292
O O2 0.944261 0.854174 0.037322
O O3 0.083217 0.877542 0.947953
O O4 0.039632 0.038072 0.018420
O O5 0.362306 0.147314 0.333351
O O6 0.563632 0.102240 0.368368
O O7 0.410062 0.949495 0.375638
O O8 0.807112 0.842347 0.787624
O O9 0.843747 0.666331 0.715071
O O10 0.000000 0.750000 0.770842
O O11 0.500000 0.750000 0.502947
O O12 0.352558 0.626082 0.562184
O O13 0.363770 0.600694 0.454896
O O14 0.703080 0.256123 0.112928
O O15 0.720375 0.042027 0.144387
O O16 0.725694 0.154034 0.609757
O O17 0.000000 0.250000 0.852785
O O18 0.250000 0.673546 0.000000
#
# Coordination Sequence:
#
# PCOD9336374 Si02
#       8
#     8   8   8   8   8   8   8   8
#     4  11  21  32  57  82 112 157 191 241 288 341
#     4  11  19  33  55  77 119 158 185 224 291 343
#     4   9  22  33  53  84 117 148 186 238 294 340
#     4  11  22  39  54  82 117 151 199 239 288 357
#     4  11  21  36  62  79 110 160 196 235 294 355
#     4  11  19  35  55  79 112 155 191 233 281 347
#     4  11  20  36  55  86 115 151 193 237 279 350
#     4  11  20  33  52  81 119 148 196 238 288 348
#
# _framework density 19.407126999999999
#
# number of rings (size 3 to 8) (size 9 to 14) (size 15 to 20)
#    0.000    1.250    5.000    2.250    3.500    0.500 
#    6.750    0.000    0.000    0.000    3.250    0.000 
#    0.000    0.000    0.000    0.000    0.000    0.000 
#
# Total GULP energy -178618.669827 kJ/mol
# GULP energy per Si atom -5581.833432 kJ/mol
# Density = 1.936296 g / cm^3
# Si number density = 19.407127 Si / 1000 Ang^3
#
#
#
# Elastic Constant Matrix: (Units=GPa)
#
#
# Indices 1 2 3 4 5 6 
#
# 1 37.8729 6.8427 14.7936 0.0000 0.0000 0.0000
# 2 6.8427 103.0643 15.7989 0.0000 0.0000 0.0000
# 3 14.7936 15.7989 65.9699 0.0000 0.0000 0.0000
# 4 0.0000 0.0000 0.0000 19.4054 0.0000 0.0000
# 5 0.0000 0.0000 0.0000 0.0000 7.7533 0.0000
# 6 0.0000 0.0000 0.0000 0.0000 0.0000 24.3248
#
#
#
# Elastic Compliance Matrix: (Units=1/GPa)
#
#
# Indices 1 2 3 4 5 6 
#
# 1 0.029031 -0.000965 -0.006279 0.000000 0.000000 0.000000
# 2 -0.000965 0.010105 -0.002204 0.000000 0.000000 0.000000
# 3 -0.006279 -0.002204 0.017094 0.000000 0.000000 0.000000
# 4 0.000000 0.000000 0.000000 0.051532 0.000000 0.000000
# 5 0.000000 0.000000 0.000000 0.000000 0.128978 0.000000
# 6 0.000000 0.000000 0.000000 0.000000 0.000000 0.041110
#
#
# Mechanical properties :
#
#
# Convention : Reuss Voigt Hill
#
# Bulk Modulus (GPa) = 26.78463 31.30861 29.04662
# Shear Modulus (GPa) = 16.17130 21.59482 18.88306
#
# Velocity S-wave (km/s) = 2.88977 3.33937 3.12267
# Velocity P-wave (km/s) = 4.99657 5.57101 5.29159
#
# Compressibility (1/GPa) = 0.03733484
#
# Stress axis : x y z
#
# Youngs Moduli (GPa) = 34.44577 98.96558 58.49932
#
# Poissons Ratio (x) = 0.09549 0.36732
# Poissons Ratio (y) = 0.03324 0.12890
# Poissons Ratio (z) = 0.21629 0.21807
#
# Static dielectric constant tensor:
#      x y z
#    x 1.671810 0.000000 0.000000 
#    y 0.000000 1.744360 0.000000 
#    z 0.000000 0.000000 1.701550 
# 
# From -- ./inp_files/22718.got.cif
#   From: 2010.05.17/outbox.cif.g08.bks.cpg/sg24_12_cif.got.tgz:22718.got - 2010.06.04 00:33:39.
