data_PCOD9336591
_publ_section_title
;
Structure prediction by ZEFSAII (Michael W. Deem and Ramdas Pophale) SiO2 
 PCOD9336591
Probable space group: I 21 21 21
;
_chemical_formula_sum "Si O2"
_cell_formula_units_Z 40
_cell_length_a 15.483432
_cell_length_b 22.682399
_cell_length_c 5.279112
_cell_angle_alpha 90.000000
_cell_angle_beta 90.000000
_cell_angle_gamma 90.000000
_cell_volume 1854.031433
_symmetry_space_group_name_H-M "I 21 21 21"
_symmetry_group_IT_number 24
_symmetry_cell_setting 'orthorhombic'
loop_
_space_group_symop_operation_xyz
x,y,z
-x,1/2-y,z
x,-y,1/2-z
1/2-x,y,-z
1/2+x,1/2+y,1/2+z
1/2-x,-y,1/2+z
1/2+x,1/2-y,-z
-x,1/2+y,1/2-z
loop_
_atom_site_type_symbol
_atom_site_label
_atom_site_fract_x
_atom_site_fract_y
_atom_site_fract_z
Si Si1 0.536053 0.000000 0.250000
Si Si2 0.500000 0.750000 0.904949
Si Si3 0.848862 0.000000 0.250000
Si Si4 0.750000 0.096143 0.500000
Si Si5 0.509603 0.366958 0.227787
Si Si6 0.647258 0.293600 0.993832
Si Si7 0.340740 0.673021 0.350138
O O1 0.489736 0.936373 0.206983
O O2 0.594848 0.994250 0.499269
O O3 0.587129 0.737222 0.728269
O O4 0.498482 0.687369 0.066532
O O5 0.786247 0.055129 0.282917
O O6 0.825606 0.136543 0.597887
O O7 0.595772 0.350395 0.079438
O O8 0.427232 0.355718 0.042273
O O9 0.643828 0.241294 0.199574
O O10 0.750000 0.306267 0.000000
O O11 0.250000 0.670156 0.500000
#
# Coordination Sequence:
#
# PCOD9336591 Si02
#       7
#     4   4   4   4   8   8   8
#     4  12  29  46  76 101 150 202 254 303 378 431
#     4  12  24  46  74 104 146 182 242 310 364 442
#     4  12  27  46  64 105 154 206 242 293 360 461
#     4  12  26  38  64 100 152 196 238 292 360 454
#     4  12  25  48  68 108 140 194 245 302 366 443
#     4  11  26  45  74 106 141 183 243 309 376 434
#     4  11  23  39  67 103 142 185 233 292 362 437
#
# _framework density 21.574607
#
# number of rings (size 3 to 8) (size 9 to 14) (size 15 to 20)
#    0.000    0.400    6.000    1.800    9.800    0.800 
#    0.000    0.000    4.400    0.000    0.000    0.000 
#    0.000    0.000    0.000    0.000    0.000    0.000 
#
# Total GULP energy -111347.204322 kJ/mol
# GULP energy per Si atom -5567.360216 kJ/mol
# Density = 2.152550 g / cm^3
# Si number density = 21.574607 Si / 1000 Ang^3
#
#
#
# Elastic Constant Matrix: (Units=GPa)
#
#
# Indices 1 2 3 4 5 6 
#
# 1 159.2511 59.9731 33.1732 0.0000 0.0000 0.0000
# 2 59.9731 191.8669 45.8224 0.0000 0.0000 0.0000
# 3 33.1732 45.8224 92.0660 0.0000 0.0000 0.0000
# 4 0.0000 0.0000 0.0000 180.2059 0.0000 0.0000
# 5 0.0000 0.0000 0.0000 0.0000 20.6755 0.0000
# 6 0.0000 0.0000 0.0000 0.0000 0.0000 122.5571
#
#
#
# Elastic Compliance Matrix: (Units=1/GPa)
#
#
# Indices 1 2 3 4 5 6 
#
# 1 0.007346 -0.001889 -0.001707 0.000000 0.000000 0.000000
# 2 -0.001889 0.006401 -0.002505 0.000000 0.000000 0.000000
# 3 -0.001707 -0.002505 0.012724 0.000000 0.000000 0.000000
# 4 0.000000 0.000000 0.000000 0.005549 0.000000 0.000000
# 5 0.000000 0.000000 0.000000 0.000000 0.048366 0.000000
# 6 0.000000 0.000000 0.000000 0.000000 0.000000 0.008159
#
#
# Mechanical properties :
#
#
# Convention : Reuss Voigt Hill
#
# Bulk Modulus (GPa) = 70.08211 80.12458 75.10335
# Shear Modulus (GPa) = 47.39188 84.96873 66.18031
#
# Velocity S-wave (km/s) = 4.69193 6.28245 5.54452
# Velocity P-wave (km/s) = 7.86806 9.47864 8.71065
#
# Compressibility (1/GPa) = 0.01426898
#
# Stress axis : x y z
#
# Youngs Moduli (GPa) = 136.12481 156.23629 78.59359
#
# Poissons Ratio (x) = 0.29506 0.13416
# Poissons Ratio (y) = 0.25708 0.19689
# Poissons Ratio (z) = 0.23237 0.39140
#
# Static dielectric constant tensor:
#      x y z
#    x 0.748200 0.000000 0.000000 
#    y 0.000000 1.802060 0.000000 
#    z 0.000000 0.000000 1.872740 
# 
# From -- ./inp_files/3567.got.cif
#   From: 2010.05.17/outbox.cif.g08.bks.cpg/sg24_2_cif.got.tgz:3567.got - 2010.06.04 00:33:39.
