data_PCOD9336550
_publ_section_title
;
Structure prediction by ZEFSAII (Michael W. Deem and Ramdas Pophale) SiO2 
 PCOD9336550
Probable space group: I 21 21 21
;
_chemical_formula_sum "Si O2"
_cell_formula_units_Z 48
_cell_length_a 5.304382
_cell_length_b 19.858046
_cell_length_c 18.930137
_cell_angle_alpha 90.000000
_cell_angle_beta 90.000000
_cell_angle_gamma 90.000000
_cell_volume 1993.999578
_symmetry_space_group_name_H-M "I 21 21 21"
_symmetry_group_IT_number 24
_symmetry_cell_setting 'orthorhombic'
loop_
_space_group_symop_operation_xyz
x,y,z
-x,1/2-y,z
x,-y,1/2-z
1/2-x,y,-z
1/2+x,1/2+y,1/2+z
1/2-x,-y,1/2+z
1/2+x,1/2-y,-z
-x,1/2+y,1/2-z
loop_
_atom_site_type_symbol
_atom_site_label
_atom_site_fract_x
_atom_site_fract_y
_atom_site_fract_z
Si Si1 0.739137 0.791562 0.312985
Si Si2 0.442386 0.963253 0.939267
Si Si3 0.579687 0.315441 0.578585
Si Si4 0.401028 0.655522 0.161456
Si Si5 0.722155 0.093320 0.078984
Si Si6 0.943502 0.490661 0.666784
O O1 0.500000 0.750000 0.345353
O O2 0.603904 0.823648 0.243403
O O3 0.818242 0.851362 0.366106
O O4 0.000000 0.750000 0.298529
O O5 0.485669 0.885768 0.960139
O O6 0.317733 0.961953 0.862210
O O7 0.635278 0.023021 0.933240
O O8 0.250000 0.986490 0.000000
O O9 0.500000 0.250000 0.533309
O O10 0.357659 0.312650 0.635509
O O11 0.853049 0.321362 0.616346
O O12 0.381487 0.574660 0.152311
O O13 0.487588 0.059499 0.122753
O O14 0.750000 0.123970 0.000000
O O15 0.946722 0.500000 0.750000
#
# Coordination Sequence:
#
# PCOD9336550 Si02
#       6
#     8   8   8   8   8   8
#     4  12  28  46  73 108 147 196 255 314 380 455
#     4  11  25  44  71 105 145 199 247 308 373 453
#     4  11  23  41  68 103 147 193 239 300 370 444
#     4  11  22  42  70 103 144 186 240 306 370 436
#     4  12  26  47  75 101 151 197 250 315 382 442
#     4  11  23  43  72 108 138 181 251 304 366 445
#
# _framework density 24.072223999999999
#
# number of rings (size 3 to 8) (size 9 to 14) (size 15 to 20)
#    0.000    0.667    5.000    3.000    2.333    4.000 
#    0.000    4.167    0.000    0.000    0.000    0.000 
#    0.000    0.000    0.000    0.000    0.000    0.000 
#
# Total GULP energy -133689.809575 kJ/mol
# GULP energy per Si atom -5570.408732 kJ/mol
# Density = 2.401743 g / cm^3
# Si number density = 24.072224 Si / 1000 Ang^3
#
#
#
# Elastic Constant Matrix: (Units=GPa)
#
#
# Indices 1 2 3 4 5 6 
#
# 1 122.4397 37.7723 38.8755 0.0000 0.0000 0.0000
# 2 37.7723 108.5820 34.2482 0.0001 0.0000 0.0000
# 3 38.8755 34.2482 113.1228 0.0001 0.0000 0.0000
# 4 0.0000 0.0001 0.0001 207.4749 0.0000 0.0000
# 5 0.0000 0.0000 0.0000 0.0000 26.9715 0.0000
# 6 0.0000 0.0000 0.0000 0.0000 0.0000 20.3624
#
#
#
# Elastic Compliance Matrix: (Units=1/GPa)
#
#
# Indices 1 2 3 4 5 6 
#
# 1 0.009785 -0.002591 -0.002578 0.000000 0.000000 0.000000
# 2 -0.002591 0.010868 -0.002400 0.000000 0.000000 0.000000
# 3 -0.002578 -0.002400 0.010453 0.000000 0.000000 0.000000
# 4 0.000000 0.000000 0.000000 0.004820 0.000000 0.000000
# 5 0.000000 0.000000 0.000000 0.000000 0.037076 0.000000
# 6 0.000000 0.000000 0.000000 0.000000 0.000000 0.049110
#
#
# Mechanical properties :
#
#
# Convention : Reuss Voigt Hill
#
# Bulk Modulus (GPa) = 62.62711 62.88184 62.75448
# Shear Modulus (GPa) = 35.06992 66.51166 50.79079
#
# Velocity S-wave (km/s) = 3.82103 5.26213 4.59838
# Velocity P-wave (km/s) = 6.74832 7.94348 7.37017
#
# Compressibility (1/GPa) = 0.01596752
#
# Stress axis : x y z
#
# Youngs Moduli (GPa) = 102.19547 92.01475 95.66969
#
# Poissons Ratio (x) = 0.23838 0.24668
# Poissons Ratio (y) = 0.26476 0.22960
# Poissons Ratio (z) = 0.26350 0.22083
#
# Static dielectric constant tensor:
#      x y z
#    x 1.914700 0.000000 0.000000 
#    y 0.000000 2.018540 0.000000 
#    z 0.000000 0.000000 1.987420 
# 
# From -- ./inp_files/32132.got.cif
#   From: 2010.05.17/outbox.cif.g08.bks.cpg/sg24_17_cif.got.tgz:32132.got - 2010.06.04 00:33:39.
