data_PCOD9336351
_publ_section_title
;
Structure prediction by ZEFSAII (Michael W. Deem and Ramdas Pophale) SiO2 
 PCOD9336351
Probable space group: I 21 21 21
;
_chemical_formula_sum "Si O2"
_cell_formula_units_Z 36
_cell_length_a 12.924364
_cell_length_b 4.985741
_cell_length_c 20.522731
_cell_angle_alpha 90.000000
_cell_angle_beta 90.000000
_cell_angle_gamma 90.000000
_cell_volume 1322.434125
_symmetry_space_group_name_H-M "I 21 21 21"
_symmetry_group_IT_number 24
_symmetry_cell_setting 'orthorhombic'
loop_
_space_group_symop_operation_xyz
x,y,z
-x,1/2-y,z
x,-y,1/2-z
1/2-x,y,-z
1/2+x,1/2+y,1/2+z
1/2-x,-y,1/2+z
1/2+x,1/2-y,-z
-x,1/2+y,1/2-z
loop_
_atom_site_type_symbol
_atom_site_label
_atom_site_fract_x
_atom_site_fract_y
_atom_site_fract_z
Si Si1 0.938025 0.482996 0.050527
Si Si2 0.213030 0.880463 0.349829
Si Si3 0.930232 0.500000 0.250000
Si Si4 0.750000 0.167872 0.500000
Si Si5 0.617841 0.790128 0.113346
Si Si6 0.675434 0.000000 0.250000
O O1 0.875430 0.288978 0.100598
O O2 0.843413 0.636219 0.017952
O O3 0.000000 0.750000 0.073145
O O4 0.000000 0.250000 0.012337
O O5 0.141561 0.092539 0.310098
O O6 0.252573 0.692237 0.292879
O O7 0.313261 0.022456 0.379263
O O8 0.000000 0.750000 0.270068
O O9 0.694301 0.037233 0.435551
O O10 0.500000 0.750000 0.089079
O O11 0.610141 0.884252 0.189049
#
# Coordination Sequence:
#
# PCOD9336351 Si02
#       6
#     8   8   4   4   8   4
#     4  11  26  48  80 116 157 214 275 342 418 494
#     4  11  25  44  69 113 154 212 265 341 406 493
#     4  12  23  37  66 102 152 202 257 315 398 474
#     4  10  26  54  80 114 162 214 288 348 410 508
#     4  11  26  49  79 116 159 222 277 346 419 500
#     4  12  25  45  80 110 172 208 271 347 414 498
#
# _framework density 27.222526999999999
#
# number of rings (size 3 to 8) (size 9 to 14) (size 15 to 20)
#    0.000    0.889    2.222    2.667    9.333    0.889 
#   12.000    0.000    0.000    0.000    0.000    0.000 
#    0.000    0.000    0.000    0.000    0.000    0.000 
#
# Total GULP energy -100264.406519 kJ/mol
# GULP energy per Si atom -5570.244807 kJ/mol
# Density = 2.716057 g / cm^3
# Si number density = 27.222527 Si / 1000 Ang^3
#
#
#
# Elastic Constant Matrix: (Units=GPa)
#
#
# Indices 1 2 3 4 5 6 
#
# 1 207.2805 69.6222 61.8394 0.0000 0.0000 0.0000
# 2 69.6222 108.6719 16.9876 0.0000 0.0000 0.0000
# 3 61.8394 16.9876 121.1777 0.0000 0.0000 0.0000
# 4 0.0000 0.0000 0.0000 -8.1801 0.0000 0.0000
# 5 0.0000 0.0000 0.0000 0.0000 70.2747 0.0000
# 6 0.0000 0.0000 0.0000 0.0000 0.0000 19.2574
#
#
#
# Elastic Compliance Matrix: (Units=1/GPa)
#
#
# Indices 1 2 3 4 5 6 
#
# 1 0.007104 -0.004074 -0.003054 0.000000 0.000000 0.000000
# 2 -0.004074 0.011744 0.000433 0.000000 0.000000 0.000000
# 3 -0.003054 0.000433 0.009750 0.000000 0.000000 0.000000
# 4 0.000000 0.000000 0.000000 -0.122248 0.000000 0.000000
# 5 0.000000 0.000000 0.000000 0.000000 0.014230 0.000000
# 6 0.000000 0.000000 0.000000 0.000000 0.000000 0.051928
#
#
# Mechanical properties :
#
#
# Convention : Reuss Voigt Hill
#
# Bulk Modulus (GPa) = 65.75624 81.55873 73.65748
# Shear Modulus (GPa) = -553.64840 35.51578 -259.06631
#
# Velocity S-wave (km/s) = -14.27656 3.61591 -9.76590
# Velocity P-wave (km/s) = 15.73381 6.88898 10.00237
#
# Compressibility (1/GPa) = 0.01520768
#
# Stress axis : x y z
#
# Youngs Moduli (GPa) = 140.76861 85.14761 102.56087
#
# Poissons Ratio (x) = 0.34687 0.31324
# Poissons Ratio (y) = 0.57346 -0.04436
# Poissons Ratio (z) = 0.42993 -0.03683
#
# Static dielectric constant tensor:
#      x y z
#    x 2.141170 0.000000 0.000000 
#    y 0.000000 2.205950 0.000000 
#    z 0.000000 0.000000 2.488090 
# 
# From -- ./inp_files/35437.got.cif
#   From: 2010.05.17/outbox.cif.g08.bks.cpg/sg24_18_cif.got.tgz:35437.got - 2010.06.04 00:33:39.
