data_PCOD9336064
_publ_section_title
;
Structure prediction by ZEFSAII (Michael W. Deem and Ramdas Pophale) SiO2 
 PCOD9336064
Probable space group: I 21 21 21
;
_chemical_formula_sum "Si O2"
_cell_formula_units_Z 36
_cell_length_a 19.284001
_cell_length_b 8.612068
_cell_length_c 9.944070
_cell_angle_alpha 90.000000
_cell_angle_beta 90.000000
_cell_angle_gamma 90.000000
_cell_volume 1651.462697
_symmetry_space_group_name_H-M "I 21 21 21"
_symmetry_group_IT_number 24
_symmetry_cell_setting 'orthorhombic'
loop_
_space_group_symop_operation_xyz
x,y,z
-x,1/2-y,z
x,-y,1/2-z
1/2-x,y,-z
1/2+x,1/2+y,1/2+z
1/2-x,-y,1/2+z
1/2+x,1/2-y,-z
-x,1/2+y,1/2-z
loop_
_atom_site_type_symbol
_atom_site_label
_atom_site_fract_x
_atom_site_fract_y
_atom_site_fract_z
Si Si1 0.329806 0.164194 0.514024
Si Si2 0.098552 0.767836 0.280241
Si Si3 0.829510 0.295823 0.963500
Si Si4 0.420910 0.317097 0.284664
Si Si5 0.491154 0.500000 0.750000
O O1 0.250000 0.216579 0.500000
O O2 0.348328 0.168026 0.672264
O O3 0.383025 0.264721 0.423648
O O4 0.334632 0.983383 0.472026
O O5 0.131342 0.707639 0.415418
O O6 0.057901 0.634794 0.199385
O O7 0.044904 0.898492 0.334662
O O8 0.867443 0.249170 0.827250
O O9 0.750000 0.260232 0.000000
O O10 0.500000 0.250000 0.279326
O O11 0.425579 0.500000 0.250000
#
# Coordination Sequence:
#
# PCOD9336064 Si02
#       5
#     8   8   8   8   4
#     4  11  24  46  71  98 134 179 223 274 339 407
#     4  11  23  41  68  98 126 171 218 274 323 399
#     4  11  24  46  71  98 134 179 223 274 339 407
#     4  12  29  45  68 101 141 181 229 284 341 399
#     4  10  24  38  64  98 134 158 222 272 332 376
#
# _framework density 21.798857000000002
#
# number of rings (size 3 to 8) (size 9 to 14) (size 15 to 20)
#    0.000    0.889    2.222    3.333    9.333    4.444 
#    4.000    0.000    0.000    0.000    0.000    0.000 
#    0.000    0.000    0.000    0.000    0.000    0.000 
#
# Total GULP energy -100247.862714 kJ/mol
# GULP energy per Si atom -5569.325706 kJ/mol
# Density = 2.174924 g / cm^3
# Si number density = 21.798857 Si / 1000 Ang^3
#
#
#
# Elastic Constant Matrix: (Units=GPa)
#
#
# Indices 1 2 3 4 5 6 
#
# 1 127.8915 25.5048 27.8704 0.0000 0.0000 0.0000
# 2 25.5048 62.3824 -9.6935 0.0000 0.0000 0.0000
# 3 27.8704 -9.6935 107.6136 0.0000 0.0000 0.0000
# 4 0.0000 0.0000 0.0000 1.1931 0.0000 0.0000
# 5 0.0000 0.0000 0.0000 0.0000 -13.5767 0.0000
# 6 0.0000 0.0000 0.0000 0.0000 0.0000 23.2042
#
#
#
# Elastic Compliance Matrix: (Units=1/GPa)
#
#
# Indices 1 2 3 4 5 6 
#
# 1 0.009267 -0.004221 -0.002780 0.000000 0.000000 0.000000
# 2 -0.004221 0.018180 0.002731 0.000000 0.000000 0.000000
# 3 -0.002780 0.002731 0.010258 0.000000 0.000000 0.000000
# 4 0.000000 0.000000 0.000000 0.838151 0.000000 0.000000
# 5 0.000000 0.000000 0.000000 0.000000 -0.073655 0.000000
# 6 0.000000 0.000000 0.000000 0.000000 0.000000 0.043096
#
#
# Mechanical properties :
#
#
# Convention : Reuss Voigt Hill
#
# Bulk Modulus (GPa) = 34.28754 42.80565 38.54659
# Shear Modulus (GPa) = 5.78999 19.11117 12.45058
#
# Velocity S-wave (km/s) = 1.63152 2.96413 2.39248
# Velocity P-wave (km/s) = 4.39458 5.60304 5.03520
#
# Compressibility (1/GPa) = 0.02916511
#
# Stress axis : x y z
#
# Youngs Moduli (GPa) = 107.91342 55.00521 97.48023
#
# Poissons Ratio (x) = 0.23216 0.27101
# Poissons Ratio (y) = 0.45547 -0.26619
# Poissons Ratio (z) = 0.30001 -0.15020
#
# Static dielectric constant tensor:
#      x y z
#    x 2.092610 0.000000 0.000000 
#    y 0.000000 1.835120 0.000000 
#    z 0.000000 0.000000 1.757990 
# 
# From -- ./inp_files/14833.got.cif
#   From: 2010.05.17/outbox.cif.g08.bks.cpg/sg24_8_cif.got.tgz:14833.got - 2010.06.04 00:33:39.
