data_PCOD9336234
_publ_section_title
;
Structure prediction by ZEFSAII (Michael W. Deem and Ramdas Pophale) SiO2 
 PCOD9336234
Probable space group: I 21 21 21
;
_chemical_formula_sum "Si O2"
_cell_formula_units_Z 36
_cell_length_a 5.689676
_cell_length_b 14.083495
_cell_length_c 18.514537
_cell_angle_alpha 90.000000
_cell_angle_beta 90.000000
_cell_angle_gamma 90.000000
_cell_volume 1483.579542
_symmetry_space_group_name_H-M "I 21 21 21"
_symmetry_group_IT_number 24
_symmetry_cell_setting 'orthorhombic'
loop_
_space_group_symop_operation_xyz
x,y,z
-x,1/2-y,z
x,-y,1/2-z
1/2-x,y,-z
1/2+x,1/2+y,1/2+z
1/2-x,-y,1/2+z
1/2+x,1/2-y,-z
-x,1/2+y,1/2-z
loop_
_atom_site_type_symbol
_atom_site_label
_atom_site_fract_x
_atom_site_fract_y
_atom_site_fract_z
Si Si1 0.426965 0.000000 0.250000
Si Si2 0.750000 0.102722 0.500000
Si Si3 0.352840 0.161990 0.718873
Si Si4 0.000000 0.750000 0.897371
Si Si5 0.677839 0.008100 0.641293
Si Si6 0.252859 0.695449 0.585254
O O1 0.301698 0.098690 0.227196
O O2 0.579347 0.966139 0.181681
O O3 0.914411 0.168195 0.548857
O O4 0.627023 0.039070 0.559671
O O5 0.500000 0.250000 0.748848
O O6 0.206103 0.212705 0.654741
O O7 0.499450 0.073833 0.685796
O O8 0.705267 0.895279 0.636984
O O9 0.500000 0.750000 0.591307
O O10 0.250000 0.666731 0.500000
O O11 0.000000 0.750000 0.598655
#
# Coordination Sequence:
#
# PCOD9336234 Si02
#       6
#     4   4   8   4   8   8
#     4  12  28  52  72 110 164 210 274 324 406 514
#     4  12  22  44  78 114 154 200 262 338 416 484
#     4  12  25  50  76 112 163 209 267 339 409 503
#     4  12  24  46  74 122 160 204 256 344 420 500
#     4  12  26  49  76 113 153 212 268 334 423 492
#     4  10  24  48  75 112 152 197 264 333 399 479
#
# _framework density 24.265637000000002
#
# number of rings (size 3 to 8) (size 9 to 14) (size 15 to 20)
#    0.000    0.444    5.556    2.000    3.111    0.000 
#   14.000    0.000    0.000    0.000    0.000    0.000 
#    0.000    0.000    0.000    0.000    0.000    0.000 
#
# Total GULP energy -100418.599359 kJ/mol
# GULP energy per Si atom -5578.811076 kJ/mol
# Density = 2.421041 g / cm^3
# Si number density = 24.265637 Si / 1000 Ang^3
#
#
#
# Elastic Constant Matrix: (Units=GPa)
#
#
# Indices 1 2 3 4 5 6 
#
# 1 103.7140 65.6984 25.7786 0.0000 0.0000 0.0000
# 2 65.6984 153.5088 39.3187 0.0000 0.0000 0.0000
# 3 25.7786 39.3187 95.0490 0.0000 0.0000 0.0000
# 4 0.0000 0.0000 0.0000 40.2597 0.0000 0.0000
# 5 0.0000 0.0000 0.0000 0.0000 -0.7520 0.0000
# 6 0.0000 0.0000 0.0000 0.0000 0.0000 40.1542
#
#
#
# Elastic Compliance Matrix: (Units=1/GPa)
#
#
# Indices 1 2 3 4 5 6 
#
# 1 0.013395 -0.005371 -0.001411 0.000000 0.000000 0.000000
# 2 -0.005371 0.009440 -0.002448 0.000000 0.000000 0.000000
# 3 -0.001411 -0.002448 0.011916 0.000000 0.000000 0.000000
# 4 0.000000 0.000000 0.000000 0.024839 0.000000 0.000000
# 5 0.000000 0.000000 0.000000 0.000000 -1.329818 0.000000
# 6 0.000000 0.000000 0.000000 0.000000 0.000000 0.024904
#
#
# Mechanical properties :
#
#
# Convention : Reuss Voigt Hill
#
# Bulk Modulus (GPa) = 61.38612 68.20703 64.79657
# Shear Modulus (GPa) = -4.09356 30.69744 13.30194
#
# Velocity S-wave (km/s) = -1.30025 3.56062 2.34386
# Velocity P-wave (km/s) = 4.80607 6.71368 5.83832
#
# Compressibility (1/GPa) = 0.01629033
#
# Stress axis : x y z
#
# Youngs Moduli (GPa) = 74.65363 105.92940 83.91830
#
# Poissons Ratio (x) = 0.56900 0.11841
# Poissons Ratio (y) = 0.40100 0.20546
# Poissons Ratio (z) = 0.10533 0.25935
#
# Static dielectric constant tensor:
#      x y z
#    x 2.080140 0.000000 0.000000 
#    y 0.000000 1.978400 0.000000 
#    z 0.000000 0.000000 1.897010 
# 
# From -- ./inp_files/23660.got.cif
#   From: 2010.05.17/outbox.cif.g08.bks.cpg/sg24_12_cif.got.tgz:23660.got - 2010.06.04 00:33:39.
