data_PCOD9336801
_publ_section_title
;
Structure prediction by ZEFSAII (Michael W. Deem and Ramdas Pophale) SiO2 
 PCOD9336801
Probable space group: I 21 21 21
;
_chemical_formula_sum "Si O2"
_cell_formula_units_Z 20
_cell_length_a 12.223841
_cell_length_b 14.311338
_cell_length_c 5.021280
_cell_angle_alpha 90.000000
_cell_angle_beta 90.000000
_cell_angle_gamma 90.000000
_cell_volume 878.420314
_symmetry_space_group_name_H-M "I 21 21 21"
_symmetry_group_IT_number 24
_symmetry_cell_setting 'orthorhombic'
loop_
_space_group_symop_operation_xyz
x,y,z
-x,1/2-y,z
x,-y,1/2-z
1/2-x,y,-z
1/2+x,1/2+y,1/2+z
1/2-x,-y,1/2+z
1/2+x,1/2-y,-z
-x,1/2+y,1/2-z
loop_
_atom_site_type_symbol
_atom_site_label
_atom_site_fract_x
_atom_site_fract_y
_atom_site_fract_z
Si Si1 0.668807 0.000000 0.750000
Si Si2 0.325619 0.229012 0.251109
Si Si3 0.471015 0.396694 0.366952
O O1 0.750000 0.982244 0.500000
O O2 0.588608 0.083349 0.650118
O O3 0.250000 0.249769 0.500000
O O4 0.396048 0.322805 0.209386
O O5 0.409965 0.149408 0.349336
O O6 0.250000 0.204602 0.000000
O O7 0.476552 0.500000 0.250000
#
# Coordination Sequence:
#
# PCOD9336801 Si02
#       3
#     4   8   8
#     4  12  26  42  78 116 144 198 258 318 376 446
#     4  11  29  48  73 110 155 197 247 322 384 448
#     4  11  28  47  77 112 149 196 266 305 380 464
#
# _framework density 22.768146000000002
#
# number of rings (size 3 to 8) (size 9 to 14) (size 15 to 20)
#    0.000    0.800    2.000    1.200   16.800    4.800 
#    0.000    0.000    0.000    0.000    0.000    0.000 
#    0.000    0.000    0.000    0.000    0.000    0.000 
#
# Total GULP energy -55887.052702 kJ/mol
# GULP energy per Si atom -5588.705270 kJ/mol
# Density = 2.271632 g / cm^3
# Si number density = 22.768146 Si / 1000 Ang^3
#
#
#
# Elastic Constant Matrix: (Units=GPa)
#
#
# Indices 1 2 3 4 5 6 
#
# 1 106.2177 57.6734 11.7884 0.0000 0.0000 0.0000
# 2 57.6734 152.6981 19.5576 0.0000 0.0000 0.0000
# 3 11.7884 19.5576 101.6205 0.0000 0.0000 0.0000
# 4 0.0000 0.0000 0.0000 138.0581 0.0000 0.0000
# 5 0.0000 0.0000 0.0000 0.0000 26.0058 0.0000
# 6 0.0000 0.0000 0.0000 0.0000 0.0000 -53.9602
#
#
#
# Elastic Compliance Matrix: (Units=1/GPa)
#
#
# Indices 1 2 3 4 5 6 
#
# 1 0.011871 -0.004416 -0.000527 0.000000 0.000000 0.000000
# 2 -0.004416 0.008357 -0.001096 0.000000 0.000000 0.000000
# 3 -0.000527 -0.001096 0.010113 0.000000 0.000000 0.000000
# 4 0.000000 0.000000 0.000000 0.007243 0.000000 0.000000
# 5 0.000000 0.000000 0.000000 0.000000 0.038453 0.000000
# 6 0.000000 0.000000 0.000000 0.000000 0.000000 -0.018532
#
#
# Mechanical properties :
#
#
# Convention : Reuss Voigt Hill
#
# Bulk Modulus (GPa) = 54.75840 59.84167 57.30003
# Shear Modulus (GPa) = 66.07549 40.12185 53.09867
#
# Velocity S-wave (km/s) = 5.39296 4.20240 4.83447
# Velocity P-wave (km/s) = 7.92978 7.06308 7.50894
#
# Compressibility (1/GPa) = 0.01826204
#
# Stress axis : x y z
#
# Youngs Moduli (GPa) = 84.23923 119.65735 98.88612
#
# Poissons Ratio (x) = 0.52842 0.05213
# Poissons Ratio (y) = 0.37201 0.10839
# Poissons Ratio (z) = 0.04441 0.13116
#
# Static dielectric constant tensor:
#      x y z
#    x 1.834150 0.000000 0.000000 
#    y 0.000000 1.849540 0.000000 
#    z 0.000000 0.000000 1.936490 
# 
# From -- ./inp_files/1522.got.cif
#   From: 2010.05.17/outbox.cif.g08.bks.cpg/sg24_1_cif.got.tgz:1522.got - 2010.06.04 00:33:39.
