data_PCOD9336776
_publ_section_title
;
Structure prediction by ZEFSAII (Michael W. Deem and Ramdas Pophale) SiO2 
 PCOD9336776
Probable space group: I 21 21 21
;
_chemical_formula_sum "Si O2"
_cell_formula_units_Z 60
_cell_length_a 11.610193
_cell_length_b 8.400790
_cell_length_c 25.667284
_cell_angle_alpha 90.000000
_cell_angle_beta 90.000000
_cell_angle_gamma 90.000000
_cell_volume 2503.453238
_symmetry_space_group_name_H-M "I 21 21 21"
_symmetry_group_IT_number 24
_symmetry_cell_setting 'orthorhombic'
loop_
_space_group_symop_operation_xyz
x,y,z
-x,1/2-y,z
x,-y,1/2-z
1/2-x,y,-z
1/2+x,1/2+y,1/2+z
1/2-x,-y,1/2+z
1/2+x,1/2-y,-z
-x,1/2+y,1/2-z
loop_
_atom_site_type_symbol
_atom_site_label
_atom_site_fract_x
_atom_site_fract_y
_atom_site_fract_z
Si Si1 0.932214 0.054979 0.515221
Si Si2 0.471935 0.561289 0.193303
Si Si3 0.726242 0.517948 0.338609
Si Si4 0.440398 0.420900 0.909555
Si Si5 0.197497 0.660449 0.629179
Si Si6 0.038649 0.071153 0.304327
Si Si7 0.817406 0.358896 0.550971
Si Si8 0.000000 0.750000 0.561201
O O1 0.836733 0.169554 0.539835
O O2 0.050345 0.087499 0.546153
O O3 0.956337 0.058158 0.453725
O O4 0.926206 0.868706 0.525502
O O5 0.500000 0.750000 0.189125
O O6 0.433697 0.500000 0.250000
O O7 0.598494 0.493183 0.183432
O O8 0.378668 0.481988 0.153762
O O9 0.757610 0.705802 0.335322
O O10 0.823117 0.431078 0.305525
O O11 0.731819 0.426455 0.395274
O O12 0.500000 0.250000 0.921534
O O13 0.302876 0.400935 0.904865
O O14 0.492071 0.476563 0.854603
O O15 0.105746 0.778068 0.600729
O O16 0.000000 0.250000 0.309847
O O17 0.995680 0.000000 0.250000
O O18 0.750000 0.421186 0.500000
#
# Coordination Sequence:
#
# PCOD9336776 Si02
#       8
#     8   8   8   8   8   8   8   4
#     4  11  26  44  70 108 155 194 256 307 388 469
#     4  12  28  49  79 115 151 196 259 328 402 472
#     4  12  25  50  80 109 154 206 262 325 396 478
#     4  12  27  49  75 111 155 208 265 324 392 487
#     4  12  26  47  77 106 156 197 260 319 389 468
#     4  12  30  52  80 112 157 209 273 337 412 478
#     4  11  26  43  70 107 155 197 250 313 383 464
#     4  12  24  46  70 110 146 200 244 312 384 458
#
# _framework density 23.966895000000001
#
# number of rings (size 3 to 8) (size 9 to 14) (size 15 to 20)
#    0.000    0.267    4.667    2.400   11.200    0.533 
#    0.000    0.000    0.000    0.000    0.000    0.000 
#    0.000    0.000    0.000    0.000    0.000    0.000 
#
# Total GULP energy -167332.651225 kJ/mol
# GULP energy per Si atom -5577.755041 kJ/mol
# Density = 2.391235 g / cm^3
# Si number density = 23.966895 Si / 1000 Ang^3
#
#
#
# Elastic Constant Matrix: (Units=GPa)
#
#
# Indices 1 2 3 4 5 6 
#
# 1 100.1706 15.6131 15.8236 0.0000 0.0000 0.0000
# 2 15.6131 124.8849 48.9997 0.0000 0.0000 0.0000
# 3 15.8236 48.9997 95.9105 0.0000 0.0000 0.0000
# 4 0.0000 0.0000 0.0000 24.2797 0.0000 0.0000
# 5 0.0000 0.0000 0.0000 0.0000 33.2497 0.0000
# 6 0.0000 0.0000 0.0000 0.0000 0.0000 29.1912
#
#
#
# Elastic Compliance Matrix: (Units=1/GPa)
#
#
# Indices 1 2 3 4 5 6 
#
# 1 0.010310 -0.000777 -0.001304 0.000000 0.000000 0.000000
# 2 -0.000777 0.010073 -0.005018 0.000000 0.000000 0.000000
# 3 -0.001304 -0.005018 0.013205 0.000000 0.000000 0.000000
# 4 0.000000 0.000000 0.000000 0.041187 0.000000 0.000000
# 5 0.000000 0.000000 0.000000 0.000000 0.030075 0.000000
# 6 0.000000 0.000000 0.000000 0.000000 0.000000 0.034257
#
#
# Mechanical properties :
#
#
# Convention : Reuss Voigt Hill
#
# Bulk Modulus (GPa) = 51.57296 53.53764 52.55530
# Shear Modulus (GPa) = 31.29497 33.37942 32.33719
#
# Velocity S-wave (km/s) = 3.61745 3.73598 3.67719
# Velocity P-wave (km/s) = 6.24604 6.40287 6.32494
#
# Compressibility (1/GPa) = 0.01939000
#
# Stress axis : x y z
#
# Youngs Moduli (GPa) = 96.99232 99.27038 75.72755
#
# Poissons Ratio (x) = 0.07717 0.09873
# Poissons Ratio (y) = 0.07540 0.38002
# Poissons Ratio (z) = 0.12646 0.49816
#
# Static dielectric constant tensor:
#      x y z
#    x 1.948260 0.000000 0.000000 
#    y 0.000000 2.155070 0.000000 
#    z 0.000000 0.000000 2.087590 
# 
# From -- ./inp_files/37232.got.cif
#   From: 2010.05.17/outbox.cif.g08.bks.cpg/sg24_19_cif.got.tgz:37232.got - 2010.06.04 00:33:39.
