data_PCOD9336873
_publ_section_title
;
Structure prediction by ZEFSAII (Michael W. Deem and Ramdas Pophale) SiO2 
 PCOD9336873
Probable space group: I 21 21 21
;
_chemical_formula_sum "Si O2"
_cell_formula_units_Z 28
_cell_length_a 4.953058
_cell_length_b 15.133169
_cell_length_c 15.756427
_cell_angle_alpha 90.000000
_cell_angle_beta 90.000000
_cell_angle_gamma 90.000000
_cell_volume 1181.030293
_symmetry_space_group_name_H-M "I 21 21 21"
_symmetry_group_IT_number 24
_symmetry_cell_setting 'orthorhombic'
loop_
_space_group_symop_operation_xyz
x,y,z
-x,1/2-y,z
x,-y,1/2-z
1/2-x,y,-z
1/2+x,1/2+y,1/2+z
1/2-x,-y,1/2+z
1/2+x,1/2-y,-z
-x,1/2+y,1/2-z
loop_
_atom_site_type_symbol
_atom_site_label
_atom_site_fract_x
_atom_site_fract_y
_atom_site_fract_z
Si Si1 0.857069 0.396301 0.079439
Si Si2 0.271264 0.692339 0.131187
Si Si3 0.154274 0.593152 0.701678
Si Si4 0.750000 0.037071 0.500000
O O1 0.612796 0.416961 0.144279
O O2 0.104717 0.372497 0.141375
O O3 0.750000 0.337344 0.000000
O O4 0.002182 0.474667 0.025277
O O5 0.500000 0.750000 0.086626
O O6 0.373909 0.663467 0.223535
O O7 0.000000 0.750000 0.135469
O O8 0.259952 0.602222 0.079314
O O9 0.217807 0.500000 0.750000
#
# Coordination Sequence:
#
# PCOD9336873 Si02
#       4
#     8   8   8   4
#     4  12  23  41  72 107 135 178 248 303 353 405
#     4  12  28  46  69 106 154 195 228 290 377 453
#     4  12  24  43  72 100 144 189 247 298 347 431
#     4  12  26  44  72 110 148 190 232 298 370 440
#
# _framework density 23.708110999999999
#
# number of rings (size 3 to 8) (size 9 to 14) (size 15 to 20)
#    0.000    0.000    5.714    3.429    8.000    0.000 
#    0.000    0.000    0.000   17.143    0.000    0.000 
#    0.000    0.000    0.000    0.000    0.000    0.000 
#
# Total GULP energy -78166.499702 kJ/mol
# GULP energy per Si atom -5583.321407 kJ/mol
# Density = 2.365415 g / cm^3
# Si number density = 23.708111 Si / 1000 Ang^3
#
#
#
# Elastic Constant Matrix: (Units=GPa)
#
#
# Indices 1 2 3 4 5 6 
#
# 1 120.9226 4.7935 44.6276 0.0000 0.0000 0.0000
# 2 4.7935 35.3731 24.8669 0.0000 0.0000 0.0000
# 3 44.6276 24.8669 162.0186 0.0000 0.0000 0.0000
# 4 0.0000 0.0000 0.0000 -90.8566 0.0000 0.0000
# 5 0.0000 0.0000 0.0000 0.0000 28.6478 0.0000
# 6 0.0000 0.0000 0.0000 0.0000 0.0000 31.4853
#
#
#
# Elastic Compliance Matrix: (Units=1/GPa)
#
#
# Indices 1 2 3 4 5 6 
#
# 1 0.009217 0.000601 -0.002631 0.000000 0.000000 0.000000
# 2 0.000601 0.031728 -0.005035 0.000000 0.000000 0.000000
# 3 -0.002631 -0.005035 0.007670 0.000000 0.000000 0.000000
# 4 0.000000 0.000000 0.000000 -0.011006 0.000000 0.000000
# 5 0.000000 0.000000 0.000000 0.000000 0.034907 0.000000
# 6 0.000000 0.000000 0.000000 0.000000 0.000000 0.031761
#
#
# Mechanical properties :
#
#
# Convention : Reuss Voigt Hill
#
# Bulk Modulus (GPa) = 28.99916 51.87671 40.43793
# Shear Modulus (GPa) = 38.49061 10.12371 24.30716
#
# Velocity S-wave (km/s) = 4.03366 2.06868 3.20545
# Velocity P-wave (km/s) = 5.82685 5.25688 5.54919
#
# Compressibility (1/GPa) = 0.03448376
#
# Stress axis : x y z
#
# Youngs Moduli (GPa) = 108.49612 31.51754 130.38465
#
# Poissons Ratio (x) = -0.01893 0.34303
# Poissons Ratio (y) = -0.06515 0.65650
# Poissons Ratio (z) = 0.28545 0.15869
#
# Static dielectric constant tensor:
#      x y z
#    x 1.934660 0.000000 0.000000 
#    y 0.000000 1.976500 0.000000 
#    z 0.000000 0.000000 1.954560 
# 
# From -- ./inp_files/23443.got.cif
#   From: 2010.05.17/outbox.cif.g08.bks.cpg/sg24_12_cif.got.tgz:23443.got - 2010.06.04 00:33:39.
