data_PCOD9336132
_publ_section_title
;
Structure prediction by ZEFSAII (Michael W. Deem and Ramdas Pophale) SiO2 
 PCOD9336132
Probable space group: I 21 21 21
;
_chemical_formula_sum "Si O2"
_cell_formula_units_Z 56
_cell_length_a 17.604345
_cell_length_b 10.567765
_cell_length_c 13.197498
_cell_angle_alpha 90.000000
_cell_angle_beta 90.000000
_cell_angle_gamma 90.000000
_cell_volume 2455.243800
_symmetry_space_group_name_H-M "I 21 21 21"
_symmetry_group_IT_number 24
_symmetry_cell_setting 'orthorhombic'
loop_
_space_group_symop_operation_xyz
x,y,z
-x,1/2-y,z
x,-y,1/2-z
1/2-x,y,-z
1/2+x,1/2+y,1/2+z
1/2-x,-y,1/2+z
1/2+x,1/2-y,-z
-x,1/2+y,1/2-z
loop_
_atom_site_type_symbol
_atom_site_label
_atom_site_fract_x
_atom_site_fract_y
_atom_site_fract_z
Si Si1 0.054085 0.629690 0.193653
Si Si2 0.585092 0.703214 0.316361
Si Si3 0.954187 0.377377 0.593935
Si Si4 0.408499 0.489812 0.009118
Si Si5 0.840234 0.537277 0.503403
Si Si6 0.206761 0.584765 0.658870
Si Si7 0.643615 0.228811 0.879886
O O1 0.023588 0.500000 0.250000
O O2 0.086879 0.580093 0.087963
O O3 0.115110 0.687185 0.270913
O O4 0.000000 0.750000 0.177452
O O5 0.500000 0.750000 0.342731
O O6 0.577010 0.635354 0.207422
O O7 0.628973 0.616901 0.398825
O O8 0.638364 0.826276 0.302431
O O9 0.887597 0.408982 0.515063
O O10 0.000000 0.250000 0.573185
O O11 0.018454 0.483737 0.577729
O O12 0.405394 0.349080 0.962189
O O13 0.332687 0.502708 0.074654
O O14 0.750000 0.519784 0.500000
O O15 0.860897 0.624751 0.407559
O O16 0.237424 0.500000 0.750000
O O17 0.271252 0.674753 0.613391
#
# Coordination Sequence:
#
# PCOD9336132 Si02
#       7
#     8   8   8   8   8   8   8
#     4  10  24  43  71 106 154 199 257 319 377 457
#     4  11  23  43  70 109 151 192 252 311 381 463
#     4  11  26  45  72 108 147 191 256 312 390 454
#     4  11  22  44  72 107 147 190 249 320 383 442
#     4  12  24  46  74 106 154 200 255 316 390 475
#     4  12  22  40  72 110 153 199 248 316 386 459
#     4  11  24  43  70 112 145 200 257 306 382 463
#
# _framework density 22.808326000000001
#
# number of rings (size 3 to 8) (size 9 to 14) (size 15 to 20)
#    0.000    0.857    2.857    5.143    4.000    1.143 
#    0.000    5.714    0.000    0.000    0.000    0.000 
#    0.000    0.000    0.000    0.000    0.000    0.000 
#
# Total GULP energy -156588.748440 kJ/mol
# GULP energy per Si atom -5592.455301 kJ/mol
# Density = 2.275641 g / cm^3
# Si number density = 22.808326 Si / 1000 Ang^3
#
#
#
# Elastic Constant Matrix: (Units=GPa)
#
#
# Indices 1 2 3 4 5 6 
#
# 1 130.0331 56.9867 46.6716 0.0000 0.0000 0.0000
# 2 56.9867 117.3528 47.8968 0.0000 0.0000 0.0000
# 3 46.6716 47.8968 123.4590 0.0000 0.0000 0.0000
# 4 0.0000 0.0000 0.0000 40.0194 0.0000 0.0000
# 5 0.0000 0.0000 0.0000 0.0000 23.7231 0.0000
# 6 0.0000 0.0000 0.0000 0.0000 0.0000 40.7207
#
#
#
# Elastic Compliance Matrix: (Units=1/GPa)
#
#
# Indices 1 2 3 4 5 6 
#
# 1 0.010300 -0.004055 -0.002321 0.000000 0.000000 0.000000
# 2 -0.004055 0.011720 -0.003014 0.000000 0.000000 0.000000
# 3 -0.002321 -0.003014 0.010147 0.000000 0.000000 0.000000
# 4 0.000000 0.000000 0.000000 0.024988 0.000000 0.000000
# 5 0.000000 0.000000 0.000000 0.000000 0.042153 0.000000
# 6 0.000000 0.000000 0.000000 0.000000 0.000000 0.024558
#
#
# Mechanical properties :
#
#
# Convention : Reuss Voigt Hill
#
# Bulk Modulus (GPa) = 74.69397 74.88392 74.78894
# Shear Modulus (GPa) = 33.98866 35.51195 34.75031
#
# Velocity S-wave (km/s) = 3.86448 3.95013 3.90754
# Velocity P-wave (km/s) = 7.26168 7.32856 7.29520
#
# Compressibility (1/GPa) = 0.01338796
#
# Stress axis : x y z
#
# Youngs Moduli (GPa) = 97.08493 85.32068 98.55497
#
# Poissons Ratio (x) = 0.34594 0.22873
# Poissons Ratio (y) = 0.39364 0.29707
# Poissons Ratio (z) = 0.22532 0.25718
#
# Static dielectric constant tensor:
#      x y z
#    x 1.852120 0.000000 0.000000 
#    y 0.000000 1.930670 0.000000 
#    z 0.000000 0.000000 1.866730 
# 
# From -- ./inp_files/26520.got.cif
#   From: 2010.05.17/outbox.cif.g08.bks.cpg/sg24_14_cif.got.tgz:26520.got - 2010.06.04 00:33:39.
