data_PCOD9336192
_publ_section_title
;
Structure prediction by ZEFSAII (Michael W. Deem and Ramdas Pophale) SiO2 
 PCOD9336192
Probable space group: I 21 21 21
;
_chemical_formula_sum "Si O2"
_cell_formula_units_Z 32
_cell_length_a 4.813425
_cell_length_b 28.128787
_cell_length_c 9.842646
_cell_angle_alpha 90.000000
_cell_angle_beta 90.000000
_cell_angle_gamma 90.000000
_cell_volume 1332.652994
_symmetry_space_group_name_H-M "I 21 21 21"
_symmetry_group_IT_number 24
_symmetry_cell_setting 'orthorhombic'
loop_
_space_group_symop_operation_xyz
x,y,z
-x,1/2-y,z
x,-y,1/2-z
1/2-x,y,-z
1/2+x,1/2+y,1/2+z
1/2-x,-y,1/2+z
1/2+x,1/2-y,-z
-x,1/2+y,1/2-z
loop_
_atom_site_type_symbol
_atom_site_label
_atom_site_fract_x
_atom_site_fract_y
_atom_site_fract_z
Si Si1 0.373569 0.534649 0.138073
Si Si2 0.500000 0.250000 0.908506
Si Si3 0.834563 0.895358 0.349380
Si Si4 0.807095 0.337280 0.773483
Si Si5 0.750000 0.384654 0.500000
O O1 0.517429 0.500000 0.250000
O O2 0.164793 0.562176 0.239661
O O3 0.543478 0.578097 0.071878
O O4 0.250000 0.511728 0.000000
O O5 0.685573 0.287175 0.823291
O O6 0.750000 0.227079 0.000000
O O7 0.750000 0.908993 0.500000
O O8 0.626594 0.853235 0.293866
O O9 0.140520 0.875480 0.360284
O O10 0.693441 0.348786 0.623173
#
# Coordination Sequence:
#
# PCOD9336192 Si02
#       5
#     8   4   8   8   4
#     4  11  23  43  66  95 133 176 231 290 332 404
#     4  12  24  42  68 106 134 172 236 286 332 404
#     4  11  22  41  66  99 131 183 221 276 346 401
#     4  11  23  42  70  93 143 175 225 278 340 405
#     4  10  24  46  64  98 138 188 220 278 350 414
#
# _framework density 24.012255
#
# number of rings (size 3 to 8) (size 9 to 14) (size 15 to 20)
#    0.000    1.000    2.500    5.250    0.000    1.000 
#    9.000    6.250    0.000    0.000    0.000    0.000 
#    0.000    0.000    0.000    0.000    0.000    0.000 
#
# Total GULP energy -89123.832316 kJ/mol
# GULP energy per Si atom -5570.239520 kJ/mol
# Density = 2.395760 g / cm^3
# Si number density = 24.012255 Si / 1000 Ang^3
#
#
#
# Elastic Constant Matrix: (Units=GPa)
#
#
# Indices 1 2 3 4 5 6 
#
# 1 80.1262 3.4291 25.4289 0.0000 0.0000 0.0000
# 2 3.4291 84.9563 57.4237 0.0000 0.0000 0.0000
# 3 25.4289 57.4237 225.7136 0.0000 0.0000 0.0000
# 4 0.0000 0.0000 0.0000 60.4543 0.0000 0.0000
# 5 0.0000 0.0000 0.0000 0.0000 30.4545 0.0000
# 6 0.0000 0.0000 0.0000 0.0000 0.0000 -1.8827
#
#
#
# Elastic Compliance Matrix: (Units=1/GPa)
#
#
# Indices 1 2 3 4 5 6 
#
# 1 0.012965 0.000560 -0.001603 0.000000 0.000000 0.000000
# 2 0.000560 0.014239 -0.003686 0.000000 0.000000 0.000000
# 3 -0.001603 -0.003686 0.005549 0.000000 0.000000 0.000000
# 4 0.000000 0.000000 0.000000 0.016541 0.000000 0.000000
# 5 0.000000 0.000000 0.000000 0.000000 0.032836 0.000000
# 6 0.000000 0.000000 0.000000 0.000000 0.000000 -0.531155
#
#
# Mechanical properties :
#
#
# Convention : Reuss Voigt Hill
#
# Bulk Modulus (GPa) = 42.92588 62.59549 52.76069
# Shear Modulus (GPa) = -11.57939 38.10620 13.26340
#
# Velocity S-wave (km/s) = -2.19835 3.98797 2.35278
# Velocity P-wave (km/s) = 3.38700 6.87968 5.42226
#
# Compressibility (1/GPa) = 0.02329597
#
# Stress axis : x y z
#
# Youngs Moduli (GPa) = 77.12993 70.22760 180.22226
#
# Poissons Ratio (x) = -0.03935 0.28893
# Poissons Ratio (y) = -0.04322 0.66426
# Poissons Ratio (z) = 0.12366 0.25884
#
# Static dielectric constant tensor:
#      x y z
#    x 1.894980 0.000000 0.000000 
#    y 0.000000 2.005140 0.000000 
#    z 0.000000 0.000000 2.389120 
# 
# From -- ./inp_files/7469.got.cif
#   From: 2010.05.17/outbox.cif.g08.bks.cpg/sg24_4_cif.got.tgz:7469.got - 2010.06.04 00:33:39.
