data_PCOD9336453
_publ_section_title
;
Structure prediction by ZEFSAII (Michael W. Deem and Ramdas Pophale) SiO2 
 PCOD9336453
Probable space group: I 21 21 21
;
_chemical_formula_sum "Si O2"
_cell_formula_units_Z 48
_cell_length_a 13.668224
_cell_length_b 13.615301
_cell_length_c 12.601945
_cell_angle_alpha 90.000000
_cell_angle_beta 90.000000
_cell_angle_gamma 90.000000
_cell_volume 2345.183956
_symmetry_space_group_name_H-M "I 21 21 21"
_symmetry_group_IT_number 24
_symmetry_cell_setting 'orthorhombic'
loop_
_space_group_symop_operation_xyz
x,y,z
-x,1/2-y,z
x,-y,1/2-z
1/2-x,y,-z
1/2+x,1/2+y,1/2+z
1/2-x,-y,1/2+z
1/2+x,1/2-y,-z
-x,1/2+y,1/2-z
loop_
_atom_site_type_symbol
_atom_site_label
_atom_site_fract_x
_atom_site_fract_y
_atom_site_fract_z
Si Si1 0.395244 0.493499 0.870064
Si Si2 0.966586 0.357378 0.844271
Si Si3 0.735819 0.702742 0.314262
Si Si4 0.750000 0.146646 0.000000
Si Si5 0.628403 0.000000 0.250000
Si Si6 0.733606 0.844509 0.881169
Si Si7 0.057334 0.149684 0.097006
O O1 0.359121 0.500000 0.750000
O O2 0.331032 0.420810 0.943600
O O3 0.371877 0.603657 0.901236
O O4 0.500774 0.446426 0.865362
O O5 0.856833 0.367976 0.798265
O O6 0.000000 0.250000 0.806426
O O7 0.052824 0.431512 0.814780
O O8 0.950566 0.355179 0.970285
O O9 0.709750 0.784009 0.406051
O O10 0.762553 0.762074 0.208322
O O11 0.833139 0.654076 0.360875
O O12 0.690900 0.069969 0.333057
O O13 0.750000 0.806682 0.000000
O O14 0.000000 0.250000 0.130317
#
# Coordination Sequence:
#
# PCOD9336453 Si02
#       7
#     8   8   8   4   4   8   8
#     4  12  22  34  59  96 130 158 209 267 330 387
#     4  11  22  39  67 100 129 166 225 277 327 386
#     4  12  22  42  67  94 132 172 220 273 335 388
#     4  12  18  36  62  94 122 158 214 278 322 370
#     4  12  24  42  70  98 132 178 222 278 334 390
#     4  12  24  39  67  97 132 170 220 280 333 396
#     4  11  21  35  64  97 128 165 210 277 329 381
#
# _framework density 20.467476999999999
#
# number of rings (size 3 to 8) (size 9 to 14) (size 15 to 20)
#    0.000    0.333    8.333    2.000    0.000    0.000 
#    1.500    0.000   14.667    0.000    0.000    0.000 
#    0.000    0.000    0.000    0.000    0.000    0.000 
#
# Total GULP energy -133813.974274 kJ/mol
# GULP energy per Si atom -5575.582261 kJ/mol
# Density = 2.042089 g / cm^3
# Si number density = 20.467477 Si / 1000 Ang^3
#
#
#
# Elastic Constant Matrix: (Units=GPa)
#
#
# Indices 1 2 3 4 5 6 
#
# 1 144.3548 41.2755 31.8021 0.0000 0.0000 0.0000
# 2 41.2755 41.1303 29.0035 0.0000 0.0000 0.0000
# 3 31.8021 29.0035 119.9653 0.0000 0.0000 0.0000
# 4 0.0000 0.0000 0.0000 23.5100 0.0000 0.0000
# 5 0.0000 0.0000 0.0000 0.0000 306.2805 0.0000
# 6 0.0000 0.0000 0.0000 0.0000 0.0000 214.8954
#
#
#
# Elastic Compliance Matrix: (Units=1/GPa)
#
#
# Indices 1 2 3 4 5 6 
#
# 1 0.009722 -0.009570 -0.000263 0.000000 0.000000 0.000000
# 2 -0.009570 0.038731 -0.006827 0.000000 0.000000 0.000000
# 3 -0.000263 -0.006827 0.010056 0.000000 0.000000 0.000000
# 4 0.000000 0.000000 0.000000 0.042535 0.000000 0.000000
# 5 0.000000 0.000000 0.000000 0.000000 0.003265 0.000000
# 6 0.000000 0.000000 0.000000 0.000000 0.000000 0.004653
#
#
# Mechanical properties :
#
#
# Convention : Reuss Voigt Hill
#
# Bulk Modulus (GPa) = 39.70171 56.62361 48.16266
# Shear Modulus (GPa) = 33.18289 122.49512 77.83901
#
# Velocity S-wave (km/s) = 4.03084 7.74458 6.17358
# Velocity P-wave (km/s) = 6.41117 10.37770 8.62554
#
# Compressibility (1/GPa) = 0.02518783
#
# Stress axis : x y z
#
# Youngs Moduli (GPa) = 102.86053 25.81895 99.44256
#
# Poissons Ratio (x) = 0.24710 0.02619
# Poissons Ratio (y) = 0.98442 0.67887
# Poissons Ratio (z) = 0.02709 0.17626
#
# Static dielectric constant tensor:
#      x y z
#    x 1.840770 0.000000 0.000000 
#    y 0.000000 1.527350 0.000000 
#    z 0.000000 0.000000 1.039180 
# 
# From -- ./inp_files/20777.got.cif
#   From: 2010.05.17/outbox.cif.g08.bks.cpg/sg24_11_cif.got.tgz:20777.got - 2010.06.04 00:33:39.
