data_PCOD9336475
_publ_section_title
;
Structure prediction by ZEFSAII (Michael W. Deem and Ramdas Pophale) SiO2 
 PCOD9336475
Probable space group: I 21 21 21
;
_chemical_formula_sum "Si O2"
_cell_formula_units_Z 64
_cell_length_a 20.088871
_cell_length_b 11.667361
_cell_length_c 13.945174
_cell_angle_alpha 90.000000
_cell_angle_beta 90.000000
_cell_angle_gamma 90.000000
_cell_volume 3268.527197
_symmetry_space_group_name_H-M "I 21 21 21"
_symmetry_group_IT_number 24
_symmetry_cell_setting 'orthorhombic'
loop_
_space_group_symop_operation_xyz
x,y,z
-x,1/2-y,z
x,-y,1/2-z
1/2-x,y,-z
1/2+x,1/2+y,1/2+z
1/2-x,-y,1/2+z
1/2+x,1/2-y,-z
-x,1/2+y,1/2-z
loop_
_atom_site_type_symbol
_atom_site_label
_atom_site_fract_x
_atom_site_fract_y
_atom_site_fract_z
Si Si1 0.186338 0.692662 0.062407
Si Si2 0.925391 0.763380 0.558026
Si Si3 0.320208 0.577472 0.548962
Si Si4 0.771814 0.799537 0.281094
Si Si5 0.642740 0.515708 0.447757
Si Si6 0.283581 0.953976 0.645513
Si Si7 0.923740 0.718140 0.934486
Si Si8 0.118230 0.363221 0.750813
O O1 0.175236 0.558637 0.038495
O O2 0.203027 0.712210 0.172928
O O3 0.250000 0.732352 0.000000
O O4 0.120670 0.754574 0.026962
O O5 0.879775 0.851529 0.498032
O O6 0.889884 0.640294 0.562888
O O7 0.927452 0.813374 0.665284
O O8 0.000000 0.750000 0.519205
O O9 0.250000 0.613060 0.500000
O O10 0.312473 0.606074 0.660500
O O11 0.780271 0.683011 0.341343
O O12 0.694718 0.835125 0.276931
O O13 0.668521 0.510584 0.558227
O O14 0.709301 0.505776 0.383308
O O15 0.592011 0.415732 0.417314
O O16 0.302760 0.000000 0.750000
O O17 0.897436 0.798250 0.847915
O O18 0.000000 0.750000 0.948590
O O19 0.110756 0.500000 0.750000
#
# Coordination Sequence:
#
# PCOD9336475 Si02
#       8
#     8   8   8   8   8   8   8   8
#     4  11  24  40  68  97 131 175 222 281 330 384
#     4  12  26  43  68  97 138 179 219 270 332 407
#     4  11  21  41  69  99 130 171 222 279 333 389
#     4  12  21  40  68 106 130 164 227 282 340 383
#     4  11  25  43  68  98 126 179 222 263 339 395
#     4  11  22  41  69  98 135 167 218 282 325 399
#     4  12  28  46  64  95 138 178 220 270 330 407
#     4  12  24  42  69 102 135 173 218 274 338 399
#
# _framework density 19.580684000000002
#
# number of rings (size 3 to 8) (size 9 to 14) (size 15 to 20)
#    0.000    0.500    5.000    3.750    5.250    0.000 
#    0.000    0.625    0.000    0.000    0.000    0.000 
#    0.000    0.000    0.000    0.000    0.000    0.000 
#
# Total GULP energy -179005.435743 kJ/mol
# GULP energy per Si atom -5593.919867 kJ/mol
# Density = 1.953612 g / cm^3
# Si number density = 19.580684 Si / 1000 Ang^3
#
#
#
# Elastic Constant Matrix: (Units=GPa)
#
#
# Indices 1 2 3 4 5 6 
#
# 1 88.7161 32.7355 13.7596 0.0000 0.0000 0.0000
# 2 32.7355 109.6886 11.2549 0.0000 0.0000 0.0000
# 3 13.7596 11.2549 96.3014 0.0000 0.0000 0.0000
# 4 0.0000 0.0000 0.0000 33.6208 0.0000 0.0000
# 5 0.0000 0.0000 0.0000 0.0000 22.4509 0.0000
# 6 0.0000 0.0000 0.0000 0.0000 0.0000 13.9594
#
#
#
# Elastic Compliance Matrix: (Units=1/GPa)
#
#
# Indices 1 2 3 4 5 6 
#
# 1 0.012852 -0.003691 -0.001405 0.000000 0.000000 0.000000
# 2 -0.003691 0.010288 -0.000675 0.000000 0.000000 0.000000
# 3 -0.001405 -0.000675 0.010664 0.000000 0.000000 0.000000
# 4 0.000000 0.000000 0.000000 0.029743 0.000000 0.000000
# 5 0.000000 0.000000 0.000000 0.000000 0.044542 0.000000
# 6 0.000000 0.000000 0.000000 0.000000 0.000000 0.071636
#
#
# Mechanical properties :
#
#
# Convention : Reuss Voigt Hill
#
# Bulk Modulus (GPa) = 44.92183 45.57845 45.25014
# Shear Modulus (GPa) = 25.16519 29.80331 27.48425
#
# Velocity S-wave (km/s) = 3.58886 3.90561 3.75058
# Velocity P-wave (km/s) = 6.33758 6.60804 6.47423
#
# Compressibility (1/GPa) = 0.02226089
#
# Stress axis : x y z
#
# Youngs Moduli (GPa) = 77.80963 97.20422 93.77632
#
# Poissons Ratio (x) = 0.35882 0.13174
# Poissons Ratio (y) = 0.28722 0.06329
# Poissons Ratio (z) = 0.10931 0.06560
#
# Static dielectric constant tensor:
#      x y z
#    x 1.650030 0.000000 0.000000 
#    y 0.000000 1.736630 0.000000 
#    z 0.000000 0.000000 1.684300 
# 
# From -- ./inp_files/27217.got.cif
#   From: 2010.05.17/outbox.cif.g08.bks.cpg/sg24_14_cif.got.tgz:27217.got - 2010.06.04 00:33:39.
