data_PCOD9336086
_publ_section_title
;
Structure prediction by ZEFSAII (Michael W. Deem and Ramdas Pophale) SiO2 
 PCOD9336086
Probable space group: I 21 21 21
;
_chemical_formula_sum "Si O2"
_cell_formula_units_Z 40
_cell_length_a 15.914933
_cell_length_b 4.959401
_cell_length_c 20.903638
_cell_angle_alpha 90.000000
_cell_angle_beta 90.000000
_cell_angle_gamma 90.000000
_cell_volume 1649.893516
_symmetry_space_group_name_H-M "I 21 21 21"
_symmetry_group_IT_number 24
_symmetry_cell_setting 'orthorhombic'
loop_
_space_group_symop_operation_xyz
x,y,z
-x,1/2-y,z
x,-y,1/2-z
1/2-x,y,-z
1/2+x,1/2+y,1/2+z
1/2-x,-y,1/2+z
1/2+x,1/2-y,-z
-x,1/2+y,1/2-z
loop_
_atom_site_type_symbol
_atom_site_label
_atom_site_fract_x
_atom_site_fract_y
_atom_site_fract_z
Si Si1 0.500000 0.250000 0.293438
Si Si2 0.917389 0.144849 0.405082
Si Si3 0.500000 0.750000 0.493620
Si Si4 0.824592 0.658949 0.855204
Si Si5 0.217813 0.633936 0.316701
Si Si6 0.336328 0.012650 0.009993
O O1 0.470843 0.500000 0.250000
O O2 0.420836 0.133494 0.333133
O O3 0.866572 0.375255 0.444108
O O4 0.000000 0.250000 0.366578
O O5 0.962458 0.978469 0.460976
O O6 0.855401 0.948942 0.366725
O O7 0.583714 0.660155 0.459386
O O8 0.757996 0.433772 0.826860
O O9 0.814836 0.683066 0.931839
O O10 0.796590 0.945648 0.829863
O O11 0.185600 0.500000 0.250000
O O12 0.250000 0.175086 0.000000
#
# Coordination Sequence:
#
# PCOD9336086 Si02
#       6
#     4   8   4   8   8   8
#     4  12  26  47  70 104 149 196 246 298 358 432
#     4  10  24  45  70 106 145 186 239 307 372 437
#     4  10  24  41  68 104 145 180 238 306 358 452
#     4  12  27  45  75 106 146 193 245 302 363 437
#     4  12  26  49  73 105 144 195 248 299 361 440
#     4  11  23  43  71 105 141 189 234 301 373 434
#
# _framework density 24.243988000000002
#
# number of rings (size 3 to 8) (size 9 to 14) (size 15 to 20)
#    0.000    0.800    2.000    4.800    9.800    1.600 
#    1.800    0.000    0.000    0.000    0.000    0.000 
#    0.000    0.000    0.000    0.000    0.000    0.000 
#
# Total GULP energy -111480.274893 kJ/mol
# GULP energy per Si atom -5574.013745 kJ/mol
# Density = 2.418881 g / cm^3
# Si number density = 24.243988 Si / 1000 Ang^3
#
#
#
# Elastic Constant Matrix: (Units=GPa)
#
#
# Indices 1 2 3 4 5 6 
#
# 1 196.1657 18.9017 32.9232 0.0000 0.0000 0.0000
# 2 18.9017 67.3645 8.5145 0.0000 0.0000 0.0000
# 3 32.9232 8.5145 77.8184 0.0000 0.0000 0.0000
# 4 0.0000 0.0000 0.0000 26.8484 0.0000 0.0000
# 5 0.0000 0.0000 0.0000 0.0000 833.5776 0.0000
# 6 0.0000 0.0000 0.0000 0.0000 0.0000 39.5797
#
#
#
# Elastic Compliance Matrix: (Units=1/GPa)
#
#
# Indices 1 2 3 4 5 6 
#
# 1 0.005596 -0.001289 -0.002226 0.000000 0.000000 0.000000
# 2 -0.001289 0.015350 -0.001134 0.000000 0.000000 0.000000
# 3 -0.002226 -0.001134 0.013916 0.000000 0.000000 0.000000
# 4 0.000000 0.000000 0.000000 0.037246 0.000000 0.000000
# 5 0.000000 0.000000 0.000000 0.000000 0.001200 0.000000
# 6 0.000000 0.000000 0.000000 0.000000 0.000000 0.025265
#
#
# Mechanical properties :
#
#
# Convention : Reuss Voigt Hill
#
# Bulk Modulus (GPa) = 39.11902 51.33637 45.22770
# Shear Modulus (GPa) = 42.95814 198.73510 120.84662
#
# Velocity S-wave (km/s) = 4.21397 9.06371 7.06783
# Velocity P-wave (km/s) = 6.31247 11.43483 9.23587
#
# Compressibility (1/GPa) = 0.02556301
#
# Stress axis : x y z
#
# Youngs Moduli (GPa) = 178.71326 65.14848 71.85736
#
# Poissons Ratio (x) = 0.08395 0.15998
# Poissons Ratio (y) = 0.23030 0.08151
# Poissons Ratio (z) = 0.39788 0.07390
#
# Static dielectric constant tensor:
#      x y z
#    x 2.057930 0.000000 0.000000 
#    y 0.000000 1.407050 0.000000 
#    z 0.000000 0.000000 2.056560 
# 
# From -- ./inp_files/35748.got.cif
#   From: 2010.05.17/outbox.cif.g08.bks.cpg/sg24_18_cif.got.tgz:35748.got - 2010.06.04 00:33:39.
