data_PCOD9336553
_publ_section_title
;
Structure prediction by ZEFSAII (Michael W. Deem and Ramdas Pophale) SiO2 
 PCOD9336553
Probable space group: I 21 21 21
;
_chemical_formula_sum "Si O2"
_cell_formula_units_Z 40
_cell_length_a 14.063843
_cell_length_b 13.975419
_cell_length_c 9.500135
_cell_angle_alpha 90.000000
_cell_angle_beta 90.000000
_cell_angle_gamma 90.000000
_cell_volume 1867.233471
_symmetry_space_group_name_H-M "I 21 21 21"
_symmetry_group_IT_number 24
_symmetry_cell_setting 'orthorhombic'
loop_
_space_group_symop_operation_xyz
x,y,z
-x,1/2-y,z
x,-y,1/2-z
1/2-x,y,-z
1/2+x,1/2+y,1/2+z
1/2-x,-y,1/2+z
1/2+x,1/2-y,-z
-x,1/2+y,1/2-z
loop_
_atom_site_type_symbol
_atom_site_label
_atom_site_fract_x
_atom_site_fract_y
_atom_site_fract_z
Si Si1 0.681370 0.419956 0.366124
Si Si2 0.817896 0.052696 0.869094
Si Si3 0.983107 0.969222 0.018460
Si Si4 0.560943 0.155092 0.788704
Si Si5 0.267768 0.748359 0.339777
O O1 0.704947 0.500000 0.250000
O O2 0.750000 0.419405 0.500000
O O3 0.579454 0.444513 0.436026
O O4 0.698072 0.323623 0.275500
O O5 0.844283 0.162221 0.844086
O O6 0.758340 0.000000 0.750000
O O7 0.750000 0.056384 0.000000
O O8 0.902409 0.980681 0.901391
O O9 0.972429 0.071404 0.102233
O O10 0.960319 0.889295 0.135126
O O11 0.500000 0.250000 0.813532
O O12 0.669411 0.193471 0.799760
O O13 0.250000 0.786835 0.500000
#
# Coordination Sequence:
#
# PCOD9336553 Si02
#       5
#     8   8   8   8   8
#     4  12  29  48  74 106 155 203 251 315 389 475
#     4  11  22  42  72 105 144 185 246 317 378 443
#     4  11  25  46  72 113 146 194 254 319 385 453
#     4  11  24  44  79 105 147 196 257 310 384 465
#     4  11  24  47  75 108 144 201 258 317 383 464
#
# _framework density 21.422063999999999
#
# number of rings (size 3 to 8) (size 9 to 14) (size 15 to 20)
#    0.000    0.800    4.000    3.600    8.400    4.000 
#    0.000    4.000    0.000    0.000    0.000    0.000 
#    0.000    0.000    0.000    0.000    0.000    0.000 
#
# Total GULP energy -111603.579909 kJ/mol
# GULP energy per Si atom -5580.178995 kJ/mol
# Density = 2.137331 g / cm^3
# Si number density = 21.422064 Si / 1000 Ang^3
#
#
#
# Elastic Constant Matrix: (Units=GPa)
#
#
# Indices 1 2 3 4 5 6 
#
# 1 78.5923 59.8763 21.3501 0.0000 0.0000 0.0000
# 2 59.8763 115.4323 79.9883 0.0000 0.0000 0.0000
# 3 21.3501 79.9883 148.4143 0.0000 0.0000 0.0000
# 4 0.0000 0.0000 0.0000 50.7151 0.0000 0.0000
# 5 0.0000 0.0000 0.0000 0.0000 22.2327 0.0000
# 6 0.0000 0.0000 0.0000 0.0000 0.0000 113.5517
#
#
#
# Elastic Compliance Matrix: (Units=1/GPa)
#
#
# Indices 1 2 3 4 5 6 
#
# 1 0.023164 -0.015492 0.005017 0.000000 0.000000 0.000000
# 2 -0.015492 0.024188 -0.010808 0.000000 0.000000 0.000000
# 3 0.005017 -0.010808 0.011841 0.000000 0.000000 0.000000
# 4 0.000000 0.000000 0.000000 0.019718 0.000000 0.000000
# 5 0.000000 0.000000 0.000000 0.000000 0.044979 0.000000
# 6 0.000000 0.000000 0.000000 0.000000 0.000000 0.008807
#
#
# Mechanical properties :
#
#
# Convention : Reuss Voigt Hill
#
# Bulk Modulus (GPa) = 60.13978 73.87426 67.00702
# Shear Modulus (GPa) = 27.65433 49.38150 38.51792
#
# Velocity S-wave (km/s) = 3.59685 4.80643 4.24494
# Velocity P-wave (km/s) = 6.73680 8.08470 7.44133
#
# Compressibility (1/GPa) = 0.01662793
#
# Stress axis : x y z
#
# Youngs Moduli (GPa) = 43.17109 41.34261 84.45265
#
# Poissons Ratio (x) = 0.64048 -0.42372
# Poissons Ratio (y) = 0.66881 0.91274
# Poissons Ratio (z) = -0.21660 0.44682
#
# Static dielectric constant tensor:
#      x y z
#    x 1.828370 0.000000 0.000000 
#    y 0.000000 1.830550 0.000000 
#    z 0.000000 0.000000 1.794480 
# 
# From -- ./inp_files/12341.got.cif
#   From: 2010.05.17/outbox.cif.g08.bks.cpg/sg24_7_cif.got.tgz:12341.got - 2010.06.04 00:33:39.
