data_PCOD9336258
_publ_section_title
;
Structure prediction by ZEFSAII (Michael W. Deem and Ramdas Pophale) SiO2 
 PCOD9336258
Probable space group: I 21 21 21
;
_chemical_formula_sum "Si O2"
_cell_formula_units_Z 56
_cell_length_a 15.067507
_cell_length_b 13.071847
_cell_length_c 12.325443
_cell_angle_alpha 90.000000
_cell_angle_beta 90.000000
_cell_angle_gamma 90.000000
_cell_volume 2427.621055
_symmetry_space_group_name_H-M "I 21 21 21"
_symmetry_group_IT_number 24
_symmetry_cell_setting 'orthorhombic'
loop_
_space_group_symop_operation_xyz
x,y,z
-x,1/2-y,z
x,-y,1/2-z
1/2-x,y,-z
1/2+x,1/2+y,1/2+z
1/2-x,-y,1/2+z
1/2+x,1/2-y,-z
-x,1/2+y,1/2-z
loop_
_atom_site_type_symbol
_atom_site_label
_atom_site_fract_x
_atom_site_fract_y
_atom_site_fract_z
Si Si1 0.491269 0.435134 0.137038
Si Si2 0.856924 0.203914 0.751618
Si Si3 0.759494 0.000000 0.250000
Si Si4 0.649811 0.259564 0.486818
Si Si5 0.693047 0.386732 0.102342
Si Si6 0.311031 0.000000 0.750000
Si Si7 0.544044 0.646142 0.821983
Si Si8 0.108809 0.465039 0.432976
O O1 0.499775 0.500000 0.250000
O O2 0.438512 0.335475 0.176960
O O3 0.589461 0.415017 0.090181
O O4 0.430783 0.483932 0.041440
O O5 0.881712 0.251814 0.636157
O O6 0.805664 0.293089 0.813512
O O7 0.798604 0.101742 0.732129
O O8 0.818023 0.980308 0.358239
O O9 0.750000 0.297757 0.500000
O O10 0.584568 0.323405 0.561436
O O11 0.648072 0.144510 0.533180
O O12 0.745621 0.484039 0.149812
O O13 0.750000 0.353845 0.000000
O O14 0.376052 0.097096 0.744314
O O15 0.500000 0.750000 0.775752
O O16 0.470748 0.562861 0.851236
#
# Coordination Sequence:
#
# PCOD9336258 Si02
#       8
#     8   8   4   8   8   4   8   8
#     4  12  25  47  75 109 151 201 253 319 378 456
#     4  12  26  45  75 110 150 196 255 316 383 445
#     4  12  25  45  76 112 154 202 250 317 379 452
#     4  11  21  41  69 108 142 185 256 315 366 439
#     4  12  30  48  73 110 149 199 251 305 392 460
#     4  12  25  51  76 102 146 196 248 309 379 460
#     4  10  25  43  72 108 144 192 245 310 371 449
#     4  11  24  41  71 108 148 194 247 302 384 443
#
# _framework density 23.067851000000001
#
# number of rings (size 3 to 8) (size 9 to 14) (size 15 to 20)
#    0.000    0.571    4.286    2.571    6.000    4.000 
#    0.000    1.429    0.000    0.000    0.000    0.000 
#    0.000    0.000    0.000    0.000    0.000    0.000 
#
# Total GULP energy -156699.082531 kJ/mol
# GULP energy per Si atom -5596.395805 kJ/mol
# Density = 2.301535 g / cm^3
# Si number density = 23.067851 Si / 1000 Ang^3
#
#
#
# Elastic Constant Matrix: (Units=GPa)
#
#
# Indices 1 2 3 4 5 6 
#
# 1 139.1529 34.4702 32.4209 0.0000 0.0000 0.0000
# 2 34.4702 68.7718 21.9889 0.0000 0.0000 0.0000
# 3 32.4209 21.9889 90.6768 0.0000 0.0000 0.0000
# 4 0.0000 0.0000 0.0000 22.9912 0.0000 0.0000
# 5 0.0000 0.0000 0.0000 0.0000 31.1471 0.0000
# 6 0.0000 0.0000 0.0000 0.0000 0.0000 13.6553
#
#
#
# Elastic Compliance Matrix: (Units=1/GPa)
#
#
# Indices 1 2 3 4 5 6 
#
# 1 0.008591 -0.003603 -0.002198 0.000000 0.000000 0.000000
# 2 -0.003603 0.017274 -0.002901 0.000000 0.000000 0.000000
# 3 -0.002198 -0.002901 0.012517 0.000000 0.000000 0.000000
# 4 0.000000 0.000000 0.000000 0.043495 0.000000 0.000000
# 5 0.000000 0.000000 0.000000 0.000000 0.032106 0.000000
# 6 0.000000 0.000000 0.000000 0.000000 0.000000 0.073232
#
#
# Mechanical properties :
#
#
# Convention : Reuss Voigt Hill
#
# Bulk Modulus (GPa) = 47.66639 52.92906 50.29773
# Shear Modulus (GPa) = 23.62817 27.54014 25.58415
#
# Velocity S-wave (km/s) = 3.20392 3.45900 3.33390
# Velocity P-wave (km/s) = 5.86475 6.24081 6.05570
#
# Compressibility (1/GPa) = 0.02097914
#
# Stress axis : x y z
#
# Youngs Moduli (GPa) = 116.40084 57.88922 79.88872
#
# Poissons Ratio (x) = 0.20859 0.17558
# Poissons Ratio (y) = 0.41943 0.23173
# Poissons Ratio (z) = 0.25583 0.16792
#
# Static dielectric constant tensor:
#      x y z
#    x 2.000050 0.000000 0.000000 
#    y 0.000000 1.920930 0.000000 
#    z 0.000000 0.000000 1.887630 
# 
# From -- ./inp_files/20891.got.cif
#   From: 2010.05.17/outbox.cif.g08.bks.cpg/sg24_11_cif.got.tgz:20891.got - 2010.06.04 00:33:39.
