data_PCOD9336355
_publ_section_title
;
Structure prediction by ZEFSAII (Michael W. Deem and Ramdas Pophale) SiO2 
 PCOD9336355
Probable space group: I 21 21 21
;
_chemical_formula_sum "Si O2"
_cell_formula_units_Z 60
_cell_length_a 11.567972
_cell_length_b 9.765708
_cell_length_c 22.662212
_cell_angle_alpha 90.000000
_cell_angle_beta 90.000000
_cell_angle_gamma 90.000000
_cell_volume 2560.137324
_symmetry_space_group_name_H-M "I 21 21 21"
_symmetry_group_IT_number 24
_symmetry_cell_setting 'orthorhombic'
loop_
_space_group_symop_operation_xyz
x,y,z
-x,1/2-y,z
x,-y,1/2-z
1/2-x,y,-z
1/2+x,1/2+y,1/2+z
1/2-x,-y,1/2+z
1/2+x,1/2-y,-z
-x,1/2+y,1/2-z
loop_
_atom_site_type_symbol
_atom_site_label
_atom_site_fract_x
_atom_site_fract_y
_atom_site_fract_z
Si Si1 0.671605 0.171536 0.348216
Si Si2 0.117286 0.661617 0.238431
Si Si3 0.419365 0.628458 0.547745
Si Si4 0.160148 0.408165 0.917214
Si Si5 0.307260 0.796220 0.324072
Si Si6 0.198016 0.054941 0.591537
Si Si7 0.500000 0.750000 0.240054
Si Si8 0.068946 0.111082 0.474884
O O1 0.797995 0.163525 0.318581
O O2 0.648152 0.325204 0.368685
O O3 0.577434 0.145370 0.298141
O O4 0.656486 0.067918 0.402313
O O5 0.093095 0.500000 0.250000
O O6 0.195383 0.732285 0.290547
O O7 0.000000 0.750000 0.231167
O O8 0.500000 0.750000 0.568345
O O9 0.293706 0.632388 0.574469
O O10 0.401594 0.633381 0.477058
O O11 0.481237 0.486213 0.559477
O O12 0.127143 0.323269 0.860288
O O13 0.402081 0.832950 0.275489
O O14 0.282621 0.919174 0.369909
O O15 0.114052 0.038538 0.535123
O O16 0.316252 0.118132 0.564637
O O17 0.000000 0.250000 0.487478
#
# Coordination Sequence:
#
# PCOD9336355 Si02
#       8
#     8   8   8   8   8   8   4   8
#     4  11  25  46  69 102 139 189 244 293 368 441
#     4  11  26  48  72 102 143 187 245 308 366 439
#     4  11  24  41  68 102 141 181 235 293 354 439
#     4  11  24  43  68 101 138 187 234 285 367 437
#     4  11  25  46  71 106 141 183 240 305 371 435
#     4  11  26  43  69 107 139 188 243 294 365 435
#     4  10  28  44  74 104 144 180 250 300 364 446
#     4  11  24  45  68 102 148 186 238 295 351 445
#
# _framework density 23.436243999999999
#
# number of rings (size 3 to 8) (size 9 to 14) (size 15 to 20)
#    0.000    1.067    1.333    3.200    7.467   10.133 
#    0.000    0.000    0.000    0.000    0.000    0.000 
#    0.000    0.000    0.000    0.000    0.000    0.000 
#
# Total GULP energy -167834.406596 kJ/mol
# GULP energy per Si atom -5594.480220 kJ/mol
# Density = 2.338290 g / cm^3
# Si number density = 23.436244 Si / 1000 Ang^3
#
#
#
# Elastic Constant Matrix: (Units=GPa)
#
#
# Indices 1 2 3 4 5 6 
#
# 1 141.6392 30.0435 19.0472 0.0000 0.0000 0.0000
# 2 30.0435 121.7962 16.2179 0.0000 0.0000 0.0000
# 3 19.0472 16.2179 62.9717 0.0000 0.0000 0.0000
# 4 0.0000 0.0000 0.0000 61.0249 0.0000 0.0000
# 5 0.0000 0.0000 0.0000 0.0000 6.7824 0.0000
# 6 0.0000 0.0000 0.0000 0.0000 0.0000 26.4957
#
#
#
# Elastic Compliance Matrix: (Units=1/GPa)
#
#
# Indices 1 2 3 4 5 6 
#
# 1 0.007663 -0.001638 -0.001896 0.000000 0.000000 0.000000
# 2 -0.001638 0.008852 -0.001784 0.000000 0.000000 0.000000
# 3 -0.001896 -0.001784 0.016913 0.000000 0.000000 0.000000
# 4 0.000000 0.000000 0.000000 0.016387 0.000000 0.000000
# 5 0.000000 0.000000 0.000000 0.000000 0.147441 0.000000
# 6 0.000000 0.000000 0.000000 0.000000 0.000000 0.037742
#
#
# Mechanical properties :
#
#
# Convention : Reuss Voigt Hill
#
# Bulk Modulus (GPa) = 43.87567 50.78047 47.32807
# Shear Modulus (GPa) = 19.74488 36.26718 28.00603
#
# Velocity S-wave (km/s) = 2.90572 3.93807 3.46061
# Velocity P-wave (km/s) = 5.47901 6.51095 6.01714
#
# Compressibility (1/GPa) = 0.02279168
#
# Stress axis : x y z
#
# Youngs Moduli (GPa) = 130.50532 112.96876 59.12550
#
# Poissons Ratio (x) = 0.18500 0.11210
# Poissons Ratio (y) = 0.21372 0.10550
# Poissons Ratio (z) = 0.24743 0.20158
#
# Static dielectric constant tensor:
#      x y z
#    x 1.800500 0.000000 0.000000 
#    y 0.000000 1.869070 0.000000 
#    z 0.000000 0.000000 1.932720 
# 
# From -- ./inp_files/37225.got.cif
#   From: 2010.05.17/outbox.cif.g08.bks.cpg/sg24_19_cif.got.tgz:37225.got - 2010.06.04 00:33:39.
