data_PCOD9336196
_publ_section_title
;
Structure prediction by ZEFSAII (Michael W. Deem and Ramdas Pophale) SiO2 
 PCOD9336196
Probable space group: I 21 21 21
;
_chemical_formula_sum "Si O2"
_cell_formula_units_Z 48
_cell_length_a 9.503251
_cell_length_b 18.510159
_cell_length_c 10.943803
_cell_angle_alpha 90.000000
_cell_angle_beta 90.000000
_cell_angle_gamma 90.000000
_cell_volume 1925.088129
_symmetry_space_group_name_H-M "I 21 21 21"
_symmetry_group_IT_number 24
_symmetry_cell_setting 'orthorhombic'
loop_
_space_group_symop_operation_xyz
x,y,z
-x,1/2-y,z
x,-y,1/2-z
1/2-x,y,-z
1/2+x,1/2+y,1/2+z
1/2-x,-y,1/2+z
1/2+x,1/2-y,-z
-x,1/2+y,1/2-z
loop_
_atom_site_type_symbol
_atom_site_label
_atom_site_fract_x
_atom_site_fract_y
_atom_site_fract_z
Si Si1 0.250000 0.303777 0.000000
Si Si2 0.771653 0.119450 0.640492
Si Si3 0.806418 0.673237 0.342140
Si Si4 0.354790 0.224091 0.594041
Si Si5 0.588573 0.000000 0.750000
Si Si6 0.099515 0.972732 0.476568
Si Si7 0.511469 0.120718 0.168294
O O1 0.329580 0.248724 0.909393
O O2 0.132675 0.345643 0.920481
O O3 0.750000 0.093982 0.500000
O O4 0.720515 0.202250 0.639033
O O5 0.927537 0.117720 0.695614
O O6 0.686089 0.070216 0.736221
O O7 0.879069 0.675254 0.211135
O O8 0.864273 0.606507 0.418977
O O9 0.637279 0.663194 0.328005
O O10 0.500000 0.250000 0.536255
O O11 0.250000 0.188233 0.500000
O O12 0.495428 0.005032 0.628456
O O13 0.250000 0.008827 0.500000
O O14 0.024157 0.955626 0.604083
#
# Coordination Sequence:
#
# PCOD9336196 Si02
#       7
#     4   8   8   8   4   8   8
#     4  12  20  32  68 104 142 176 210 266 342 410
#     4  11  27  44  68  98 132 180 231 278 337 414
#     4  11  23  39  69 104 140 173 227 278 350 416
#     4  11  26  42  66  99 143 181 221 276 350 420
#     4  12  26  50  66  94 134 170 246 288 342 388
#     4  10  24  46  69 100 130 176 232 286 345 409
#     4  11  23  42  68 103 140 178 218 281 347 416
#
# _framework density 24.933923
#
# number of rings (size 3 to 8) (size 9 to 14) (size 15 to 20)
#    0.000    1.000    4.167    2.500    9.333    0.000 
#    6.000    0.833    0.000    0.000    0.000    0.000 
#    0.000    0.000    0.000    0.000    0.000    0.000 
#
# Total GULP energy -134347.239824 kJ/mol
# GULP energy per Si atom -5597.801659 kJ/mol
# Density = 2.487717 g / cm^3
# Si number density = 24.933923 Si / 1000 Ang^3
#
#
#
# Elastic Constant Matrix: (Units=GPa)
#
#
# Indices 1 2 3 4 5 6 
#
# 1 101.5406 12.9841 26.3348 0.0000 0.0000 0.0000
# 2 12.9841 60.6247 -0.8140 -0.0002 0.0000 0.0000
# 3 26.3348 -0.8140 110.9207 -0.0002 0.0000 0.0000
# 4 0.0000 -0.0002 -0.0002 24.3180 0.0000 0.0000
# 5 0.0000 0.0000 0.0000 0.0000 52.1647 0.0000
# 6 0.0000 0.0000 0.0000 0.0000 0.0000 12.5336
#
#
#
# Elastic Compliance Matrix: (Units=1/GPa)
#
#
# Indices 1 2 3 4 5 6 
#
# 1 0.010820 -0.002352 -0.002586 0.000000 0.000000 0.000000
# 2 -0.002352 0.017008 0.000683 0.000000 0.000000 0.000000
# 3 -0.002586 0.000683 0.009634 0.000000 0.000000 0.000000
# 4 0.000000 0.000000 0.000000 0.041122 0.000000 0.000000
# 5 0.000000 0.000000 0.000000 0.000000 0.019170 0.000000
# 6 0.000000 0.000000 0.000000 0.000000 0.000000 0.079785
#
#
# Mechanical properties :
#
#
# Convention : Reuss Voigt Hill
#
# Bulk Modulus (GPa) = 34.53958 38.89953 36.71955
# Shear Modulus (GPa) = 25.54933 33.44200 29.49567
#
# Velocity S-wave (km/s) = 3.20454 3.66625 3.44314
# Velocity P-wave (km/s) = 5.25115 5.79282 5.52862
#
# Compressibility (1/GPa) = 0.02895230
#
# Stress axis : x y z
#
# Youngs Moduli (GPa) = 92.42369 58.79649 103.79413
#
# Poissons Ratio (x) = 0.13829 0.26842
# Poissons Ratio (y) = 0.21738 -0.07091
# Poissons Ratio (z) = 0.23902 -0.04017
#
# Static dielectric constant tensor:
#      x y z
#    x 1.992880 0.000000 0.000000 
#    y 0.000000 1.937930 0.000000 
#    z 0.000000 0.000000 1.998850 
# 
# From -- ./inp_files/18612.got.cif
#   From: 2010.05.17/outbox.cif.g08.bks.cpg/sg24_10_cif.got.tgz:18612.got - 2010.06.04 00:33:39.
