data_PCOD9336899
_publ_section_title
;
Structure prediction by ZEFSAII (Michael W. Deem and Ramdas Pophale) SiO2 
 PCOD9336899
Probable space group: I 21 21 21
;
_chemical_formula_sum "Si O2"
_cell_formula_units_Z 32
_cell_length_a 14.315605
_cell_length_b 9.938029
_cell_length_c 8.876222
_cell_angle_alpha 90.000000
_cell_angle_beta 90.000000
_cell_angle_gamma 90.000000
_cell_volume 1262.810319
_symmetry_space_group_name_H-M "I 21 21 21"
_symmetry_group_IT_number 24
_symmetry_cell_setting 'orthorhombic'
loop_
_space_group_symop_operation_xyz
x,y,z
-x,1/2-y,z
x,-y,1/2-z
1/2-x,y,-z
1/2+x,1/2+y,1/2+z
1/2-x,-y,1/2+z
1/2+x,1/2-y,-z
-x,1/2+y,1/2-z
loop_
_atom_site_type_symbol
_atom_site_label
_atom_site_fract_x
_atom_site_fract_y
_atom_site_fract_z
Si Si1 0.837071 0.098775 0.610752
Si Si2 0.172428 0.258675 0.101389
Si Si3 0.142794 0.145036 0.804486
Si Si4 0.543117 0.107359 0.653253
O O1 0.750000 0.130304 0.500000
O O2 0.874095 0.236699 0.686090
O O3 0.916276 0.045169 0.498323
O O4 0.818331 0.000000 0.750000
O O5 0.243231 0.151181 0.176301
O O6 0.122518 0.346319 0.225877
O O7 0.250000 0.339274 0.000000
O O8 0.110455 0.188341 0.972591
O O9 0.111399 0.000000 0.750000
O O10 0.500000 0.250000 0.615279
O O11 0.484436 0.000000 0.750000
#
# Coordination Sequence:
#
# PCOD9336899 Si02
#       4
#     8   8   8   8
#     4  12  24  41  73 102 135 175 239 291 346 411
#     4   8  20  39  66 100 133 172 227 275 335 391
#     4   9  20  35  65 104 137 167 219 286 336 391
#     4  12  27  46  68  99 138 186 228 286 352 421
#
# _framework density 25.340308
#
# number of rings (size 3 to 8) (size 9 to 14) (size 15 to 20)
#    1.500    0.000    2.500    2.250    7.000    3.000 
#    0.000    6.250    0.000    0.000    0.000    0.000 
#    0.000    0.000    0.000    0.000    0.000    0.000 
#
# Total GULP energy -89295.777509 kJ/mol
# GULP energy per Si atom -5580.986094 kJ/mol
# Density = 2.528263 g / cm^3
# Si number density = 25.340308 Si / 1000 Ang^3
#
#
#
# Elastic Constant Matrix: (Units=GPa)
#
#
# Indices 1 2 3 4 5 6 
#
# 1 34.6133 2.5884 31.3782 0.0000 0.0000 0.0000
# 2 2.5884 107.1390 61.3079 0.0000 0.0000 0.0000
# 3 31.3782 61.3079 186.6201 0.0000 0.0000 0.0000
# 4 0.0000 0.0000 0.0000 39.7277 0.0000 0.0000
# 5 0.0000 0.0000 0.0000 0.0000 24.1514 0.0000
# 6 0.0000 0.0000 0.0000 0.0000 0.0000 22.4601
#
#
#
# Elastic Compliance Matrix: (Units=1/GPa)
#
#
# Indices 1 2 3 4 5 6 
#
# 1 0.034901 0.003097 -0.006886 0.000000 0.000000 0.000000
# 2 0.003097 0.011769 -0.004387 0.000000 0.000000 0.000000
# 3 -0.006886 -0.004387 0.007957 0.000000 0.000000 0.000000
# 4 0.000000 0.000000 0.000000 0.025171 0.000000 0.000000
# 5 0.000000 0.000000 0.000000 0.000000 0.041406 0.000000
# 6 0.000000 0.000000 0.000000 0.000000 0.000000 0.044523
#
#
# Mechanical properties :
#
#
# Convention : Reuss Voigt Hill
#
# Bulk Modulus (GPa) = 26.12585 57.65793 41.89189
# Shear Modulus (GPa) = 25.66227 32.80770 29.23498
#
# Velocity S-wave (km/s) = 3.18576 3.60208 3.40029
# Velocity P-wave (km/s) = 4.88512 6.33267 5.65540
#
# Compressibility (1/GPa) = 0.03827627
#
# Stress axis : x y z
#
# Youngs Moduli (GPa) = 28.65237 84.96689 125.66793
#
# Poissons Ratio (x) = -0.26314 0.86531
# Poissons Ratio (y) = -0.08874 0.55132
# Poissons Ratio (z) = 0.19729 0.37276
#
# Static dielectric constant tensor:
#      x y z
#    x 2.074400 0.000000 0.000000 
#    y 0.000000 2.096040 0.000000 
#    z 0.000000 0.000000 1.987080 
# 
# From -- ./inp_files/11904.got.cif
#   From: 2010.05.17/outbox.cif.g08.bks.cpg/sg24_6_cif.got.tgz:11904.got - 2010.06.04 00:33:39.
