data_PCOD9336805
_publ_section_title
;
Structure prediction by ZEFSAII (Michael W. Deem and Ramdas Pophale) SiO2 
 PCOD9336805
Probable space group: I 21 21 21
;
_chemical_formula_sum "Si O2"
_cell_formula_units_Z 32
_cell_length_a 8.544938
_cell_length_b 17.861400
_cell_length_c 8.625703
_cell_angle_alpha 90.000000
_cell_angle_beta 90.000000
_cell_angle_gamma 90.000000
_cell_volume 1316.494087
_symmetry_space_group_name_H-M "I 21 21 21"
_symmetry_group_IT_number 24
_symmetry_cell_setting 'orthorhombic'
loop_
_space_group_symop_operation_xyz
x,y,z
-x,1/2-y,z
x,-y,1/2-z
1/2-x,y,-z
1/2+x,1/2+y,1/2+z
1/2-x,-y,1/2+z
1/2+x,1/2-y,-z
-x,1/2+y,1/2-z
loop_
_atom_site_type_symbol
_atom_site_label
_atom_site_fract_x
_atom_site_fract_y
_atom_site_fract_z
Si Si1 0.200319 0.876806 0.321941
Si Si2 0.750000 0.159972 0.000000
Si Si3 0.000000 0.250000 0.204755
Si Si4 0.528032 0.840348 0.235592
Si Si5 0.750000 0.090332 0.500000
Si Si6 0.454122 0.500000 0.750000
O O1 0.250000 0.855749 0.500000
O O2 0.365303 0.884428 0.238078
O O3 0.107773 0.813191 0.223975
O O4 0.075496 0.942729 0.330241
O O5 0.626268 0.206412 0.899015
O O6 0.863587 0.125046 0.872674
O O7 0.500000 0.750000 0.260257
O O8 0.625653 0.856184 0.083462
O O9 0.844962 0.040208 0.376520
#
# Coordination Sequence:
#
# PCOD9336805 Si02
#       6
#     8   4   4   8   4   4
#     4  12  26  45  84 116 154 203 260 321 385 473
#     4  12  18  41  74 124 153 190 250 324 392 451
#     4  12  18  40  74 124 140 198 250 318 366 454
#     4  12  26  49  82 123 155 200 266 331 395 457
#     4  12  34  55  76 110 165 214 260 326 390 479
#     4  12  34  54  76 110 162 218 254 322 400 476
#
# _framework density 24.306982000000001
#
# number of rings (size 3 to 8) (size 9 to 14) (size 15 to 20)
#    0.000    0.000    7.500    1.500    7.000    3.000 
#    2.250    0.000    0.000    0.000    0.000    0.000 
#    0.000    0.000    0.000    0.000    0.000    0.000 
#
# Total GULP energy -89409.227664 kJ/mol
# GULP energy per Si atom -5588.076729 kJ/mol
# Density = 2.425166 g / cm^3
# Si number density = 24.306982 Si / 1000 Ang^3
#
#
#
# Elastic Constant Matrix: (Units=GPa)
#
#
# Indices 1 2 3 4 5 6 
#
# 1 218.1916 43.7040 56.7568 0.0000 0.0000 0.0000
# 2 43.7040 68.3965 29.2955 0.0000 0.0000 0.0000
# 3 56.7568 29.2955 75.6194 -0.0001 0.0000 0.0000
# 4 0.0000 0.0000 -0.0001 24.5722 0.0000 0.0000
# 5 0.0000 0.0000 0.0000 0.0000 47.1350 0.0000
# 6 0.0000 0.0000 0.0000 0.0000 0.0000 36.7779
#
#
#
# Elastic Compliance Matrix: (Units=1/GPa)
#
#
# Indices 1 2 3 4 5 6 
#
# 1 0.005976 -0.002275 -0.003604 0.000000 0.000000 0.000000
# 2 -0.002275 0.018395 -0.005419 0.000000 0.000000 0.000000
# 3 -0.003604 -0.005419 0.018029 0.000000 0.000000 0.000000
# 4 0.000000 0.000000 0.000000 0.040696 0.000000 0.000000
# 5 0.000000 0.000000 0.000000 0.000000 0.021216 0.000000
# 6 0.000000 0.000000 0.000000 0.000000 0.000000 0.027190
#
#
# Mechanical properties :
#
#
# Convention : Reuss Voigt Hill
#
# Bulk Modulus (GPa) = 50.49504 69.08003 59.78754
# Shear Modulus (GPa) = 31.11377 37.19376 34.15376
#
# Velocity S-wave (km/s) = 3.58164 3.91598 3.75253
# Velocity P-wave (km/s) = 6.15818 6.99486 6.58981
#
# Compressibility (1/GPa) = 0.01980392
#
# Stress axis : x y z
#
# Youngs Moduli (GPa) = 167.32570 54.36151 55.46718
#
# Poissons Ratio (x) = 0.12367 0.19992
# Poissons Ratio (y) = 0.38067 0.30058
# Poissons Ratio (z) = 0.60309 0.29458
#
# Static dielectric constant tensor:
#      x y z
#    x 1.881130 0.000000 0.000000 
#    y 0.000000 2.005560 0.000000 
#    z 0.000000 0.000000 1.934430 
# 
# From -- ./inp_files/9027.got.cif
#   From: 2010.05.17/outbox.cif.g08.bks.cpg/sg24_5_cif.got.tgz:9027.got - 2010.06.04 00:33:39.
