data_PCOD9336232
_publ_section_title
;
Structure prediction by ZEFSAII (Michael W. Deem and Ramdas Pophale) SiO2 
 PCOD9336232
Probable space group: I 21 21 21
;
_chemical_formula_sum "Si O2"
_cell_formula_units_Z 36
_cell_length_a 5.072166
_cell_length_b 19.855102
_cell_length_c 14.537913
_cell_angle_alpha 90.000000
_cell_angle_beta 90.000000
_cell_angle_gamma 90.000000
_cell_volume 1464.089569
_symmetry_space_group_name_H-M "I 21 21 21"
_symmetry_group_IT_number 24
_symmetry_cell_setting 'orthorhombic'
loop_
_space_group_symop_operation_xyz
x,y,z
-x,1/2-y,z
x,-y,1/2-z
1/2-x,y,-z
1/2+x,1/2+y,1/2+z
1/2-x,-y,1/2+z
1/2+x,1/2-y,-z
-x,1/2+y,1/2-z
loop_
_atom_site_type_symbol
_atom_site_label
_atom_site_fract_x
_atom_site_fract_y
_atom_site_fract_z
Si Si1 0.595769 0.674011 0.303953
Si Si2 0.863182 0.038541 0.835229
Si Si3 0.630195 0.323942 0.604700
Si Si4 0.101067 0.973674 0.094912
Si Si5 0.750000 0.298620 0.000000
O O1 0.500000 0.750000 0.310498
O O2 0.379614 0.616488 0.312839
O O3 0.704268 0.669254 0.199841
O O4 0.751944 0.662953 0.401396
O O5 0.732668 0.000000 0.750000
O O6 0.645012 0.022974 0.910138
O O7 0.153401 0.005402 0.847105
O O8 0.500000 0.250000 0.613893
O O9 0.750000 0.321435 0.500000
O O10 0.489760 0.397265 0.610002
O O11 0.250000 0.967783 0.000000
O O12 0.500000 0.250000 0.997018
#
# Coordination Sequence:
#
# PCOD9336232 Si02
#       5
#     8   8   8   8   4
#     4  11  26  48  76 111 154 203 265 323 395 470
#     4  12  26  48  77 110 154 203 256 323 396 476
#     4  11  25  45  77 115 160 209 266 329 401 477
#     4  11  27  50  74 114 154 203 261 325 394 471
#     4  10  24  48  74 108 150 194 256 320 388 458
#
# _framework density 24.588657999999999
#
# number of rings (size 3 to 8) (size 9 to 14) (size 15 to 20)
#    0.000    0.889    2.222    2.667    4.667    7.111 
#    8.000    0.000    0.000    0.000    0.000    0.000 
#    0.000    0.000    0.000    0.000    0.000    0.000 
#
# Total GULP energy -100244.868365 kJ/mol
# GULP energy per Si atom -5569.159354 kJ/mol
# Density = 2.453269 g / cm^3
# Si number density = 24.588658 Si / 1000 Ang^3
#
#
#
# Elastic Constant Matrix: (Units=GPa)
#
#
# Indices 1 2 3 4 5 6 
#
# 1 105.8265 54.3156 31.8394 0.0000 0.0000 0.0000
# 2 54.3156 210.2098 35.2812 0.0000 0.0000 0.0000
# 3 31.8394 35.2812 153.1666 0.0000 0.0000 0.0000
# 4 0.0000 0.0000 0.0000 20.8117 0.0000 0.0000
# 5 0.0000 0.0000 0.0000 0.0000 58.1074 0.0000
# 6 0.0000 0.0000 0.0000 0.0000 0.0000 40.1029
#
#
#
# Elastic Compliance Matrix: (Units=1/GPa)
#
#
# Indices 1 2 3 4 5 6 
#
# 1 0.011327 -0.002633 -0.001748 0.000000 0.000000 0.000000
# 2 -0.002633 0.005561 -0.000733 0.000000 0.000000 0.000000
# 3 -0.001748 -0.000733 0.007061 0.000000 0.000000 0.000000
# 4 0.000000 0.000000 0.000000 0.048050 0.000000 0.000000
# 5 0.000000 0.000000 0.000000 0.000000 0.017210 0.000000
# 6 0.000000 0.000000 0.000000 0.000000 0.000000 0.024936
#
#
# Mechanical properties :
#
#
# Convention : Reuss Voigt Hill
#
# Bulk Modulus (GPa) = 72.89102 79.11949 76.00526
# Shear Modulus (GPa) = 38.77571 46.98885 42.88228
#
# Velocity S-wave (km/s) = 3.97542 4.37624 4.18064
# Velocity P-wave (km/s) = 7.12604 7.60147 7.36759
#
# Compressibility (1/GPa) = 0.01371911
#
# Stress axis : x y z
#
# Youngs Moduli (GPa) = 88.28533 179.83401 141.61993
#
# Poissons Ratio (x) = 0.47357 0.24755
# Poissons Ratio (y) = 0.23249 0.10387
# Poissons Ratio (z) = 0.15432 0.13190
#
# Static dielectric constant tensor:
#      x y z
#    x 1.860550 0.000000 0.000000 
#    y 0.000000 0.855900 0.000000 
#    z 0.000000 0.000000 2.078280 
# 
# From -- ./inp_files/23626.got.cif
#   From: 2010.05.17/outbox.cif.g08.bks.cpg/sg24_12_cif.got.tgz:23626.got - 2010.06.04 00:33:39.
