data_PCOD9336003
_publ_section_title
;
Structure prediction by ZEFSAII (Michael W. Deem and Ramdas Pophale) SiO2 
 PCOD9336003
Probable space group: I 21 21 21
;
_chemical_formula_sum "Si O2"
_cell_formula_units_Z 64
_cell_length_a 11.729447
_cell_length_b 13.801363
_cell_length_c 18.902307
_cell_angle_alpha 90.000000
_cell_angle_beta 90.000000
_cell_angle_gamma 90.000000
_cell_volume 3059.949988
_symmetry_space_group_name_H-M "I 21 21 21"
_symmetry_group_IT_number 24
_symmetry_cell_setting 'orthorhombic'
loop_
_space_group_symop_operation_xyz
x,y,z
-x,1/2-y,z
x,-y,1/2-z
1/2-x,y,-z
1/2+x,1/2+y,1/2+z
1/2-x,-y,1/2+z
1/2+x,1/2-y,-z
-x,1/2+y,1/2-z
loop_
_atom_site_type_symbol
_atom_site_label
_atom_site_fract_x
_atom_site_fract_y
_atom_site_fract_z
Si Si1 0.406289 0.174613 0.685963
Si Si2 0.561154 0.347079 0.922492
Si Si3 0.868697 0.283200 0.468714
Si Si4 0.557607 0.442752 0.175589
Si Si5 0.629656 0.499816 0.027181
Si Si6 0.202379 0.563911 0.679234
Si Si7 0.248325 0.791568 0.684903
Si Si8 0.934333 0.004400 0.166030
O O1 0.500000 0.250000 0.713973
O O2 0.351089 0.219538 0.615798
O O3 0.315586 0.161534 0.748131
O O4 0.476656 0.082765 0.655349
O O5 0.500000 0.250000 0.945674
O O6 0.681710 0.318492 0.886306
O O7 0.493772 0.397818 0.858398
O O8 0.550143 0.425509 0.985126
O O9 0.750000 0.239480 0.500000
O O10 0.875344 0.392040 0.498541
O O11 0.000000 0.250000 0.481868
O O12 0.565032 0.500000 0.250000
O O13 0.618526 0.498267 0.111092
O O14 0.426392 0.431826 0.151501
O O15 0.624781 0.341628 0.182609
O O16 0.750000 0.461394 0.000000
O O17 0.189524 0.500000 0.750000
O O18 0.240792 0.675169 0.693069
O O19 0.304917 0.510044 0.636934
O O20 0.920007 0.000000 0.250000
#
# Coordination Sequence:
#
# PCOD9336003 Si02
#       8
#     8   8   8   8   8   8   8   8
#     4  11  22  38  67 105 132 172 229 288 345 404
#     4  12  23  39  65 102 134 172 226 278 350 393
#     4  10  24  46  68 100 141 178 226 293 357 422
#     4  11  27  46  69  98 132 187 228 276 344 417
#     4  11  24  47  69  98 138 178 230 286 339 417
#     4  10  23  45  62  95 147 177 225 286 339 407
#     4  12  23  39  69 104 130 179 233 280 339 412
#     4  11  20  36  65  95 137 175 223 289 333 392
#
# _framework density 20.915375000000001
#
# number of rings (size 3 to 8) (size 9 to 14) (size 15 to 20)
#    0.000    1.000    5.000    2.250    5.250    1.000 
#    9.000    0.625    0.000    0.000    0.000    0.000 
#    0.000    0.000    0.000    0.000    0.000    0.000 
#
# Total GULP energy -178302.524349 kJ/mol
# GULP energy per Si atom -5571.953886 kJ/mol
# Density = 2.086777 g / cm^3
# Si number density = 20.915375 Si / 1000 Ang^3
#
#
#
# Elastic Constant Matrix: (Units=GPa)
#
#
# Indices 1 2 3 4 5 6 
#
# 1 101.5632 3.0863 21.8645 0.0000 0.0000 0.0000
# 2 3.0863 61.6729 9.4936 0.0000 0.0000 0.0000
# 3 21.8645 9.4936 86.6860 0.0000 0.0000 0.0000
# 4 0.0000 0.0000 0.0000 5.1205 0.0000 0.0000
# 5 0.0000 0.0000 0.0000 0.0000 -2.1246 0.0000
# 6 0.0000 0.0000 0.0000 0.0000 0.0000 34.7867
#
#
#
# Elastic Compliance Matrix: (Units=1/GPa)
#
#
# Indices 1 2 3 4 5 6 
#
# 1 0.010412 -0.000119 -0.002613 0.000000 0.000000 0.000000
# 2 -0.000119 0.016494 -0.001776 0.000000 0.000000 0.000000
# 3 -0.002613 -0.001776 0.012390 0.000000 0.000000 0.000000
# 4 0.000000 0.000000 0.000000 0.195294 0.000000 0.000000
# 5 0.000000 0.000000 0.000000 0.000000 -0.470679 0.000000
# 6 0.000000 0.000000 0.000000 0.000000 0.000000 0.028747
#
#
# Mechanical properties :
#
#
# Convention : Reuss Voigt Hill
#
# Bulk Modulus (GPa) = 33.02626 35.42341 34.22483
# Shear Modulus (GPa) = -26.56286 21.92170 -2.32058
#
# Velocity S-wave (km/s) = -3.56759 3.24097 -1.05448
# Velocity P-wave (km/s) = 1.07033 5.56583 3.86218
#
# Compressibility (1/GPa) = 0.03027894
#
# Stress axis : x y z
#
# Youngs Moduli (GPa) = 96.04048 60.62823 80.71312
#
# Poissons Ratio (x) = 0.00720 0.21092
# Poissons Ratio (y) = 0.01141 0.14338
# Poissons Ratio (z) = 0.25098 0.10770
#
# Static dielectric constant tensor:
#      x y z
#    x 1.911570 0.000000 0.000000 
#    y 0.000000 1.783340 0.000000 
#    z 0.000000 0.000000 1.758380 
# 
# From -- ./inp_files/30372.got.cif
#   From: 2010.05.17/outbox.cif.g08.bks.cpg/sg24_16_cif.got.tgz:30372.got - 2010.06.04 00:33:39.
