data_PCOD9336352
_publ_section_title
;
Structure prediction by ZEFSAII (Michael W. Deem and Ramdas Pophale) SiO2 
 PCOD9336352
Probable space group: I 21 21 21
;
_chemical_formula_sum "Si O2"
_cell_formula_units_Z 28
_cell_length_a 21.024290
_cell_length_b 9.340800
_cell_length_c 5.132536
_cell_angle_alpha 90.000000
_cell_angle_beta 90.000000
_cell_angle_gamma 90.000000
_cell_volume 1007.946349
_symmetry_space_group_name_H-M "I 21 21 21"
_symmetry_group_IT_number 24
_symmetry_cell_setting 'orthorhombic'
loop_
_space_group_symop_operation_xyz
x,y,z
-x,1/2-y,z
x,-y,1/2-z
1/2-x,y,-z
1/2+x,1/2+y,1/2+z
1/2-x,-y,1/2+z
1/2+x,1/2-y,-z
-x,1/2+y,1/2-z
loop_
_atom_site_type_symbol
_atom_site_label
_atom_site_fract_x
_atom_site_fract_y
_atom_site_fract_z
Si Si1 0.019774 0.000000 0.250000
Si Si2 0.556720 0.155774 0.132684
Si Si3 0.632688 0.376032 0.412361
Si Si4 0.704838 0.842447 0.751217
O O1 0.069240 0.046543 0.474209
O O2 0.971261 0.879222 0.349483
O O3 0.500000 0.250000 0.253093
O O4 0.616661 0.251338 0.203011
O O5 0.565368 0.000000 0.250000
O O6 0.668523 0.500000 0.250000
O O7 0.663820 0.294595 0.657001
O O8 0.750000 0.822283 0.500000
O O9 0.670424 0.000000 0.750000
O O10 0.750000 0.860244 0.000000
#
# Coordination Sequence:
#
# PCOD9336352 Si02
#       4
#     4   8   8   8
#     4  12  26  46  76 112 176 220 284 338 418 534
#     4  12  25  45  70 113 169 221 278 341 405 517
#     4  12  28  49  81 125 169 227 292 358 448 527
#     4  10  26  56  89 122 162 216 299 378 447 524
#
# _framework density 27.779259
#
# number of rings (size 3 to 8) (size 9 to 14) (size 15 to 20)
#    0.000    0.571    5.714    0.000    8.000    5.714 
#    2.571    0.000    0.000    0.000    0.000    0.000 
#    0.000    0.000    0.000    0.000    0.000    0.000 
#
# Total GULP energy -78292.756774 kJ/mol
# GULP energy per Si atom -5592.339770 kJ/mol
# Density = 2.771603 g / cm^3
# Si number density = 27.779259 Si / 1000 Ang^3
#
#
#
# Elastic Constant Matrix: (Units=GPa)
#
#
# Indices 1 2 3 4 5 6 
#
# 1 96.1915 49.8150 47.9980 0.0000 0.0000 0.0000
# 2 49.8150 213.3464 85.7985 0.0000 0.0000 0.0000
# 3 47.9980 85.7985 187.6981 0.0000 0.0000 0.0000
# 4 0.0000 0.0000 0.0000 52.1429 0.0000 0.0000
# 5 0.0000 0.0000 0.0000 0.0000 35.7789 0.0000
# 6 0.0000 0.0000 0.0000 0.0000 0.0000 11.0360
#
#
#
# Elastic Compliance Matrix: (Units=1/GPa)
#
#
# Indices 1 2 3 4 5 6 
#
# 1 0.012586 -0.002015 -0.002297 0.000000 0.000000 0.000000
# 2 -0.002015 0.006065 -0.002257 0.000000 0.000000 0.000000
# 3 -0.002297 -0.002257 0.006947 0.000000 0.000000 0.000000
# 4 0.000000 0.000000 0.000000 0.019178 0.000000 0.000000
# 5 0.000000 0.000000 0.000000 0.000000 0.027949 0.000000
# 6 0.000000 0.000000 0.000000 0.000000 0.000000 0.090612
#
#
# Mechanical properties :
#
#
# Convention : Reuss Voigt Hill
#
# Bulk Modulus (GPa) = 80.26259 96.05099 88.15679
# Shear Modulus (GPa) = 27.68086 40.69986 34.19036
#
# Velocity S-wave (km/s) = 3.16010 3.83184 3.51206
# Velocity P-wave (km/s) = 6.50159 7.36403 6.94621
#
# Compressibility (1/GPa) = 0.01245910
#
# Stress axis : x y z
#
# Youngs Moduli (GPa) = 79.45529 164.86802 143.94565
#
# Poissons Ratio (x) = 0.33217 0.33071
# Poissons Ratio (y) = 0.16008 0.32494
# Poissons Ratio (z) = 0.18254 0.37217
#
# Static dielectric constant tensor:
#      x y z
#    x 2.183710 0.000000 0.000000 
#    y 0.000000 2.201410 0.000000 
#    z 0.000000 0.000000 2.206350 
# 
# From -- ./inp_files/6781.got.cif
#   From: 2010.05.17/outbox.cif.g08.bks.cpg/sg24_4_cif.got.tgz:6781.got - 2010.06.04 00:33:39.
