data_PCOD9336213
_publ_section_title
;
Structure prediction by ZEFSAII (Michael W. Deem and Ramdas Pophale) SiO2 
 PCOD9336213
Probable space group: I 21 21 21
;
_chemical_formula_sum "Si O2"
_cell_formula_units_Z 24
_cell_length_a 13.070686
_cell_length_b 13.810220
_cell_length_c 5.699525
_cell_angle_alpha 90.000000
_cell_angle_beta 90.000000
_cell_angle_gamma 90.000000
_cell_volume 1028.815839
_symmetry_space_group_name_H-M "I 21 21 21"
_symmetry_group_IT_number 24
_symmetry_cell_setting 'orthorhombic'
loop_
_space_group_symop_operation_xyz
x,y,z
-x,1/2-y,z
x,-y,1/2-z
1/2-x,y,-z
1/2+x,1/2+y,1/2+z
1/2-x,-y,1/2+z
1/2+x,1/2-y,-z
-x,1/2+y,1/2-z
loop_
_atom_site_type_symbol
_atom_site_label
_atom_site_fract_x
_atom_site_fract_y
_atom_site_fract_z
Si Si1 0.750000 0.939725 0.000000
Si Si2 0.000000 0.750000 0.584644
Si Si3 0.860625 0.393788 0.619414
Si Si4 0.445139 0.388853 0.694114
O O1 0.649477 0.872559 0.978709
O O2 0.764626 0.000000 0.750000
O O3 0.087304 0.814176 0.710887
O O4 0.061115 0.676176 0.419822
O O5 0.862607 0.500000 0.750000
O O6 0.750000 0.379911 0.500000
O O7 0.942963 0.384439 0.411829
O O8 0.432450 0.500000 0.750000
#
# Coordination Sequence:
#
# PCOD9336213 Si02
#       4
#     4   4   8   8
#     4  10  24  46  84 114 158 218 270 354 438 514
#     4  12  28  52  82 118 170 224 290 360 442 536
#     4  12  27  53  86 123 167 227 290 370 443 527
#     4  11  24  52  78 116 161 218 283 359 432 522
#
# _framework density 23.327791000000001
#
# number of rings (size 3 to 8) (size 9 to 14) (size 15 to 20)
#    0.000    0.667    3.333    3.000    4.667    0.000 
#   18.000    0.000    0.000    0.000    0.000    0.000 
#    0.000    0.000    0.000    0.000    0.000    0.000 
#
# Total GULP energy -66937.786057 kJ/mol
# GULP energy per Si atom -5578.148838 kJ/mol
# Density = 2.327470 g / cm^3
# Si number density = 23.327791 Si / 1000 Ang^3
#
#
#
# Elastic Constant Matrix: (Units=GPa)
#
#
# Indices 1 2 3 4 5 6 
#
# 1 252.9397 62.4675 75.1448 0.0000 0.0000 0.0000
# 2 62.4675 171.0321 88.3341 0.0000 0.0000 0.0000
# 3 75.1448 88.3341 122.5281 0.0000 0.0000 0.0000
# 4 0.0000 0.0000 0.0000 -59.0409 0.0000 0.0000
# 5 0.0000 0.0000 0.0000 0.0000 17.6256 0.0000
# 6 0.0000 0.0000 0.0000 0.0000 0.0000 14.5425
#
#
#
# Elastic Compliance Matrix: (Units=1/GPa)
#
#
# Indices 1 2 3 4 5 6 
#
# 1 0.004849 -0.000375 -0.002704 0.000000 0.000000 0.000000
# 2 -0.000375 0.009344 -0.006507 0.000000 0.000000 0.000000
# 3 -0.002704 -0.006507 0.014511 0.000000 0.000000 0.000000
# 4 0.000000 0.000000 0.000000 -0.016937 0.000000 0.000000
# 5 0.000000 0.000000 0.000000 0.000000 0.056736 0.000000
# 6 0.000000 0.000000 0.000000 0.000000 0.000000 0.068764
#
#
# Mechanical properties :
#
#
# Convention : Reuss Voigt Hill
#
# Bulk Modulus (GPa) = 104.89353 110.93251 107.91302
# Shear Modulus (GPa) = 31.32539 15.99569 23.66054
#
# Velocity S-wave (km/s) = 3.66845 2.62141 3.18821
# Velocity P-wave (km/s) = 7.93763 7.53787 7.74033
#
# Compressibility (1/GPa) = 0.00953348
#
# Stress axis : x y z
#
# Youngs Moduli (GPa) = 206.21371 107.01698 68.91498
#
# Poissons Ratio (x) = 0.04009 0.18634
# Poissons Ratio (y) = 0.07726 0.44842
# Poissons Ratio (z) = 0.55759 0.69634
#
# Static dielectric constant tensor:
#      x y z
#    x 2.000520 0.000000 0.000000 
#    y 0.000000 2.277830 0.000000 
#    z 0.000000 0.000000 1.928000 
# 
# From -- ./inp_files/2943.got.cif
#   From: 2010.05.17/outbox.cif.g08.bks.cpg/sg24_2_cif.got.tgz:2943.got - 2010.06.04 00:33:39.
