data_PCOD9336728
_publ_section_title
;
Structure prediction by ZEFSAII (Michael W. Deem and Ramdas Pophale) SiO2 
 PCOD9336728
Probable space group: I 21 21 21
;
_chemical_formula_sum "Si O2"
_cell_formula_units_Z 24
_cell_length_a 4.896720
_cell_length_b 22.311983
_cell_length_c 10.017477
_cell_angle_alpha 90.000000
_cell_angle_beta 90.000000
_cell_angle_gamma 90.000000
_cell_volume 1094.464793
_symmetry_space_group_name_H-M "I 21 21 21"
_symmetry_group_IT_number 24
_symmetry_cell_setting 'orthorhombic'
loop_
_space_group_symop_operation_xyz
x,y,z
-x,1/2-y,z
x,-y,1/2-z
1/2-x,y,-z
1/2+x,1/2+y,1/2+z
1/2-x,-y,1/2+z
1/2+x,1/2-y,-z
-x,1/2+y,1/2-z
loop_
_atom_site_type_symbol
_atom_site_label
_atom_site_fract_x
_atom_site_fract_y
_atom_site_fract_z
Si Si1 0.929523 0.888044 0.294046
Si Si2 0.750000 0.988440 0.500000
Si Si3 0.566860 0.597241 0.115992
Si Si4 0.750000 0.210741 0.000000
O O1 0.844567 0.945951 0.380127
O O2 0.722374 0.879195 0.169950
O O3 0.890068 0.831443 0.389622
O O4 0.232205 0.900337 0.242024
O O5 0.518370 0.032350 0.441761
O O6 0.750000 0.627296 0.000000
O O7 0.500000 0.250000 0.056459
#
# Coordination Sequence:
#
# PCOD9336728 Si02
#       4
#     8   4   8   4
#     4  11  26  41  65  98 134 171 228 270 322 389
#     4  11  26  36  64  96 142 184 218 253 320 398
#     4  12  24  39  60  96 143 181 208 257 324 404
#     4  11  24  50  76  96 118 166 228 299 338 364
#
# _framework density 21.928529000000001
#
# number of rings (size 3 to 8) (size 9 to 14) (size 15 to 20)
#    0.000    0.667    3.333    3.000    9.333    2.667 
#    0.000    0.000    0.000   20.000    0.000    0.000 
#    0.000    0.000    0.000    0.000    0.000    0.000 
#
# Total GULP energy -67065.036485 kJ/mol
# GULP energy per Si atom -5588.753040 kJ/mol
# Density = 2.187862 g / cm^3
# Si number density = 21.928529 Si / 1000 Ang^3
#
#
#
# Elastic Constant Matrix: (Units=GPa)
#
#
# Indices 1 2 3 4 5 6 
#
# 1 144.6755 42.2064 15.1732 0.0000 0.0000 0.0000
# 2 42.2064 71.4197 32.8337 0.0000 0.0000 0.0000
# 3 15.1732 32.8337 60.5688 0.0000 0.0000 0.0000
# 4 0.0000 0.0000 0.0000 57.3861 0.0000 0.0000
# 5 0.0000 0.0000 0.0000 0.0000 58.8494 0.0000
# 6 0.0000 0.0000 0.0000 0.0000 0.0000 10.7321
#
#
#
# Elastic Compliance Matrix: (Units=1/GPa)
#
#
# Indices 1 2 3 4 5 6 
#
# 1 0.008379 -0.005310 0.000780 0.000000 0.000000 0.000000
# 2 -0.005310 0.022015 -0.010604 0.000000 0.000000 0.000000
# 3 0.000780 -0.010604 0.022063 0.000000 0.000000 0.000000
# 4 0.000000 0.000000 0.000000 0.017426 0.000000 0.000000
# 5 0.000000 0.000000 0.000000 0.000000 0.016993 0.000000
# 6 0.000000 0.000000 0.000000 0.000000 0.000000 0.093179
#
#
# Mechanical properties :
#
#
# Convention : Reuss Voigt Hill
#
# Bulk Modulus (GPa) = 45.06884 50.78784 47.92834
# Shear Modulus (GPa) = 22.96534 37.82355 30.39445
#
# Velocity S-wave (km/s) = 3.23968 4.15764 3.72703
# Velocity P-wave (km/s) = 5.88144 6.80139 6.35807
#
# Compressibility (1/GPa) = 0.02218828
#
# Stress axis : x y z
#
# Youngs Moduli (GPa) = 119.33954 45.42407 45.32470
#
# Poissons Ratio (x) = 0.24122 -0.03533
# Poissons Ratio (y) = 0.63373 0.48061
# Poissons Ratio (z) = -0.09303 0.48166
#
# Static dielectric constant tensor:
#      x y z
#    x 1.578260 0.000000 0.000000 
#    y 0.000000 1.775450 0.000000 
#    z 0.000000 0.000000 1.902800 
# 
# From -- ./inp_files/8115.got.cif
#   From: 2010.05.17/outbox.cif.g08.bks.cpg/sg24_5_cif.got.tgz:8115.got - 2010.06.04 00:33:39.
