data_PCOD9336223
_publ_section_title
;
Structure prediction by ZEFSAII (Michael W. Deem and Ramdas Pophale) SiO2 
 PCOD9336223
Probable space group: I 21 21 21
;
_chemical_formula_sum "Si O2"
_cell_formula_units_Z 40
_cell_length_a 11.351340
_cell_length_b 26.961891
_cell_length_c 5.422158
_cell_angle_alpha 90.000000
_cell_angle_beta 90.000000
_cell_angle_gamma 90.000000
_cell_volume 1659.470931
_symmetry_space_group_name_H-M "I 21 21 21"
_symmetry_group_IT_number 24
_symmetry_cell_setting 'orthorhombic'
loop_
_space_group_symop_operation_xyz
x,y,z
-x,1/2-y,z
x,-y,1/2-z
1/2-x,y,-z
1/2+x,1/2+y,1/2+z
1/2-x,-y,1/2+z
1/2+x,1/2-y,-z
-x,1/2+y,1/2-z
loop_
_atom_site_type_symbol
_atom_site_label
_atom_site_fract_x
_atom_site_fract_y
_atom_site_fract_z
Si Si1 0.382063 0.551958 0.100084
Si Si2 0.250000 0.114702 0.500000
Si Si3 0.047644 0.000000 0.250000
Si Si4 0.250000 0.674945 0.000000
Si Si5 0.000000 0.250000 0.915683
Si Si6 0.250000 0.267022 0.000000
Si Si7 0.750000 0.551961 0.500000
Si Si8 0.005578 0.648026 0.889893
O O1 0.375944 0.500000 0.250000
O O2 0.448175 0.596956 0.244524
O O3 0.250000 0.562549 0.000000
O O4 0.465193 0.541654 0.865591
O O5 0.257053 0.083676 0.247983
O O6 0.376387 0.141903 0.505954
O O7 0.134595 0.981133 0.462387
O O8 0.225597 0.703855 0.749899
O O9 0.121371 0.651886 0.062849
O O10 0.123054 0.243466 0.060164
O O11 0.997055 0.301096 0.760890
#
# Coordination Sequence:
#
# PCOD9336223 Si02
#       8
#     8   4   4   4   4   4   4   8
#     4  12  25  48  76 115 158 212 272 337 411 489
#     4  12  27  47  74 113 156 199 266 314 402 472
#     4  12  26  46  76 110 156 206 266 324 402 498
#     4  10  24  47  76 108 154 200 262 319 406 458
#     4  10  26  50  80 112 156 210 268 334 410 476
#     4  10  24  47  78 112 148 204 254 327 396 482
#     4  12  27  47  76 111 156 209 244 330 398 478
#     4  11  25  49  74 113 154 210 262 336 392 489
#
# _framework density 24.10407
#
# number of rings (size 3 to 8) (size 9 to 14) (size 15 to 20)
#    0.000    0.800    4.000    1.800    1.400   12.000 
#   14.400    0.000    0.000    0.000    0.000    0.000 
#    0.000    0.000    0.000    0.000    0.000    0.000 
#
# Total GULP energy -111447.969117 kJ/mol
# GULP energy per Si atom -5572.398456 kJ/mol
# Density = 2.404921 g / cm^3
# Si number density = 24.104070 Si / 1000 Ang^3
#
#
#
# Elastic Constant Matrix: (Units=GPa)
#
#
# Indices 1 2 3 4 5 6 
#
# 1 286.6956 53.8000 38.1277 0.0038 0.0031 0.0048
# 2 53.8000 119.4412 31.8728 0.0118 0.0061 0.0014
# 3 38.1277 31.8728 98.9378 0.0303 0.0143 0.0117
# 4 0.0038 0.0118 0.0303 27.6254 0.0118 0.0073
# 5 0.0031 0.0061 0.0143 0.0118 64.3630 -0.0054
# 6 0.0048 0.0014 0.0117 0.0073 -0.0054 38.8242
#
#
#
# Elastic Compliance Matrix: (Units=1/GPa)
#
#
# Indices 1 2 3 4 5 6 
#
# 1 0.003903 -0.001484 -0.001026 0.000001 0.000000 0.000000
# 2 -0.001484 0.009724 -0.002561 -0.000001 0.000000 0.000001
# 3 -0.001026 -0.002561 0.011328 -0.000011 -0.000002 -0.000003
# 4 0.000001 -0.000001 -0.000011 0.036199 -0.000007 -0.000007
# 5 0.000000 0.000000 -0.000002 -0.000007 0.015537 0.000002
# 6 0.000000 0.000001 -0.000003 -0.000007 0.000002 0.025757
#
#
# Mechanical properties :
#
#
# Convention : Reuss Voigt Hill
#
# Bulk Modulus (GPa) = 67.50774 83.63060 75.56917
# Shear Modulus (GPa) = 42.54348 51.58080 47.06214
#
# Velocity S-wave (km/s) = 4.20574 4.63095 4.42345
# Velocity P-wave (km/s) = 7.18693 7.96022 7.58344
#
# Compressibility (1/GPa) = 0.01481312
#
# Stress axis : x y z
#
# Youngs Moduli (GPa) = 256.21390 102.83636 88.27957
#
# Poissons Ratio (x) = 0.15264 0.09057
# Poissons Ratio (y) = 0.38029 0.22605
# Poissons Ratio (z) = 0.26286 0.26333
#
# Static dielectric constant tensor:
#      x y z
#    x 2.042920 0.000030 0.000060 
#    y 0.000030 2.076790 -0.000010 
#    z 0.000060 -0.000010 1.897650 
# 
# From -- ./inp_files/2578.got.cif
#   From: 2010.05.17/outbox.cif.g08.bks.cpg/sg24_2_cif.got.tgz:2578.got - 2010.06.04 00:33:39.
