data_PCOD9336408
_publ_section_title
;
Structure prediction by ZEFSAII (Michael W. Deem and Ramdas Pophale) SiO2 
 PCOD9336408
Probable space group: I 21 21 21
;
_chemical_formula_sum "Si O2"
_cell_formula_units_Z 60
_cell_length_a 20.429815
_cell_length_b 8.844146
_cell_length_c 14.884630
_cell_angle_alpha 90.000000
_cell_angle_beta 90.000000
_cell_angle_gamma 90.000000
_cell_volume 2689.418455
_symmetry_space_group_name_H-M "I 21 21 21"
_symmetry_group_IT_number 24
_symmetry_cell_setting 'orthorhombic'
loop_
_space_group_symop_operation_xyz
x,y,z
-x,1/2-y,z
x,-y,1/2-z
1/2-x,y,-z
1/2+x,1/2+y,1/2+z
1/2-x,-y,1/2+z
1/2+x,1/2-y,-z
-x,1/2+y,1/2-z
loop_
_atom_site_type_symbol
_atom_site_label
_atom_site_fract_x
_atom_site_fract_y
_atom_site_fract_z
Si Si1 0.324297 0.588116 0.964276
Si Si2 0.809565 0.167446 0.778001
Si Si3 0.646452 0.737097 0.589530
Si Si4 0.516266 0.480347 0.148527
Si Si5 0.342707 0.332388 0.733331
Si Si6 0.860771 0.676833 0.896443
Si Si7 0.091127 0.712176 0.581387
Si Si8 0.750000 0.475925 0.000000
O O1 0.340228 0.414915 0.937098
O O2 0.335761 0.685782 0.873017
O O3 0.250000 0.590453 0.000000
O O4 0.362681 0.672883 0.042900
O O5 0.731582 0.167777 0.771312
O O6 0.835509 0.282334 0.703130
O O7 0.836942 0.188732 0.877844
O O8 0.831497 0.000000 0.750000
O O9 0.624559 0.724601 0.692894
O O10 0.592091 0.705357 0.514078
O O11 0.707198 0.629189 0.566341
O O12 0.492005 0.500000 0.250000
O O13 0.567040 0.605773 0.113901
O O14 0.560991 0.330785 0.150699
O O15 0.455597 0.432194 0.086452
O O16 0.370723 0.500000 0.750000
O O17 0.804533 0.572940 0.944603
#
# Coordination Sequence:
#
# PCOD9336408 Si02
#       8
#     8   8   8   8   8   8   8   4
#     4  11  20  38  59  90 132 167 208 272 340 412
#     4  11  20  35  59  90 128 175 207 258 330 400
#     4  11  22  38  59  91 124 171 223 262 327 412
#     4  11  24  42  60  91 129 169 219 277 330 401
#     4   9  20  34  59  90 123 160 213 262 317 397
#     4  12  23  39  61  94 136 167 215 279 335 398
#     4  11  23  39  61  86 128 174 213 262 335 396
#     4  12  22  36  64  94 130 168 214 268 334 396
#
# _framework density 22.309654999999999
#
# number of rings (size 3 to 8) (size 9 to 14) (size 15 to 20)
#    0.000    1.067    5.333    2.000    1.867    0.000 
#    0.000    2.000    0.000    0.000   20.800    0.000 
#    0.000    0.000    0.000    0.000    0.000    0.000 
#
# Total GULP energy -167370.341080 kJ/mol
# GULP energy per Si atom -5579.011369 kJ/mol
# Density = 2.225888 g / cm^3
# Si number density = 22.309655 Si / 1000 Ang^3
#
#
#
# Elastic Constant Matrix: (Units=GPa)
#
#
# Indices 1 2 3 4 5 6 
#
# 1 48.4743 16.1869 0.9177 0.0000 0.0000 0.0000
# 2 16.1869 66.6674 3.4624 0.0000 0.0000 0.0000
# 3 0.9177 3.4624 109.0861 0.0000 0.0000 0.0000
# 4 0.0000 0.0000 0.0000 33.8854 0.0000 0.0000
# 5 0.0000 0.0000 0.0000 0.0000 19.0877 0.0000
# 6 0.0000 0.0000 0.0000 0.0000 0.0000 29.6815
#
#
#
# Elastic Compliance Matrix: (Units=1/GPa)
#
#
# Indices 1 2 3 4 5 6 
#
# 1 0.022450 -0.005450 -0.000016 0.000000 0.000000 0.000000
# 2 -0.005450 0.016348 -0.000473 0.000000 0.000000 0.000000
# 3 -0.000016 -0.000473 0.009182 0.000000 0.000000 0.000000
# 4 0.000000 0.000000 0.000000 0.029511 0.000000 0.000000
# 5 0.000000 0.000000 0.000000 0.000000 0.052390 0.000000
# 6 0.000000 0.000000 0.000000 0.000000 0.000000 0.033691
#
#
# Mechanical properties :
#
#
# Convention : Reuss Voigt Hill
#
# Bulk Modulus (GPa) = 27.69948 29.48467 28.59207
# Shear Modulus (GPa) = 26.66906 30.10832 28.38869
#
# Velocity S-wave (km/s) = 3.46121 3.67763 3.57106
# Velocity P-wave (km/s) = 5.33068 5.59268 5.46325
#
# Compressibility (1/GPa) = 0.03610177
#
# Stress axis : x y z
#
# Youngs Moduli (GPa) = 44.54403 61.17085 108.90612
#
# Poissons Ratio (x) = 0.33338 0.00173
# Poissons Ratio (y) = 0.24276 0.05152
# Poissons Ratio (z) = 0.00071 0.02894
#
# Static dielectric constant tensor:
#      x y z
#    x 1.873540 0.000000 0.000000 
#    y 0.000000 1.904590 0.000000 
#    z 0.000000 0.000000 1.965880 
# 
# From -- ./inp_files/27856.got.cif
#   From: 2010.05.17/outbox.cif.g08.bks.cpg/sg24_14_cif.got.tgz:27856.got - 2010.06.04 00:33:39.
