data_PCOD9336916
_publ_section_title
;
Structure prediction by ZEFSAII (Michael W. Deem and Ramdas Pophale) SiO2 
 PCOD9336916
Probable space group: I 21 21 21
;
_chemical_formula_sum "Si O2"
_cell_formula_units_Z 48
_cell_length_a 26.416776
_cell_length_b 12.367504
_cell_length_c 6.126457
_cell_angle_alpha 90.000000
_cell_angle_beta 90.000000
_cell_angle_gamma 90.000000
_cell_volume 2001.572211
_symmetry_space_group_name_H-M "I 21 21 21"
_symmetry_group_IT_number 24
_symmetry_cell_setting 'orthorhombic'
loop_
_space_group_symop_operation_xyz
x,y,z
-x,1/2-y,z
x,-y,1/2-z
1/2-x,y,-z
1/2+x,1/2+y,1/2+z
1/2-x,-y,1/2+z
1/2+x,1/2-y,-z
-x,1/2+y,1/2-z
loop_
_atom_site_type_symbol
_atom_site_label
_atom_site_fract_x
_atom_site_fract_y
_atom_site_fract_z
Si Si1 0.250000 0.641454 0.000000
Si Si2 0.723098 0.500000 0.750000
Si Si3 0.434627 0.000000 0.750000
Si Si4 0.103300 0.116869 0.639572
Si Si5 0.331974 0.216259 0.659358
Si Si6 0.501926 0.607645 0.377076
Si Si7 0.598296 0.890538 0.602729
Si Si8 0.330727 0.500000 0.250000
O O1 0.280192 0.715402 0.833048
O O2 0.206417 0.570585 0.895347
O O3 0.750000 0.490751 0.500000
O O4 0.687574 0.394620 0.767837
O O5 0.467456 0.935327 0.581325
O O6 0.404986 0.086712 0.611957
O O7 0.150278 0.195587 0.597377
O O8 0.047806 0.154472 0.725700
O O9 0.114730 0.000000 0.750000
O O10 0.373984 0.295438 0.765029
O O11 0.483399 0.500000 0.250000
O O12 0.452447 0.656697 0.488617
O O13 0.587828 0.000000 0.750000
O O14 0.634414 0.930292 0.409671
#
# Coordination Sequence:
#
# PCOD9336916 Si02
#       8
#     4   4   4   8   8   8   8   4
#     4  12  26  48  78 110 154 212 262 348 424 506
#     4  12  31  56  86 121 167 222 288 362 425 512
#     4   8  15  36  69  94 146 193 250 302 387 464
#     4   9  21  42  74 107 153 210 263 336 397 492
#     4  12  27  48  81 116 159 213 283 344 429 505
#     4   9  18  38  76 104 151 205 252 323 400 491
#     4  12  24  45  80 119 158 207 268 337 421 519
#     4  12  26  50  77 115 163 201 266 342 428 510
#
# _framework density 23.981151000000001
#
# number of rings (size 3 to 8) (size 9 to 14) (size 15 to 20)
#    0.000    1.667    4.167    1.500    3.500    0.000 
#    6.000    0.833   11.000    0.000    0.000    0.000 
#    0.000    0.000    0.000    0.000    0.000    0.000 
#
# Total GULP energy -133742.764888 kJ/mol
# GULP energy per Si atom -5572.615204 kJ/mol
# Density = 2.392657 g / cm^3
# Si number density = 23.981151 Si / 1000 Ang^3
#
#
#
# Elastic Constant Matrix: (Units=GPa)
#
#
# Indices 1 2 3 4 5 6 
#
# 1 108.4659 6.9874 33.5411 0.0000 0.0000 0.0000
# 2 6.9874 102.0487 28.1108 0.0000 0.0000 0.0000
# 3 33.5411 28.1108 103.7258 0.0000 0.0000 0.0000
# 4 0.0000 0.0000 0.0000 44.2653 0.0000 0.0000
# 5 0.0000 0.0000 0.0000 0.0000 19.0568 0.0000
# 6 0.0000 0.0000 0.0000 0.0000 0.0000 -11.7266
#
#
#
# Elastic Compliance Matrix: (Units=1/GPa)
#
#
# Indices 1 2 3 4 5 6 
#
# 1 0.010249 0.000228 -0.003376 0.000000 0.000000 0.000000
# 2 0.000228 0.010595 -0.002945 0.000000 0.000000 0.000000
# 3 -0.003376 -0.002945 0.011531 0.000000 0.000000 0.000000
# 4 0.000000 0.000000 0.000000 0.022591 0.000000 0.000000
# 5 0.000000 0.000000 0.000000 0.000000 0.052475 0.000000
# 6 0.000000 0.000000 0.000000 0.000000 0.000000 -0.085276
#
#
# Mechanical properties :
#
#
# Convention : Reuss Voigt Hill
#
# Bulk Modulus (GPa) = 49.53299 50.16879 49.85089
# Shear Modulus (GPa) = 121.71651 26.69250 74.20450
#
# Velocity S-wave (km/s) = 7.13199 3.33988 5.56866
# Velocity P-wave (km/s) = 9.40851 5.98653 7.88539
#
# Compressibility (1/GPa) = 0.02018856
#
# Stress axis : x y z
#
# Youngs Moduli (GPa) = 97.57316 94.38505 86.72573
#
# Poissons Ratio (x) = -0.02154 0.29278
# Poissons Ratio (y) = -0.02227 0.25542
# Poissons Ratio (z) = 0.32940 0.27798
#
# Static dielectric constant tensor:
#      x y z
#    x 2.006090 0.000000 0.000000 
#    y 0.000000 2.277670 0.000000 
#    z 0.000000 0.000000 1.878690 
# 
# From -- ./inp_files/7168.got.cif
#   From: 2010.05.17/outbox.cif.g08.bks.cpg/sg24_4_cif.got.tgz:7168.got - 2010.06.04 00:33:39.
