data_PCOD9336225
_publ_section_title
;
Structure prediction by ZEFSAII (Michael W. Deem and Ramdas Pophale) SiO2 
 PCOD9336225
Probable space group: I 21 21 21
;
_chemical_formula_sum "Si O2"
_cell_formula_units_Z 32
_cell_length_a 8.586147
_cell_length_b 5.692875
_cell_length_c 29.775636
_cell_angle_alpha 90.000000
_cell_angle_beta 90.000000
_cell_angle_gamma 90.000000
_cell_volume 1455.428967
_symmetry_space_group_name_H-M "I 21 21 21"
_symmetry_group_IT_number 24
_symmetry_cell_setting 'orthorhombic'
loop_
_space_group_symop_operation_xyz
x,y,z
-x,1/2-y,z
x,-y,1/2-z
1/2-x,y,-z
1/2+x,1/2+y,1/2+z
1/2-x,-y,1/2+z
1/2+x,1/2-y,-z
-x,1/2+y,1/2-z
loop_
_atom_site_type_symbol
_atom_site_label
_atom_site_fract_x
_atom_site_fract_y
_atom_site_fract_z
Si Si1 0.403676 0.500000 0.250000
Si Si2 0.750000 0.069491 0.500000
Si Si3 0.500000 0.250000 0.887209
Si Si4 0.332977 0.628129 0.829734
Si Si5 0.500000 0.750000 0.456088
Si Si6 0.250296 0.088079 0.583834
O O1 0.500000 0.750000 0.258015
O O2 0.287593 0.565800 0.209066
O O3 0.731689 0.227801 0.543932
O O4 0.607549 0.905034 0.487636
O O5 0.382995 0.392931 0.855635
O O6 0.597433 0.428270 0.916359
O O7 0.500000 0.750000 0.815919
O O8 0.252249 0.791271 0.867437
O O9 0.602584 0.574851 0.425933
#
# Coordination Sequence:
#
# PCOD9336225 Si02
#       6
#     4   4   4   8   4   8
#     4  12  32  52  82 126 166 204 264 342 406 482
#     4  12  28  46  68 106 148 196 252 308 380 460
#     4  10  24  47  78 106 146 194 258 310 378 463
#     4  10  26  50  81 110 153 205 261 314 396 481
#     4  12  28  45  70 100 154 196 252 312 382 457
#     4  11  26  47  72 110 142 200 250 315 374 465
#
# _framework density 21.986644999999999
#
# number of rings (size 3 to 8) (size 9 to 14) (size 15 to 20)
#    0.000    1.000    0.000    3.000    8.750   23.000 
#    2.250    0.000    0.000    0.000    0.000    0.000 
#    0.000    0.000    0.000    0.000    0.000    0.000 
#
# Total GULP energy -89581.951504 kJ/mol
# GULP energy per Si atom -5598.871969 kJ/mol
# Density = 2.193660 g / cm^3
# Si number density = 21.986645 Si / 1000 Ang^3
#
#
#
# Elastic Constant Matrix: (Units=GPa)
#
#
# Indices 1 2 3 4 5 6 
#
# 1 153.5789 106.5298 134.2540 0.0000 0.0000 0.0000
# 2 106.5298 177.3150 104.8459 0.0000 0.0000 0.0000
# 3 134.2540 104.8459 150.5768 0.0000 0.0000 0.0000
# 4 0.0000 0.0000 0.0000 -11.7362 0.0000 0.0000
# 5 0.0000 0.0000 0.0000 0.0000 57.8991 0.0000
# 6 0.0000 0.0000 0.0000 0.0000 0.0000 36.2361
#
#
#
# Elastic Compliance Matrix: (Units=1/GPa)
#
#
# Indices 1 2 3 4 5 6 
#
# 1 0.031012 -0.003880 -0.024949 0.000000 0.000000 0.000000
# 2 -0.003880 0.010072 -0.003554 0.000000 0.000000 0.000000
# 3 -0.024949 -0.003554 0.031360 0.000000 0.000000 0.000000
# 4 0.000000 0.000000 0.000000 -0.085206 0.000000 0.000000
# 5 0.000000 0.000000 0.000000 0.000000 0.017271 0.000000
# 6 0.000000 0.000000 0.000000 0.000000 0.000000 0.027597
#
#
# Mechanical properties :
#
#
# Convention : Reuss Voigt Hill
#
# Bulk Modulus (GPa) = 130.22344 130.30334 130.26339
# Shear Modulus (GPa) = 50.28641 25.53585 37.91113
#
# Velocity S-wave (km/s) = 4.78759 3.41167 4.15695
# Velocity P-wave (km/s) = 9.48253 8.65521 9.07830
#
# Compressibility (1/GPa) = 0.00767911
#
# Stress axis : x y z
#
# Youngs Moduli (GPa) = 32.24572 99.28489 31.88766
#
# Poissons Ratio (x) = 0.38519 0.79556
# Poissons Ratio (y) = 0.12510 0.11333
# Poissons Ratio (z) = 0.80449 0.35286
#
# Static dielectric constant tensor:
#      x y z
#    x 1.817180 0.000000 0.000000 
#    y 0.000000 1.802020 0.000000 
#    z 0.000000 0.000000 1.747060 
# 
# From -- ./inp_files/1230.got.cif
#   From: 2010.05.17/outbox.cif.g08.bks.cpg/sg24_1_cif.got.tgz:1230.got - 2010.06.04 00:33:39.
