data_PCOD9336045
_publ_section_title
;
Structure prediction by ZEFSAII (Michael W. Deem and Ramdas Pophale) SiO2 
 PCOD9336045
Probable space group: I 21 21 21
;
_chemical_formula_sum "Si O2"
_cell_formula_units_Z 32
_cell_length_a 5.102424
_cell_length_b 13.762448
_cell_length_c 20.518053
_cell_angle_alpha 90.000000
_cell_angle_beta 90.000000
_cell_angle_gamma 90.000000
_cell_volume 1440.815537
_symmetry_space_group_name_H-M "I 21 21 21"
_symmetry_group_IT_number 24
_symmetry_cell_setting 'orthorhombic'
loop_
_space_group_symop_operation_xyz
x,y,z
-x,1/2-y,z
x,-y,1/2-z
1/2-x,y,-z
1/2+x,1/2+y,1/2+z
1/2-x,-y,1/2+z
1/2+x,1/2-y,-z
-x,1/2+y,1/2-z
loop_
_atom_site_type_symbol
_atom_site_label
_atom_site_fract_x
_atom_site_fract_y
_atom_site_fract_z
Si Si1 0.250000 0.817649 0.000000
Si Si2 0.275255 0.969877 0.115639
Si Si3 0.738268 0.686330 0.219418
Si Si4 0.279184 0.412662 0.922050
Si Si5 0.000000 0.250000 0.846210
O O1 0.500000 0.750000 0.007350
O O2 0.278797 0.886441 0.937675
O O3 0.239380 0.916380 0.184402
O O4 0.566867 0.009777 0.104616
O O5 0.065446 0.053009 0.099266
O O6 0.500000 0.750000 0.188692
O O7 0.652806 0.680409 0.295051
O O8 0.000000 0.750000 0.214316
O O9 0.195850 0.311381 0.889993
O O10 0.250000 0.408936 0.000000
#
# Coordination Sequence:
#
# PCOD9336045 Si02
#       5
#     4   8   8   8   4
#     4  12  22  38  72 106 146 188 224 298 360 432
#     4  12  24  45  72 109 146 186 244 299 369 437
#     4  10  23  47  70 105 143 188 241 289 369 441
#     4  12  26  48  73 105 147 191 248 307 364 433
#     4  10  30  48  74 102 146 196 252 300 364 438
#
# _framework density 22.209644000000001
#
# number of rings (size 3 to 8) (size 9 to 14) (size 15 to 20)
#    0.750    0.000    2.500    4.500    3.500    3.000 
#    0.000    0.000    0.000    0.000    0.000    0.000 
#    0.000    0.000    0.000    0.000    0.000    0.000 
#
# Total GULP energy -89581.814033 kJ/mol
# GULP energy per Si atom -5598.863377 kJ/mol
# Density = 2.215909 g / cm^3
# Si number density = 22.209644 Si / 1000 Ang^3
#
#
#
# Elastic Constant Matrix: (Units=GPa)
#
#
# Indices 1 2 3 4 5 6 
#
# 1 86.1306 -8.5530 13.5789 0.0000 0.0000 0.0000
# 2 -8.5530 57.7638 38.6148 0.0000 0.0000 0.0000
# 3 13.5789 38.6148 98.7320 0.0000 0.0000 0.0000
# 4 0.0000 0.0000 0.0000 40.7399 0.0000 0.0000
# 5 0.0000 0.0000 0.0000 0.0000 16.2388 0.0000
# 6 0.0000 0.0000 0.0000 0.0000 0.0000 54.1666
#
#
#
# Elastic Compliance Matrix: (Units=1/GPa)
#
#
# Indices 1 2 3 4 5 6 
#
# 1 0.012538 0.004075 -0.003318 0.000000 0.000000 0.000000
# 2 0.004075 0.024765 -0.010246 0.000000 0.000000 0.000000
# 3 -0.003318 -0.010246 0.014592 0.000000 0.000000 0.000000
# 4 0.000000 0.000000 0.000000 0.024546 0.000000 0.000000
# 5 0.000000 0.000000 0.000000 0.000000 0.061581 0.000000
# 6 0.000000 0.000000 0.000000 0.000000 0.000000 0.018462
#
#
# Mechanical properties :
#
#
# Convention : Reuss Voigt Hill
#
# Bulk Modulus (GPa) = 30.38063 36.65644 33.51853
# Shear Modulus (GPa) = 26.81918 35.49477 31.15697
#
# Velocity S-wave (km/s) = 3.47875 4.00205 3.74954
# Velocity P-wave (km/s) = 5.46299 6.15595 5.81980
#
# Compressibility (1/GPa) = 0.03291571
#
# Stress axis : x y z
#
# Youngs Moduli (GPa) = 79.75774 40.38027 68.53052
#
# Poissons Ratio (x) = -0.16453 0.22738
# Poissons Ratio (y) = -0.32497 0.70216
# Poissons Ratio (z) = 0.26463 0.41374
#
# Static dielectric constant tensor:
#      x y z
#    x 1.760240 0.000000 0.000000 
#    y 0.000000 1.803000 0.000000 
#    z 0.000000 0.000000 1.820640 
# 
# From -- ./inp_files/31910.got.cif
#   From: 2010.05.17/outbox.cif.g08.bks.cpg/sg24_16_cif.got.tgz:31910.got - 2010.06.04 00:33:39.
