data_PCOD9336869
_publ_section_title
;
Structure prediction by ZEFSAII (Michael W. Deem and Ramdas Pophale) SiO2 
 PCOD9336869
Probable space group: I 21 21 21
;
_chemical_formula_sum "Si O2"
_cell_formula_units_Z 52
_cell_length_a 7.684695
_cell_length_b 19.594709
_cell_length_c 18.120372
_cell_angle_alpha 90.000000
_cell_angle_beta 90.000000
_cell_angle_gamma 90.000000
_cell_volume 2728.554060
_symmetry_space_group_name_H-M "I 21 21 21"
_symmetry_group_IT_number 24
_symmetry_cell_setting 'orthorhombic'
loop_
_space_group_symop_operation_xyz
x,y,z
-x,1/2-y,z
x,-y,1/2-z
1/2-x,y,-z
1/2+x,1/2+y,1/2+z
1/2-x,-y,1/2+z
1/2+x,1/2-y,-z
-x,1/2+y,1/2-z
loop_
_atom_site_type_symbol
_atom_site_label
_atom_site_fract_x
_atom_site_fract_y
_atom_site_fract_z
Si Si1 0.000000 0.750000 0.193843
Si Si2 0.554840 0.521454 0.590079
Si Si3 0.751333 0.936340 0.306766
Si Si4 0.347270 0.705142 0.230065
Si Si5 0.037707 0.018756 0.918533
Si Si6 0.052700 0.140550 0.419608
Si Si7 0.969920 0.355614 0.585007
O O1 0.181300 0.755348 0.234137
O O2 0.965910 0.814774 0.142338
O O3 0.432680 0.558688 0.648530
O O4 0.514573 0.538075 0.504482
O O5 0.760783 0.532082 0.601776
O O6 0.524253 0.439511 0.593727
O O7 0.713770 0.865052 0.267114
O O8 0.598058 0.945680 0.365928
O O9 0.746433 0.000000 0.250000
O O10 0.500000 0.750000 0.265926
O O11 0.427153 0.682739 0.149476
O O12 0.006115 0.937328 0.909775
O O13 0.984137 0.161595 0.500313
O O14 0.260295 0.154585 0.412703
#
# Coordination Sequence:
#
# PCOD9336869 Si02
#       7
#     4   8   8   8   8   8   8
#     4  12  24  36  54  80 116 176 210 244 294 362
#     4   9  20  39  61  94 123 149 205 267 309 369
#     4  12  23  37  62  93 124 170 207 254 316 372
#     4  12  26  41  55  83 133 167 214 247 304 373
#     4   9  19  39  65  92 121 154 201 265 319 358
#     4   9  19  33  59  84 118 161 204 244 299 355
#     4   9  18  37  56  85 123 160 198 248 296 365
#
# _framework density 19.057714000000001
#
# number of rings (size 3 to 8) (size 9 to 14) (size 15 to 20)
#    0.000    1.846    3.077    3.231    1.077    2.462 
#    0.000    0.000    0.000    0.000   16.000    0.000 
#    0.000    0.000    0.000    0.000    0.000    0.000 
#
# Total GULP energy -145090.970290 kJ/mol
# GULP energy per Si atom -5580.421934 kJ/mol
# Density = 1.901434 g / cm^3
# Si number density = 19.057714 Si / 1000 Ang^3
#
#
#
# Elastic Constant Matrix: (Units=GPa)
#
#
# Indices 1 2 3 4 5 6 
#
# 1 102.8008 38.6732 65.5986 0.0000 0.0000 0.0000
# 2 38.6732 64.7281 37.1891 0.0000 0.0000 0.0000
# 3 65.5986 37.1891 51.1802 0.0000 0.0000 0.0000
# 4 0.0000 0.0000 0.0000 26.4949 0.0000 0.0000
# 5 0.0000 0.0000 0.0000 0.0000 26.1121 0.0000
# 6 0.0000 0.0000 0.0000 0.0000 0.0000 29.3521
#
#
#
# Elastic Compliance Matrix: (Units=1/GPa)
#
#
# Indices 1 2 3 4 5 6 
#
# 1 0.060325 0.014387 -0.087774 0.000000 0.000000 0.000000
# 2 0.014387 0.029953 -0.040205 0.000000 0.000000 0.000000
# 3 -0.087774 -0.040205 0.161254 0.000000 0.000000 0.000000
# 4 0.000000 0.000000 0.000000 0.037743 0.000000 0.000000
# 5 0.000000 0.000000 0.000000 0.000000 0.038296 0.000000
# 6 0.000000 0.000000 0.000000 0.000000 0.000000 0.034069
#
#
# Mechanical properties :
#
#
# Convention : Reuss Voigt Hill
#
# Bulk Modulus (GPa) = 41.06961 55.73677 48.40319
# Shear Modulus (GPa) = 8.37605 21.54168 14.95887
#
# Velocity S-wave (km/s) = 2.09872 3.36570 2.80469
# Velocity P-wave (km/s) = 5.24116 6.66436 5.99514
#
# Compressibility (1/GPa) = 0.02434891
#
# Stress axis : x y z
#
# Youngs Moduli (GPa) = 16.57697 33.38583 6.20138
#
# Poissons Ratio (x) = -0.48034 0.54432
# Poissons Ratio (y) = -0.23850 0.24933
# Poissons Ratio (z) = 1.45502 1.34229
#
# Static dielectric constant tensor:
#      x y z
#    x 1.701180 0.000000 0.000000 
#    y 0.000000 1.656340 0.000000 
#    z 0.000000 0.000000 1.667540 
# 
# From -- ./inp_files/29642.got.cif
#   From: 2010.05.17/outbox.cif.g08.bks.cpg/sg24_15_cif.got.tgz:29642.got - 2010.06.04 00:33:39.
