data_PCOD9336891
_publ_section_title
;
Structure prediction by ZEFSAII (Michael W. Deem and Ramdas Pophale) SiO2 
 PCOD9336891
Probable space group: I 21 21 21
;
_chemical_formula_sum "Si O2"
_cell_formula_units_Z 24
_cell_length_a 7.727692
_cell_length_b 14.267733
_cell_length_c 9.211970
_cell_angle_alpha 90.000000
_cell_angle_beta 90.000000
_cell_angle_gamma 90.000000
_cell_volume 1015.680917
_symmetry_space_group_name_H-M "I 21 21 21"
_symmetry_group_IT_number 24
_symmetry_cell_setting 'orthorhombic'
loop_
_space_group_symop_operation_xyz
x,y,z
-x,1/2-y,z
x,-y,1/2-z
1/2-x,y,-z
1/2+x,1/2+y,1/2+z
1/2-x,-y,1/2+z
1/2+x,1/2-y,-z
-x,1/2+y,1/2-z
loop_
_atom_site_type_symbol
_atom_site_label
_atom_site_fract_x
_atom_site_fract_y
_atom_site_fract_z
Si Si1 0.061353 0.000000 0.250000
Si Si2 0.649159 0.825741 0.850522
Si Si3 0.750000 0.394038 0.000000
Si Si4 0.385003 0.410641 0.132548
O O1 0.181332 0.950459 0.363689
O O2 0.947155 0.924883 0.164466
O O3 0.500000 0.750000 0.831099
O O4 0.788347 0.830094 0.723169
O O5 0.750000 0.812963 0.000000
O O6 0.940338 0.366180 0.935394
O O7 0.410512 0.500000 0.250000
O O8 0.250000 0.434679 0.000000
#
# Coordination Sequence:
#
# PCOD9336891 Si02
#       4
#     4   8   4   8
#     4  12  26  48  80 118 154 226 262 332 416 480
#     4  12  29  52  81 119 167 217 278 342 407 489
#     4  12  24  40  84 112 156 212 272 318 406 488
#     4  12  23  47  80 119 160 213 271 335 405 486
#
# _framework density 23.629467999999999
#
# number of rings (size 3 to 8) (size 9 to 14) (size 15 to 20)
#    0.000    0.000    6.667    3.000    2.333    0.000 
#    3.000    1.667    0.000    0.000    0.000    0.000 
#    0.000    0.000    0.000    0.000    0.000    0.000 
#
# Total GULP energy -66923.669843 kJ/mol
# GULP energy per Si atom -5576.972487 kJ/mol
# Density = 2.357569 g / cm^3
# Si number density = 23.629468 Si / 1000 Ang^3
#
#
#
# Elastic Constant Matrix: (Units=GPa)
#
#
# Indices 1 2 3 4 5 6 
#
# 1 230.3830 63.5924 86.4691 0.0000 0.0000 0.0000
# 2 63.5924 87.3648 31.7433 0.0000 0.0000 0.0000
# 3 86.4691 31.7433 169.2012 0.0000 0.0000 0.0000
# 4 0.0000 0.0000 0.0000 12.0057 0.0000 0.0000
# 5 0.0000 0.0000 0.0000 0.0000 68.7788 0.0000
# 6 0.0000 0.0000 0.0000 0.0000 0.0000 61.2130
#
#
#
# Elastic Compliance Matrix: (Units=1/GPa)
#
#
# Indices 1 2 3 4 5 6 
#
# 1 0.006304 -0.003668 -0.002533 0.000000 0.000000 0.000000
# 2 -0.003668 0.014418 -0.000830 0.000000 0.000000 0.000000
# 3 -0.002533 -0.000830 0.007361 0.000000 0.000000 0.000000
# 4 0.000000 0.000000 0.000000 0.083294 0.000000 0.000000
# 5 0.000000 0.000000 0.000000 0.000000 0.014539 0.000000
# 6 0.000000 0.000000 0.000000 0.000000 0.000000 0.016336
#
#
# Mechanical properties :
#
#
# Convention : Reuss Voigt Hill
#
# Bulk Modulus (GPa) = 71.33313 94.50650 82.91981
# Shear Modulus (GPa) = 31.05811 48.74247 39.90029
#
# Velocity S-wave (km/s) = 3.62937 4.54671 4.11369
# Velocity P-wave (km/s) = 6.91497 8.22469 7.59810
#
# Compressibility (1/GPa) = 0.01401873
#
# Stress axis : x y z
#
# Youngs Moduli (GPa) = 158.63012 69.35795 135.85858
#
# Poissons Ratio (x) = 0.25441 0.34419
# Poissons Ratio (y) = 0.58187 0.11281
# Poissons Ratio (z) = 0.40188 0.05759
#
# Static dielectric constant tensor:
#      x y z
#    x 1.941350 0.000000 0.000000 
#    y 0.000000 2.031960 0.000000 
#    z 0.000000 0.000000 1.909000 
# 
# From -- ./inp_files/8618.got.cif
#   From: 2010.05.17/outbox.cif.g08.bks.cpg/sg24_5_cif.got.tgz:8618.got - 2010.06.04 00:33:39.
