data_PCOD9336862
_publ_section_title
;
Structure prediction by ZEFSAII (Michael W. Deem and Ramdas Pophale) SiO2 
 PCOD9336862
Probable space group: I 21 21 21
;
_chemical_formula_sum "Si O2"
_cell_formula_units_Z 32
_cell_length_a 15.538204
_cell_length_b 12.530251
_cell_length_c 6.926326
_cell_angle_alpha 90.000000
_cell_angle_beta 90.000000
_cell_angle_gamma 90.000000
_cell_volume 1348.539023
_symmetry_space_group_name_H-M "I 21 21 21"
_symmetry_group_IT_number 24
_symmetry_cell_setting 'orthorhombic'
loop_
_space_group_symop_operation_xyz
x,y,z
-x,1/2-y,z
x,-y,1/2-z
1/2-x,y,-z
1/2+x,1/2+y,1/2+z
1/2-x,-y,1/2+z
1/2+x,1/2-y,-z
-x,1/2+y,1/2-z
loop_
_atom_site_type_symbol
_atom_site_label
_atom_site_fract_x
_atom_site_fract_y
_atom_site_fract_z
Si Si1 0.500000 0.750000 0.874326
Si Si2 0.243409 0.886115 0.226876
Si Si3 0.119136 0.729724 0.765385
Si Si4 0.541497 0.000000 0.250000
Si Si5 0.561609 0.604348 0.554042
O O1 0.502774 0.651067 0.725233
O O2 0.418581 0.751955 0.019394
O O3 0.285295 0.772234 0.276409
O O4 0.344352 0.903217 0.653858
O O5 0.293110 0.000000 0.250000
O O6 0.250000 0.878726 0.000000
O O7 0.099230 0.605943 0.735586
O O8 0.071466 0.809870 0.617881
O O9 0.480981 0.994767 0.441276
#
# Coordination Sequence:
#
# PCOD9336862 Si02
#       5
#     4   8   8   4   8
#     4  12  22  46  78 108 160 204 266 338 402 484
#     4  12  28  48  78 113 158 210 267 341 413 481
#     4  12  26  49  72 113 160 205 261 335 415 485
#     4  12  26  48  82 118 156 210 268 342 410 492
#     4  12  26  49  77 116 156 206 276 339 401 489
#
# _framework density 23.729381
#
# number of rings (size 3 to 8) (size 9 to 14) (size 15 to 20)
#    0.000    0.000    7.500    2.250    8.750    0.000 
#    0.000    2.500    0.000    0.000    0.000    0.000 
#    0.000    0.000    0.000    0.000    0.000    0.000 
#
# Total GULP energy -89220.068365 kJ/mol
# GULP energy per Si atom -5576.254273 kJ/mol
# Density = 2.367537 g / cm^3
# Si number density = 23.729381 Si / 1000 Ang^3
#
#
#
# Elastic Constant Matrix: (Units=GPa)
#
#
# Indices 1 2 3 4 5 6 
#
# 1 101.5306 61.1907 34.0402 0.0000 0.0000 0.0000
# 2 61.1907 169.0288 52.7073 0.0000 0.0000 0.0000
# 3 34.0402 52.7073 176.2942 0.0000 0.0000 0.0000
# 4 0.0000 0.0000 0.0000 59.4594 0.0000 0.0000
# 5 0.0000 0.0000 0.0000 0.0000 18.1148 0.0000
# 6 0.0000 0.0000 0.0000 0.0000 0.0000 34.1601
#
#
#
# Elastic Compliance Matrix: (Units=1/GPa)
#
#
# Indices 1 2 3 4 5 6 
#
# 1 0.012824 -0.004268 -0.001200 0.000000 0.000000 0.000000
# 2 -0.004268 0.007945 -0.001551 0.000000 0.000000 0.000000
# 3 -0.001200 -0.001551 0.006368 0.000000 0.000000 0.000000
# 4 0.000000 0.000000 0.000000 0.016818 0.000000 0.000000
# 5 0.000000 0.000000 0.000000 0.000000 0.055204 0.000000
# 6 0.000000 0.000000 0.000000 0.000000 0.000000 0.029274
#
#
# Mechanical properties :
#
#
# Convention : Reuss Voigt Hill
#
# Bulk Modulus (GPa) = 76.34868 82.52555 79.43711
# Shear Modulus (GPa) = 34.05126 42.27455 38.16291
#
# Velocity S-wave (km/s) = 3.79223 4.22539 4.01466
# Velocity P-wave (km/s) = 7.17072 7.65889 7.41882
#
# Compressibility (1/GPa) = 0.01309780
#
# Stress axis : x y z
#
# Youngs Moduli (GPa) = 77.97892 125.86511 157.03959
#
# Poissons Ratio (x) = 0.53722 0.18846
# Poissons Ratio (y) = 0.33283 0.24360
# Poissons Ratio (z) = 0.09358 0.19524
#
# Static dielectric constant tensor:
#      x y z
#    x 2.109380 0.000000 0.000000 
#    y 0.000000 1.949770 0.000000 
#    z 0.000000 0.000000 1.969950 
# 
# From -- ./inp_files/5356.got.cif
#   From: 2010.05.17/outbox.cif.g08.bks.cpg/sg24_3_cif.got.tgz:5356.got - 2010.06.04 00:33:39.
