data_PCOD9336977
_publ_section_title
;
Structure prediction by ZEFSAII (Michael W. Deem and Ramdas Pophale) SiO2 
 PCOD9336977
Probable space group: I 21 21 21
;
_chemical_formula_sum "Si O2"
_cell_formula_units_Z 24
_cell_length_a 4.749883
_cell_length_b 23.710735
_cell_length_c 9.013299
_cell_angle_alpha 90.000000
_cell_angle_beta 90.000000
_cell_angle_gamma 90.000000
_cell_volume 1015.106730
_symmetry_space_group_name_H-M "I 21 21 21"
_symmetry_group_IT_number 24
_symmetry_cell_setting 'orthorhombic'
loop_
_space_group_symop_operation_xyz
x,y,z
-x,1/2-y,z
x,-y,1/2-z
1/2-x,y,-z
1/2+x,1/2+y,1/2+z
1/2-x,-y,1/2+z
1/2+x,1/2-y,-z
-x,1/2+y,1/2-z
loop_
_atom_site_type_symbol
_atom_site_label
_atom_site_fract_x
_atom_site_fract_y
_atom_site_fract_z
Si Si1 0.750000 0.208377 0.000000
Si Si2 0.385635 0.944475 0.836189
Si Si3 0.412396 0.631544 0.224930
Si Si4 0.750000 0.288558 0.500000
O O1 0.500000 0.250000 0.956411
O O2 0.830469 0.168524 0.864601
O O3 0.135355 0.917372 0.739395
O O4 0.638606 0.899342 0.841414
O O5 0.484752 0.000000 0.750000
O O6 0.250000 0.954191 0.000000
O O7 0.000000 0.750000 0.068050
O O8 0.582470 0.672805 0.115182
#
# Coordination Sequence:
#
# PCOD9336977 Si02
#       4
#     4   8   8   4
#     4  12  28  52  76 114 160 214 260 320 398 476
#     4  12  28  50  81 116 152 207 264 332 403 474
#     4  12  27  50  79 115 159 201 268 327 392 479
#     4  12  26  48  80 118 154 210 262 328 398 468
#
# _framework density 23.642831999999999
#
# number of rings (size 3 to 8) (size 9 to 14) (size 15 to 20)
#    0.000    0.000    1.667    7.000    4.667    2.667 
#    0.000    0.000    0.000    0.000    0.000    0.000 
#    0.000    0.000    0.000    0.000    0.000    0.000 
#
# Total GULP energy -67285.492152 kJ/mol
# GULP energy per Si atom -5607.124346 kJ/mol
# Density = 2.358902 g / cm^3
# Si number density = 23.642832 Si / 1000 Ang^3
#
#
#
# Elastic Constant Matrix: (Units=GPa)
#
#
# Indices 1 2 3 4 5 6 
#
# 1 172.4621 69.8279 68.6390 0.0000 0.0000 0.0000
# 2 69.8279 144.7754 101.8752 -0.0001 0.0000 -0.0001
# 3 68.6390 101.8752 170.6944 -0.0002 0.0000 -0.0003
# 4 0.0000 -0.0001 -0.0002 27.5508 0.0000 -0.0004
# 5 0.0000 0.0000 0.0000 0.0000 35.6359 0.0000
# 6 0.0000 -0.0001 -0.0003 -0.0004 0.0000 74.0842
#
#
#
# Elastic Compliance Matrix: (Units=1/GPa)
#
#
# Indices 1 2 3 4 5 6 
#
# 1 0.007411 -0.002547 -0.001460 0.000000 0.000000 0.000000
# 2 -0.002547 0.012784 -0.006606 0.000000 0.000000 0.000000
# 3 -0.001460 -0.006606 0.010388 0.000000 0.000000 0.000000
# 4 0.000000 0.000000 0.000000 0.036297 0.000000 0.000000
# 5 0.000000 0.000000 0.000000 0.000000 0.028062 0.000000
# 6 0.000000 0.000000 0.000000 0.000000 0.000000 0.013498
#
#
# Mechanical properties :
#
#
# Convention : Reuss Voigt Hill
#
# Bulk Modulus (GPa) = 106.86588 107.62400 107.24494
# Shear Modulus (GPa) = 37.65547 43.96017 40.80782
#
# Velocity S-wave (km/s) = 3.99517 4.31669 4.15904
# Velocity P-wave (km/s) = 8.15966 8.39432 8.27782
#
# Compressibility (1/GPa) = 0.00935752
#
# Stress axis : x y z
#
# Youngs Moduli (GPa) = 134.94112 78.22298 96.26650
#
# Poissons Ratio (x) = 0.19924 0.14053
# Poissons Ratio (y) = 0.34371 0.63590
# Poissons Ratio (z) = 0.19698 0.51671
#
# Static dielectric constant tensor:
#      x y z
#    x 2.001120 0.000000 0.000000 
#    y 0.000000 1.916490 0.000000 
#    z 0.000000 0.000000 1.880050 
# 
# From -- ./inp_files/17297.got.cif
#   From: 2010.05.17/outbox.cif.g08.bks.cpg/sg24_9_cif.got.tgz:17297.got - 2010.06.04 00:33:39.
