data_PCOD9336026
_publ_section_title
;
Structure prediction by ZEFSAII (Michael W. Deem and Ramdas Pophale) SiO2 
 PCOD9336026
Probable space group: I 21 21 21
;
_chemical_formula_sum "Si O2"
_cell_formula_units_Z 20
_cell_length_a 13.668623
_cell_length_b 5.158068
_cell_length_c 13.605818
_cell_angle_alpha 90.000000
_cell_angle_beta 90.000000
_cell_angle_gamma 90.000000
_cell_volume 959.260332
_symmetry_space_group_name_H-M "I 21 21 21"
_symmetry_group_IT_number 24
_symmetry_cell_setting 'orthorhombic'
loop_
_space_group_symop_operation_xyz
x,y,z
-x,1/2-y,z
x,-y,1/2-z
1/2-x,y,-z
1/2+x,1/2+y,1/2+z
1/2-x,-y,1/2+z
1/2+x,1/2-y,-z
-x,1/2+y,1/2-z
loop_
_atom_site_type_symbol
_atom_site_label
_atom_site_fract_x
_atom_site_fract_y
_atom_site_fract_z
Si Si1 0.500000 0.750000 0.987840
Si Si2 0.000000 0.750000 0.624703
Si Si3 0.662545 0.000000 0.250000
Si Si4 0.648954 0.762260 0.813356
O O1 0.593110 0.748558 0.915305
O O2 0.506684 0.500352 0.056385
O O3 0.093626 0.699190 0.693208
O O4 0.737558 0.151416 0.321536
O O5 0.643387 0.500000 0.750000
O O6 0.603425 0.000000 0.750000
#
# Coordination Sequence:
#
# PCOD9336026 Si02
#       4
#     4   4   4   8
#     4  12  25  45  74 108 136 172 248 299 345 400
#     4  12  27  45  70 102 142 188 232 297 335 430
#     4  10  28  48  68  94 146 196 224 272 376 406
#     4  10  23  45  74 100 138 188 225 288 355 432
#
# _framework density 20.849399999999999
#
# number of rings (size 3 to 8) (size 9 to 14) (size 15 to 20)
#    1.200    0.000    0.000    4.800    8.400    1.600 
#    0.000    0.000    0.000    0.000    0.000    0.000 
#    0.000    0.000    0.000    0.000    0.000    0.000 
#
# Total GULP energy -55887.749223 kJ/mol
# GULP energy per Si atom -5588.774922 kJ/mol
# Density = 2.080195 g / cm^3
# Si number density = 20.849400 Si / 1000 Ang^3
#
#
#
# Elastic Constant Matrix: (Units=GPa)
#
#
# Indices 1 2 3 4 5 6 
#
# 1 180.3839 53.4850 82.4834 0.0000 0.0000 0.0000
# 2 53.4850 175.4057 58.1612 0.0000 0.0000 0.0000
# 3 82.4834 58.1612 105.2238 0.0000 0.0000 0.0000
# 4 0.0000 0.0000 0.0000 63.4502 0.0000 0.0000
# 5 0.0000 0.0000 0.0000 0.0000 -4.4498 0.0000
# 6 0.0000 0.0000 0.0000 0.0000 0.0000 -92.1350
#
#
#
# Elastic Compliance Matrix: (Units=1/GPa)
#
#
# Indices 1 2 3 4 5 6 
#
# 1 0.008674 -0.000478 -0.006535 0.000000 0.000000 0.000000
# 2 -0.000478 0.007007 -0.003498 0.000000 0.000000 0.000000
# 3 -0.006535 -0.003498 0.016560 0.000000 0.000000 0.000000
# 4 0.000000 0.000000 0.000000 0.015760 0.000000 0.000000
# 5 0.000000 0.000000 0.000000 0.000000 -0.224730 0.000000
# 6 0.000000 0.000000 0.000000 0.000000 0.000000 -0.010854
#
#
# Mechanical properties :
#
#
# Convention : Reuss Voigt Hill
#
# Bulk Modulus (GPa) = 89.14301 94.36361 91.75331
# Shear Modulus (GPa) = -30.70849 11.16534 -9.77157
#
# Velocity S-wave (km/s) = -3.84196 2.31665 -2.16724
# Velocity P-wave (km/s) = 4.81327 7.24663 6.15147
#
# Compressibility (1/GPa) = 0.01121793
#
# Stress axis : x y z
#
# Youngs Moduli (GPa) = 115.29151 142.71946 60.38693
#
# Poissons Ratio (x) = 0.06821 0.39463
# Poissons Ratio (y) = 0.05510 0.21125
# Poissons Ratio (z) = 0.75343 0.49927
#
# Static dielectric constant tensor:
#      x y z
#    x 1.763720 0.000000 0.000000 
#    y 0.000000 1.726800 0.000000 
#    z 0.000000 0.000000 2.204790 
# 
# From -- ./inp_files/1551.got.cif
#   From: 2010.05.17/outbox.cif.g08.bks.cpg/sg24_1_cif.got.tgz:1551.got - 2010.06.04 00:33:39.
