data_PCOD9336240
_publ_section_title
;
Structure prediction by ZEFSAII (Michael W. Deem and Ramdas Pophale) SiO2 
 PCOD9336240
Probable space group: I 21 21 21
;
_chemical_formula_sum "Si O2"
_cell_formula_units_Z 24
_cell_length_a 12.822442
_cell_length_b 13.398935
_cell_length_c 5.094332
_cell_angle_alpha 90.000000
_cell_angle_beta 90.000000
_cell_angle_gamma 90.000000
_cell_volume 875.242239
_symmetry_space_group_name_H-M "I 21 21 21"
_symmetry_group_IT_number 24
_symmetry_cell_setting 'orthorhombic'
loop_
_space_group_symop_operation_xyz
x,y,z
-x,1/2-y,z
x,-y,1/2-z
1/2-x,y,-z
1/2+x,1/2+y,1/2+z
1/2-x,-y,1/2+z
1/2+x,1/2-y,-z
-x,1/2+y,1/2-z
loop_
_atom_site_type_symbol
_atom_site_label
_atom_site_fract_x
_atom_site_fract_y
_atom_site_fract_z
Si Si1 0.950243 0.656128 0.813392
Si Si2 0.750000 0.340077 0.000000
Si Si3 0.137143 0.428016 0.995758
Si Si4 0.900241 0.500000 0.250000
O O1 0.836607 0.692685 0.717177
O O2 0.000000 0.750000 0.965340
O O3 0.033379 0.634946 0.573757
O O4 0.947570 0.557821 0.995172
O O5 0.672959 0.411692 0.843560
O O6 0.126931 0.500000 0.250000
O O7 0.151869 0.500000 0.750000
O O8 0.250000 0.370949 0.000000
#
# Coordination Sequence:
#
# PCOD9336240 Si02
#       4
#     8   4   8   4
#     4  12  29  47  87 131 173 227 301 375 441 540
#     4  12  24  50  84 120 168 232 290 366 450 530
#     4  10  24  48  78 112 166 230 278 345 447 535
#     4  12  24  54  84 122 174 234 292 366 452 528
#
# _framework density 27.420978000000002
#
# number of rings (size 3 to 8) (size 9 to 14) (size 15 to 20)
#    0.000    0.667    3.333    2.000   11.667    1.333 
#    0.000    3.333    0.000    2.000    0.000    0.000 
#    0.000    0.000    0.000    0.000    0.000    0.000 
#
# Total GULP energy -66902.095825 kJ/mol
# GULP energy per Si atom -5575.174652 kJ/mol
# Density = 2.735857 g / cm^3
# Si number density = 27.420978 Si / 1000 Ang^3
#
#
#
# Elastic Constant Matrix: (Units=GPa)
#
#
# Indices 1 2 3 4 5 6 
#
# 1 247.4684 65.8133 63.7088 0.0000 0.0000 0.0000
# 2 65.8133 80.1079 37.3334 0.0000 0.0000 0.0000
# 3 63.7088 37.3334 166.5781 0.0000 0.0000 0.0000
# 4 0.0000 0.0000 0.0000 18.9525 0.0000 0.0000
# 5 0.0000 0.0000 0.0000 0.0000 209.1790 0.0000
# 6 0.0000 0.0000 0.0000 0.0000 0.0000 107.8109
#
#
#
# Elastic Compliance Matrix: (Units=1/GPa)
#
#
# Indices 1 2 3 4 5 6 
#
# 1 0.005374 -0.003860 -0.001190 0.000000 0.000000 0.000000
# 2 -0.003860 0.016712 -0.002269 0.000000 0.000000 0.000000
# 3 -0.001190 -0.002269 0.006967 0.000000 0.000000 0.000000
# 4 0.000000 0.000000 0.000000 0.052763 0.000000 0.000000
# 5 0.000000 0.000000 0.000000 0.000000 0.004781 0.000000
# 6 0.000000 0.000000 0.000000 0.000000 0.000000 0.009276
#
#
# Mechanical properties :
#
#
# Convention : Reuss Voigt Hill
#
# Bulk Modulus (GPa) = 69.37771 91.98506 80.68139
# Shear Modulus (GPa) = 43.35896 89.00839 66.18368
#
# Velocity S-wave (km/s) = 3.98079 5.70355 4.91819
# Velocity P-wave (km/s) = 6.81797 8.77452 7.85739
#
# Compressibility (1/GPa) = 0.01441385
#
# Stress axis : x y z
#
# Youngs Moduli (GPa) = 186.08250 59.83658 143.53570
#
# Poissons Ratio (x) = 0.23099 0.17082
# Poissons Ratio (y) = 0.71835 0.32570
# Poissons Ratio (z) = 0.22146 0.13578
#
# Static dielectric constant tensor:
#      x y z
#    x 2.322160 0.000000 0.000000 
#    y 0.000000 2.235330 0.000000 
#    z 0.000000 0.000000 2.310260 
# 
# From -- ./inp_files/2857.got.cif
#   From: 2010.05.17/outbox.cif.g08.bks.cpg/sg24_2_cif.got.tgz:2857.got - 2010.06.04 00:33:39.
