data_PCOD9336241
_publ_section_title
;
Structure prediction by ZEFSAII (Michael W. Deem and Ramdas Pophale) SiO2 
 PCOD9336241
Probable space group: I 21 21 21
;
_chemical_formula_sum "Si O2"
_cell_formula_units_Z 32
_cell_length_a 10.503092
_cell_length_b 6.578279
_cell_length_c 17.271185
_cell_angle_alpha 90.000000
_cell_angle_beta 90.000000
_cell_angle_gamma 90.000000
_cell_volume 1193.305369
_symmetry_space_group_name_H-M "I 21 21 21"
_symmetry_group_IT_number 24
_symmetry_cell_setting 'orthorhombic'
loop_
_space_group_symop_operation_xyz
x,y,z
-x,1/2-y,z
x,-y,1/2-z
1/2-x,y,-z
1/2+x,1/2+y,1/2+z
1/2-x,-y,1/2+z
1/2+x,1/2-y,-z
-x,1/2+y,1/2-z
loop_
_atom_site_type_symbol
_atom_site_label
_atom_site_fract_x
_atom_site_fract_y
_atom_site_fract_z
Si Si1 0.121302 0.396429 0.851896
Si Si2 0.536810 0.467475 0.482026
Si Si3 0.375648 0.134982 0.859891
Si Si4 0.319747 0.857571 0.178003
O O1 0.254949 0.281813 0.845775
O O2 0.137781 0.376882 0.685042
O O3 0.000000 0.250000 0.832655
O O4 0.089451 0.442377 0.942186
O O5 0.500000 0.250000 0.516323
O O6 0.600141 0.593975 0.549401
O O7 0.623316 0.423469 0.405765
O O8 0.500000 0.250000 0.829651
O O9 0.329316 0.914912 0.828101
O O10 0.361187 0.000000 0.250000
#
# Coordination Sequence:
#
# PCOD9336241 Si02
#       4
#     8   8   8   8
#     4  11  25  51  82 122 158 213 285 352 425 493
#     4  10  24  48  78 119 155 211 284 353 424 488
#     4  12  28  48  78 117 165 220 277 347 416 507
#     4  11  27  53  79 122 170 220 279 356 427 510
#
# _framework density 26.816268999999998
#
# number of rings (size 3 to 8) (size 9 to 14) (size 15 to 20)
#    0.000    1.000    2.500    1.500    7.000    1.000 
#   22.500    0.000    0.000    0.000    0.000    0.000 
#    0.000    0.000    0.000    0.000    0.000    0.000 
#
# Total GULP energy -89386.124408 kJ/mol
# GULP energy per Si atom -5586.632775 kJ/mol
# Density = 2.675523 g / cm^3
# Si number density = 26.816269 Si / 1000 Ang^3
#
#
#
# Elastic Constant Matrix: (Units=GPa)
#
#
# Indices 1 2 3 4 5 6 
#
# 1 204.1533 112.2556 34.3534 0.0000 0.0000 0.0000
# 2 112.2556 219.0588 76.7205 0.0000 0.0000 0.0000
# 3 34.3534 76.7205 105.0433 0.0000 0.0000 0.0000
# 4 0.0000 0.0000 0.0000 50.7282 0.0000 0.0000
# 5 0.0000 0.0000 0.0000 0.0000 49.6001 0.0000
# 6 0.0000 0.0000 0.0000 0.0000 0.0000 58.3803
#
#
#
# Elastic Compliance Matrix: (Units=1/GPa)
#
#
# Indices 1 2 3 4 5 6 
#
# 1 0.006835 -0.003654 0.000434 0.000000 0.000000 0.000000
# 2 -0.003654 0.008088 -0.004712 0.000000 0.000000 0.000000
# 3 0.000434 -0.004712 0.012820 0.000000 0.000000 0.000000
# 4 0.000000 0.000000 0.000000 0.019713 0.000000 0.000000
# 5 0.000000 0.000000 0.000000 0.000000 0.020161 0.000000
# 6 0.000000 0.000000 0.000000 0.000000 0.000000 0.017129
#
#
# Mechanical properties :
#
#
# Convention : Reuss Voigt Hill
#
# Bulk Modulus (GPa) = 84.19662 108.32383 96.26023
# Shear Modulus (GPa) = 47.81511 52.07011 49.94261
#
# Velocity S-wave (km/s) = 4.22721 4.41129 4.32023
# Velocity P-wave (km/s) = 7.43583 8.15037 7.80128
#
# Compressibility (1/GPa) = 0.01187696
#
# Stress axis : x y z
#
# Youngs Moduli (GPa) = 146.31358 123.64136 78.00580
#
# Poissons Ratio (x) = 0.45182 -0.03384
# Poissons Ratio (y) = 0.53467 0.36757
# Poissons Ratio (z) = -0.06347 0.58261
#
# Static dielectric constant tensor:
#      x y z
#    x 2.123570 0.000000 0.000000 
#    y 0.000000 2.269230 0.000000 
#    z 0.000000 0.000000 2.133380 
# 
# From -- ./inp_files/30017.got.cif
#   From: 2010.05.17/outbox.cif.g08.bks.cpg/sg24_16_cif.got.tgz:30017.got - 2010.06.04 00:33:39.
