data_PCOD9336161
_publ_section_title
;
Structure prediction by ZEFSAII (Michael W. Deem and Ramdas Pophale) SiO2 
 PCOD9336161
Probable space group: I 21 21 21
;
_chemical_formula_sum "Si O2"
_cell_formula_units_Z 24
_cell_length_a 7.057908
_cell_length_b 11.945528
_cell_length_c 13.131407
_cell_angle_alpha 90.000000
_cell_angle_beta 90.000000
_cell_angle_gamma 90.000000
_cell_volume 1107.114671
_symmetry_space_group_name_H-M "I 21 21 21"
_symmetry_group_IT_number 24
_symmetry_cell_setting 'orthorhombic'
loop_
_space_group_symop_operation_xyz
x,y,z
-x,1/2-y,z
x,-y,1/2-z
1/2-x,y,-z
1/2+x,1/2+y,1/2+z
1/2-x,-y,1/2+z
1/2+x,1/2-y,-z
-x,1/2+y,1/2-z
loop_
_atom_site_type_symbol
_atom_site_label
_atom_site_fract_x
_atom_site_fract_y
_atom_site_fract_z
Si Si1 0.500000 0.250000 0.148330
Si Si2 0.250000 0.098322 0.000000
Si Si3 0.472824 0.064774 0.643475
Si Si4 0.300988 0.279516 0.346097
O O1 0.364111 0.311652 0.230482
O O2 0.369895 0.172886 0.078588
O O3 0.394187 0.020247 0.939032
O O4 0.322581 0.166510 0.656759
O O5 0.670695 0.122015 0.614177
O O6 0.488543 0.000000 0.750000
O O7 0.500000 0.250000 0.400210
#
# Coordination Sequence:
#
# PCOD9336161 Si02
#       4
#     4   4   8   8
#     4  10  24  44  70 106 144 186 240 294 342 432
#     4  12  26  42  72 112 140 184 246 296 350 412
#     4  11  22  43  72 102 142 188 232 296 354 415
#     4   9  22  46  69  94 143 191 234 280 354 424
#
# _framework density 21.677969000000001
#
# number of rings (size 3 to 8) (size 9 to 14) (size 15 to 20)
#    1.000    0.667    3.333    0.000    4.667    4.000 
#    6.000    0.000    0.000    0.000    0.000    0.000 
#    0.000    0.000    0.000    0.000    0.000    0.000 
#
# Total GULP energy -67058.922833 kJ/mol
# GULP energy per Si atom -5588.243569 kJ/mol
# Density = 2.162863 g / cm^3
# Si number density = 21.677969 Si / 1000 Ang^3
#
#
#
# Elastic Constant Matrix: (Units=GPa)
#
#
# Indices 1 2 3 4 5 6 
#
# 1 171.4825 69.7792 49.2745 0.0000 0.0000 0.0000
# 2 69.7792 80.5490 29.5667 0.0000 0.0000 0.0000
# 3 49.2745 29.5667 101.2041 0.0000 0.0000 0.0000
# 4 0.0000 0.0000 0.0000 -6.3761 0.0000 0.0000
# 5 0.0000 0.0000 0.0000 0.0000 4.7050 0.0000
# 6 0.0000 0.0000 0.0000 0.0000 0.0000 16.2747
#
#
#
# Elastic Compliance Matrix: (Units=1/GPa)
#
#
# Indices 1 2 3 4 5 6 
#
# 1 0.009539 -0.007346 -0.002498 0.000000 0.000000 0.000000
# 2 -0.007346 0.019564 -0.002139 0.000000 0.000000 0.000000
# 3 -0.002498 -0.002139 0.011722 0.000000 0.000000 0.000000
# 4 0.000000 0.000000 0.000000 -0.156837 0.000000 0.000000
# 5 0.000000 0.000000 0.000000 0.000000 0.212539 0.000000
# 6 0.000000 0.000000 0.000000 0.000000 0.000000 0.061445
#
#
# Mechanical properties :
#
#
# Convention : Reuss Voigt Hill
#
# Bulk Modulus (GPa) = 59.31727 72.27514 65.79620
# Shear Modulus (GPa) = 26.65848 16.56174 21.61011
#
# Velocity S-wave (km/s) = 3.51058 2.76703 3.16075
# Velocity P-wave (km/s) = 6.62228 6.60465 6.61347
#
# Compressibility (1/GPa) = 0.01685850
#
# Stress axis : x y z
#
# Youngs Moduli (GPa) = 104.83680 51.11429 85.30908
#
# Poissons Ratio (x) = 0.37550 0.21310
# Poissons Ratio (y) = 0.77017 0.18246
# Poissons Ratio (z) = 0.26188 0.10932
#
# Static dielectric constant tensor:
#      x y z
#    x 1.804360 0.000000 0.000000 
#    y 0.000000 1.752640 0.000000 
#    z 0.000000 0.000000 1.777580 
# 
# From -- ./inp_files/24229.got.cif
#   From: 2010.05.17/outbox.cif.g08.bks.cpg/sg24_13_cif.got.tgz:24229.got - 2010.06.04 00:33:39.
