data_PCOD9336999
_publ_section_title
;
Structure prediction by ZEFSAII (Michael W. Deem and Ramdas Pophale) SiO2 
 PCOD9336999
Probable space group: I 21 21 21
;
_chemical_formula_sum "Si O2"
_cell_formula_units_Z 32
_cell_length_a 13.720802
_cell_length_b 20.114709
_cell_length_c 5.071089
_cell_angle_alpha 90.000000
_cell_angle_beta 90.000000
_cell_angle_gamma 90.000000
_cell_volume 1399.569546
_symmetry_space_group_name_H-M "I 21 21 21"
_symmetry_group_IT_number 24
_symmetry_cell_setting 'orthorhombic'
loop_
_space_group_symop_operation_xyz
x,y,z
-x,1/2-y,z
x,-y,1/2-z
1/2-x,y,-z
1/2+x,1/2+y,1/2+z
1/2-x,-y,1/2+z
1/2+x,1/2-y,-z
-x,1/2+y,1/2-z
loop_
_atom_site_type_symbol
_atom_site_label
_atom_site_fract_x
_atom_site_fract_y
_atom_site_fract_z
Si Si1 0.589472 0.707857 0.046863
Si Si2 0.187619 0.000000 0.250000
Si Si3 0.940206 0.379059 0.039451
Si Si4 0.750000 0.185725 0.500000
Si Si5 0.850560 0.927447 0.647980
O O1 0.500000 0.750000 0.158093
O O2 0.557283 0.666414 0.795985
O O3 0.667195 0.760264 0.930477
O O4 0.611173 0.658031 0.290456
O O5 0.250000 0.026197 0.500000
O O6 0.121686 0.943053 0.378360
O O7 0.051951 0.399338 0.983951
O O8 0.810768 0.133775 0.676839
O O9 0.750000 0.944649 0.500000
O O10 0.882227 0.000000 0.750000
#
# Coordination Sequence:
#
# PCOD9336999 Si02
#       5
#     8   4   8   4   8
#     4  12  27  50  78 117 158 208 266 323 405 485
#     4  12  30  54  82 118 160 212 274 336 402 484
#     4  12  30  51  82 116 159 214 270 339 404 482
#     4  12  28  50  80 116 166 210 264 342 400 496
#     4  12  28  50  81 119 159 214 272 338 413 485
#
# _framework density 22.864172
#
# number of rings (size 3 to 8) (size 9 to 14) (size 15 to 20)
#    0.000    0.000    3.750    3.750   15.750    0.000 
#    0.000    0.000    0.000    0.000    0.000    0.000 
#    0.000    0.000    0.000    0.000    0.000    0.000 
#
# Total GULP energy -89280.769052 kJ/mol
# GULP energy per Si atom -5580.048066 kJ/mol
# Density = 2.281213 g / cm^3
# Si number density = 22.864172 Si / 1000 Ang^3
#
#
#
# Elastic Constant Matrix: (Units=GPa)
#
#
# Indices 1 2 3 4 5 6 
#
# 1 95.6160 57.6725 39.5767 0.0000 0.0000 0.0000
# 2 57.6725 177.4721 76.9879 0.0000 0.0000 0.0000
# 3 39.5767 76.9879 131.5958 0.0000 0.0000 0.0000
# 4 0.0000 0.0000 0.0000 36.3433 0.0000 0.0000
# 5 0.0000 0.0000 0.0000 0.0000 90.1208 0.0000
# 6 0.0000 0.0000 0.0000 0.0000 0.0000 15.4917
#
#
#
# Elastic Compliance Matrix: (Units=1/GPa)
#
#
# Indices 1 2 3 4 5 6 
#
# 1 0.013384 -0.003489 -0.001984 0.000000 0.000000 0.000000
# 2 -0.003489 0.008460 -0.003900 0.000000 0.000000 0.000000
# 3 -0.001984 -0.003900 0.010478 0.000000 0.000000 0.000000
# 4 0.000000 0.000000 0.000000 0.027515 0.000000 0.000000
# 5 0.000000 0.000000 0.000000 0.000000 0.011096 0.000000
# 6 0.000000 0.000000 0.000000 0.000000 0.000000 0.064551
#
#
# Mechanical properties :
#
#
# Convention : Reuss Voigt Hill
#
# Bulk Modulus (GPa) = 73.66184 83.68425 78.67304
# Shear Modulus (GPa) = 31.49488 43.75428 37.62458
#
# Velocity S-wave (km/s) = 3.71546 4.37929 4.06096
# Velocity P-wave (km/s) = 7.11992 7.88993 7.51479
#
# Compressibility (1/GPa) = 0.01357555
#
# Stress axis : x y z
#
# Youngs Moduli (GPa) = 74.71608 118.19795 95.44127
#
# Poissons Ratio (x) = 0.41235 0.18938
# Poissons Ratio (y) = 0.26065 0.37226
# Poissons Ratio (z) = 0.14825 0.46102
#
# Static dielectric constant tensor:
#      x y z
#    x 1.896190 0.000000 0.000000 
#    y 0.000000 1.802350 0.000000 
#    z 0.000000 0.000000 1.909540 
# 
# From -- ./inp_files/3110.got.cif
#   From: 2010.05.17/outbox.cif.g08.bks.cpg/sg24_2_cif.got.tgz:3110.got - 2010.06.04 00:33:39.
