data_PCOD9336526
_publ_section_title
;
Structure prediction by ZEFSAII (Michael W. Deem and Ramdas Pophale) SiO2 
 PCOD9336526
Probable space group: I 21 21 21
;
_chemical_formula_sum "Si O2"
_cell_formula_units_Z 48
_cell_length_a 24.818996
_cell_length_b 10.194443
_cell_length_c 9.368522
_cell_angle_alpha 90.000000
_cell_angle_beta 90.000000
_cell_angle_gamma 90.000000
_cell_volume 2370.384464
_symmetry_space_group_name_H-M "I 21 21 21"
_symmetry_group_IT_number 24
_symmetry_cell_setting 'orthorhombic'
loop_
_space_group_symop_operation_xyz
x,y,z
-x,1/2-y,z
x,-y,1/2-z
1/2-x,y,-z
1/2+x,1/2+y,1/2+z
1/2-x,-y,1/2+z
1/2+x,1/2-y,-z
-x,1/2+y,1/2-z
loop_
_atom_site_type_symbol
_atom_site_label
_atom_site_fract_x
_atom_site_fract_y
_atom_site_fract_z
Si Si1 0.541473 0.994716 0.422505
Si Si2 0.879788 0.220824 0.464196
Si Si3 0.874273 0.236252 0.956767
Si Si4 0.926476 0.497512 0.076548
Si Si5 0.306966 0.344776 0.291926
Si Si6 0.188372 0.652318 0.286738
O O1 0.575084 0.120016 0.479941
O O2 0.534861 0.000000 0.250000
O O3 0.576886 0.866863 0.458962
O O4 0.485387 0.988941 0.505627
O O5 0.899455 0.368662 0.479653
O O6 0.825447 0.178491 0.547075
O O7 0.862703 0.206386 0.299863
O O8 0.851020 0.236001 0.797776
O O9 0.892743 0.373892 0.019587
O O10 0.825124 0.178206 0.049762
O O11 0.929492 0.500000 0.250000
O O12 0.311957 0.500000 0.250000
O O13 0.247015 0.296870 0.257518
O O14 0.189817 0.500000 0.250000
#
# Coordination Sequence:
#
# PCOD9336526 Si02
#       6
#     8   8   8   8   8   8
#     4  12  26  46  71 101 128 174 229 275 329 394
#     4  12  23  45  67  99 138 171 219 277 325 395
#     4  12  23  45  67  99 138 171 219 277 325 395
#     4  12  30  44  65  97 138 178 225 269 335 400
#     4  11  22  43  70 106 131 168 227 275 328 394
#     4  11  22  39  74 102 129 176 221 275 330 386
#
# _framework density 20.249880999999998
#
# number of rings (size 3 to 8) (size 9 to 14) (size 15 to 20)
#    0.000    0.333    6.667    2.000    4.667    5.333 
#    0.000    5.000    0.000    0.000    0.000    0.000 
#    0.000    0.000    0.000    0.000    0.000    0.000 
#
# Total GULP energy -134154.077385 kJ/mol
# GULP energy per Si atom -5589.753224 kJ/mol
# Density = 2.020379 g / cm^3
# Si number density = 20.249881 Si / 1000 Ang^3
#
#
#
# Elastic Constant Matrix: (Units=GPa)
#
#
# Indices 1 2 3 4 5 6 
#
# 1 84.7631 31.4712 5.2322 0.0000 0.0000 0.0000
# 2 31.4712 118.5884 17.6511 0.0000 0.0000 0.0000
# 3 5.2322 17.6511 66.6006 0.0000 0.0000 0.0000
# 4 0.0000 0.0000 0.0000 28.3143 0.0000 0.0000
# 5 0.0000 0.0000 0.0000 0.0000 33.1284 0.0000
# 6 0.0000 0.0000 0.0000 0.0000 0.0000 21.6518
#
#
#
# Elastic Compliance Matrix: (Units=1/GPa)
#
#
# Indices 1 2 3 4 5 6 
#
# 1 0.013088 -0.003457 -0.000112 0.000000 0.000000 0.000000
# 2 -0.003457 0.009692 -0.002297 0.000000 0.000000 0.000000
# 3 -0.000112 -0.002297 0.015632 0.000000 0.000000 0.000000
# 4 0.000000 0.000000 0.000000 0.035318 0.000000 0.000000
# 5 0.000000 0.000000 0.000000 0.000000 0.030186 0.000000
# 6 0.000000 0.000000 0.000000 0.000000 0.000000 0.046186
#
#
# Mechanical properties :
#
#
# Convention : Reuss Voigt Hill
#
# Bulk Modulus (GPa) = 37.48036 42.07343 39.77690
# Shear Modulus (GPa) = 29.28667 30.99207 30.13937
#
# Velocity S-wave (km/s) = 3.80710 3.91638 3.86213
# Velocity P-wave (km/s) = 6.15423 6.42440 6.29077
#
# Compressibility (1/GPa) = 0.02668064
#
# Stress axis : x y z
#
# Youngs Moduli (GPa) = 76.40657 103.18058 63.96944
#
# Poissons Ratio (x) = 0.35665 0.00717
# Poissons Ratio (y) = 0.26411 0.14694
# Poissons Ratio (z) = 0.00856 0.23701
#
# Static dielectric constant tensor:
#      x y z
#    x 1.720210 0.000000 0.000000 
#    y 0.000000 1.694550 0.000000 
#    z 0.000000 0.000000 1.685420 
# 
# From -- ./inp_files/15831.got.cif
#   From: 2010.05.17/outbox.cif.g08.bks.cpg/sg24_8_cif.got.tgz:15831.got - 2010.06.04 00:33:39.
