data_PCOD9336118
_publ_section_title
;
Structure prediction by ZEFSAII (Michael W. Deem and Ramdas Pophale) SiO2 
 PCOD9336118
Probable space group: I 21 21 21
;
_chemical_formula_sum "Si O2"
_cell_formula_units_Z 52
_cell_length_a 16.801289
_cell_length_b 5.673822
_cell_length_c 22.404949
_cell_angle_alpha 90.000000
_cell_angle_beta 90.000000
_cell_angle_gamma 90.000000
_cell_volume 2135.808295
_symmetry_space_group_name_H-M "I 21 21 21"
_symmetry_group_IT_number 24
_symmetry_cell_setting 'orthorhombic'
loop_
_space_group_symop_operation_xyz
x,y,z
-x,1/2-y,z
x,-y,1/2-z
1/2-x,y,-z
1/2+x,1/2+y,1/2+z
1/2-x,-y,1/2+z
1/2+x,1/2-y,-z
-x,1/2+y,1/2-z
loop_
_atom_site_type_symbol
_atom_site_label
_atom_site_fract_x
_atom_site_fract_y
_atom_site_fract_z
Si Si1 0.951663 0.496539 0.049226
Si Si2 0.591873 0.326536 0.427711
Si Si3 0.736390 0.034140 0.067151
Si Si4 0.261122 0.172588 0.180188
Si Si5 0.429530 0.898060 0.310338
Si Si6 0.349106 0.212768 0.644723
Si Si7 0.138971 0.500000 0.250000
O O1 0.897141 0.516983 0.107919
O O2 0.000000 0.750000 0.052104
O O3 0.903107 0.508861 0.986641
O O4 0.000000 0.250000 0.049864
O O5 0.500000 0.250000 0.429167
O O6 0.656731 0.122749 0.433079
O O7 0.599702 0.427390 0.361310
O O8 0.809818 0.882492 0.094746
O O9 0.727393 0.248473 0.112001
O O10 0.750000 0.108373 0.000000
O O11 0.346806 0.218708 0.209563
O O12 0.195104 0.333189 0.210480
O O13 0.224816 0.911914 0.178420
O O14 0.500000 0.750000 0.339475
O O15 0.466416 0.000000 0.250000
O O16 0.399256 0.343451 0.696883
#
# Coordination Sequence:
#
# PCOD9336118 Si02
#       7
#     8   8   8   8   8   8   4
#     4  11  27  47  78 109 150 192 245 314 392 467
#     4  11  23  43  65  98 146 191 247 303 377 428
#     4  11  23  41  66 106 139 187 250 305 365 450
#     4  11  25  40  70  97 140 184 243 302 370 434
#     4  12  25  39  60  93 137 192 245 298 350 425
#     4  11  23  46  72 105 139 188 245 305 378 467
#     4  10  24  42  74  98 140 182 240 304 380 450
#
# _framework density 24.346755999999999
#
# number of rings (size 3 to 8) (size 9 to 14) (size 15 to 20)
#    0.000    0.923    3.077    3.231    7.538    3.077 
#    0.000    0.000    3.385    0.000    0.000    0.000 
#    0.000    0.000    0.000    0.000    0.000    0.000 
#
# Total GULP energy -145277.922652 kJ/mol
# GULP energy per Si atom -5587.612410 kJ/mol
# Density = 2.429134 g / cm^3
# Si number density = 24.346756 Si / 1000 Ang^3
#
#
#
# Elastic Constant Matrix: (Units=GPa)
#
#
# Indices 1 2 3 4 5 6 
#
# 1 57.0761 21.8852 20.9526 0.0000 0.0000 0.0000
# 2 21.8852 72.5803 40.0127 0.0000 0.0000 0.0000
# 3 20.9526 40.0127 160.8755 0.0000 0.0000 0.0000
# 4 0.0000 0.0000 0.0000 45.6868 0.0000 0.0000
# 5 0.0000 0.0000 0.0000 0.0000 31.2669 0.0000
# 6 0.0000 0.0000 0.0000 0.0000 0.0000 42.9144
#
#
#
# Elastic Compliance Matrix: (Units=1/GPa)
#
#
# Indices 1 2 3 4 5 6 
#
# 1 0.020037 -0.005335 -0.001283 0.000000 0.000000 0.000000
# 2 -0.005335 0.017387 -0.003630 0.000000 0.000000 0.000000
# 3 -0.001283 -0.003630 0.007286 0.000000 0.000000 0.000000
# 4 0.000000 0.000000 0.000000 0.021888 0.000000 0.000000
# 5 0.000000 0.000000 0.000000 0.000000 0.031983 0.000000
# 6 0.000000 0.000000 0.000000 0.000000 0.000000 0.023302
#
#
# Mechanical properties :
#
#
# Convention : Reuss Voigt Hill
#
# Bulk Modulus (GPa) = 41.29528 50.69255 45.99392
# Shear Modulus (GPa) = 33.23375 37.81904 35.52639
#
# Velocity S-wave (km/s) = 3.69862 3.94553 3.82407
# Velocity P-wave (km/s) = 5.93615 6.45156 6.19921
#
# Compressibility (1/GPa) = 0.02421584
#
# Stress axis : x y z
#
# Youngs Moduli (GPa) = 49.90804 57.51281 137.25214
#
# Poissons Ratio (x) = 0.30680 0.17607
# Poissons Ratio (y) = 0.26624 0.49820
# Poissons Ratio (z) = 0.06402 0.20876
#
# Static dielectric constant tensor:
#      x y z
#    x 1.984280 0.000000 0.000000 
#    y 0.000000 2.059110 0.000000 
#    z 0.000000 0.000000 1.954870 
# 
# From -- ./inp_files/34130.got.cif
#   From: 2010.05.17/outbox.cif.g08.bks.cpg/sg24_18_cif.got.tgz:34130.got - 2010.06.04 00:33:39.
