data_PCOD9336214
_publ_section_title
;
Structure prediction by ZEFSAII (Michael W. Deem and Ramdas Pophale) SiO2 
 PCOD9336214
Probable space group: I 21 21 21
;
_chemical_formula_sum "Si O2"
_cell_formula_units_Z 36
_cell_length_a 8.851233
_cell_length_b 13.631372
_cell_length_c 9.628172
_cell_angle_alpha 90.000000
_cell_angle_beta 90.000000
_cell_angle_gamma 90.000000
_cell_volume 1161.681794
_symmetry_space_group_name_H-M "I 21 21 21"
_symmetry_group_IT_number 24
_symmetry_cell_setting 'orthorhombic'
loop_
_space_group_symop_operation_xyz
x,y,z
-x,1/2-y,z
x,-y,1/2-z
1/2-x,y,-z
1/2+x,1/2+y,1/2+z
1/2-x,-y,1/2+z
1/2+x,1/2-y,-z
-x,1/2+y,1/2-z
loop_
_atom_site_type_symbol
_atom_site_label
_atom_site_fract_x
_atom_site_fract_y
_atom_site_fract_z
Si Si1 0.250000 0.372912 0.000000
Si Si2 0.492036 0.591308 0.838095
Si Si3 0.713987 0.198881 0.305629
Si Si4 0.926355 0.645497 0.458096
Si Si5 0.417133 0.914407 0.137773
O O1 0.241964 0.314940 0.144402
O O2 0.078183 0.418072 0.991929
O O3 0.421681 0.500000 0.750000
O O4 0.365003 0.667161 0.885338
O O5 0.578179 0.637863 0.708002
O O6 0.594674 0.567203 0.970486
O O7 0.590403 0.114668 0.330726
O O8 0.656077 0.307106 0.335847
O O9 0.750000 0.629493 0.500000
O O10 0.000000 0.750000 0.504633
O O11 0.372069 0.000000 0.250000
#
# Coordination Sequence:
#
# PCOD9336214 Si02
#       5
#     4   8   8   8   8
#     4  10  24  46  84 128 176 258 318 378 484 588
#     4  11  27  53  92 134 189 250 322 397 488 582
#     4  10  25  48  86 130 191 249 320 398 497 583
#     4  11  25  47  89 131 187 246 319 392 487 581
#     4  11  26  48  91 139 189 245 328 408 484 577
#
# _framework density 30.989553999999998
#
# number of rings (size 3 to 8) (size 9 to 14) (size 15 to 20)
#    0.000    1.333    1.111    1.333   12.444    0.000 
#    4.000    0.000   29.333    0.000    0.000    0.000 
#    0.000    0.000    0.000    0.000    0.000    0.000 
#
# Total GULP energy -100672.365323 kJ/mol
# GULP energy per Si atom -5592.909185 kJ/mol
# Density = 3.091902 g / cm^3
# Si number density = 30.989554 Si / 1000 Ang^3
#
#
#
# Elastic Constant Matrix: (Units=GPa)
#
#
# Indices 1 2 3 4 5 6 
#
# 1 292.8749 76.6809 60.9169 0.0000 0.0000 0.0000
# 2 76.6809 191.7358 67.2812 0.0006 -0.0001 -0.0001
# 3 60.9169 67.2812 239.1725 0.0015 -0.0002 -0.0002
# 4 0.0000 0.0006 0.0015 55.9422 -0.0001 -0.0001
# 5 0.0000 -0.0001 -0.0002 -0.0001 56.1026 0.0001
# 6 0.0000 -0.0001 -0.0002 -0.0001 0.0001 61.3507
#
#
#
# Elastic Compliance Matrix: (Units=1/GPa)
#
#
# Indices 1 2 3 4 5 6 
#
# 1 0.003893 -0.001342 -0.000614 0.000000 0.000000 0.000000
# 2 -0.001342 0.006249 -0.001416 0.000000 0.000000 0.000000
# 3 -0.000614 -0.001416 0.004736 0.000000 0.000000 0.000000
# 4 0.000000 0.000000 0.000000 0.017876 0.000000 0.000000
# 5 0.000000 0.000000 0.000000 0.000000 0.017824 0.000000
# 6 0.000000 0.000000 0.000000 0.000000 0.000000 0.016300
#
#
# Mechanical properties :
#
#
# Convention : Reuss Voigt Hill
#
# Bulk Modulus (GPa) = 122.93596 125.94903 124.44250
# Shear Modulus (GPa) = 65.50193 69.27273 67.38733
#
# Velocity S-wave (km/s) = 4.60246 4.73309 4.66823
# Velocity P-wave (km/s) = 8.24620 8.40239 8.32466
#
# Compressibility (1/GPa) = 0.00813432
#
# Stress axis : x y z
#
# Youngs Moduli (GPa) = 256.84240 160.02587 211.15207
#
# Poissons Ratio (x) = 0.21468 0.12970
# Poissons Ratio (y) = 0.34457 0.29903
# Poissons Ratio (z) = 0.15777 0.22663
#
# Static dielectric constant tensor:
#      x y z
#    x 2.517370 0.000000 0.000000 
#    y 0.000000 2.679810 0.000000 
#    z 0.000000 0.000000 2.400780 
# 
# From -- ./inp_files/29331.got.cif
#   From: 2010.05.17/outbox.cif.g08.bks.cpg/sg24_15_cif.got.tgz:29331.got - 2010.06.04 00:33:39.
