data_PCOD9336545
_publ_section_title
;
Structure prediction by ZEFSAII (Michael W. Deem and Ramdas Pophale) SiO2 
 PCOD9336545
Probable space group: I 21 21 21
;
_chemical_formula_sum "Si O2"
_cell_formula_units_Z 48
_cell_length_a 17.602497
_cell_length_b 10.552647
_cell_length_c 10.188762
_cell_angle_alpha 90.000000
_cell_angle_beta 90.000000
_cell_angle_gamma 90.000000
_cell_volume 1892.592468
_symmetry_space_group_name_H-M "I 21 21 21"
_symmetry_group_IT_number 24
_symmetry_cell_setting 'orthorhombic'
loop_
_space_group_symop_operation_xyz
x,y,z
-x,1/2-y,z
x,-y,1/2-z
1/2-x,y,-z
1/2+x,1/2+y,1/2+z
1/2-x,-y,1/2+z
1/2+x,1/2-y,-z
-x,1/2+y,1/2-z
loop_
_atom_site_type_symbol
_atom_site_label
_atom_site_fract_x
_atom_site_fract_y
_atom_site_fract_z
Si Si1 0.829035 0.576135 0.953372
Si Si2 0.651468 0.801312 0.737375
Si Si3 0.557721 0.853487 0.399462
Si Si4 0.316284 0.815093 0.304426
Si Si5 0.340687 0.470362 0.528073
Si Si6 0.945199 0.569056 0.370544
O O1 0.804797 0.446295 0.879385
O O2 0.858918 0.660561 0.833775
O O3 0.750000 0.633800 0.000000
O O4 0.885233 0.529924 0.066053
O O5 0.736678 0.748149 0.726393
O O6 0.636302 0.847436 0.886199
O O7 0.596215 0.691211 0.688406
O O8 0.649100 0.916488 0.634257
O O9 0.500000 0.750000 0.324237
O O10 0.632894 0.769114 0.398209
O O11 0.500113 0.887959 0.515235
O O12 0.604597 0.992421 0.404249
O O13 0.250000 0.462821 0.500000
O O14 0.985678 0.500000 0.250000
#
# Coordination Sequence:
#
# PCOD9336545 Si02
#       6
#     8   8   8   8   8   8
#     4  11  22  41  74 111 142 183 248 318 374 441
#     4  11  23  42  72 105 141 186 248 306 368 436
#     4  12  24  44  72 100 147 198 243 295 367 452
#     4  11  23  43  74 106 143 195 246 303 378 440
#     4  11  24  44  70 100 139 194 243 300 364 437
#     4  12  26  43  74 114 150 194 244 317 383 442
#
# _framework density 25.362037000000001
#
# number of rings (size 3 to 8) (size 9 to 14) (size 15 to 20)
#    0.000    0.667    6.667    1.000    2.333    2.000 
#    0.000    3.333    0.000    1.000    0.000    0.000 
#    0.000    0.000    0.000    0.000    0.000    0.000 
#
# Total GULP energy -133892.615662 kJ/mol
# GULP energy per Si atom -5578.858986 kJ/mol
# Density = 2.530431 g / cm^3
# Si number density = 25.362037 Si / 1000 Ang^3
#
#
#
# Elastic Constant Matrix: (Units=GPa)
#
#
# Indices 1 2 3 4 5 6 
#
# 1 121.8540 27.1308 16.4369 0.0000 0.0000 0.0000
# 2 27.1308 61.7581 20.5067 0.0000 0.0000 0.0000
# 3 16.4369 20.5067 89.3091 0.0000 0.0000 0.0000
# 4 0.0000 0.0000 0.0000 31.1791 0.0000 0.0000
# 5 0.0000 0.0000 0.0000 0.0000 30.3363 0.0000
# 6 0.0000 0.0000 0.0000 0.0000 0.0000 12.5420
#
#
#
# Elastic Compliance Matrix: (Units=1/GPa)
#
#
# Indices 1 2 3 4 5 6 
#
# 1 0.009152 -0.003747 -0.000824 0.000000 0.000000 0.000000
# 2 -0.003747 0.019063 -0.003687 0.000000 0.000000 0.000000
# 3 -0.000824 -0.003687 0.012195 0.000000 0.000000 0.000000
# 4 0.000000 0.000000 0.000000 0.032073 0.000000 0.000000
# 5 0.000000 0.000000 0.000000 0.000000 0.032964 0.000000
# 6 0.000000 0.000000 0.000000 0.000000 0.000000 0.079732
#
#
# Mechanical properties :
#
#
# Convention : Reuss Voigt Hill
#
# Bulk Modulus (GPa) = 41.85283 44.56332 43.20807
# Shear Modulus (GPa) = 23.84814 28.73459 26.29137
#
# Velocity S-wave (km/s) = 3.06977 3.36962 3.22319
# Velocity P-wave (km/s) = 5.39469 5.72260 5.56106
#
# Compressibility (1/GPa) = 0.02389325
#
# Stress axis : x y z
#
# Youngs Moduli (GPa) = 109.26648 52.45852 81.99798
#
# Poissons Ratio (x) = 0.19656 0.06757
# Poissons Ratio (y) = 0.40941 0.30237
# Poissons Ratio (z) = 0.09004 0.19344
#
# Static dielectric constant tensor:
#      x y z
#    x 1.953380 0.000000 0.000000 
#    y 0.000000 2.053510 0.000000 
#    z 0.000000 0.000000 2.367890 
# 
# From -- ./inp_files/21527.got.cif
#   From: 2010.05.17/outbox.cif.g08.bks.cpg/sg24_11_cif.got.tgz:21527.got - 2010.06.04 00:33:39.
