data_PCOD9336498
_publ_section_title
;
Structure prediction by ZEFSAII (Michael W. Deem and Ramdas Pophale) SiO2 
 PCOD9336498
Probable space group: I 21 21 21
;
_chemical_formula_sum "Si O2"
_cell_formula_units_Z 32
_cell_length_a 14.784734
_cell_length_b 11.566454
_cell_length_c 9.408478
_cell_angle_alpha 90.000000
_cell_angle_beta 90.000000
_cell_angle_gamma 90.000000
_cell_volume 1608.915087
_symmetry_space_group_name_H-M "I 21 21 21"
_symmetry_group_IT_number 24
_symmetry_cell_setting 'orthorhombic'
loop_
_space_group_symop_operation_xyz
x,y,z
-x,1/2-y,z
x,-y,1/2-z
1/2-x,y,-z
1/2+x,1/2+y,1/2+z
1/2-x,-y,1/2+z
1/2+x,1/2-y,-z
-x,1/2+y,1/2-z
loop_
_atom_site_type_symbol
_atom_site_label
_atom_site_fract_x
_atom_site_fract_y
_atom_site_fract_z
Si Si1 0.329470 0.452613 0.612011
Si Si2 0.662380 0.500772 0.079978
Si Si3 0.408144 0.798037 0.900313
Si Si4 0.988826 0.614916 0.397325
O O1 0.281960 0.500000 0.750000
O O2 0.250000 0.456762 0.500000
O O3 0.358334 0.320092 0.639516
O O4 0.419335 0.536132 0.596676
O O5 0.671014 0.500000 0.250000
O O6 0.750000 0.450865 0.000000
O O7 0.647401 0.627501 0.011742
O O8 0.576402 0.434720 0.017547
O O9 0.500000 0.750000 0.969644
O O10 0.440146 0.872935 0.761013
O O11 0.000000 0.750000 0.430376
#
# Coordination Sequence:
#
# PCOD9336498 Si02
#       4
#     8   8   8   8
#     4  12  24  44  69 106 141 183 234 303 357 435
#     4  12  26  44  68 100 136 180 240 298 351 424
#     4  11  21  45  77  92 136 188 240 281 367 422
#     4  11  23  45  74  94 137 192 235 280 367 436
#
# _framework density 19.88918
#
# number of rings (size 3 to 8) (size 9 to 14) (size 15 to 20)
#    0.000    0.500    7.500    3.000    0.000    3.000 
#    9.000    0.000    0.000    0.000    0.000    0.000 
#    0.000    0.000    0.000    0.000    0.000    0.000 
#
# Total GULP energy -89118.153481 kJ/mol
# GULP energy per Si atom -5569.884593 kJ/mol
# Density = 1.984391 g / cm^3
# Si number density = 19.889180 Si / 1000 Ang^3
#
#
#
# Elastic Constant Matrix: (Units=GPa)
#
#
# Indices 1 2 3 4 5 6 
#
# 1 91.4094 28.6512 62.1008 0.0000 0.0000 0.0000
# 2 28.6512 142.6056 44.2786 0.0000 0.0000 0.0000
# 3 62.1008 44.2786 138.0127 0.0000 0.0000 0.0000
# 4 0.0000 0.0000 0.0000 30.9335 0.0000 0.0000
# 5 0.0000 0.0000 0.0000 0.0000 32.1077 0.0000
# 6 0.0000 0.0000 0.0000 0.0000 0.0000 15.6746
#
#
#
# Elastic Compliance Matrix: (Units=1/GPa)
#
#
# Indices 1 2 3 4 5 6 
#
# 1 0.015905 -0.001081 -0.006810 0.000000 0.000000 0.000000
# 2 -0.001081 0.007862 -0.002036 0.000000 0.000000 0.000000
# 3 -0.006810 -0.002036 0.010963 0.000000 0.000000 0.000000
# 4 0.000000 0.000000 0.000000 0.032327 0.000000 0.000000
# 5 0.000000 0.000000 0.000000 0.000000 0.031145 0.000000
# 6 0.000000 0.000000 0.000000 0.000000 0.000000 0.063798
#
#
# Mechanical properties :
#
#
# Convention : Reuss Voigt Hill
#
# Bulk Modulus (GPa) = 67.22116 71.34322 69.28219
# Shear Modulus (GPa) = 26.76484 31.54295 29.15390
#
# Velocity S-wave (km/s) = 3.67236 3.98670 3.83275
# Velocity P-wave (km/s) = 7.20089 7.55910 7.38217
#
# Compressibility (1/GPa) = 0.01487627
#
# Stress axis : x y z
#
# Youngs Moduli (GPa) = 62.87300 127.19951 91.21540
#
# Poissons Ratio (x) = 0.13751 0.62117
# Poissons Ratio (y) = 0.06797 0.18570
# Poissons Ratio (z) = 0.42816 0.25895
#
# Static dielectric constant tensor:
#      x y z
#    x 1.746230 0.000000 0.000000 
#    y 0.000000 4.709620 0.000000 
#    z 0.000000 0.000000 1.833090 
# 
# From -- ./inp_files/10210.got.cif
#   From: 2010.05.17/outbox.cif.g08.bks.cpg/sg24_6_cif.got.tgz:10210.got - 2010.06.04 00:33:39.
