data_PCOD9336840
_publ_section_title
;
Structure prediction by ZEFSAII (Michael W. Deem and Ramdas Pophale) SiO2 
 PCOD9336840
Probable space group: I 21 21 21
;
_chemical_formula_sum "Si O2"
_cell_formula_units_Z 24
_cell_length_a 4.920068
_cell_length_b 9.900519
_cell_length_c 21.618385
_cell_angle_alpha 90.000000
_cell_angle_beta 90.000000
_cell_angle_gamma 90.000000
_cell_volume 1053.058053
_symmetry_space_group_name_H-M "I 21 21 21"
_symmetry_group_IT_number 24
_symmetry_cell_setting 'orthorhombic'
loop_
_space_group_symop_operation_xyz
x,y,z
-x,1/2-y,z
x,-y,1/2-z
1/2-x,y,-z
1/2+x,1/2+y,1/2+z
1/2-x,-y,1/2+z
1/2+x,1/2-y,-z
-x,1/2+y,1/2-z
loop_
_atom_site_type_symbol
_atom_site_label
_atom_site_fract_x
_atom_site_fract_y
_atom_site_fract_z
Si Si1 0.500000 0.750000 0.969350
Si Si2 0.945545 0.586200 0.809924
Si Si3 0.250000 0.669050 0.500000
Si Si4 0.074947 0.519211 0.110391
O O1 0.327243 0.649148 0.928267
O O2 0.750000 0.669206 0.000000
O O3 0.856174 0.500000 0.750000
O O4 0.718279 0.556366 0.862193
O O5 0.000000 0.750000 0.801279
O O6 0.220080 0.512942 0.832801
O O7 0.500000 0.750000 0.471243
O O8 0.109125 0.592946 0.442004
#
# Coordination Sequence:
#
# PCOD9336840 Si02
#       4
#     4   8   4   8
#     4  12  22  38  74 106 132 174 236 288 352 418
#     4  12  26  46  72 104 141 192 249 301 356 423
#     4  12  28  46  70 110 152 188 228 294 374 440
#     4  12  25  45  72 102 139 186 241 290 352 436
#
# _framework density 22.790766000000001
#
# number of rings (size 3 to 8) (size 9 to 14) (size 15 to 20)
#    0.000    0.000    5.000    5.000    2.333    4.000 
#    0.000    0.000    0.000    0.000    0.000    0.000 
#    0.000    0.000    0.000    0.000    0.000    0.000 
#
# Total GULP energy -66847.146573 kJ/mol
# GULP energy per Si atom -5570.595548 kJ/mol
# Density = 2.273889 g / cm^3
# Si number density = 22.790766 Si / 1000 Ang^3
#
#
#
# Elastic Constant Matrix: (Units=GPa)
#
#
# Indices 1 2 3 4 5 6 
#
# 1 127.1893 30.2866 30.3621 0.0000 0.0000 0.0000
# 2 30.2866 94.6284 48.1860 0.0000 0.0000 0.0000
# 3 30.3621 48.1860 100.8153 0.0000 0.0000 0.0000
# 4 0.0000 0.0000 0.0000 -35.6796 0.0000 0.0000
# 5 0.0000 0.0000 0.0000 0.0000 27.1297 0.0000
# 6 0.0000 0.0000 0.0000 0.0000 0.0000 28.9969
#
#
#
# Elastic Compliance Matrix: (Units=1/GPa)
#
#
# Indices 1 2 3 4 5 6 
#
# 1 0.008728 -0.001923 -0.001710 0.000000 0.000000 0.000000
# 2 -0.001923 0.014391 -0.006299 0.000000 0.000000 0.000000
# 3 -0.001710 -0.006299 0.013445 0.000000 0.000000 0.000000
# 4 0.000000 0.000000 0.000000 -0.028027 0.000000 0.000000
# 5 0.000000 0.000000 0.000000 0.000000 0.036860 0.000000
# 6 0.000000 0.000000 0.000000 0.000000 0.000000 0.034486
#
#
# Mechanical properties :
#
#
# Convention : Reuss Voigt Hill
#
# Bulk Modulus (GPa) = 59.87873 60.03363 59.95618
# Shear Modulus (GPa) = 47.47750 18.34262 32.91006
#
# Velocity S-wave (km/s) = 4.56915 2.84002 3.80413
# Velocity P-wave (km/s) = 7.35979 6.09530 6.75719
#
# Compressibility (1/GPa) = 0.01670042
#
# Stress axis : x y z
#
# Youngs Moduli (GPa) = 114.56977 69.48928 74.37876
#
# Poissons Ratio (x) = 0.13363 0.12715
# Poissons Ratio (y) = 0.22032 0.46852
# Poissons Ratio (z) = 0.19586 0.43772
#
# Static dielectric constant tensor:
#      x y z
#    x 2.170040 0.000000 0.000000 
#    y 0.000000 1.897890 0.000000 
#    z 0.000000 0.000000 1.910210 
# 
# From -- ./inp_files/6046.got.cif
#   From: 2010.05.17/outbox.cif.g08.bks.cpg/sg24_4_cif.got.tgz:6046.got - 2010.06.04 00:33:39.
