data_PCOD9336431
_publ_section_title
;
Structure prediction by ZEFSAII (Michael W. Deem and Ramdas Pophale) SiO2 
 PCOD9336431
Probable space group: I 21 21 21
;
_chemical_formula_sum "Si O2"
_cell_formula_units_Z 48
_cell_length_a 8.380003
_cell_length_b 14.197319
_cell_length_c 16.155772
_cell_angle_alpha 90.000000
_cell_angle_beta 90.000000
_cell_angle_gamma 90.000000
_cell_volume 1922.109965
_symmetry_space_group_name_H-M "I 21 21 21"
_symmetry_group_IT_number 24
_symmetry_cell_setting 'orthorhombic'
loop_
_space_group_symop_operation_xyz
x,y,z
-x,1/2-y,z
x,-y,1/2-z
1/2-x,y,-z
1/2+x,1/2+y,1/2+z
1/2-x,-y,1/2+z
1/2+x,1/2-y,-z
-x,1/2+y,1/2-z
loop_
_atom_site_type_symbol
_atom_site_label
_atom_site_fract_x
_atom_site_fract_y
_atom_site_fract_z
Si Si1 0.863622 0.893091 0.753350
Si Si2 0.936651 0.350768 0.909711
Si Si3 0.832657 0.282762 0.294044
Si Si4 0.930724 0.985362 0.024269
Si Si5 0.150064 0.933090 0.350752
Si Si6 0.613283 0.394302 0.396257
O O1 0.741037 0.807050 0.746176
O O2 0.997018 0.872743 0.683229
O O3 0.955356 0.890695 0.840393
O O4 0.800321 0.000000 0.750000
O O5 0.744674 0.357917 0.908358
O O6 0.000000 0.250000 0.933584
O O7 0.021695 0.426737 0.966713
O O8 0.859690 0.374197 0.234240
O O9 0.715000 0.306113 0.368492
O O10 0.000000 0.250000 0.327846
O O11 0.056336 0.908024 0.990008
O O12 0.750000 0.961020 0.000000
O O13 0.986335 0.022582 0.114243
O O14 0.279312 0.017614 0.363001
#
# Coordination Sequence:
#
# PCOD9336431 Si02
#       6
#     8   8   8   8   8   8
#     4  12  21  42  74 107 139 195 253 311 376 439
#     4  11  20  39  67 101 146 196 244 290 371 441
#     4  12  27  40  71 115 151 189 251 323 376 447
#     4  11  27  42  70 108 155 203 246 303 374 463
#     4  11  23  44  68 107 150 192 242 304 380 454
#     4  11  22  46  74 103 146 197 250 298 381 453
#
# _framework density 24.972557999999999
#
# number of rings (size 3 to 8) (size 9 to 14) (size 15 to 20)
#    0.000    0.667    6.667    3.000    2.333    4.667 
#    0.000    0.000    0.000   16.000    0.000    0.000 
#    0.000    0.000    0.000    0.000    0.000    0.000 
#
# Total GULP energy -134095.261617 kJ/mol
# GULP energy per Si atom -5587.302567 kJ/mol
# Density = 2.491572 g / cm^3
# Si number density = 24.972558 Si / 1000 Ang^3
#
#
#
# Elastic Constant Matrix: (Units=GPa)
#
#
# Indices 1 2 3 4 5 6 
#
# 1 135.0457 46.2656 25.6514 0.0000 0.0000 0.0000
# 2 46.2656 76.1442 25.0552 0.0000 0.0000 0.0000
# 3 25.6514 25.0552 83.5933 0.0000 0.0000 0.0000
# 4 0.0000 0.0000 0.0000 23.8890 0.0000 0.0000
# 5 0.0000 0.0000 0.0000 0.0000 30.2069 0.0000
# 6 0.0000 0.0000 0.0000 0.0000 0.0000 24.3025
#
#
#
# Elastic Compliance Matrix: (Units=1/GPa)
#
#
# Indices 1 2 3 4 5 6 
#
# 1 0.009479 -0.005328 -0.001312 0.000000 0.000000 0.000000
# 2 -0.005328 0.017565 -0.003630 0.000000 0.000000 0.000000
# 3 -0.001312 -0.003630 0.013453 0.000000 0.000000 0.000000
# 4 0.000000 0.000000 0.000000 0.041860 0.000000 0.000000
# 5 0.000000 0.000000 0.000000 0.000000 0.033105 0.000000
# 6 0.000000 0.000000 0.000000 0.000000 0.000000 0.041148
#
#
# Mechanical properties :
#
#
# Convention : Reuss Voigt Hill
#
# Bulk Modulus (GPa) = 50.10508 54.30304 52.20406
# Shear Modulus (GPa) = 27.20311 28.86708 28.03510
#
# Velocity S-wave (km/s) = 3.30407 3.40362 3.35421
# Velocity P-wave (km/s) = 5.88756 6.10233 5.99591
#
# Compressibility (1/GPa) = 0.01995806
#
# Stress axis : x y z
#
# Youngs Moduli (GPa) = 105.49137 56.93245 74.33201
#
# Poissons Ratio (x) = 0.30334 0.09751
# Poissons Ratio (y) = 0.56207 0.26980
# Poissons Ratio (z) = 0.13839 0.20664
#
# Static dielectric constant tensor:
#      x y z
#    x 1.994550 0.000000 0.000000 
#    y 0.000000 2.031930 0.000000 
#    z 0.000000 0.000000 2.030760 
# 
# From -- ./inp_files/29481.got.cif
#   From: 2010.05.17/outbox.cif.g08.bks.cpg/sg24_15_cif.got.tgz:29481.got - 2010.06.04 00:33:39.
