data_PCOD9336212
_publ_section_title
;
Structure prediction by ZEFSAII (Michael W. Deem and Ramdas Pophale) SiO2 
 PCOD9336212
Probable space group: I 21 21 21
;
_chemical_formula_sum "Si O2"
_cell_formula_units_Z 32
_cell_length_a 23.814110
_cell_length_b 5.060366
_cell_length_c 10.690199
_cell_angle_alpha 90.000000
_cell_angle_beta 90.000000
_cell_angle_gamma 90.000000
_cell_volume 1288.255704
_symmetry_space_group_name_H-M "I 21 21 21"
_symmetry_group_IT_number 24
_symmetry_cell_setting 'orthorhombic'
loop_
_space_group_symop_operation_xyz
x,y,z
-x,1/2-y,z
x,-y,1/2-z
1/2-x,y,-z
1/2+x,1/2+y,1/2+z
1/2-x,-y,1/2+z
1/2+x,1/2-y,-z
-x,1/2+y,1/2-z
loop_
_atom_site_type_symbol
_atom_site_label
_atom_site_fract_x
_atom_site_fract_y
_atom_site_fract_z
Si Si1 0.184545 0.187644 0.868244
Si Si2 0.090106 0.500000 0.750000
Si Si3 0.500000 0.250000 0.423782
Si Si4 0.688628 0.705945 0.636917
Si Si5 0.098179 0.500000 0.250000
Si Si6 0.000000 0.250000 0.109349
O O1 0.131907 0.375012 0.850546
O O2 0.247278 0.306910 0.860422
O O3 0.181431 0.000000 0.750000
O O4 0.180928 0.060450 0.004740
O O5 0.051376 0.699237 0.828727
O O6 0.505640 0.500259 0.516250
O O7 0.678827 0.500000 0.750000
O O8 0.645196 0.948873 0.642880
O O9 0.053305 0.284749 0.200960
#
# Coordination Sequence:
#
# PCOD9336212 Si02
#       6
#     8   4   4   8   4   4
#     4  10  24  46  76 113 154 206 264 330 402 477
#     4  12  27  46  78 108 155 206 268 330 402 476
#     4  12  30  50  74 116 162 211 271 332 402 481
#     4  10  24  46  75 114 155 204 264 330 403 479
#     4  12  27  46  76 108 155 206 262 326 404 476
#     4  12  30  50  74 116 162 211 271 328 408 481
#
# _framework density 24.839787999999999
#
# number of rings (size 3 to 8) (size 9 to 14) (size 15 to 20)
#    0.000    1.000    0.000    3.750   14.000    2.000 
#    0.000    5.000    0.000    0.000    0.000    0.000 
#    0.000    0.000    0.000    0.000    0.000    0.000 
#
# Total GULP energy -89268.404713 kJ/mol
# GULP energy per Si atom -5579.275295 kJ/mol
# Density = 2.478325 g / cm^3
# Si number density = 24.839788 Si / 1000 Ang^3
#
#
#
# Elastic Constant Matrix: (Units=GPa)
#
#
# Indices 1 2 3 4 5 6 
#
# 1 212.4771 56.9318 58.0691 0.0000 0.0000 0.0000
# 2 56.9318 111.2804 68.4280 0.0000 0.0000 0.0000
# 3 58.0691 68.4280 214.3908 0.0000 0.0000 0.0000
# 4 0.0000 0.0000 0.0000 45.7011 0.0000 0.0000
# 5 0.0000 0.0000 0.0000 0.0000 -24.3910 0.0000
# 6 0.0000 0.0000 0.0000 0.0000 0.0000 4.6714
#
#
#
# Elastic Compliance Matrix: (Units=1/GPa)
#
#
# Indices 1 2 3 4 5 6 
#
# 1 0.005547 -0.002382 -0.000742 0.000000 0.000000 0.000000
# 2 -0.002382 0.012203 -0.003250 0.000000 0.000000 0.000000
# 3 -0.000742 -0.003250 0.005903 0.000000 0.000000 0.000000
# 4 0.000000 0.000000 0.000000 0.021881 0.000000 0.000000
# 5 0.000000 0.000000 0.000000 0.000000 -0.040999 0.000000
# 6 0.000000 0.000000 0.000000 0.000000 0.000000 0.214067
#
#
# Mechanical properties :
#
#
# Convention : Reuss Voigt Hill
#
# Bulk Modulus (GPa) = 91.69613 100.55624 96.12618
# Shear Modulus (GPa) = 21.27786 28.84426 25.06106
#
# Velocity S-wave (km/s) = 2.92995 3.41135 3.17978
# Velocity P-wave (km/s) = 6.95998 7.48907 7.22937
#
# Compressibility (1/GPa) = 0.01090559
#
# Stress axis : x y z
#
# Youngs Moduli (GPa) = 180.26416 81.94623 169.41293
#
# Poissons Ratio (x) = 0.19516 0.12578
# Poissons Ratio (y) = 0.42931 0.55057
# Poissons Ratio (z) = 0.13383 0.26631
#
# Static dielectric constant tensor:
#      x y z
#    x 1.972710 0.000000 0.000000 
#    y 0.000000 2.139800 0.000000 
#    z 0.000000 0.000000 2.123610 
# 
# From -- ./inp_files/21944.got.cif
#   From: 2010.05.17/outbox.cif.g08.bks.cpg/sg24_11_cif.got.tgz:21944.got - 2010.06.04 00:33:39.
