data_PCOD9336163
_publ_section_title
;
Structure prediction by ZEFSAII (Michael W. Deem and Ramdas Pophale) SiO2 
 PCOD9336163
Probable space group: I 21 21 21
;
_chemical_formula_sum "Si O2"
_cell_formula_units_Z 40
_cell_length_a 8.297328
_cell_length_b 21.989539
_cell_length_c 9.991307
_cell_angle_alpha 90.000000
_cell_angle_beta 90.000000
_cell_angle_gamma 90.000000
_cell_volume 1822.958100
_symmetry_space_group_name_H-M "I 21 21 21"
_symmetry_group_IT_number 24
_symmetry_cell_setting 'orthorhombic'
loop_
_space_group_symop_operation_xyz
x,y,z
-x,1/2-y,z
x,-y,1/2-z
1/2-x,y,-z
1/2+x,1/2+y,1/2+z
1/2-x,-y,1/2+z
1/2+x,1/2-y,-z
-x,1/2+y,1/2-z
loop_
_atom_site_type_symbol
_atom_site_label
_atom_site_fract_x
_atom_site_fract_y
_atom_site_fract_z
Si Si1 0.221588 0.229096 0.300381
Si Si2 0.000000 0.250000 0.515403
Si Si3 0.871374 0.500000 0.750000
Si Si4 0.686824 0.946775 0.152604
Si Si5 0.197276 0.116394 0.147881
Si Si6 0.676422 0.150526 0.850989
O O1 0.354631 0.264262 0.387177
O O2 0.283578 0.167196 0.238733
O O3 0.171454 0.278096 0.189415
O O4 0.083904 0.206820 0.405777
O O5 0.760640 0.550164 0.682640
O O6 0.997600 0.465406 0.651722
O O7 0.722176 0.886706 0.239688
O O8 0.759808 0.000000 0.250000
O O9 0.750000 0.944686 0.000000
O O10 0.005474 0.125178 0.155798
O O11 0.250000 0.131529 0.000000
O O12 0.750000 0.142704 0.000000
#
# Coordination Sequence:
#
# PCOD9336163 Si02
#       6
#     8   4   4   8   8   8
#     4  11  25  46  73 107 147 183 239 296 367 432
#     4  10  24  44  70 108 146 184 230 290 360 444
#     4  10  28  46  70 106 142 190 246 302 352 424
#     4  10  25  46  74 103 145 188 243 291 362 428
#     4  12  27  47  71 103 145 190 245 298 361 426
#     4  12  26  45  75 107 144 191 243 297 366 437
#
# _framework density 21.942359
#
# number of rings (size 3 to 8) (size 9 to 14) (size 15 to 20)
#    0.600    0.400    2.000    2.400   12.600    0.000 
#    3.600    0.000    0.000    0.000    0.000    0.000 
#    0.000    0.000    0.000    0.000    0.000    0.000 
#
# Total GULP energy -111445.435599 kJ/mol
# GULP energy per Si atom -5572.271780 kJ/mol
# Density = 2.189242 g / cm^3
# Si number density = 21.942359 Si / 1000 Ang^3
#
#
#
# Elastic Constant Matrix: (Units=GPa)
#
#
# Indices 1 2 3 4 5 6 
#
# 1 108.6296 33.0574 46.6110 0.0000 -0.0001 0.0002
# 2 33.0574 98.4463 46.7005 0.0014 0.0007 -0.0009
# 3 46.6110 46.7005 161.3225 0.0001 -0.0017 0.0078
# 4 0.0000 0.0014 0.0001 -441.5597 0.0234 -0.0203
# 5 -0.0001 0.0007 -0.0017 0.0234 134.8034 -0.0098
# 6 0.0002 -0.0009 0.0078 -0.0203 -0.0098 -92.4188
#
#
#
# Elastic Compliance Matrix: (Units=1/GPa)
#
#
# Indices 1 2 3 4 5 6 
#
# 1 0.011031 -0.002541 -0.002452 0.000000 0.000000 0.000000
# 2 -0.002541 0.012360 -0.002844 0.000000 0.000000 0.000000
# 3 -0.002452 -0.002844 0.007730 0.000000 0.000000 0.000001
# 4 0.000000 0.000000 0.000000 -0.002265 0.000000 0.000000
# 5 0.000000 0.000000 0.000000 0.000000 0.007418 -0.000001
# 6 0.000000 0.000000 0.000001 0.000000 -0.000001 -0.010820
#
#
# Mechanical properties :
#
#
# Convention : Reuss Voigt Hill
#
# Bulk Modulus (GPa) = 64.73209 69.01514 66.87361
# Shear Modulus (GPa) = 108.04515 -63.69973 22.17271
#
# Velocity S-wave (km/s) = 7.02477 -5.39384 3.18228
# Velocity P-wave (km/s) = 9.76532 2.69632 6.63669
#
# Compressibility (1/GPa) = 0.01544829
#
# Stress axis : x y z
#
# Youngs Moduli (GPa) = 90.65543 80.90499 129.36034
#
# Poissons Ratio (x) = 0.20559 0.31713
# Poissons Ratio (y) = 0.23036 0.36789
# Poissons Ratio (z) = 0.22224 0.23009
#
# Static dielectric constant tensor:
#      x y z
#    x 2.023450 0.000000 0.000010 
#    y 0.000000 1.768380 0.000000 
#    z 0.000010 0.000000 1.867500 
# 
# From -- ./inp_files/9348.got.cif
#   From: 2010.05.17/outbox.cif.g08.bks.cpg/sg24_5_cif.got.tgz:9348.got - 2010.06.04 00:33:39.
