data_PCOD9336126
_publ_section_title
;
Structure prediction by ZEFSAII (Michael W. Deem and Ramdas Pophale) SiO2 
 PCOD9336126
Probable space group: I 21 21 21
;
_chemical_formula_sum "Si O2"
_cell_formula_units_Z 60
_cell_length_a 5.206526
_cell_length_b 26.182494
_cell_length_c 19.575321
_cell_angle_alpha 90.000000
_cell_angle_beta 90.000000
_cell_angle_gamma 90.000000
_cell_volume 2668.504544
_symmetry_space_group_name_H-M "I 21 21 21"
_symmetry_group_IT_number 24
_symmetry_cell_setting 'orthorhombic'
loop_
_space_group_symop_operation_xyz
x,y,z
-x,1/2-y,z
x,-y,1/2-z
1/2-x,y,-z
1/2+x,1/2+y,1/2+z
1/2-x,-y,1/2+z
1/2+x,1/2-y,-z
-x,1/2+y,1/2-z
loop_
_atom_site_type_symbol
_atom_site_label
_atom_site_fract_x
_atom_site_fract_y
_atom_site_fract_z
Si Si1 0.460512 0.858146 0.640874
Si Si2 0.056787 0.521165 0.562453
Si Si3 0.250000 0.887190 0.500000
Si Si4 0.368026 0.364115 0.311476
Si Si5 0.253868 0.283823 0.079814
Si Si6 0.636815 0.694936 0.775390
Si Si7 0.798547 0.050021 0.206478
Si Si8 0.014021 0.910736 0.956636
O O1 0.350700 0.856517 0.564707
O O2 0.742478 0.833738 0.627282
O O3 0.342539 0.821557 0.696567
O O4 0.479009 0.914274 0.673160
O O5 0.250000 0.510904 0.500000
O O6 0.159085 0.529652 0.638491
O O7 0.940078 0.573867 0.537029
O O8 0.897586 0.468843 0.562404
O O9 0.576895 0.318847 0.300196
O O10 0.361221 0.410458 0.255087
O O11 0.445076 0.385944 0.384629
O O12 0.077181 0.342734 0.308520
O O13 0.500000 0.250000 0.092964
O O14 0.000000 0.250000 0.091384
O O15 0.250000 0.298148 0.000000
O O16 0.500000 0.750000 0.781462
O O17 0.876886 0.000000 0.250000
O O18 0.250000 0.887840 0.000000
O O19 0.750000 0.908165 0.000000
#
# Coordination Sequence:
#
# PCOD9336126 Si02
#       8
#     8   8   4   8   8   8   8   8
#     4  11  26  41  70  99 138 189 242 296 350 429
#     4  11  22  40  63  95 138 194 235 289 342 415
#     4  12  24  40  62 102 140 186 238 290 350 416
#     4  11  24  46  74 106 141 190 237 294 362 431
#     4  10  24  43  65  94 130 175 229 293 356 404
#     4  11  25  48  74 103 138 187 241 301 363 425
#     4  11  23  43  65 101 145 188 241 299 347 425
#     4  11  23  42  71 105 143 184 235 285 355 430
#
# _framework density 22.484503
#
# number of rings (size 3 to 8) (size 9 to 14) (size 15 to 20)
#    0.000    1.067    3.333    2.400    4.667    4.267 
#    4.800    0.667    0.000    8.000    0.000    0.000 
#    0.000    0.000    0.000    0.000    0.000    0.000 
#
# Total GULP energy -167437.651778 kJ/mol
# GULP energy per Si atom -5581.255059 kJ/mol
# Density = 2.243333 g / cm^3
# Si number density = 22.484503 Si / 1000 Ang^3
#
#
#
# Elastic Constant Matrix: (Units=GPa)
#
#
# Indices 1 2 3 4 5 6 
#
# 1 76.4800 0.7937 19.0803 0.0000 0.0000 0.0000
# 2 0.7937 85.3791 31.1140 0.0000 0.0000 0.0000
# 3 19.0803 31.1140 145.2929 0.0000 0.0000 0.0000
# 4 0.0000 0.0000 0.0000 30.2990 0.0000 0.0000
# 5 0.0000 0.0000 0.0000 0.0000 34.1387 0.0000
# 6 0.0000 0.0000 0.0000 0.0000 0.0000 24.3242
#
#
#
# Elastic Compliance Matrix: (Units=1/GPa)
#
#
# Indices 1 2 3 4 5 6 
#
# 1 0.013543 0.000566 -0.001900 0.000000 0.000000 0.000000
# 2 0.000566 0.012728 -0.002800 0.000000 0.000000 0.000000
# 3 -0.001900 -0.002800 0.007732 0.000000 0.000000 0.000000
# 4 0.000000 0.000000 0.000000 0.033004 0.000000 0.000000
# 5 0.000000 0.000000 0.000000 0.000000 0.029292 0.000000
# 6 0.000000 0.000000 0.000000 0.000000 0.000000 0.041111
#
#
# Mechanical properties :
#
#
# Convention : Reuss Voigt Hill
#
# Bulk Modulus (GPa) = 38.85612 45.45868 42.15740
# Shear Modulus (GPa) = 32.41361 34.82996 33.62178
#
# Velocity S-wave (km/s) = 3.80096 3.94009 3.87115
# Velocity P-wave (km/s) = 6.04829 6.40006 6.22666
#
# Compressibility (1/GPa) = 0.02573597
#
# Stress axis : x y z
#
# Youngs Moduli (GPa) = 73.83666 78.56963 129.33689
#
# Poissons Ratio (x) = -0.04451 0.24572
# Poissons Ratio (y) = -0.04182 0.36214
# Poissons Ratio (z) = 0.14028 0.21999
#
# Static dielectric constant tensor:
#      x y z
#    x 1.864200 0.000000 0.000000 
#    y 0.000000 1.938560 0.000000 
#    z 0.000000 0.000000 2.793710 
# 
# From -- ./inp_files/28925.got.cif
#   From: 2010.05.17/outbox.cif.g08.bks.cpg/sg24_15_cif.got.tgz:28925.got - 2010.06.04 00:33:39.
