data_PCOD9336954
_publ_section_title
;
Structure prediction by ZEFSAII (Michael W. Deem and Ramdas Pophale) SiO2 
 PCOD9336954
Probable space group: I 21 21 21
;
_chemical_formula_sum "Si O2"
_cell_formula_units_Z 36
_cell_length_a 18.535060
_cell_length_b 15.683700
_cell_length_c 5.229986
_cell_angle_alpha 90.000000
_cell_angle_beta 90.000000
_cell_angle_gamma 90.000000
_cell_volume 1520.348147
_symmetry_space_group_name_H-M "I 21 21 21"
_symmetry_group_IT_number 24
_symmetry_cell_setting 'orthorhombic'
loop_
_space_group_symop_operation_xyz
x,y,z
-x,1/2-y,z
x,-y,1/2-z
1/2-x,y,-z
1/2+x,1/2+y,1/2+z
1/2-x,-y,1/2+z
1/2+x,1/2-y,-z
-x,1/2+y,1/2-z
loop_
_atom_site_type_symbol
_atom_site_label
_atom_site_fract_x
_atom_site_fract_y
_atom_site_fract_z
Si Si1 0.533419 0.072444 0.086985
Si Si2 0.410383 0.845708 0.720305
Si Si3 0.111653 0.266148 0.714394
Si Si4 0.250000 0.355031 0.500000
Si Si5 0.299301 0.000000 0.750000
Si Si6 0.157347 0.500000 0.250000
O O1 0.560286 0.152170 0.251511
O O2 0.492689 0.000000 0.250000
O O3 0.484540 0.108017 0.858949
O O4 0.604351 0.027017 0.976898
O O5 0.391749 0.785405 0.478976
O O6 0.349711 0.917097 0.750907
O O7 0.413273 0.791048 0.977055
O O8 0.192098 0.298605 0.650804
O O9 0.205564 0.418865 0.318255
O O10 0.250000 0.999431 0.500000
#
# Coordination Sequence:
#
# PCOD9336954 Si02
#       6
#     8   8   8   4   4   4
#     4  12  28  52  81 118 164 213 272 334 415 483
#     4  12  31  53  82 115 158 214 274 338 397 485
#     4  12  29  51  80 119 164 212 263 339 397 491
#     4  12  26  48  78 118 162 212 262 324 418 480
#     4  12  29  56  82 115 154 210 272 338 408 473
#     4  12  25  50  80 117 164 216 266 334 408 513
#
# _framework density 23.678788000000001
#
# number of rings (size 3 to 8) (size 9 to 14) (size 15 to 20)
#    0.000    0.000    2.222    5.333   12.444    5.333 
#    0.000    0.000    0.000    0.000    0.000    0.000 
#    0.000    0.000    0.000    0.000    0.000    0.000 
#
# Total GULP energy -101113.873548 kJ/mol
# GULP energy per Si atom -5617.437419 kJ/mol
# Density = 2.362489 g / cm^3
# Si number density = 23.678788 Si / 1000 Ang^3
#
#
#
# Elastic Constant Matrix: (Units=GPa)
#
#
# Indices 1 2 3 4 5 6 
#
# 1 119.9876 48.7163 41.5680 0.0000 0.0000 0.0000
# 2 48.7163 161.3517 77.0866 0.0000 0.0000 0.0000
# 3 41.5680 77.0866 145.5219 0.0000 0.0000 0.0000
# 4 0.0000 0.0000 0.0000 41.2560 0.0000 0.0000
# 5 0.0000 0.0000 0.0000 0.0000 -250.1238 0.0000
# 6 0.0000 0.0000 0.0000 0.0000 0.0000 59.1441
#
#
#
# Elastic Compliance Matrix: (Units=1/GPa)
#
#
# Indices 1 2 3 4 5 6 
#
# 1 0.009785 -0.002167 -0.001647 0.000000 0.000000 0.000000
# 2 -0.002167 0.008778 -0.004031 0.000000 0.000000 0.000000
# 3 -0.001647 -0.004031 0.009477 0.000000 0.000000 0.000000
# 4 0.000000 0.000000 0.000000 0.024239 0.000000 0.000000
# 5 0.000000 0.000000 0.000000 0.000000 -0.003998 0.000000
# 6 0.000000 0.000000 0.000000 0.000000 0.000000 0.016908
#
#
# Mechanical properties :
#
#
# Convention : Reuss Voigt Hill
#
# Bulk Modulus (GPa) = 80.97215 84.62254 82.79734
# Shear Modulus (GPa) = 58.82697 -12.64537 23.09080
#
# Velocity S-wave (km/s) = 4.98976 -2.31343 3.12616
# Velocity P-wave (km/s) = 8.21384 5.35531 6.93349
#
# Compressibility (1/GPa) = 0.01234993
#
# Stress axis : x y z
#
# Youngs Moduli (GPa) = 102.20001 113.92476 105.51473
#
# Poissons Ratio (x) = 0.24693 0.17376
# Poissons Ratio (y) = 0.22152 0.42529
# Poissons Ratio (z) = 0.16830 0.45919
#
# Static dielectric constant tensor:
#      x y z
#    x 1.874980 0.000000 0.000000 
#    y 0.000000 1.982170 0.000000 
#    z 0.000000 0.000000 1.885970 
# 
# From -- ./inp_files/5394.got.cif
#   From: 2010.05.17/outbox.cif.g08.bks.cpg/sg24_3_cif.got.tgz:5394.got - 2010.06.04 00:33:39.
