data_PCOD9336618
_publ_section_title
;
Structure prediction by ZEFSAII (Michael W. Deem and Ramdas Pophale) SiO2 
 PCOD9336618
Probable space group: I 21 21 21
;
_chemical_formula_sum "Si O2"
_cell_formula_units_Z 64
_cell_length_a 18.070450
_cell_length_b 19.419519
_cell_length_c 9.202191
_cell_angle_alpha 90.000000
_cell_angle_beta 90.000000
_cell_angle_gamma 90.000000
_cell_volume 3229.227778
_symmetry_space_group_name_H-M "I 21 21 21"
_symmetry_group_IT_number 24
_symmetry_cell_setting 'orthorhombic'
loop_
_space_group_symop_operation_xyz
x,y,z
-x,1/2-y,z
x,-y,1/2-z
1/2-x,y,-z
1/2+x,1/2+y,1/2+z
1/2-x,-y,1/2+z
1/2+x,1/2-y,-z
-x,1/2+y,1/2-z
loop_
_atom_site_type_symbol
_atom_site_label
_atom_site_fract_x
_atom_site_fract_y
_atom_site_fract_z
Si Si1 0.278077 0.342270 0.664764
Si Si2 0.080282 0.079529 0.794007
Si Si3 0.969210 0.679595 0.951910
Si Si4 0.692439 0.062055 0.132482
Si Si5 0.248204 0.075021 0.825334
Si Si6 0.186274 0.187326 0.376787
Si Si7 0.566285 0.094357 0.653701
Si Si8 0.037473 0.443140 0.029588
O O1 0.250000 0.343600 0.500000
O O2 0.219004 0.370563 0.779539
O O3 0.302545 0.263506 0.690949
O O4 0.346304 0.395385 0.667940
O O5 0.039615 0.123862 0.673373
O O6 0.165091 0.102551 0.798176
O O7 0.081617 0.000000 0.750000
O O8 0.034724 0.078975 0.942263
O O9 0.000000 0.750000 0.886904
O O10 0.892063 0.684624 0.039657
O O11 0.031757 0.655683 0.063503
O O12 0.692271 0.000000 0.250000
O O13 0.750000 0.048697 0.000000
O O14 0.611070 0.070803 0.064603
O O15 0.303163 0.128440 0.745623
O O16 0.257386 0.000000 0.750000
O O17 0.250000 0.067648 0.000000
O O18 0.250000 0.176834 0.500000
O O19 0.537384 0.094292 0.816751
O O20 0.543418 0.023884 0.573290
#
# Coordination Sequence:
#
# PCOD9336618 Si02
#       8
#     8   8   8   8   8   8   8   8
#     4  11  24  41  66  94 133 179 225 266 328 400
#     4  11  24  44  67 100 131 173 224 282 342 408
#     4  12  25  45  72  98 137 179 226 276 338 412
#     4  12  23  38  62  95 135 177 225 276 324 396
#     4  11  26  45  71 100 133 170 225 289 350 408
#     4  11  24  46  69  97 131 174 222 274 338 411
#     4  11  23  43  63  98 133 176 223 272 336 398
#     4  11  24  40  65  96 135 173 226 279 332 397
#
# _framework density 19.81898
#
# number of rings (size 3 to 8) (size 9 to 14) (size 15 to 20)
#    0.000    0.750    5.000    2.625    5.250    0.500 
#    0.000    0.625    0.000    0.000    0.000    0.000 
#    0.000    0.000    0.000    0.000    0.000    0.000 
#
# Total GULP energy -178822.334619 kJ/mol
# GULP energy per Si atom -5588.197957 kJ/mol
# Density = 1.977387 g / cm^3
# Si number density = 19.818980 Si / 1000 Ang^3
#
#
#
# Elastic Constant Matrix: (Units=GPa)
#
#
# Indices 1 2 3 4 5 6 
#
# 1 39.2105 -7.4880 13.7045 0.0000 0.0000 0.0000
# 2 -7.4880 58.2537 36.5796 0.0000 0.0000 0.0000
# 3 13.7045 36.5796 103.8718 0.0000 0.0000 0.0000
# 4 0.0000 0.0000 0.0000 22.9266 0.0000 0.0000
# 5 0.0000 0.0000 0.0000 0.0000 -2.7233 0.0000
# 6 0.0000 0.0000 0.0000 0.0000 0.0000 22.7141
#
#
#
# Elastic Compliance Matrix: (Units=1/GPa)
#
#
# Indices 1 2 3 4 5 6 
#
# 1 0.029360 0.007968 -0.006680 0.000000 0.000000 0.000000
# 2 0.007968 0.024203 -0.009575 0.000000 0.000000 0.000000
# 3 -0.006680 -0.009575 0.013880 0.000000 0.000000 0.000000
# 4 0.000000 0.000000 0.000000 0.043617 0.000000 0.000000
# 5 0.000000 0.000000 0.000000 0.000000 -0.367205 0.000000
# 6 0.000000 0.000000 0.000000 0.000000 0.000000 0.044025
#
#
# Mechanical properties :
#
#
# Convention : Reuss Voigt Hill
#
# Bulk Modulus (GPa) = 19.65760 31.88092 25.76926
# Shear Modulus (GPa) = -27.99701 19.15282 -4.42209
#
# Velocity S-wave (km/s) = -3.76258 3.11205 -1.49535
# Velocity P-wave (km/s) = 2.98930 5.38833 3.17003
#
# Compressibility (1/GPa) = 0.05087091
#
# Stress axis : x y z
#
# Youngs Moduli (GPa) = 34.06023 41.31759 72.04428
#
# Poissons Ratio (x) = -0.32923 0.48124
# Poissons Ratio (y) = -0.27141 0.68979
# Poissons Ratio (z) = 0.22752 0.39560
#
# Static dielectric constant tensor:
#      x y z
#    x 1.712680 0.000000 0.000000 
#    y 0.000000 1.721010 0.000000 
#    z 0.000000 0.000000 1.660700 
# 
# From -- ./inp_files/14593.got.cif
#   From: 2010.05.17/outbox.cif.g08.bks.cpg/sg24_8_cif.got.tgz:14593.got - 2010.06.04 00:33:39.
