data_PCOD9336173
_publ_section_title
;
Structure prediction by ZEFSAII (Michael W. Deem and Ramdas Pophale) SiO2 
 PCOD9336173
Probable space group: I 21 21 21
;
_chemical_formula_sum "Si O2"
_cell_formula_units_Z 48
_cell_length_a 27.623879
_cell_length_b 14.914298
_cell_length_c 5.170689
_cell_angle_alpha 90.000000
_cell_angle_beta 90.000000
_cell_angle_gamma 90.000000
_cell_volume 2130.276108
_symmetry_space_group_name_H-M "I 21 21 21"
_symmetry_group_IT_number 24
_symmetry_cell_setting 'orthorhombic'
loop_
_space_group_symop_operation_xyz
x,y,z
-x,1/2-y,z
x,-y,1/2-z
1/2-x,y,-z
1/2+x,1/2+y,1/2+z
1/2-x,-y,1/2+z
1/2+x,1/2-y,-z
-x,1/2+y,1/2-z
loop_
_atom_site_type_symbol
_atom_site_label
_atom_site_fract_x
_atom_site_fract_y
_atom_site_fract_z
Si Si1 0.948810 0.662824 0.510110
Si Si2 0.750000 0.636665 0.500000
Si Si3 0.944581 0.866054 0.608830
Si Si4 0.898257 0.000000 0.250000
Si Si5 0.143336 0.670713 0.013892
Si Si6 0.605734 0.365828 0.522997
Si Si7 0.250000 0.734584 0.000000
Si Si8 0.177113 0.000000 0.250000
O O1 0.946341 0.770349 0.457079
O O2 0.937541 0.620337 0.231796
O O3 0.997851 0.633075 0.659583
O O4 0.909020 0.641487 0.725629
O O5 0.747169 0.701062 0.250867
O O6 0.792619 0.568671 0.424181
O O7 0.932783 0.958994 0.468538
O O8 0.899858 0.849970 0.805261
O O9 0.865505 0.913555 0.198072
O O10 0.130628 0.771319 0.101295
O O11 0.200846 0.676402 0.968565
O O12 0.643881 0.442557 0.563134
#
# Coordination Sequence:
#
# PCOD9336173 Si02
#       8
#     8   4   8   4   8   8   4   4
#     4  10  24  45  74 107 150 206 242 301 372 454
#     4  12  29  50  79 114 150 206 247 316 383 468
#     4  10  24  44  75 104 150 194 256 303 376 446
#     4  12  24  47  76 106 148 192 253 316 386 432
#     4  11  26  50  74 109 143 202 245 325 371 456
#     4  11  25  45  74 109 156 194 249 302 376 446
#     4  12  29  52  85 104 152 198 261 308 397 450
#     4  12  28  47  76 120 152 198 251 316 378 460
#
# _framework density 22.532291000000001
#
# number of rings (size 3 to 8) (size 9 to 14) (size 15 to 20)
#    0.000    1.000    3.333    1.000    9.333    4.000 
#    6.000    0.000    0.000    0.000    0.000    0.000 
#    0.000    0.000    0.000    0.000    0.000    0.000 
#
# Total GULP energy -133737.974401 kJ/mol
# GULP energy per Si atom -5572.415600 kJ/mol
# Density = 2.248101 g / cm^3
# Si number density = 22.532291 Si / 1000 Ang^3
#
#
#
# Elastic Constant Matrix: (Units=GPa)
#
#
# Indices 1 2 3 4 5 6 
#
# 1 79.1106 12.6118 -13.4757 0.0000 0.0000 0.0000
# 2 12.6118 96.0842 6.7623 0.0000 0.0000 0.0000
# 3 -13.4757 6.7623 65.6182 0.0000 0.0000 0.0000
# 4 0.0000 0.0000 0.0000 28.1381 0.0000 0.0000
# 5 0.0000 0.0000 0.0000 0.0000 11.6975 0.0000
# 6 0.0000 0.0000 0.0000 0.0000 0.0000 38.8644
#
#
#
# Elastic Compliance Matrix: (Units=1/GPa)
#
#
# Indices 1 2 3 4 5 6 
#
# 1 0.013461 -0.001976 0.002968 0.000000 0.000000 0.000000
# 2 -0.001976 0.010774 -0.001516 0.000000 0.000000 0.000000
# 3 0.002968 -0.001516 0.016005 0.000000 0.000000 0.000000
# 4 0.000000 0.000000 0.000000 0.035539 0.000000 0.000000
# 5 0.000000 0.000000 0.000000 0.000000 0.085489 0.000000
# 6 0.000000 0.000000 0.000000 0.000000 0.000000 0.025730
#
#
# Mechanical properties :
#
#
# Convention : Reuss Voigt Hill
#
# Bulk Modulus (GPa) = 25.51501 28.06775 26.79138
# Shear Modulus (GPa) = 24.86203 31.40097 28.13150
#
# Velocity S-wave (km/s) = 3.32534 3.73714 3.53724
# Velocity P-wave (km/s) = 5.10805 5.57722 5.34778
#
# Compressibility (1/GPa) = 0.03919262
#
# Stress axis : x y z
#
# Youngs Moduli (GPa) = 74.28823 92.81979 62.47878
#
# Poissons Ratio (x) = 0.18339 -0.18544
# Poissons Ratio (y) = 0.14678 0.09472
# Poissons Ratio (z) = -0.22049 0.14072
#
# Static dielectric constant tensor:
#      x y z
#    x 1.905230 0.000000 0.000000 
#    y 0.000000 1.815470 0.000000 
#    z 0.000000 0.000000 1.868960 
# 
# From -- ./inp_files/7169.got.cif
#   From: 2010.05.17/outbox.cif.g08.bks.cpg/sg24_4_cif.got.tgz:7169.got - 2010.06.04 00:33:39.
