data_PCOD9336878
_publ_section_title
;
Structure prediction by ZEFSAII (Michael W. Deem and Ramdas Pophale) SiO2 
 PCOD9336878
Probable space group: I 21 21 21
;
_chemical_formula_sum "Si O2"
_cell_formula_units_Z 20
_cell_length_a 14.045306
_cell_length_b 12.364160
_cell_length_c 4.958753
_cell_angle_alpha 90.000000
_cell_angle_beta 90.000000
_cell_angle_gamma 90.000000
_cell_volume 861.129165
_symmetry_space_group_name_H-M "I 21 21 21"
_symmetry_group_IT_number 24
_symmetry_cell_setting 'orthorhombic'
loop_
_space_group_symop_operation_xyz
x,y,z
-x,1/2-y,z
x,-y,1/2-z
1/2-x,y,-z
1/2+x,1/2+y,1/2+z
1/2-x,-y,1/2+z
1/2+x,1/2-y,-z
-x,1/2+y,1/2-z
loop_
_atom_site_type_symbol
_atom_site_label
_atom_site_fract_x
_atom_site_fract_y
_atom_site_fract_z
Si Si1 0.750000 0.572999 0.000000
Si Si2 0.109317 0.260638 0.577706
Si Si3 0.852299 0.097850 0.094430
O O1 0.784279 0.500000 0.250000
O O2 0.664806 0.648454 0.117129
O O3 0.162327 0.313859 0.324368
O O4 0.000000 0.250000 0.491924
O O5 0.106925 0.340644 0.835345
O O6 0.905077 0.000000 0.250000
O O7 0.750000 0.054728 0.000000
#
# Coordination Sequence:
#
# PCOD9336878 Si02
#       3
#     4   8   8
#     4  12  26  48  72 100 148 198 242 298 370 440
#     4  12  26  46  72 106 148 191 249 303 363 448
#     4  12  23  44  73 106 138 184 236 305 374 432
#
# _framework density 23.225321000000001
#
# number of rings (size 3 to 8) (size 9 to 14) (size 15 to 20)
#    0.000    0.000    4.000    7.200    0.000    4.800 
#    0.000    0.000    0.000    0.000    0.000    0.000 
#    0.000    0.000    0.000    0.000    0.000    0.000 
#
# Total GULP energy -55889.494993 kJ/mol
# GULP energy per Si atom -5588.949499 kJ/mol
# Density = 2.317246 g / cm^3
# Si number density = 23.225321 Si / 1000 Ang^3
#
#
#
# Elastic Constant Matrix: (Units=GPa)
#
#
# Indices 1 2 3 4 5 6 
#
# 1 82.9949 21.9212 4.6774 0.0000 0.0000 0.0000
# 2 21.9212 91.4456 35.9232 0.0000 0.0000 0.0000
# 3 4.6774 35.9232 157.1820 0.0000 0.0000 0.0000
# 4 0.0000 0.0000 0.0000 -140.7063 0.0000 0.0000
# 5 0.0000 0.0000 0.0000 0.0000 18.8978 0.0000
# 6 0.0000 0.0000 0.0000 0.0000 0.0000 0.5038
#
#
#
# Elastic Compliance Matrix: (Units=1/GPa)
#
#
# Indices 1 2 3 4 5 6 
#
# 1 0.012881 -0.003227 0.000354 0.000000 0.000000 0.000000
# 2 -0.003227 0.012823 -0.002834 0.000000 0.000000 0.000000
# 3 0.000354 -0.002834 0.006999 0.000000 0.000000 0.000000
# 4 0.000000 0.000000 0.000000 -0.007107 0.000000 0.000000
# 5 0.000000 0.000000 0.000000 0.000000 0.052916 0.000000
# 6 0.000000 0.000000 0.000000 0.000000 0.000000 1.984750
#
#
# Mechanical properties :
#
#
# Convention : Reuss Voigt Hill
#
# Bulk Modulus (GPa) = 46.97368 50.74069 48.85718
# Shear Modulus (GPa) = 2.40180 -6.32089 -1.95955
#
# Velocity S-wave (km/s) = 1.01802 -1.65150 -0.91953
# Velocity P-wave (km/s) = 4.65306 4.27293 4.46704
#
# Compressibility (1/GPa) = 0.02128852
#
# Stress axis : x y z
#
# Youngs Moduli (GPa) = 77.63177 77.98772 142.87101
#
# Poissons Ratio (x) = 0.25167 -0.05061
# Poissons Ratio (y) = 0.25052 0.40497
# Poissons Ratio (z) = -0.02750 0.22106
#
# Static dielectric constant tensor:
#      x y z
#    x 1.912220 0.000000 0.000000 
#    y 0.000000 1.948660 0.000000 
#    z 0.000000 0.000000 1.849650 
# 
# From -- ./inp_files/1502.got.cif
#   From: 2010.05.17/outbox.cif.g08.bks.cpg/sg24_1_cif.got.tgz:1502.got - 2010.06.04 00:33:39.
