data_PCOD9336304
_publ_section_title
;
Structure prediction by ZEFSAII (Michael W. Deem and Ramdas Pophale) SiO2 
 PCOD9336304
Probable space group: I 21 21 21
;
_chemical_formula_sum "Si O2"
_cell_formula_units_Z 56
_cell_length_a 15.286178
_cell_length_b 5.400677
_cell_length_c 29.418481
_cell_angle_alpha 90.000000
_cell_angle_beta 90.000000
_cell_angle_gamma 90.000000
_cell_volume 2428.663584
_symmetry_space_group_name_H-M "I 21 21 21"
_symmetry_group_IT_number 24
_symmetry_cell_setting 'orthorhombic'
loop_
_space_group_symop_operation_xyz
x,y,z
-x,1/2-y,z
x,-y,1/2-z
1/2-x,y,-z
1/2+x,1/2+y,1/2+z
1/2-x,-y,1/2+z
1/2+x,1/2-y,-z
-x,1/2+y,1/2-z
loop_
_atom_site_type_symbol
_atom_site_label
_atom_site_fract_x
_atom_site_fract_y
_atom_site_fract_z
Si Si1 0.191503 0.157471 0.121373
Si Si2 0.000000 0.750000 0.625156
Si Si3 0.724520 0.000000 0.750000
Si Si4 0.908847 0.631497 0.202052
Si Si5 0.826849 0.960213 0.667068
Si Si6 0.405076 0.134152 0.972814
Si Si7 0.867839 0.637298 0.892731
Si Si8 0.846786 0.871305 0.985096
O O1 0.240347 0.410305 0.136059
O O2 0.128808 0.161750 0.078526
O O3 0.138649 0.040220 0.164303
O O4 0.277078 0.008787 0.104636
O O5 0.085121 0.681426 0.654210
O O6 0.955282 0.522119 0.598870
O O7 0.662719 0.170654 0.719300
O O8 0.790553 0.128195 0.784871
O O9 0.933018 0.500000 0.250000
O O10 0.000000 0.750000 0.184417
O O11 0.859101 0.238218 0.657030
O O12 0.500000 0.250000 0.974817
O O13 0.354400 0.339980 0.002469
O O14 0.400949 0.850903 0.990181
O O15 0.863620 0.842704 0.931734
O O16 0.750000 0.795936 0.000000
#
# Coordination Sequence:
#
# PCOD9336304 Si02
#       8
#     8   4   4   8   8   8   8   8
#     4  11  25  46  72 102 146 198 241 311 377 462
#     4  10  26  44  68 114 140 186 252 308 374 452
#     4  12  24  44  72 104 146 192 240 312 372 464
#     4  12  25  44  72 108 145 191 249 305 377 451
#     4  11  24  45  72 101 142 190 248 300 382 449
#     4  12  29  47  72 114 152 194 254 312 382 444
#     4  11  24  46  75 103 145 196 248 304 380 447
#     4  12  26  48  76 107 147 202 254 310 373 455
#
# _framework density 23.057946999999999
#
# number of rings (size 3 to 8) (size 9 to 14) (size 15 to 20)
#    0.000    0.571    5.000    2.143    5.000    4.000 
#    2.571    0.000    0.000    0.000    0.000    0.000 
#    0.000    0.000    0.000    0.000    0.000    0.000 
#
# Total GULP energy -156233.920921 kJ/mol
# GULP energy per Si atom -5579.782890 kJ/mol
# Density = 2.300547 g / cm^3
# Si number density = 23.057947 Si / 1000 Ang^3
#
#
#
# Elastic Constant Matrix: (Units=GPa)
#
#
# Indices 1 2 3 4 5 6 
#
# 1 130.6216 9.0722 27.5341 0.0000 0.0000 0.0000
# 2 9.0722 63.7779 14.5705 0.0000 0.0000 0.0000
# 3 27.5341 14.5705 83.0334 0.0000 0.0000 0.0000
# 4 0.0000 0.0000 0.0000 25.2826 0.0000 0.0000
# 5 0.0000 0.0000 0.0000 0.0000 24.1421 0.0000
# 6 0.0000 0.0000 0.0000 0.0000 0.0000 36.3206
#
#
#
# Elastic Compliance Matrix: (Units=1/GPa)
#
#
# Indices 1 2 3 4 5 6 
#
# 1 0.008251 -0.000572 -0.002636 0.000000 0.000000 0.000000
# 2 -0.000572 0.016374 -0.002684 0.000000 0.000000 0.000000
# 3 -0.002636 -0.002684 0.013388 0.000000 0.000000 0.000000
# 4 0.000000 0.000000 0.000000 0.039553 0.000000 0.000000
# 5 0.000000 0.000000 0.000000 0.000000 0.041421 0.000000
# 6 0.000000 0.000000 0.000000 0.000000 0.000000 0.027533
#
#
# Mechanical properties :
#
#
# Convention : Reuss Voigt Hill
#
# Bulk Modulus (GPa) = 38.12264 42.19848 40.16056
# Shear Modulus (GPa) = 29.93194 32.23282 31.08238
#
# Velocity S-wave (km/s) = 3.60685 3.74291 3.67551
# Velocity P-wave (km/s) = 5.82367 6.08440 5.95546
#
# Compressibility (1/GPa) = 0.02623113
#
# Stress axis : x y z
#
# Youngs Moduli (GPa) = 121.19749 61.07308 74.69206
#
# Poissons Ratio (x) = 0.03490 0.19687
# Poissons Ratio (y) = 0.06927 0.20045
# Poissons Ratio (z) = 0.31945 0.16390
#
# Static dielectric constant tensor:
#      x y z
#    x 1.909050 0.000000 0.000000 
#    y 0.000000 2.034960 0.000000 
#    z 0.000000 0.000000 1.869840 
# 
# From -- ./inp_files/38734.got.cif
#   From: 2010.05.17/outbox.cif.g08.bks.cpg/sg24_20_cif.got.tgz:38734.got - 2010.06.04 00:33:39.
