data_PCOD9336547
_publ_section_title
;
Structure prediction by ZEFSAII (Michael W. Deem and Ramdas Pophale) SiO2 
 PCOD9336547
Probable space group: I 21 21 21
;
_chemical_formula_sum "Si O2"
_cell_formula_units_Z 56
_cell_length_a 14.922324
_cell_length_b 22.027663
_cell_length_c 8.394590
_cell_angle_alpha 90.000000
_cell_angle_beta 90.000000
_cell_angle_gamma 90.000000
_cell_volume 2759.334675
_symmetry_space_group_name_H-M "I 21 21 21"
_symmetry_group_IT_number 24
_symmetry_cell_setting 'orthorhombic'
loop_
_space_group_symop_operation_xyz
x,y,z
-x,1/2-y,z
x,-y,1/2-z
1/2-x,y,-z
1/2+x,1/2+y,1/2+z
1/2-x,-y,1/2+z
1/2+x,1/2-y,-z
-x,1/2+y,1/2-z
loop_
_atom_site_type_symbol
_atom_site_label
_atom_site_fract_x
_atom_site_fract_y
_atom_site_fract_z
Si Si1 0.608748 0.414984 0.121933
Si Si2 0.650945 0.983788 0.062359
Si Si3 0.750000 0.327279 0.000000
Si Si4 0.500000 0.250000 0.573760
Si Si5 0.601656 0.763068 0.616123
Si Si6 0.012885 0.614348 0.074197
Si Si7 0.353869 0.954959 0.023388
Si Si8 0.572356 0.109554 0.941765
O O1 0.630969 0.473169 0.012069
O O2 0.607539 0.436817 0.303327
O O3 0.691548 0.369520 0.113787
O O4 0.515316 0.389859 0.054762
O O5 0.651247 0.000000 0.250000
O O6 0.750000 0.967065 0.000000
O O7 0.580653 0.930001 0.021257
O O8 0.620882 0.045966 0.973982
O O9 0.675389 0.285718 0.921615
O O10 0.584587 0.243257 0.693979
O O11 0.499787 0.182218 0.499734
O O12 0.500000 0.750000 0.553813
O O13 0.627422 0.828002 0.540976
O O14 0.045986 0.616245 0.256403
O O15 0.916715 0.582621 0.091253
O O16 0.250000 0.941894 0.000000
#
# Coordination Sequence:
#
# PCOD9336547 Si02
#       8
#     8   8   4   4   8   8   8   8
#     4  11  23  38  60  92 135 164 217 267 325 387
#     4  12  26  45  71 103 133 170 226 281 336 397
#     4  12  20  38  64  90 126 176 214 272 330 386
#     4   8  20  42  66  90 134 168 222 264 340 394
#     4   9  20  37  59  94 126 166 218 268 317 400
#     4  11  22  43  70  94 135 177 216 271 338 393
#     4  11  25  37  59  97 133 172 215 267 325 394
#     4  11  22  42  68  96 131 172 218 274 333 387
#
# _framework density 20.294747999999998
#
# number of rings (size 3 to 8) (size 9 to 14) (size 15 to 20)
#    0.429    0.857    3.571    2.143    5.000    0.000 
#    0.000    3.571    0.000    0.000    0.000    0.000 
#    0.000    0.000    0.000    0.000    0.000    0.000 
#
# Total GULP energy -156049.605221 kJ/mol
# GULP energy per Si atom -5573.200186 kJ/mol
# Density = 2.024856 g / cm^3
# Si number density = 20.294748 Si / 1000 Ang^3
#
#
#
# Elastic Constant Matrix: (Units=GPa)
#
#
# Indices 1 2 3 4 5 6 
#
# 1 88.5160 41.9268 -2.6025 0.0000 0.0000 0.0000
# 2 41.9268 155.4664 7.4967 0.0000 0.0000 0.0000
# 3 -2.6025 7.4967 40.3793 0.0000 0.0000 0.0000
# 4 0.0000 0.0000 0.0000 28.1020 0.0000 0.0000
# 5 0.0000 0.0000 0.0000 0.0000 15.8144 0.0000
# 6 0.0000 0.0000 0.0000 0.0000 0.0000 34.1937
#
#
#
# Elastic Compliance Matrix: (Units=1/GPa)
#
#
# Indices 1 2 3 4 5 6 
#
# 1 0.013042 -0.003590 0.001507 0.000000 0.000000 0.000000
# 2 -0.003590 0.007479 -0.001620 0.000000 0.000000 0.000000
# 3 0.001507 -0.001620 0.025163 0.000000 0.000000 0.000000
# 4 0.000000 0.000000 0.000000 0.035585 0.000000 0.000000
# 5 0.000000 0.000000 0.000000 0.000000 0.063233 0.000000
# 6 0.000000 0.000000 0.000000 0.000000 0.000000 0.029245
#
#
# Mechanical properties :
#
#
# Convention : Reuss Voigt Hill
#
# Bulk Modulus (GPa) = 26.12443 42.00042 34.06242
# Shear Modulus (GPa) = 25.78493 31.45807 28.62150
#
# Velocity S-wave (km/s) = 3.56831 3.94135 3.75946
# Velocity P-wave (km/s) = 5.46603 6.43836 5.97202
#
# Compressibility (1/GPa) = 0.03827835
#
# Stress axis : x y z
#
# Youngs Moduli (GPa) = 76.67470 133.71648 39.74081
#
# Poissons Ratio (x) = 0.48003 -0.05989
# Poissons Ratio (y) = 0.27526 0.06437
# Poissons Ratio (z) = -0.11556 0.21660
#
# Static dielectric constant tensor:
#      x y z
#    x 1.702670 0.000000 0.000000 
#    y 0.000000 1.818640 0.000000 
#    z 0.000000 0.000000 1.750760 
# 
# From -- ./inp_files/13199.got.cif
#   From: 2010.05.17/outbox.cif.g08.bks.cpg/sg24_7_cif.got.tgz:13199.got - 2010.06.04 00:33:39.
