data_PCOD9336515
_publ_section_title
;
Structure prediction by ZEFSAII (Michael W. Deem and Ramdas Pophale) SiO2 
 PCOD9336515
Probable space group: I 21 21 21
;
_chemical_formula_sum "Si O2"
_cell_formula_units_Z 48
_cell_length_a 8.097941
_cell_length_b 21.068679
_cell_length_c 13.717969
_cell_angle_alpha 90.000000
_cell_angle_beta 90.000000
_cell_angle_gamma 90.000000
_cell_volume 2340.462741
_symmetry_space_group_name_H-M "I 21 21 21"
_symmetry_group_IT_number 24
_symmetry_cell_setting 'orthorhombic'
loop_
_space_group_symop_operation_xyz
x,y,z
-x,1/2-y,z
x,-y,1/2-z
1/2-x,y,-z
1/2+x,1/2+y,1/2+z
1/2-x,-y,1/2+z
1/2+x,1/2-y,-z
-x,1/2+y,1/2-z
loop_
_atom_site_type_symbol
_atom_site_label
_atom_site_fract_x
_atom_site_fract_y
_atom_site_fract_z
Si Si1 0.994755 0.062191 0.382760
Si Si2 0.250000 0.142187 0.500000
Si Si3 0.250000 0.363027 0.500000
Si Si4 0.750000 0.351839 0.000000
Si Si5 0.172554 0.741828 0.864478
Si Si6 0.342210 0.704975 0.677473
Si Si7 0.500000 0.250000 0.079017
Si Si8 0.461353 0.917064 0.657025
O O1 0.108670 0.094592 0.464247
O O2 0.060772 0.079169 0.274452
O O3 0.820911 0.092983 0.414456
O O4 0.991625 0.986239 0.382727
O O5 0.224884 0.191699 0.588925
O O6 0.133449 0.310638 0.552421
O O7 0.910080 0.309128 0.974624
O O8 0.694631 0.392197 0.905311
O O9 0.309537 0.714863 0.792648
O O10 0.000000 0.750000 0.809596
O O11 0.500000 0.750000 0.655600
O O12 0.168118 0.723067 0.628937
O O13 0.393602 0.634498 0.648614
#
# Coordination Sequence:
#
# PCOD9336515 Si02
#       8
#     8   4   4   4   8   8   4   8
#     4  11  24  43  67  99 139 191 234 285 355 448
#     4  11  23  38  66 100 142 180 234 298 369 443
#     4  11  22  40  64 100 147 180 232 292 371 444
#     4  12  25  48  66  98 133 180 234 300 352 415
#     4  11  22  37  66 107 139 182 227 301 380 437
#     4  12  23  43  71 104 141 179 233 304 364 430
#     4  12  26  42  72 100 130 172 236 298 364 414
#     4  11  25  45  70  95 139 194 240 287 354 430
#
# _framework density 20.508762999999998
#
# number of rings (size 3 to 8) (size 9 to 14) (size 15 to 20)
#    0.000    0.667    5.833    2.500    0.000    1.333 
#    0.000    0.000    0.000    2.000    0.000    0.000 
#    0.000    0.000    0.000    0.000    0.000    0.000 
#
# Total GULP energy -133695.632461 kJ/mol
# GULP energy per Si atom -5570.651353 kJ/mol
# Density = 2.046208 g / cm^3
# Si number density = 20.508763 Si / 1000 Ang^3
#
#
#
# Elastic Constant Matrix: (Units=GPa)
#
#
# Indices 1 2 3 4 5 6 
#
# 1 91.8453 54.0320 32.1189 0.0000 0.0000 0.0000
# 2 54.0320 163.1806 54.2122 0.0001 0.0000 0.0000
# 3 32.1189 54.2122 75.9102 0.0002 0.0000 0.0000
# 4 0.0000 0.0001 0.0002 34.1334 0.0000 0.0000
# 5 0.0000 0.0000 0.0000 0.0000 37.6513 0.0000
# 6 0.0000 0.0000 0.0000 0.0000 0.0000 25.8920
#
#
#
# Elastic Compliance Matrix: (Units=1/GPa)
#
#
# Indices 1 2 3 4 5 6 
#
# 1 0.014187 -0.003544 -0.003472 0.000000 0.000000 0.000000
# 2 -0.003544 0.008920 -0.004871 0.000000 0.000000 0.000000
# 3 -0.003472 -0.004871 0.018121 0.000000 0.000000 0.000000
# 4 0.000000 0.000000 0.000000 0.029297 0.000000 0.000000
# 5 0.000000 0.000000 0.000000 0.000000 0.026560 0.000000
# 6 0.000000 0.000000 0.000000 0.000000 0.000000 0.038622
#
#
# Mechanical properties :
#
#
# Convention : Reuss Voigt Hill
#
# Bulk Modulus (GPa) = 57.29109 67.96250 62.62680
# Shear Modulus (GPa) = 30.24860 32.24020 31.24440
#
# Velocity S-wave (km/s) = 3.84462 3.96917 3.90739
# Velocity P-wave (km/s) = 6.90679 7.36315 7.13862
#
# Compressibility (1/GPa) = 0.01745472
#
# Stress axis : x y z
#
# Youngs Moduli (GPa) = 70.48732 112.10953 55.18540
#
# Poissons Ratio (x) = 0.39734 0.19158
# Poissons Ratio (y) = 0.24982 0.26879
# Poissons Ratio (z) = 0.24470 0.54604
#
# Static dielectric constant tensor:
#      x y z
#    x 1.804350 0.000000 0.000000 
#    y 0.000000 1.708300 0.000000 
#    z 0.000000 0.000000 1.825390 
# 
# From -- ./inp_files/24988.got.cif
#   From: 2010.05.17/outbox.cif.g08.bks.cpg/sg24_13_cif.got.tgz:24988.got - 2010.06.04 00:33:39.
