data_PCOD9336273
_publ_section_title
;
Structure prediction by ZEFSAII (Michael W. Deem and Ramdas Pophale) SiO2 
 PCOD9336273
Probable space group: I 21 21 21
;
_chemical_formula_sum "Si O2"
_cell_formula_units_Z 32
_cell_length_a 12.999679
_cell_length_b 5.080381
_cell_length_c 18.108265
_cell_angle_alpha 90.000000
_cell_angle_beta 90.000000
_cell_angle_gamma 90.000000
_cell_volume 1195.929980
_symmetry_space_group_name_H-M "I 21 21 21"
_symmetry_group_IT_number 24
_symmetry_cell_setting 'orthorhombic'
loop_
_space_group_symop_operation_xyz
x,y,z
-x,1/2-y,z
x,-y,1/2-z
1/2-x,y,-z
1/2+x,1/2+y,1/2+z
1/2-x,-y,1/2+z
1/2+x,1/2-y,-z
-x,1/2+y,1/2-z
loop_
_atom_site_type_symbol
_atom_site_label
_atom_site_fract_x
_atom_site_fract_y
_atom_site_fract_z
Si Si1 0.000000 0.750000 0.413946
Si Si2 0.073635 0.500000 0.250000
Si Si3 0.620309 0.184373 0.319716
Si Si4 0.848500 0.040709 0.511606
Si Si5 0.320587 0.865676 0.867991
O O1 0.905694 0.593275 0.374060
O O2 0.049702 0.546536 0.470408
O O3 0.138686 0.619168 0.182026
O O4 0.500000 0.250000 0.308798
O O5 0.707719 0.413561 0.332014
O O6 0.647976 0.000000 0.250000
O O7 0.627418 0.060697 0.402053
O O8 0.750000 0.847707 0.500000
O O9 0.813605 0.260173 0.450817
O O10 0.500000 0.750000 0.738627
#
# Coordination Sequence:
#
# PCOD9336273 Si02
#       5
#     4   4   8   8   8
#     4  12  24  46  88 126 162 228 296 370 444 530
#     4  12  28  48  78 120 170 216 274 356 448 526
#     4  11  25  52  77 116 172 231 291 358 441 529
#     4  10  25  46  77 116 168 220 283 362 436 522
#     4  11  26  51  77 121 170 219 291 366 444 520
#
# _framework density 26.757421000000001
#
# number of rings (size 3 to 8) (size 9 to 14) (size 15 to 20)
#    0.000    1.000    1.250    3.750    8.750    5.000 
#    6.750    0.000    0.000    0.000    0.000    0.000 
#    0.000    0.000    0.000    0.000    0.000    0.000 
#
# Total GULP energy -89120.792951 kJ/mol
# GULP energy per Si atom -5570.049559 kJ/mol
# Density = 2.669652 g / cm^3
# Si number density = 26.757421 Si / 1000 Ang^3
#
#
#
# Elastic Constant Matrix: (Units=GPa)
#
#
# Indices 1 2 3 4 5 6 
#
# 1 192.4767 45.9079 79.3198 0.0000 0.0000 0.0000
# 2 45.9079 92.6209 73.7068 0.0000 0.0000 0.0000
# 3 79.3198 73.7068 226.0297 0.0000 0.0000 0.0000
# 4 0.0000 0.0000 0.0000 -68.3004 0.0000 0.0000
# 5 0.0000 0.0000 0.0000 0.0000 15.3431 0.0000
# 6 0.0000 0.0000 0.0000 0.0000 0.0000 23.9465
#
#
#
# Elastic Compliance Matrix: (Units=1/GPa)
#
#
# Indices 1 2 3 4 5 6 
#
# 1 0.006298 -0.001840 -0.001610 0.000000 0.000000 0.000000
# 2 -0.001840 0.015118 -0.004284 0.000000 0.000000 0.000000
# 3 -0.001610 -0.004284 0.006386 0.000000 0.000000 0.000000
# 4 0.000000 0.000000 0.000000 -0.014641 0.000000 0.000000
# 5 0.000000 0.000000 0.000000 0.000000 0.065176 0.000000
# 6 0.000000 0.000000 0.000000 0.000000 0.000000 0.041760
#
#
# Mechanical properties :
#
#
# Convention : Reuss Voigt Hill
#
# Bulk Modulus (GPa) = 81.08103 100.99959 91.04031
# Shear Modulus (GPa) = 35.79697 15.01068 25.40383
#
# Velocity S-wave (km/s) = 3.66161 2.37110 3.08460
# Velocity P-wave (km/s) = 6.94583 6.73234 6.83992
#
# Compressibility (1/GPa) = 0.01233334
#
# Stress axis : x y z
#
# Youngs Moduli (GPa) = 158.78457 66.14580 156.58804
#
# Poissons Ratio (x) = 0.12173 0.25210
# Poissons Ratio (y) = 0.29222 0.67084
# Poissons Ratio (z) = 0.25563 0.28337
#
# Static dielectric constant tensor:
#      x y z
#    x 6.560620 0.000000 0.000000 
#    y 0.000000 2.015080 0.000000 
#    z 0.000000 0.000000 2.515320 
# 
# From -- ./inp_files/30025.got.cif
#   From: 2010.05.17/outbox.cif.g08.bks.cpg/sg24_16_cif.got.tgz:30025.got - 2010.06.04 00:33:39.
