data_PCOD9336251
_publ_section_title
;
Structure prediction by ZEFSAII (Michael W. Deem and Ramdas Pophale) SiO2 
 PCOD9336251
Probable space group: I 21 21 21
;
_chemical_formula_sum "Si O2"
_cell_formula_units_Z 32
_cell_length_a 23.571204
_cell_length_b 12.193220
_cell_length_c 5.171802
_cell_angle_alpha 90.000000
_cell_angle_beta 90.000000
_cell_angle_gamma 90.000000
_cell_volume 1486.421800
_symmetry_space_group_name_H-M "I 21 21 21"
_symmetry_group_IT_number 24
_symmetry_cell_setting 'orthorhombic'
loop_
_space_group_symop_operation_xyz
x,y,z
-x,1/2-y,z
x,-y,1/2-z
1/2-x,y,-z
1/2+x,1/2+y,1/2+z
1/2-x,-y,1/2+z
1/2+x,1/2-y,-z
-x,1/2+y,1/2-z
loop_
_atom_site_type_symbol
_atom_site_label
_atom_site_fract_x
_atom_site_fract_y
_atom_site_fract_z
Si Si1 0.429593 0.000000 0.750000
Si Si2 0.367493 0.804362 0.487009
Si Si3 0.579634 0.923885 0.495941
Si Si4 0.474354 0.851641 0.161196
Si Si5 0.750000 0.421927 0.000000
O O1 0.467184 0.042506 0.514088
O O2 0.392118 0.894561 0.684918
O O3 0.377719 0.677428 0.554622
O O4 0.411077 0.824931 0.251954
O O5 0.303903 0.844399 0.441326
O O6 0.521867 0.864991 0.386125
O O7 0.597049 0.000000 0.250000
O O8 0.575920 0.000000 0.750000
O O9 0.500000 0.750000 0.999918
O O10 0.759495 0.500000 0.250000
#
# Coordination Sequence:
#
# PCOD9336251 Si02
#       5
#     4   8   8   8   4
#     4  12  22  42  68 102 140 178 232 284 350 406
#     4  11  26  45  69 103 142 177 236 286 348 403
#     4  11  27  45  69  99 141 190 228 276 341 418
#     4  10  25  41  66 102 144 182 222 281 345 416
#     4  12  26  46  76 104 136 178 226 290 352 402
#
# _framework density 21.528209
#
# number of rings (size 3 to 8) (size 9 to 14) (size 15 to 20)
#    0.000    1.000    1.250    3.750   14.000    1.000 
#    0.000    1.250    0.000    0.000    0.000    0.000 
#    0.000    0.000    0.000    0.000    0.000    0.000 
#
# Total GULP energy -89307.497830 kJ/mol
# GULP energy per Si atom -5581.718614 kJ/mol
# Density = 2.147921 g / cm^3
# Si number density = 21.528209 Si / 1000 Ang^3
#
#
#
# Elastic Constant Matrix: (Units=GPa)
#
#
# Indices 1 2 3 4 5 6 
#
# 1 155.8194 74.7557 32.7302 0.0000 0.0000 0.0000
# 2 74.7557 172.2187 49.9389 0.0000 0.0000 0.0000
# 3 32.7302 49.9389 115.4466 0.0000 0.0000 0.0000
# 4 0.0000 0.0000 0.0000 37.0173 0.0000 0.0000
# 5 0.0000 0.0000 0.0000 0.0000 8.1980 0.0000
# 6 0.0000 0.0000 0.0000 0.0000 0.0000 34.3333
#
#
#
# Elastic Compliance Matrix: (Units=1/GPa)
#
#
# Indices 1 2 3 4 5 6 
#
# 1 0.008186 -0.003293 -0.000896 0.000000 0.000000 0.000000
# 2 -0.003293 0.007964 -0.002511 0.000000 0.000000 0.000000
# 3 -0.000896 -0.002511 0.010002 0.000000 0.000000 0.000000
# 4 0.000000 0.000000 0.000000 0.027014 0.000000 0.000000
# 5 0.000000 0.000000 0.000000 0.000000 0.121980 0.000000
# 6 0.000000 0.000000 0.000000 0.000000 0.000000 0.029126
#
#
# Mechanical properties :
#
#
# Convention : Reuss Voigt Hill
#
# Bulk Modulus (GPa) = 78.42678 84.25938 81.34308
# Shear Modulus (GPa) = 22.53000 34.98040 28.75520
#
# Velocity S-wave (km/s) = 3.23853 4.03533 3.65869
# Velocity P-wave (km/s) = 7.10584 7.80615 7.46421
#
# Compressibility (1/GPa) = 0.01275075
#
# Stress axis : x y z
#
# Youngs Moduli (GPa) = 122.15989 125.55817 99.97541
#
# Poissons Ratio (x) = 0.41352 0.08959
# Poissons Ratio (y) = 0.40233 0.25108
# Poissons Ratio (z) = 0.10947 0.31533
#
# Static dielectric constant tensor:
#      x y z
#    x 1.783580 0.000000 0.000000 
#    y 0.000000 1.931880 0.000000 
#    z 0.000000 0.000000 1.898750 
# 
# From -- ./inp_files/6135.got.cif
#   From: 2010.05.17/outbox.cif.g08.bks.cpg/sg24_4_cif.got.tgz:6135.got - 2010.06.04 00:33:39.
