data_PCOD9336943
_publ_section_title
;
Structure prediction by ZEFSAII (Michael W. Deem and Ramdas Pophale) SiO2 
 PCOD9336943
Probable space group: I 21 21 21
;
_chemical_formula_sum "Si O2"
_cell_formula_units_Z 36
_cell_length_a 25.182821
_cell_length_b 11.221840
_cell_length_c 5.397087
_cell_angle_alpha 90.000000
_cell_angle_beta 90.000000
_cell_angle_gamma 90.000000
_cell_volume 1525.203768
_symmetry_space_group_name_H-M "I 21 21 21"
_symmetry_group_IT_number 24
_symmetry_cell_setting 'orthorhombic'
loop_
_space_group_symop_operation_xyz
x,y,z
-x,1/2-y,z
x,-y,1/2-z
1/2-x,y,-z
1/2+x,1/2+y,1/2+z
1/2-x,-y,1/2+z
1/2+x,1/2-y,-z
-x,1/2+y,1/2-z
loop_
_atom_site_type_symbol
_atom_site_label
_atom_site_fract_x
_atom_site_fract_y
_atom_site_fract_z
Si Si1 0.661899 0.743959 0.689763
Si Si2 0.750000 0.073023 0.000000
Si Si3 0.051915 0.695489 0.046963
Si Si4 0.508803 0.500000 0.750000
Si Si5 0.915125 0.374356 0.864688
Si Si6 0.782957 0.500000 0.250000
O O1 0.704684 0.843011 0.620832
O O2 0.609978 0.794498 0.831535
O O3 0.637454 0.694368 0.437325
O O4 0.684722 0.622159 0.809035
O O5 0.768567 0.000000 0.750000
O O6 0.000000 0.750000 0.184707
O O7 0.031357 0.560062 0.050368
O O8 0.055164 0.781389 0.810658
O O9 0.549318 0.581104 0.593103
O O10 0.900075 0.500000 0.750000
O O11 0.750000 0.526560 0.500000
#
# Coordination Sequence:
#
# PCOD9336943 Si02
#       6
#     8   4   8   4   8   4
#     4  12  29  51  84 116 165 208 284 338 423 491
#     4  12  34  60  84 118 166 226 288 350 414 508
#     4  12  27  46  76 116 167 217 265 330 416 500
#     4  12  27  48  70 124 166 218 273 328 404 512
#     4  12  25  46  78 116 163 216 269 340 409 494
#     4  12  29  52  86 130 156 208 281 366 428 474
#
# _framework density 23.603404000000001
#
# number of rings (size 3 to 8) (size 9 to 14) (size 15 to 20)
#    0.000    0.000    5.556    2.000   14.000    0.000 
#    0.000    0.000    0.000    0.000    0.000    0.000 
#    0.000    0.000    0.000    0.000    0.000    0.000 
#
# Total GULP energy -100327.671953 kJ/mol
# GULP energy per Si atom -5573.759553 kJ/mol
# Density = 2.354968 g / cm^3
# Si number density = 23.603404 Si / 1000 Ang^3
#
#
#
# Elastic Constant Matrix: (Units=GPa)
#
#
# Indices 1 2 3 4 5 6 
#
# 1 138.0265 43.0850 27.2050 0.0000 0.0000 0.0000
# 2 43.0850 80.4979 28.2045 0.0000 0.0000 0.0000
# 3 27.2050 28.2045 73.3595 0.0000 0.0000 -0.0002
# 4 0.0000 0.0000 0.0000 54.2383 0.0000 0.0000
# 5 0.0000 0.0000 0.0000 0.0000 34.6164 0.0000
# 6 0.0000 0.0000 -0.0002 0.0000 0.0000 -184.4805
#
#
#
# Elastic Compliance Matrix: (Units=1/GPa)
#
#
# Indices 1 2 3 4 5 6 
#
# 1 0.008877 -0.004158 -0.001693 0.000000 0.000000 0.000000
# 2 -0.004158 0.016304 -0.004727 0.000000 0.000000 0.000000
# 3 -0.001693 -0.004727 0.016077 0.000000 0.000000 0.000000
# 4 0.000000 0.000000 0.000000 0.018437 0.000000 0.000000
# 5 0.000000 0.000000 0.000000 0.000000 0.028888 0.000000
# 6 0.000000 0.000000 0.000000 0.000000 0.000000 -0.005421
#
#
# Mechanical properties :
#
#
# Convention : Reuss Voigt Hill
#
# Bulk Modulus (GPa) = 49.74592 54.31921 52.03257
# Shear Modulus (GPa) = 45.03783 -6.23252 19.40265
#
# Velocity S-wave (km/s) = 4.37293 -1.62673 2.87021
# Velocity P-wave (km/s) = 6.82775 4.41983 5.75122
#
# Compressibility (1/GPa) = 0.02010215
#
# Stress axis : x y z
#
# Youngs Moduli (GPa) = 112.65619 61.33431 62.20193
#
# Poissons Ratio (x) = 0.25501 0.10533
# Poissons Ratio (y) = 0.46839 0.29400
# Poissons Ratio (z) = 0.19076 0.28990
#
# Static dielectric constant tensor:
#      x y z
#    x 1.924270 0.000000 0.000000 
#    y 0.000000 2.170760 0.000000 
#    z 0.000000 0.000000 2.075790 
# 
# From -- ./inp_files/6209.got.cif
#   From: 2010.05.17/outbox.cif.g08.bks.cpg/sg24_4_cif.got.tgz:6209.got - 2010.06.04 00:33:39.
