data_PCOD9336051
_publ_section_title
;
Structure prediction by ZEFSAII (Michael W. Deem and Ramdas Pophale) SiO2 
 PCOD9336051
Probable space group: I 21 21 21
;
_chemical_formula_sum "Si O2"
_cell_formula_units_Z 20
_cell_length_a 7.332139
_cell_length_b 7.134760
_cell_length_c 16.483179
_cell_angle_alpha 90.000000
_cell_angle_beta 90.000000
_cell_angle_gamma 90.000000
_cell_volume 862.285401
_symmetry_space_group_name_H-M "I 21 21 21"
_symmetry_group_IT_number 24
_symmetry_cell_setting 'orthorhombic'
loop_
_space_group_symop_operation_xyz
x,y,z
-x,1/2-y,z
x,-y,1/2-z
1/2-x,y,-z
1/2+x,1/2+y,1/2+z
1/2-x,-y,1/2+z
1/2+x,1/2-y,-z
-x,1/2+y,1/2-z
loop_
_atom_site_type_symbol
_atom_site_label
_atom_site_fract_x
_atom_site_fract_y
_atom_site_fract_z
Si Si1 0.000000 0.750000 0.877090
Si Si2 0.500000 0.250000 0.893623
Si Si3 0.803131 0.725449 0.238813
Si Si4 0.750000 0.484522 0.500000
O O1 0.851215 0.823328 0.812813
O O2 0.127393 0.871854 0.935778
O O3 0.344396 0.307756 0.828176
O O4 0.397864 0.103671 0.949978
O O5 0.768236 0.500000 0.250000
O O6 0.000000 0.750000 0.195889
#
# Coordination Sequence:
#
# PCOD9336051 Si02
#       4
#     4   4   8   4
#     4  12  26  48  76 112 148 196 246 308 370 432
#     4  10  26  52  70 110 152 196 246 302 372 444
#     4  10  23  48  74 104 142 202 248 289 355 464
#     4  12  28  48  74 116 152 188 240 328 368 420
#
# _framework density 23.194177
#
# number of rings (size 3 to 8) (size 9 to 14) (size 15 to 20)
#    1.200    0.000    4.000    0.000    2.800    8.000 
#    7.200    0.000    0.000    0.000    0.000    0.000 
#    0.000    0.000    0.000    0.000    0.000    0.000 
#
# Total GULP energy -55715.063806 kJ/mol
# GULP energy per Si atom -5571.506381 kJ/mol
# Density = 2.314139 g / cm^3
# Si number density = 23.194177 Si / 1000 Ang^3
#
#
#
# Elastic Constant Matrix: (Units=GPa)
#
#
# Indices 1 2 3 4 5 6 
#
# 1 102.6592 68.0532 77.0455 0.0000 0.0000 0.0000
# 2 68.0532 109.4426 62.8575 0.0000 0.0000 0.0000
# 3 77.0455 62.8575 186.9291 0.0000 0.0000 0.0000
# 4 0.0000 0.0000 0.0000 35.4389 0.0000 0.0000
# 5 0.0000 0.0000 0.0000 0.0000 44.7644 0.0000
# 6 0.0000 0.0000 0.0000 0.0000 0.0000 51.6503
#
#
#
# Elastic Compliance Matrix: (Units=1/GPa)
#
#
# Indices 1 2 3 4 5 6 
#
# 1 0.019689 -0.009397 -0.004955 0.000000 0.000000 0.000000
# 2 -0.009397 0.015809 -0.001443 0.000000 0.000000 0.000000
# 3 -0.004955 -0.001443 0.007877 0.000000 0.000000 0.000000
# 4 0.000000 0.000000 0.000000 0.028218 0.000000 0.000000
# 5 0.000000 0.000000 0.000000 0.000000 0.022339 0.000000
# 6 0.000000 0.000000 0.000000 0.000000 0.000000 0.019361
#
#
# Mechanical properties :
#
#
# Convention : Reuss Voigt Hill
#
# Bulk Modulus (GPa) = 84.85309 90.54927 87.70118
# Shear Modulus (GPa) = 33.59932 39.10903 36.35418
#
# Velocity S-wave (km/s) = 3.81019 4.11074 3.96331
# Velocity P-wave (km/s) = 7.48465 7.85209 7.67057
#
# Compressibility (1/GPa) = 0.01178507
#
# Stress axis : x y z
#
# Youngs Moduli (GPa) = 50.78899 63.25431 126.94811
#
# Poissons Ratio (x) = 0.59441 0.62907
# Poissons Ratio (y) = 0.47727 0.18318
# Poissons Ratio (z) = 0.25168 0.09127
#
# Static dielectric constant tensor:
#      x y z
#    x 1.265740 0.000000 0.000000 
#    y 0.000000 1.996760 0.000000 
#    z 0.000000 0.000000 1.912120 
# 
# From -- ./inp_files/689.got.cif
#   From: 2010.05.17/outbox.cif.g08.bks.cpg/sg24_1_cif.got.tgz:689.got - 2010.06.04 00:33:39.
