data_PCOD9336888
_publ_section_title
;
Structure prediction by ZEFSAII (Michael W. Deem and Ramdas Pophale) SiO2 
 PCOD9336888
Probable space group: I 21 21 21
;
_chemical_formula_sum "Si O2"
_cell_formula_units_Z 56
_cell_length_a 28.313551
_cell_length_b 6.337090
_cell_length_c 14.256553
_cell_angle_alpha 90.000000
_cell_angle_beta 90.000000
_cell_angle_gamma 90.000000
_cell_volume 2557.989448
_symmetry_space_group_name_H-M "I 21 21 21"
_symmetry_group_IT_number 24
_symmetry_cell_setting 'orthorhombic'
loop_
_space_group_symop_operation_xyz
x,y,z
-x,1/2-y,z
x,-y,1/2-z
1/2-x,y,-z
1/2+x,1/2+y,1/2+z
1/2-x,-y,1/2+z
1/2+x,1/2-y,-z
-x,1/2+y,1/2-z
loop_
_atom_site_type_symbol
_atom_site_label
_atom_site_fract_x
_atom_site_fract_y
_atom_site_fract_z
Si Si1 0.876006 0.831903 0.593461
Si Si2 0.933863 0.000000 0.750000
Si Si3 0.130410 0.029600 0.140072
Si Si4 0.296656 0.376665 0.847101
Si Si5 0.319587 0.302618 0.498490
Si Si6 0.044490 0.102650 0.028236
Si Si7 0.500000 0.250000 0.395056
Si Si8 0.720927 0.579545 0.405627
O O1 0.899801 0.843437 0.694798
O O2 0.916656 0.736822 0.528507
O O3 0.829387 0.690746 0.597818
O O4 0.858494 0.058558 0.555727
O O5 0.965784 0.882546 0.826814
O O6 0.155769 0.253646 0.124032
O O7 0.138517 0.000000 0.250000
O O8 0.156148 0.863146 0.071063
O O9 0.075118 0.024549 0.116121
O O10 0.302167 0.500000 0.750000
O O11 0.290716 0.541758 0.932406
O O12 0.255778 0.198687 0.833877
O O13 0.290997 0.166970 0.420642
O O14 0.000000 0.250000 0.051119
O O15 0.027518 0.912673 0.961911
O O16 0.750000 0.628156 0.500000
#
# Coordination Sequence:
#
# PCOD9336888 Si02
#       8
#     8   4   8   8   8   8   4   8
#     4  12  26  46  70 108 145 195 251 303 378 449
#     4  12  26  46  72 110 142 192 246 316 374 438
#     4  12  25  45  74 110 141 195 251 306 376 449
#     4  12  26  46  75 109 148 198 257 310 372 448
#     4  12  23  46  76  97 149 199 242 310 368 449
#     4  12  25  49  74 108 147 192 251 298 389 462
#     4  12  26  50  80 102 150 196 244 316 382 458
#     4  12  25  43  70 105 142 198 248 292 371 445
#
# _framework density 21.892194
#
# number of rings (size 3 to 8) (size 9 to 14) (size 15 to 20)
#    0.000    0.000    8.571    1.714    3.000    0.000 
#    1.286    1.429    0.000    0.000    0.000    0.000 
#    0.000    0.000    0.000    0.000    0.000    0.000 
#
# Total GULP energy -156508.189386 kJ/mol
# GULP energy per Si atom -5589.578192 kJ/mol
# Density = 2.184237 g / cm^3
# Si number density = 21.892194 Si / 1000 Ang^3
#
#
#
# Elastic Constant Matrix: (Units=GPa)
#
#
# Indices 1 2 3 4 5 6 
#
# 1 143.1766 61.6677 31.5095 0.0000 0.0000 0.0000
# 2 61.6677 132.2381 38.7674 0.0000 0.0000 0.0000
# 3 31.5095 38.7674 62.3219 0.0000 0.0000 0.0000
# 4 0.0000 0.0000 0.0000 30.3479 0.0000 0.0000
# 5 0.0000 0.0000 0.0000 0.0000 29.6487 0.0000
# 6 0.0000 0.0000 0.0000 0.0000 0.0000 40.0099
#
#
#
# Elastic Compliance Matrix: (Units=1/GPa)
#
#
# Indices 1 2 3 4 5 6 
#
# 1 0.009019 -0.003509 -0.002377 0.000000 0.000000 0.000000
# 2 -0.003509 0.010614 -0.004828 0.000000 0.000000 0.000000
# 3 -0.002377 -0.004828 0.020251 0.000000 0.000000 0.000000
# 4 0.000000 0.000000 0.000000 0.032951 0.000000 0.000000
# 5 0.000000 0.000000 0.000000 0.000000 0.033728 0.000000
# 6 0.000000 0.000000 0.000000 0.000000 0.000000 0.024994
#
#
# Mechanical properties :
#
#
# Convention : Reuss Voigt Hill
#
# Bulk Modulus (GPa) = 54.18567 66.84732 60.51650
# Shear Modulus (GPa) = 31.41935 33.72078 32.57007
#
# Velocity S-wave (km/s) = 3.79249 3.92894 3.86132
# Velocity P-wave (km/s) = 6.63191 7.15424 6.89802
#
# Compressibility (1/GPa) = 0.01845506
#
# Stress axis : x y z
#
# Youngs Moduli (GPa) = 110.87860 94.21556 49.38019
#
# Poissons Ratio (x) = 0.33060 0.11738
# Poissons Ratio (y) = 0.38907 0.23842
# Poissons Ratio (z) = 0.26357 0.45490
#
# Static dielectric constant tensor:
#      x y z
#    x 1.785710 0.000000 0.000000 
#    y 0.000000 1.875280 0.000000 
#    z 0.000000 0.000000 1.862360 
# 
# From -- ./inp_files/28247.got.cif
#   From: 2010.05.17/outbox.cif.g08.bks.cpg/sg24_15_cif.got.tgz:28247.got - 2010.06.04 00:33:39.
