data_PCOD9336818
_publ_section_title
;
Structure prediction by ZEFSAII (Michael W. Deem and Ramdas Pophale) SiO2 
 PCOD9336818
Probable space group: I 21 21 21
;
_chemical_formula_sum "Si O2"
_cell_formula_units_Z 40
_cell_length_a 19.603309
_cell_length_b 5.413095
_cell_length_c 16.891722
_cell_angle_alpha 90.000000
_cell_angle_beta 90.000000
_cell_angle_gamma 90.000000
_cell_volume 1792.457883
_symmetry_space_group_name_H-M "I 21 21 21"
_symmetry_group_IT_number 24
_symmetry_cell_setting 'orthorhombic'
loop_
_space_group_symop_operation_xyz
x,y,z
-x,1/2-y,z
x,-y,1/2-z
1/2-x,y,-z
1/2+x,1/2+y,1/2+z
1/2-x,-y,1/2+z
1/2+x,1/2-y,-z
-x,1/2+y,1/2-z
loop_
_atom_site_type_symbol
_atom_site_label
_atom_site_fract_x
_atom_site_fract_y
_atom_site_fract_z
Si Si1 0.932030 0.869683 0.675582
Si Si2 0.500000 0.750000 0.050021
Si Si3 0.250000 0.369535 0.000000
Si Si4 0.139321 0.232842 0.463849
Si Si5 0.790309 0.747495 0.199469
Si Si6 0.687784 0.551110 0.393246
O O1 0.880421 0.665277 0.642303
O O2 0.000000 0.750000 0.711387
O O3 0.896998 0.000000 0.750000
O O4 0.963465 0.047374 0.607403
O O5 0.562312 0.691930 0.991358
O O6 0.180037 0.529647 0.003190
O O7 0.255706 0.257259 0.089549
O O8 0.154619 0.242931 0.371486
O O9 0.175944 0.019783 0.515038
O O10 0.803015 0.500000 0.250000
O O11 0.718313 0.675127 0.155928
O O12 0.789551 0.000000 0.250000
#
# Coordination Sequence:
#
# PCOD9336818 Si02
#       6
#     8   4   4   8   8   8
#     4  12  26  44  69 108 158 201 250 311 387 473
#     4  12  26  44  74 104 148 208 262 308 388 466
#     4  12  20  42  76 106 148 184 270 316 368 436
#     4  12  25  45  73 109 142 201 259 318 375 474
#     4  12  28  48  76 114 153 196 254 334 398 445
#     4  12  25  43  77 107 147 204 256 318 381 474
#
# _framework density 22.315726000000002
#
# number of rings (size 3 to 8) (size 9 to 14) (size 15 to 20)
#    0.000    0.000    9.000    1.200    0.000    4.800 
#    0.000    1.000    0.000    0.000    0.000    0.000 
#    0.000    0.000    0.000    0.000    0.000    0.000 
#
# Total GULP energy -111566.528326 kJ/mol
# GULP energy per Si atom -5578.326416 kJ/mol
# Density = 2.226493 g / cm^3
# Si number density = 22.315726 Si / 1000 Ang^3
#
#
#
# Elastic Constant Matrix: (Units=GPa)
#
#
# Indices 1 2 3 4 5 6 
#
# 1 122.2059 16.2060 52.4836 0.0000 0.0000 0.0000
# 2 16.2060 97.5280 71.4756 0.0000 0.0000 0.0000
# 3 52.4836 71.4756 162.2501 0.0000 0.0000 0.0000
# 4 0.0000 0.0000 0.0000 55.6561 0.0000 0.0000
# 5 0.0000 0.0000 0.0000 0.0000 29.2522 0.0000
# 6 0.0000 0.0000 0.0000 0.0000 0.0000 36.0357
#
#
#
# Elastic Compliance Matrix: (Units=1/GPa)
#
#
# Indices 1 2 3 4 5 6 
#
# 1 0.009569 0.001002 -0.003537 0.000000 0.000000 0.000000
# 2 0.001002 0.015247 -0.007041 0.000000 0.000000 0.000000
# 3 -0.003537 -0.007041 0.010409 0.000000 0.000000 0.000000
# 4 0.000000 0.000000 0.000000 0.017967 0.000000 0.000000
# 5 0.000000 0.000000 0.000000 0.000000 0.034185 0.000000
# 6 0.000000 0.000000 0.000000 0.000000 0.000000 0.027750
#
#
# Mechanical properties :
#
#
# Convention : Reuss Voigt Hill
#
# Bulk Modulus (GPa) = 62.21315 73.59048 67.90181
# Shear Modulus (GPa) = 35.80709 40.31006 38.05857
#
# Velocity S-wave (km/s) = 4.01005 4.25473 4.13420
# Velocity P-wave (km/s) = 7.02708 7.56211 7.29950
#
# Compressibility (1/GPa) = 0.01607377
#
# Stress axis : x y z
#
# Youngs Moduli (GPa) = 104.50488 65.58672 96.07074
#
# Poissons Ratio (x) = -0.06571 0.33977
# Poissons Ratio (y) = -0.10470 0.67641
# Poissons Ratio (z) = 0.36960 0.46178
#
# Static dielectric constant tensor:
#      x y z
#    x 1.848150 0.000000 0.000000 
#    y 0.000000 2.142230 0.000000 
#    z 0.000000 0.000000 1.877180 
# 
# From -- ./inp_files/31316.got.cif
#   From: 2010.05.17/outbox.cif.g08.bks.cpg/sg24_16_cif.got.tgz:31316.got - 2010.06.04 00:33:39.
