data_PCOD9336647
_publ_section_title
;
Structure prediction by ZEFSAII (Michael W. Deem and Ramdas Pophale) SiO2 
 PCOD9336647
Probable space group: I 21 21 21
;
_chemical_formula_sum "Si O2"
_cell_formula_units_Z 40
_cell_length_a 25.680682
_cell_length_b 11.865357
_cell_length_c 5.234733
_cell_angle_alpha 90.000000
_cell_angle_beta 90.000000
_cell_angle_gamma 90.000000
_cell_volume 1595.077900
_symmetry_space_group_name_H-M "I 21 21 21"
_symmetry_group_IT_number 24
_symmetry_cell_setting 'orthorhombic'
loop_
_space_group_symop_operation_xyz
x,y,z
-x,1/2-y,z
x,-y,1/2-z
1/2-x,y,-z
1/2+x,1/2+y,1/2+z
1/2-x,-y,1/2+z
1/2+x,1/2-y,-z
-x,1/2+y,1/2-z
loop_
_atom_site_type_symbol
_atom_site_label
_atom_site_fract_x
_atom_site_fract_y
_atom_site_fract_z
Si Si1 0.944088 0.427222 0.004429
Si Si2 0.205792 0.387103 0.648927
Si Si3 0.140217 0.792191 0.654866
Si Si4 0.126676 0.500000 0.250000
Si Si5 0.057604 0.623503 0.622023
Si Si6 0.213111 0.000000 0.750000
O O1 0.956451 0.500000 0.250000
O O2 0.932452 0.500000 0.750000
O O3 0.891977 0.356109 0.064334
O O4 0.997069 0.362569 0.937359
O O5 0.232240 0.500000 0.750000
O O6 0.250000 0.319828 0.500000
O O7 0.180851 0.310067 0.866943
O O8 0.161702 0.437861 0.463311
O O9 0.089367 0.722919 0.766690
O O10 0.175054 0.890726 0.780623
O O11 0.090144 0.597370 0.366457
O O12 0.060553 0.500000 0.750000
O O13 0.250000 0.986191 0.500000
#
# Coordination Sequence:
#
# PCOD9336647 Si02
#       6
#     8   8   8   4   8   4
#     4  11  26  48  75 113 157 199 255 314 386 476
#     4  12  25  43  71 114 150 202 261 333 407 467
#     4  12  25  50  77 107 152 209 262 328 390 478
#     4  12  20  42  75 108 163 186 246 322 410 476
#     4  11  23  45  74 118 153 193 248 323 403 476
#     4  12  32  56  75 112 157 218 284 332 390 472
#
# _framework density 25.077144000000001
#
# number of rings (size 3 to 8) (size 9 to 14) (size 15 to 20)
#    0.000    0.400    7.000    1.200    1.400    5.600 
#    0.000    2.000    0.000    0.000    0.000    0.000 
#    0.000    0.000    0.000    0.000    0.000    0.000 
#
# Total GULP energy -111462.513450 kJ/mol
# GULP energy per Si atom -5573.125673 kJ/mol
# Density = 2.502007 g / cm^3
# Si number density = 25.077144 Si / 1000 Ang^3
#
#
#
# Elastic Constant Matrix: (Units=GPa)
#
#
# Indices 1 2 3 4 5 6 
#
# 1 168.6782 51.3828 30.7686 0.0000 0.0000 0.0000
# 2 51.3828 150.9631 27.3130 0.0000 0.0000 0.0000
# 3 30.7686 27.3130 83.6616 0.0000 0.0000 0.0000
# 4 0.0000 0.0000 0.0000 3.7341 0.0000 0.0000
# 5 0.0000 0.0000 0.0000 0.0000 44.3845 0.0000
# 6 0.0000 0.0000 0.0000 0.0000 0.0000 32.5207
#
#
#
# Elastic Compliance Matrix: (Units=1/GPa)
#
#
# Indices 1 2 3 4 5 6 
#
# 1 0.006881 -0.002002 -0.001877 0.000000 0.000000 0.000000
# 2 -0.002002 0.007623 -0.001752 0.000000 0.000000 0.000000
# 3 -0.001877 -0.001752 0.013215 0.000000 0.000000 0.000000
# 4 0.000000 0.000000 0.000000 0.267806 0.000000 0.000000
# 5 0.000000 0.000000 0.000000 0.000000 0.022530 0.000000
# 6 0.000000 0.000000 0.000000 0.000000 0.000000 0.030750
#
#
# Mechanical properties :
#
#
# Convention : Reuss Voigt Hill
#
# Bulk Modulus (GPa) = 60.76866 69.13686 64.95276
# Shear Modulus (GPa) = 13.67793 35.71707 24.69750
#
# Velocity S-wave (km/s) = 2.33799 3.77807 3.14165
# Velocity P-wave (km/s) = 5.61903 6.83090 6.25439
#
# Compressibility (1/GPa) = 0.01645585
#
# Stress axis : x y z
#
# Youngs Moduli (GPa) = 145.33228 131.18713 75.67050
#
# Poissons Ratio (x) = 0.26269 0.14202
# Poissons Ratio (y) = 0.29102 0.13259
# Poissons Ratio (z) = 0.27277 0.22986
#
# Static dielectric constant tensor:
#      x y z
#    x 1.967350 0.000000 0.000000 
#    y 0.000000 2.074120 0.000000 
#    z 0.000000 0.000000 1.987880 
# 
# From -- ./inp_files/6912.got.cif
#   From: 2010.05.17/outbox.cif.g08.bks.cpg/sg24_4_cif.got.tgz:6912.got - 2010.06.04 00:33:39.
