data_PCOD9336443
_publ_section_title
;
Structure prediction by ZEFSAII (Michael W. Deem and Ramdas Pophale) SiO2 
 PCOD9336443
Probable space group: I 21 21 21
;
_chemical_formula_sum "Si O2"
_cell_formula_units_Z 44
_cell_length_a 13.659023
_cell_length_b 10.799435
_cell_length_c 13.986106
_cell_angle_alpha 90.000000
_cell_angle_beta 90.000000
_cell_angle_gamma 90.000000
_cell_volume 2063.086735
_symmetry_space_group_name_H-M "I 21 21 21"
_symmetry_group_IT_number 24
_symmetry_cell_setting 'orthorhombic'
loop_
_space_group_symop_operation_xyz
x,y,z
-x,1/2-y,z
x,-y,1/2-z
1/2-x,y,-z
1/2+x,1/2+y,1/2+z
1/2-x,-y,1/2+z
1/2+x,1/2-y,-z
-x,1/2+y,1/2-z
loop_
_atom_site_type_symbol
_atom_site_label
_atom_site_fract_x
_atom_site_fract_y
_atom_site_fract_z
Si Si1 0.898925 0.465060 0.359502
Si Si2 0.344284 0.425914 0.431525
Si Si3 0.071460 0.346952 0.157916
Si Si4 0.750000 0.401395 0.000000
Si Si5 0.000000 0.250000 0.464839
Si Si6 0.743409 0.000000 0.750000
Si Si7 0.394578 0.285415 0.053251
O O1 0.867548 0.500000 0.250000
O O2 0.822332 0.517056 0.436010
O O3 0.926256 0.328849 0.397854
O O4 0.002908 0.536704 0.366341
O O5 0.250000 0.407254 0.500000
O O6 0.432858 0.340828 0.469156
O O7 0.307420 0.417557 0.322513
O O8 0.371101 0.571765 0.432819
O O9 0.169081 0.402594 0.201354
O O10 0.000000 0.250000 0.211436
O O11 0.099054 0.275836 0.061927
O O12 0.688521 0.314219 0.073055
O O13 0.500000 0.250000 0.094296
#
# Coordination Sequence:
#
# PCOD9336443 Si02
#       7
#     8   8   8   4   4   4   8
#     4  12  27  44  73 109 147 194 244 307 382 442
#     4  12  25  47  72 108 147 200 244 311 382 450
#     4  11  21  42  72 106 134 175 244 313 361 429
#     4  12  22  44  70 112 142 180 246 308 366 436
#     4  12  28  52  70 104 168 194 242 320 382 448
#     4  12  24  44  74 110 140 192 254 288 386 462
#     4  11  20  43  76  98 135 182 241 306 364 429
#
# _framework density 21.327266999999999
#
# number of rings (size 3 to 8) (size 9 to 14) (size 15 to 20)
#    0.000    0.364    9.091    0.000    2.545    0.000 
#    1.636    0.000    4.000    0.000    0.000    0.000 
#    0.000    0.000    0.000    0.000    0.000    0.000 
#
# Total GULP energy -122746.746508 kJ/mol
# GULP energy per Si atom -5579.397569 kJ/mol
# Density = 2.127873 g / cm^3
# Si number density = 21.327267 Si / 1000 Ang^3
#
#
#
# Elastic Constant Matrix: (Units=GPa)
#
#
# Indices 1 2 3 4 5 6 
#
# 1 116.5443 46.7366 33.5489 0.0000 0.0000 0.0000
# 2 46.7366 108.0895 24.5856 0.0000 0.0000 0.0000
# 3 33.5489 24.5856 81.4766 0.0000 0.0000 0.0000
# 4 0.0000 0.0000 0.0000 9.4726 0.0000 0.0000
# 5 0.0000 0.0000 0.0000 0.0000 38.3288 0.0000
# 6 0.0000 0.0000 0.0000 0.0000 0.0000 41.6840
#
#
#
# Elastic Compliance Matrix: (Units=1/GPa)
#
#
# Indices 1 2 3 4 5 6 
#
# 1 0.011184 -0.004068 -0.003378 0.000000 0.000000 0.000000
# 2 -0.004068 0.011413 -0.001769 0.000000 0.000000 0.000000
# 3 -0.003378 -0.001769 0.014198 0.000000 0.000000 0.000000
# 4 0.000000 0.000000 0.000000 0.105568 0.000000 0.000000
# 5 0.000000 0.000000 0.000000 0.000000 0.026090 0.000000
# 6 0.000000 0.000000 0.000000 0.000000 0.000000 0.023990
#
#
# Mechanical properties :
#
#
# Convention : Reuss Voigt Hill
#
# Bulk Modulus (GPa) = 54.44754 57.31695 55.88225
# Shear Modulus (GPa) = 23.04224 31.31305 27.17764
#
# Velocity S-wave (km/s) = 3.29053 3.83589 3.57363
# Velocity P-wave (km/s) = 6.32627 6.82290 6.57928
#
# Compressibility (1/GPa) = 0.01836630
#
# Stress axis : x y z
#
# Youngs Moduli (GPa) = 89.41423 87.62180 70.43221
#
# Poissons Ratio (x) = 0.35640 0.23790
# Poissons Ratio (y) = 0.36369 0.12459
# Poissons Ratio (z) = 0.30202 0.15500
#
# Static dielectric constant tensor:
#      x y z
#    x 1.813410 0.000000 0.000000 
#    y 0.000000 1.858310 0.000000 
#    z 0.000000 0.000000 1.856710 
# 
# From -- ./inp_files/26419.got.cif
#   From: 2010.05.17/outbox.cif.g08.bks.cpg/sg24_14_cif.got.tgz:26419.got - 2010.06.04 00:33:39.
