data_PCOD9336143
_publ_section_title
;
Structure prediction by ZEFSAII (Michael W. Deem and Ramdas Pophale) SiO2 
 PCOD9336143
Probable space group: I 21 21 21
;
_chemical_formula_sum "Si O2"
_cell_formula_units_Z 56
_cell_length_a 14.807821
_cell_length_b 14.334032
_cell_length_c 12.652442
_cell_angle_alpha 90.000000
_cell_angle_beta 90.000000
_cell_angle_gamma 90.000000
_cell_volume 2685.553946
_symmetry_space_group_name_H-M "I 21 21 21"
_symmetry_group_IT_number 24
_symmetry_cell_setting 'orthorhombic'
loop_
_space_group_symop_operation_xyz
x,y,z
-x,1/2-y,z
x,-y,1/2-z
1/2-x,y,-z
1/2+x,1/2+y,1/2+z
1/2-x,-y,1/2+z
1/2+x,1/2-y,-z
-x,1/2+y,1/2-z
loop_
_atom_site_type_symbol
_atom_site_label
_atom_site_fract_x
_atom_site_fract_y
_atom_site_fract_z
Si Si1 0.000000 0.750000 0.308712
Si Si2 0.433948 0.091020 0.675824
Si Si3 0.255731 0.816893 0.212909
Si Si4 0.498051 0.526681 0.050498
Si Si5 0.908645 0.811178 0.840229
Si Si6 0.315324 0.769472 0.571637
Si Si7 0.369575 0.000000 0.250000
Si Si8 0.923876 0.830695 0.594088
O O1 0.007003 0.660592 0.230698
O O2 0.917336 0.716617 0.383182
O O3 0.338789 0.146358 0.668106
O O4 0.460806 0.060157 0.559158
O O5 0.422226 0.000000 0.750000
O O6 0.323043 0.755966 0.142004
O O7 0.231675 0.756435 0.316024
O O8 0.309360 0.907252 0.256338
O O9 0.421659 0.600008 0.086046
O O10 0.569223 0.517850 0.146993
O O11 0.460614 0.423357 0.041141
O O12 0.905363 0.845349 0.718268
O O13 0.000000 0.750000 0.852094
O O14 0.250000 0.837589 0.500000
O O15 0.339349 0.698514 0.477442
O O16 0.000000 0.750000 0.594289
#
# Coordination Sequence:
#
# PCOD9336143 Si02
#       8
#     4   8   8   8   8   8   4   8
#     4  10  24  44  66 102 146 190 236 284 372 438
#     4  11  26  46  70 105 145 191 241 293 368 445
#     4  11  24  41  64 106 150 177 231 299 362 434
#     4  12  25  42  76 100 141 193 241 292 361 435
#     4  11  21  42  66 100 141 180 229 284 359 426
#     4  11  22  38  71 101 134 185 230 294 358 412
#     4  12  22  40  64 114 138 176 240 300 362 420
#     4  11  21  39  70 104 136 180 231 295 358 408
#
# _framework density 20.852309000000002
#
# number of rings (size 3 to 8) (size 9 to 14) (size 15 to 20)
#    0.000    0.857    5.714    1.714    3.000    0.571 
#    0.000    0.000   15.714    0.000    0.000    0.000 
#    0.000    0.000    0.000    0.000    0.000    0.000 
#
# Total GULP energy -156018.834096 kJ/mol
# GULP energy per Si atom -5572.101218 kJ/mol
# Density = 2.080485 g / cm^3
# Si number density = 20.852309 Si / 1000 Ang^3
#
#
#
# Elastic Constant Matrix: (Units=GPa)
#
#
# Indices 1 2 3 4 5 6 
#
# 1 83.0693 48.7473 40.2827 0.0000 0.0000 0.0000
# 2 48.7473 114.3113 49.5281 0.0000 0.0000 0.0000
# 3 40.2827 49.5281 124.4835 0.0000 0.0000 0.0000
# 4 0.0000 0.0000 0.0000 12.0277 0.0000 0.0000
# 5 0.0000 0.0000 0.0000 0.0000 14.8026 0.0000
# 6 0.0000 0.0000 0.0000 0.0000 0.0000 30.0421
#
#
#
# Elastic Compliance Matrix: (Units=1/GPa)
#
#
# Indices 1 2 3 4 5 6 
#
# 1 0.017031 -0.005890 -0.003168 0.000000 0.000000 0.000000
# 2 -0.005890 0.012607 -0.003110 0.000000 0.000000 0.000000
# 3 -0.003168 -0.003110 0.010296 0.000000 0.000000 0.000000
# 4 0.000000 0.000000 0.000000 0.083142 0.000000 0.000000
# 5 0.000000 0.000000 0.000000 0.000000 0.067556 0.000000
# 6 0.000000 0.000000 0.000000 0.000000 0.000000 0.033287
#
#
# Mechanical properties :
#
#
# Convention : Reuss Voigt Hill
#
# Bulk Modulus (GPa) = 64.11049 66.55336 65.33192
# Shear Modulus (GPa) = 19.72757 23.59489 21.66123
#
# Velocity S-wave (km/s) = 3.07915 3.36746 3.22653
# Velocity P-wave (km/s) = 6.59191 6.86335 6.72900
#
# Compressibility (1/GPa) = 0.01559807
#
# Stress axis : x y z
#
# Youngs Moduli (GPa) = 58.71739 79.31867 97.12881
#
# Poissons Ratio (x) = 0.46720 0.30766
# Poissons Ratio (y) = 0.34586 0.30207
# Poissons Ratio (z) = 0.18599 0.24668
#
# Static dielectric constant tensor:
#      x y z
#    x 2.042940 0.000000 0.000000 
#    y 0.000000 1.682070 0.000000 
#    z 0.000000 0.000000 1.753780 
# 
# From -- ./inp_files/20897.got.cif
#   From: 2010.05.17/outbox.cif.g08.bks.cpg/sg24_11_cif.got.tgz:20897.got - 2010.06.04 00:33:39.
