data_PCOD9336525
_publ_section_title
;
Structure prediction by ZEFSAII (Michael W. Deem and Ramdas Pophale) SiO2 
 PCOD9336525
Probable space group: I 21 21 21
;
_chemical_formula_sum "Si O2"
_cell_formula_units_Z 48
_cell_length_a 11.712545
_cell_length_b 10.742883
_cell_length_c 17.732286
_cell_angle_alpha 90.000000
_cell_angle_beta 90.000000
_cell_angle_gamma 90.000000
_cell_volume 2231.191494
_symmetry_space_group_name_H-M "I 21 21 21"
_symmetry_group_IT_number 24
_symmetry_cell_setting 'orthorhombic'
loop_
_space_group_symop_operation_xyz
x,y,z
-x,1/2-y,z
x,-y,1/2-z
1/2-x,y,-z
1/2+x,1/2+y,1/2+z
1/2-x,-y,1/2+z
1/2+x,1/2-y,-z
-x,1/2+y,1/2-z
loop_
_atom_site_type_symbol
_atom_site_label
_atom_site_fract_x
_atom_site_fract_y
_atom_site_fract_z
Si Si1 0.138360 0.777287 0.349408
Si Si2 0.656901 0.180241 0.437120
Si Si3 0.750000 0.655133 0.500000
Si Si4 0.244070 0.617971 0.214862
Si Si5 0.987368 0.108689 0.366378
Si Si6 0.143460 0.000000 0.250000
Si Si7 0.564450 0.453209 0.477280
O O1 0.189462 0.766897 0.433464
O O2 0.194671 0.689086 0.286613
O O3 0.000000 0.750000 0.350096
O O4 0.184405 0.912573 0.317824
O O5 0.750000 0.139726 0.500000
O O6 0.691517 0.194346 0.349547
O O7 0.624048 0.319024 0.464493
O O8 0.556730 0.076515 0.437943
O O9 0.652933 0.564106 0.463052
O O10 0.308421 0.500000 0.250000
O O11 0.135364 0.573643 0.164875
O O12 0.068659 0.099287 0.295306
O O13 0.029247 0.027583 0.435394
O O14 0.000000 0.250000 0.393768
#
# Coordination Sequence:
#
# PCOD9336525 Si02
#       7
#     8   8   4   8   8   4   8
#     4  12  26  44  73 102 141 184 235 298 351 418
#     4  11  22  39  69 106 142 184 231 291 351 406
#     4  12  28  46  70 104 146 190 230 286 362 436
#     4  12  24  43  67 103 132 183 243 290 349 406
#     4  12  18  34  65 101 135 164 222 293 345 397
#     4  12  20  36  68 106 136 168 224 308 352 388
#     4  11  23  40  66 106 144 181 231 288 348 422
#
# _framework density 21.513168
#
# number of rings (size 3 to 8) (size 9 to 14) (size 15 to 20)
#    0.000    0.333   10.000    0.000    2.333    0.000 
#    4.500    3.333    0.000    0.000    0.000    0.000 
#    0.000    0.000    0.000    0.000    0.000    0.000 
#
# Total GULP energy -133610.827642 kJ/mol
# GULP energy per Si atom -5567.117818 kJ/mol
# Density = 2.146420 g / cm^3
# Si number density = 21.513168 Si / 1000 Ang^3
#
#
#
# Elastic Constant Matrix: (Units=GPa)
#
#
# Indices 1 2 3 4 5 6 
#
# 1 73.6591 15.4753 46.7264 0.0000 0.0000 0.0000
# 2 15.4753 48.8793 28.4110 0.0000 0.0000 0.0000
# 3 46.7264 28.4110 160.8364 0.0000 0.0000 0.0000
# 4 0.0000 0.0000 0.0000 33.5052 0.0000 0.0000
# 5 0.0000 0.0000 0.0000 0.0000 57.5389 0.0000
# 6 0.0000 0.0000 0.0000 0.0000 0.0000 21.0839
#
#
#
# Elastic Compliance Matrix: (Units=1/GPa)
#
#
# Indices 1 2 3 4 5 6 
#
# 1 0.016979 -0.002795 -0.004439 0.000000 0.000000 0.000000
# 2 -0.002795 0.023260 -0.003297 0.000000 0.000000 0.000000
# 3 -0.004439 -0.003297 0.008089 0.000000 0.000000 0.000000
# 4 0.000000 0.000000 0.000000 0.029846 0.000000 0.000000
# 5 0.000000 0.000000 0.000000 0.000000 0.017380 0.000000
# 6 0.000000 0.000000 0.000000 0.000000 0.000000 0.047429
#
#
# Mechanical properties :
#
#
# Convention : Reuss Voigt Hill
#
# Bulk Modulus (GPa) = 36.67530 51.62225 44.14878
# Shear Modulus (GPa) = 28.87925 35.27641 32.07783
#
# Velocity S-wave (km/s) = 3.66785 4.05379 3.86564
# Velocity P-wave (km/s) = 5.91797 6.77928 6.36322
#
# Compressibility (1/GPa) = 0.02726630
#
# Stress axis : x y z
#
# Youngs Moduli (GPa) = 58.89514 42.99273 123.61763
#
# Poissons Ratio (x) = 0.12019 0.54874
# Poissons Ratio (y) = 0.16464 0.40752
# Poissons Ratio (z) = 0.26144 0.14173
#
# Static dielectric constant tensor:
#      x y z
#    x 1.844150 0.000000 0.000000 
#    y 0.000000 1.881500 0.000000 
#    z 0.000000 0.000000 1.787400 
# 
# From -- ./inp_files/30223.got.cif
#   From: 2010.05.17/outbox.cif.g08.bks.cpg/sg24_16_cif.got.tgz:30223.got - 2010.06.04 00:33:39.
