data_PCOD9336394
_publ_section_title
;
Structure prediction by ZEFSAII (Michael W. Deem and Ramdas Pophale) SiO2 
 PCOD9336394
Probable space group: I 21 21 21
;
_chemical_formula_sum "Si O2"
_cell_formula_units_Z 56
_cell_length_a 29.736644
_cell_length_b 5.143314
_cell_length_c 27.585113
_cell_angle_alpha 90.000000
_cell_angle_beta 90.000000
_cell_angle_gamma 90.000000
_cell_volume 4219.002278
_symmetry_space_group_name_H-M "I 21 21 21"
_symmetry_group_IT_number 24
_symmetry_cell_setting 'orthorhombic'
loop_
_space_group_symop_operation_xyz
x,y,z
-x,1/2-y,z
x,-y,1/2-z
1/2-x,y,-z
1/2+x,1/2+y,1/2+z
1/2-x,-y,1/2+z
1/2+x,1/2-y,-z
-x,1/2+y,1/2-z
loop_
_atom_site_type_symbol
_atom_site_label
_atom_site_fract_x
_atom_site_fract_y
_atom_site_fract_z
Si Si1 0.407642 0.830296 0.842803
Si Si2 0.324214 0.414431 0.986215
Si Si3 0.762631 0.414010 0.372470
Si Si4 0.854536 0.579461 0.063663
Si Si5 0.818593 0.251435 0.283340
Si Si6 0.550499 0.142792 0.800613
Si Si7 0.267366 0.587131 0.421438
O O1 0.394560 0.886420 0.898194
O O2 0.362811 0.716728 0.816671
O O3 0.443503 0.597593 0.837589
O O4 0.421372 0.101397 0.816511
O O5 0.347517 0.685048 0.973384
O O6 0.277975 0.406313 0.954511
O O7 0.354951 0.185301 0.966023
O O8 0.308200 0.377745 0.041272
O O9 0.809384 0.425921 0.402921
O O10 0.777778 0.326628 0.319167
O O11 0.739189 0.689897 0.381341
O O12 0.732473 0.192382 0.396644
O O13 0.827107 0.500000 0.250000
O O14 0.811011 0.000000 0.250000
O O15 0.500000 0.250000 0.795975
O O16 0.563171 0.000000 0.750000
#
# Coordination Sequence:
#
# PCOD9336394 Si02
#       7
#     8   8   8   8   8   8   8
#     4  11  21  33  46  58  74  91 111 145 190 228
#     4   9  15  24  38  55  72  91 111 129 159 201
#     4   9  17  26  35  51  70  90 116 141 168 202
#     4   9  17  27  39  56  73  88 108 134 166 215
#     4  11  20  29  41  54  70  93 120 150 184 222
#     4  12  23  35  47  59  71  88 116 150 185 229
#     4   9  15  24  37  51  71  93 111 135 161 195
#
# _framework density 13.27328
#
# number of rings (size 3 to 8) (size 9 to 14) (size 15 to 20)
#    0.000    2.000    0.000    6.429    0.000    8.000 
#    0.000    0.000    0.000    0.000    0.000    0.000 
#    0.000    0.000    0.000    0.000    0.000    0.000 
#
# Total GULP energy -156037.904858 kJ/mol
# GULP energy per Si atom -5572.782316 kJ/mol
# Density = 1.324307 g / cm^3
# Si number density = 13.273280 Si / 1000 Ang^3
#
#
#
# Elastic Constant Matrix: (Units=GPa)
#
#
# Indices 1 2 3 4 5 6 
#
# 1 16.8812 -1.7954 9.8090 0.0000 0.0000 0.0000
# 2 -1.7954 47.4541 -12.3370 0.0000 0.0000 0.0000
# 3 9.8090 -12.3370 18.7014 0.0000 0.0000 0.0000
# 4 0.0000 0.0000 0.0000 15.3540 0.0000 0.0000
# 5 0.0000 0.0000 0.0000 0.0000 2.6012 0.0000
# 6 0.0000 0.0000 0.0000 0.0000 0.0000 -2.1048
#
#
#
# Elastic Compliance Matrix: (Units=1/GPa)
#
#
# Indices 1 2 3 4 5 6 
#
# 1 0.089443 -0.010637 -0.053931 0.000000 0.000000 0.000000
# 2 -0.010637 0.026700 0.023193 0.000000 0.000000 0.000000
# 3 -0.053931 0.023193 0.097059 0.000000 0.000000 0.000000
# 4 0.000000 0.000000 0.000000 0.065130 0.000000 0.000000
# 5 0.000000 0.000000 0.000000 0.000000 0.384435 0.000000
# 6 0.000000 0.000000 0.000000 0.000000 0.000000 -0.475096
#
#
# Mechanical properties :
#
#
# Convention : Reuss Voigt Hill
#
# Bulk Modulus (GPa) = 7.66560 8.26556 7.96558
# Shear Modulus (GPa) = 15.92844 8.99408 12.46126
#
# Velocity S-wave (km/s) = 3.46791 2.60591 3.06735
# Velocity P-wave (km/s) = 4.67151 3.91090 4.30802
#
# Compressibility (1/GPa) = 0.13045297
#
# Stress axis : x y z
#
# Youngs Moduli (GPa) = 11.18028 37.45307 10.30301
#
# Poissons Ratio (x) = 0.39837 0.55565
# Poissons Ratio (y) = 0.11892 -0.23895
# Poissons Ratio (z) = 0.60296 -0.86863
#
# Static dielectric constant tensor:
#      x y z
#    x 1.425000 0.000000 0.000000 
#    y 0.000000 1.478410 0.000000 
#    z 0.000000 0.000000 1.478650 
# 
# From -- ./inp_files/37579.got.cif
#   From: 2010.05.17/outbox.cif.g08.bks.cpg/sg24_19_cif.got.tgz:37579.got - 2010.06.04 00:33:39.
