data_PCOD9336270
_publ_section_title
;
Structure prediction by ZEFSAII (Michael W. Deem and Ramdas Pophale) SiO2 
 PCOD9336270
Probable space group: I 21 21 21
;
_chemical_formula_sum "Si O2"
_cell_formula_units_Z 40
_cell_length_a 5.925167
_cell_length_b 13.178788
_cell_length_c 22.127537
_cell_angle_alpha 90.000000
_cell_angle_beta 90.000000
_cell_angle_gamma 90.000000
_cell_volume 1727.862355
_symmetry_space_group_name_H-M "I 21 21 21"
_symmetry_group_IT_number 24
_symmetry_cell_setting 'orthorhombic'
loop_
_space_group_symop_operation_xyz
x,y,z
-x,1/2-y,z
x,-y,1/2-z
1/2-x,y,-z
1/2+x,1/2+y,1/2+z
1/2-x,-y,1/2+z
1/2+x,1/2-y,-z
-x,1/2+y,1/2-z
loop_
_atom_site_type_symbol
_atom_site_label
_atom_site_fract_x
_atom_site_fract_y
_atom_site_fract_z
Si Si1 0.736203 0.729878 0.088637
Si Si2 0.886670 0.861607 0.438355
Si Si3 0.853827 0.151826 0.293271
Si Si4 0.566601 0.866791 0.321717
Si Si5 0.819101 0.511093 0.133431
O O1 0.500000 0.750000 0.054534
O O2 0.726430 0.799716 0.149125
O O3 0.719937 0.611598 0.103733
O O4 0.000000 0.750000 0.069885
O O5 0.750000 0.880388 0.500000
O O6 0.718548 0.870646 0.381670
O O7 0.000000 0.750000 0.441238
O O8 0.073847 0.943856 0.420098
O O9 0.699170 0.114227 0.239777
O O10 0.000000 0.250000 0.270879
O O11 0.002706 0.939398 0.180046
O O12 0.500000 0.750000 0.316620
O O13 0.357604 0.941237 0.331570
#
# Coordination Sequence:
#
# PCOD9336270 Si02
#       5
#     8   8   8   8   8
#     4   9  20  43  68 103 147 194 239 302 372 448
#     4  12  27  49  72 105 143 192 253 313 367 447
#     4   9  22  46  66 105 151 189 239 301 375 454
#     4  12  24  45  71 103 152 193 244 304 370 451
#     4  10  25  46  69 107 142 203 247 298 377 455
#
# _framework density 23.149989999999999
#
# number of rings (size 3 to 8) (size 9 to 14) (size 15 to 20)
#    0.000    2.000    2.000    1.800    5.600    0.800 
#   14.400    0.000    0.000    0.000   83.200    0.000 
#    0.000    0.000    0.000    0.000    0.000    0.000 
#
# Total GULP energy -111797.179040 kJ/mol
# GULP energy per Si atom -5589.858952 kJ/mol
# Density = 2.309730 g / cm^3
# Si number density = 23.149990 Si / 1000 Ang^3
#
#
#
# Elastic Constant Matrix: (Units=GPa)
#
#
# Indices 1 2 3 4 5 6 
#
# 1 160.5419 91.5486 76.5720 0.0000 0.0000 0.0000
# 2 91.5486 190.7449 65.6531 0.0000 0.0000 0.0000
# 3 76.5720 65.6531 173.8315 0.0000 0.0000 0.0000
# 4 0.0000 0.0000 0.0000 1.3619 0.0000 0.0000
# 5 0.0000 0.0000 0.0000 0.0000 244.8575 0.0000
# 6 0.0000 0.0000 0.0000 0.0000 0.0000 37.5630
#
#
#
# Elastic Compliance Matrix: (Units=1/GPa)
#
#
# Indices 1 2 3 4 5 6 
#
# 1 0.009692 -0.003658 -0.002888 0.000000 0.000000 0.000000
# 2 -0.003658 0.007406 -0.001186 0.000000 0.000000 0.000000
# 3 -0.002888 -0.001186 0.007473 0.000000 0.000000 0.000000
# 4 0.000000 0.000000 0.000000 0.734254 0.000000 0.000000
# 5 0.000000 0.000000 0.000000 0.000000 0.004084 0.000000
# 6 0.000000 0.000000 0.000000 0.000000 0.000000 0.026622
#
#
# Mechanical properties :
#
#
# Convention : Reuss Voigt Hill
#
# Bulk Modulus (GPa) = 109.79467 110.29618 110.04543
# Shear Modulus (GPa) = 6.18789 76.17947 41.18368
#
# Velocity S-wave (km/s) = 1.63669 5.74268 4.22239
# Velocity P-wave (km/s) = 7.14858 9.57699 8.45047
#
# Compressibility (1/GPa) = 0.00910791
#
# Stress axis : x y z
#
# Youngs Moduli (GPa) = 103.17644 135.01848 133.81994
#
# Poissons Ratio (x) = 0.49387 0.38645
# Poissons Ratio (y) = 0.37740 0.15871
# Poissons Ratio (z) = 0.29796 0.16014
#
# Static dielectric constant tensor:
#      x y z
#    x 1.985240 0.000000 0.000000 
#    y 0.000000 1.758670 0.000000 
#    z 0.000000 0.000000 1.842380 
# 
# From -- ./inp_files/36324.got.cif
#   From: 2010.05.17/outbox.cif.g08.bks.cpg/sg24_19_cif.got.tgz:36324.got - 2010.06.04 00:33:39.
