data_PCOD9336807
_publ_section_title
;
Structure prediction by ZEFSAII (Michael W. Deem and Ramdas Pophale) SiO2 
 PCOD9336807
Probable space group: I 21 21 21
;
_chemical_formula_sum "Si O2"
_cell_formula_units_Z 48
_cell_length_a 22.985691
_cell_length_b 12.217324
_cell_length_c 9.882126
_cell_angle_alpha 90.000000
_cell_angle_beta 90.000000
_cell_angle_gamma 90.000000
_cell_volume 2775.134538
_symmetry_space_group_name_H-M "I 21 21 21"
_symmetry_group_IT_number 24
_symmetry_cell_setting 'orthorhombic'
loop_
_space_group_symop_operation_xyz
x,y,z
-x,1/2-y,z
x,-y,1/2-z
1/2-x,y,-z
1/2+x,1/2+y,1/2+z
1/2-x,-y,1/2+z
1/2+x,1/2-y,-z
-x,1/2+y,1/2-z
loop_
_atom_site_type_symbol
_atom_site_label
_atom_site_fract_x
_atom_site_fract_y
_atom_site_fract_z
Si Si1 0.750000 0.405811 0.000000
Si Si2 0.951732 0.000000 0.250000
Si Si3 0.070680 0.733585 0.158608
Si Si4 0.414378 0.167692 0.369716
Si Si5 0.500000 0.750000 0.326587
Si Si6 0.468756 0.036025 0.011218
Si Si7 0.321758 0.000000 0.250000
Si Si8 0.140010 0.102199 0.151180
O O1 0.717312 0.472541 0.118828
O O2 0.802495 0.348650 0.081868
O O3 0.918096 0.109509 0.293728
O O4 0.993440 0.978499 0.377462
O O5 0.101311 0.813202 0.265189
O O6 0.000000 0.750000 0.158159
O O7 0.094885 0.771044 0.012257
O O8 0.443074 0.251810 0.266528
O O9 0.362316 0.101974 0.297356
O O10 0.463424 0.074498 0.402255
O O11 0.493127 0.859001 0.413494
O O12 0.402466 0.057037 0.965152
O O13 0.154509 0.000000 0.250000
#
# Coordination Sequence:
#
# PCOD9336807 Si02
#       8
#     4   4   8   8   4   8   4   8
#     4  12  24  38  60  94 120 168 214 270 318 374
#     4  12  22  35  58  90 122 159 214 246 304 394
#     4  12  21  36  61  89 127 166 205 252 313 383
#     4  12  21  38  54  86 131 169 203 254 319 382
#     4  12  22  30  52  80 126 170 192 244 316 380
#     4  12  19  34  53  82 122 166 200 246 303 376
#     4  12  24  39  60  88 132 167 218 268 322 380
#     4  12  20  38  61  89 121 157 209 258 309 370
#
# _framework density 17.296458999999999
#
# number of rings (size 3 to 8) (size 9 to 14) (size 15 to 20)
#    0.000    0.000   10.833    1.000    0.000    0.000 
#    0.000    0.000    0.000    0.000    4.333    0.000 
#    0.000    0.000    0.000    0.000    0.000    0.000 
#
# Total GULP energy -133916.493902 kJ/mol
# GULP energy per Si atom -5579.853913 kJ/mol
# Density = 1.725709 g / cm^3
# Si number density = 17.296459 Si / 1000 Ang^3
#
#
#
# Elastic Constant Matrix: (Units=GPa)
#
#
# Indices 1 2 3 4 5 6 
#
# 1 79.5939 17.9071 39.0336 0.0000 0.0000 0.0000
# 2 17.9071 86.6377 33.1907 0.0000 0.0000 0.0000
# 3 39.0336 33.1907 100.2603 0.0000 0.0000 0.0000
# 4 0.0000 0.0000 0.0000 35.4250 0.0000 0.0000
# 5 0.0000 0.0000 0.0000 0.0000 39.1739 0.0000
# 6 0.0000 0.0000 0.0000 0.0000 0.0000 9.0150
#
#
#
# Elastic Compliance Matrix: (Units=1/GPa)
#
#
# Indices 1 2 3 4 5 6 
#
# 1 0.015608 -0.001029 -0.005736 0.000000 0.000000 0.000000
# 2 -0.001029 0.013287 -0.003998 0.000000 0.000000 0.000000
# 3 -0.005736 -0.003998 0.013531 0.000000 0.000000 0.000000
# 4 0.000000 0.000000 0.000000 0.028229 0.000000 0.000000
# 5 0.000000 0.000000 0.000000 0.000000 0.025527 0.000000
# 6 0.000000 0.000000 0.000000 0.000000 0.000000 0.110927
#
#
# Mechanical properties :
#
#
# Convention : Reuss Voigt Hill
#
# Bulk Modulus (GPa) = 47.84659 49.63942 48.74300
# Shear Modulus (GPa) = 21.22238 28.48013 24.85125
#
# Velocity S-wave (km/s) = 3.50663 4.06222 3.79460
# Velocity P-wave (km/s) = 6.64213 7.12486 6.88773
#
# Compressibility (1/GPa) = 0.02090013
#
# Stress axis : x y z
#
# Youngs Moduli (GPa) = 64.06870 75.26422 73.90565
#
# Poissons Ratio (x) = 0.07741 0.42393
# Poissons Ratio (y) = 0.06590 0.29547
# Poissons Ratio (z) = 0.36751 0.30091
#
# Static dielectric constant tensor:
#      x y z
#    x 1.592460 0.000000 0.000000 
#    y 0.000000 1.570630 0.000000 
#    z 0.000000 0.000000 1.652820 
# 
# From -- ./inp_files/15904.got.cif
#   From: 2010.05.17/outbox.cif.g08.bks.cpg/sg24_8_cif.got.tgz:15904.got - 2010.06.04 00:33:39.
