data_PCOD9336076
_publ_section_title
;
Structure prediction by ZEFSAII (Michael W. Deem and Ramdas Pophale) SiO2 
 PCOD9336076
Probable space group: I 21 21 21
;
_chemical_formula_sum "Si O2"
_cell_formula_units_Z 44
_cell_length_a 6.750910
_cell_length_b 12.959882
_cell_length_c 24.094878
_cell_angle_alpha 90.000000
_cell_angle_beta 90.000000
_cell_angle_gamma 90.000000
_cell_volume 2108.084899
_symmetry_space_group_name_H-M "I 21 21 21"
_symmetry_group_IT_number 24
_symmetry_cell_setting 'orthorhombic'
loop_
_space_group_symop_operation_xyz
x,y,z
-x,1/2-y,z
x,-y,1/2-z
1/2-x,y,-z
1/2+x,1/2+y,1/2+z
1/2-x,-y,1/2+z
1/2+x,1/2-y,-z
-x,1/2+y,1/2-z
loop_
_atom_site_type_symbol
_atom_site_label
_atom_site_fract_x
_atom_site_fract_y
_atom_site_fract_z
Si Si1 0.608601 0.654913 0.768463
Si Si2 0.001928 0.042585 0.162570
Si Si3 0.250767 0.986209 0.563294
Si Si4 0.870689 0.084706 0.625362
Si Si5 0.590920 0.852751 0.960490
Si Si6 0.000000 0.750000 0.784397
O O1 0.500000 0.750000 0.797476
O O2 0.492451 0.621019 0.713470
O O3 0.610061 0.557799 0.809661
O O4 0.819106 0.701240 0.751180
O O5 0.138391 0.078903 0.111314
O O6 0.786091 0.003597 0.143437
O O7 0.250000 0.941867 0.500000
O O8 0.405392 0.079990 0.555860
O O9 0.047157 0.033443 0.588711
O O10 0.733328 0.165726 0.591387
O O11 0.943018 0.152673 0.676704
O O12 0.500000 0.750000 0.986300
O O13 0.750000 0.907898 0.000000
#
# Coordination Sequence:
#
# PCOD9336076 Si02
#       6
#     8   8   8   8   8   4
#     4  11  23  43  61  90 124 164 210 267 326 382
#     4  10  24  40  61  90 125 161 212 264 317 388
#     4  11  21  38  56  86 121 163 209 251 315 388
#     4  11  22  36  56  85 124 166 207 256 320 378
#     4  11  22  30  47  77 119 164 208 246 295 377
#     4  12  22  36  64  86 124 168 206 260 324 376
#
# _framework density 20.872026000000002
#
# number of rings (size 3 to 8) (size 9 to 14) (size 15 to 20)
#    0.000    1.091    5.455    1.636    3.818    1.455 
#    0.000    0.000    0.000    0.000    7.091    0.000 
#    0.000    0.000    0.000    0.000    0.000    0.000 
#
# Total GULP energy -122569.022221 kJ/mol
# GULP energy per Si atom -5571.319192 kJ/mol
# Density = 2.082452 g / cm^3
# Si number density = 20.872026 Si / 1000 Ang^3
#
#
#
# Elastic Constant Matrix: (Units=GPa)
#
#
# Indices 1 2 3 4 5 6 
#
# 1 136.0169 14.0061 33.4654 0.0000 0.0000 0.0000
# 2 14.0061 21.5487 6.8706 0.0000 0.0000 0.0000
# 3 33.4654 6.8706 101.9119 0.0000 0.0000 0.0000
# 4 0.0000 0.0000 0.0000 17.3803 0.0000 0.0000
# 5 0.0000 0.0000 0.0000 0.0000 39.6398 0.0000
# 6 0.0000 0.0000 0.0000 0.0000 0.0000 12.9158
#
#
#
# Elastic Compliance Matrix: (Units=1/GPa)
#
#
# Indices 1 2 3 4 5 6 
#
# 1 0.008440 -0.004703 -0.002454 0.000000 0.000000 0.000000
# 2 -0.004703 0.050047 -0.001830 0.000000 0.000000 0.000000
# 3 -0.002454 -0.001830 0.010742 0.000000 0.000000 0.000000
# 4 0.000000 0.000000 0.000000 0.057536 0.000000 0.000000
# 5 0.000000 0.000000 0.000000 0.000000 0.025227 0.000000
# 6 0.000000 0.000000 0.000000 0.000000 0.000000 0.077425
#
#
# Mechanical properties :
#
#
# Convention : Reuss Voigt Hill
#
# Bulk Modulus (GPa) = 19.51063 40.90686 30.20875
# Shear Modulus (GPa) = 18.90527 27.66287 23.28407
#
# Velocity S-wave (km/s) = 3.01287 3.64449 3.34363
# Velocity P-wave (km/s) = 4.63370 6.11156 5.42321
#
# Compressibility (1/GPa) = 0.05125410
#
# Stress axis : x y z
#
# Youngs Moduli (GPa) = 118.47998 19.98125 93.09487
#
# Poissons Ratio (x) = 0.09398 0.22850
# Poissons Ratio (y) = 0.55725 0.17032
# Poissons Ratio (z) = 0.29081 0.03656
#
# Static dielectric constant tensor:
#      x y z
#    x 1.809360 0.000000 0.000000 
#    y 0.000000 1.723390 0.000000 
#    z 0.000000 0.000000 1.870660 
# 
# From -- ./inp_files/23844.got.cif
#   From: 2010.05.17/outbox.cif.g08.bks.cpg/sg24_12_cif.got.tgz:23844.got - 2010.06.04 00:33:39.
