data_PCOD9336802
_publ_section_title
;
Structure prediction by ZEFSAII (Michael W. Deem and Ramdas Pophale) SiO2 
 PCOD9336802
Probable space group: I 21 21 21
;
_chemical_formula_sum "Si O2"
_cell_formula_units_Z 24
_cell_length_a 18.159157
_cell_length_b 10.496245
_cell_length_c 5.060804
_cell_angle_alpha 90.000000
_cell_angle_beta 90.000000
_cell_angle_gamma 90.000000
_cell_volume 964.604227
_symmetry_space_group_name_H-M "I 21 21 21"
_symmetry_group_IT_number 24
_symmetry_cell_setting 'orthorhombic'
loop_
_space_group_symop_operation_xyz
x,y,z
-x,1/2-y,z
x,-y,1/2-z
1/2-x,y,-z
1/2+x,1/2+y,1/2+z
1/2-x,-y,1/2+z
1/2+x,1/2-y,-z
-x,1/2+y,1/2-z
loop_
_atom_site_type_symbol
_atom_site_label
_atom_site_fract_x
_atom_site_fract_y
_atom_site_fract_z
Si Si1 0.633229 0.500000 0.250000
Si Si2 0.750000 0.687128 0.000000
Si Si3 0.250000 0.628753 0.500000
Si Si4 0.381519 0.500000 0.250000
Si Si5 0.999420 0.887369 0.448752
O O1 0.683049 0.405609 0.422526
O O2 0.579243 0.578922 0.439461
O O3 0.739129 0.778443 0.749286
O O4 0.321230 0.539590 0.467524
O O5 0.441386 0.611598 0.306465
O O6 0.000000 0.750000 0.318610
O O7 0.976799 0.000000 0.250000
#
# Coordination Sequence:
#
# PCOD9336802 Si02
#       5
#     4   4   4   4   8
#     4  11  28  50  76 119 158 214 278 335 412 494
#     4  12  28  48  84 118 164 209 275 342 418 485
#     4  12  28  48  84 118 164 209 273 344 418 489
#     4  11  28  50  74 121 156 212 274 335 412 490
#     4  11  28  50  80 115 167 220 277 339 412 492
#
# _framework density 24.880669999999999
#
# number of rings (size 3 to 8) (size 9 to 14) (size 15 to 20)
#    0.000    0.667    0.000    4.000   18.667    5.333 
#    0.000    0.000    0.000    0.000    0.000    0.000 
#    0.000    0.000    0.000    0.000    0.000    0.000 
#
# Total GULP energy -67057.774020 kJ/mol
# GULP energy per Si atom -5588.147835 kJ/mol
# Density = 2.482404 g / cm^3
# Si number density = 24.880670 Si / 1000 Ang^3
#
#
#
# Elastic Constant Matrix: (Units=GPa)
#
#
# Indices 1 2 3 4 5 6 
#
# 1 193.6947 65.0729 60.1501 0.0000 0.0000 0.0000
# 2 65.0729 184.5861 86.2880 0.0000 0.0000 0.0000
# 3 60.1501 86.2880 162.5220 0.0000 0.0000 0.0000
# 4 0.0000 0.0000 0.0000 57.2146 0.0000 0.0000
# 5 0.0000 0.0000 0.0000 0.0000 26.1995 0.0000
# 6 0.0000 0.0000 0.0000 0.0000 0.0000 9.8327
#
#
#
# Elastic Compliance Matrix: (Units=1/GPa)
#
#
# Indices 1 2 3 4 5 6 
#
# 1 0.006115 -0.001460 -0.001488 0.000000 0.000000 0.000000
# 2 -0.001460 0.007555 -0.003471 0.000000 0.000000 0.000000
# 3 -0.001488 -0.003471 0.008546 0.000000 0.000000 0.000000
# 4 0.000000 0.000000 0.000000 0.017478 0.000000 0.000000
# 5 0.000000 0.000000 0.000000 0.000000 0.038169 0.000000
# 6 0.000000 0.000000 0.000000 0.000000 0.000000 0.101701
#
#
# Mechanical properties :
#
#
# Convention : Reuss Voigt Hill
#
# Bulk Modulus (GPa) = 106.62423 107.09165 106.85794
# Shear Modulus (GPa) = 25.57172 40.60216 33.08694
#
# Velocity S-wave (km/s) = 3.20937 4.04403 3.65063
# Velocity P-wave (km/s) = 7.52866 8.05861 7.79813
#
# Compressibility (1/GPa) = 0.00937873
#
# Stress axis : x y z
#
# Youngs Moduli (GPa) = 163.52010 132.36784 117.00867
#
# Poissons Ratio (x) = 0.19330 0.17411
# Poissons Ratio (y) = 0.23879 0.40609
# Poissons Ratio (z) = 0.24332 0.45939
#
# Static dielectric constant tensor:
#      x y z
#    x 1.921430 0.000000 0.000000 
#    y 0.000000 1.960870 0.000000 
#    z 0.000000 0.000000 1.921840 
# 
# From -- ./inp_files/1752.got.cif
#   From: 2010.05.17/outbox.cif.g08.bks.cpg/sg24_1_cif.got.tgz:1752.got - 2010.06.04 00:33:39.
