data_PCOD9336516
_publ_section_title
;
Structure prediction by ZEFSAII (Michael W. Deem and Ramdas Pophale) SiO2 
 PCOD9336516
Probable space group: I 21 21 21
;
_chemical_formula_sum "Si O2"
_cell_formula_units_Z 56
_cell_length_a 14.575485
_cell_length_b 11.790637
_cell_length_c 15.485090
_cell_angle_alpha 90.000000
_cell_angle_beta 90.000000
_cell_angle_gamma 90.000000
_cell_volume 2661.178570
_symmetry_space_group_name_H-M "I 21 21 21"
_symmetry_group_IT_number 24
_symmetry_cell_setting 'orthorhombic'
loop_
_space_group_symop_operation_xyz
x,y,z
-x,1/2-y,z
x,-y,1/2-z
1/2-x,y,-z
1/2+x,1/2+y,1/2+z
1/2-x,-y,1/2+z
1/2+x,1/2-y,-z
-x,1/2+y,1/2-z
loop_
_atom_site_type_symbol
_atom_site_label
_atom_site_fract_x
_atom_site_fract_y
_atom_site_fract_z
Si Si1 0.795658 0.628177 0.409613
Si Si2 0.494752 0.624882 0.040342
Si Si3 0.246686 0.283713 0.746772
Si Si4 0.001820 0.456110 0.102688
Si Si5 0.945463 0.869760 0.768537
Si Si6 0.941410 0.858969 0.236597
Si Si7 0.295013 0.115897 0.410436
O O1 0.750000 0.667848 0.500000
O O2 0.775271 0.710190 0.329985
O O3 0.903712 0.599282 0.416808
O O4 0.749764 0.505666 0.391690
O O5 0.500000 0.750000 0.997481
O O6 0.437886 0.636109 0.127647
O O7 0.598121 0.598872 0.070347
O O8 0.462555 0.522750 0.980245
O O9 0.156672 0.356588 0.768535
O O10 0.334728 0.353650 0.713278
O O11 0.220454 0.197423 0.669956
O O12 0.003103 0.552908 0.176764
O O13 0.060825 0.369655 0.158599
O O14 0.000000 0.750000 0.744551
O O15 0.981547 0.000000 0.750000
O O16 0.000000 0.750000 0.219581
O O17 0.250000 0.159453 0.500000
#
# Coordination Sequence:
#
# PCOD9336516 Si02
#       7
#     8   8   8   8   8   8   8
#     4  11  23  41  69 104 137 183 248 301 362 432
#     4  11  22  44  64 100 138 173 237 302 360 429
#     4  12  25  44  69 100 145 186 240 295 376 443
#     4  11  23  41  64  98 138 180 231 296 354 434
#     4  11  27  48  72 105 141 191 244 301 371 435
#     4  11  24  40  66  97 141 189 231 288 364 437
#     4  11  22  37  68 106 134 176 239 309 366 424
#
# _framework density 21.043308
#
# number of rings (size 3 to 8) (size 9 to 14) (size 15 to 20)
#    0.000    0.857    7.143    1.714    8.000    0.000 
#    2.571    0.714    0.000    0.000    0.000    0.000 
#    0.000    0.000    0.000    0.000    0.000    0.000 
#
# Total GULP energy -155989.315084 kJ/mol
# GULP energy per Si atom -5571.046967 kJ/mol
# Density = 2.099541 g / cm^3
# Si number density = 21.043308 Si / 1000 Ang^3
#
#
#
# Elastic Constant Matrix: (Units=GPa)
#
#
# Indices 1 2 3 4 5 6 
#
# 1 66.6892 8.6810 5.4365 0.0000 0.0000 0.0000
# 2 8.6810 71.9943 22.9069 0.0000 0.0000 0.0000
# 3 5.4365 22.9069 93.6076 0.0000 0.0000 0.0000
# 4 0.0000 0.0000 0.0000 33.4036 0.0000 0.0000
# 5 0.0000 0.0000 0.0000 0.0000 27.4231 0.0000
# 6 0.0000 0.0000 0.0000 0.0000 0.0000 28.9530
#
#
#
# Elastic Compliance Matrix: (Units=1/GPa)
#
#
# Indices 1 2 3 4 5 6 
#
# 1 0.015253 -0.001689 -0.000473 0.000000 0.000000 0.000000
# 2 -0.001689 0.015250 -0.003634 0.000000 0.000000 0.000000
# 3 -0.000473 -0.003634 0.011600 0.000000 0.000000 0.000000
# 4 0.000000 0.000000 0.000000 0.029937 0.000000 0.000000
# 5 0.000000 0.000000 0.000000 0.000000 0.036466 0.000000
# 6 0.000000 0.000000 0.000000 0.000000 0.000000 0.034539
#
#
# Mechanical properties :
#
#
# Convention : Reuss Voigt Hill
#
# Bulk Modulus (GPa) = 32.77365 34.03775 33.40570
# Shear Modulus (GPa) = 30.33888 30.97372 30.65630
#
# Velocity S-wave (km/s) = 3.80114 3.84070 3.82097
# Velocity P-wave (km/s) = 5.90534 5.98984 5.94774
#
# Compressibility (1/GPa) = 0.03051232
#
# Stress axis : x y z
#
# Youngs Moduli (GPa) = 65.55959 65.57462 86.21022
#
# Poissons Ratio (x) = 0.11075 0.04074
# Poissons Ratio (y) = 0.11072 0.31326
# Poissons Ratio (z) = 0.03098 0.23828
#
# Static dielectric constant tensor:
#      x y z
#    x 1.759490 0.000000 0.000000 
#    y 0.000000 1.862020 0.000000 
#    z 0.000000 0.000000 1.799990 
# 
# From -- ./inp_files/26523.got.cif
#   From: 2010.05.17/outbox.cif.g08.bks.cpg/sg24_14_cif.got.tgz:26523.got - 2010.06.04 00:33:39.
