data_PCOD9336564
_publ_section_title
;
Structure prediction by ZEFSAII (Michael W. Deem and Ramdas Pophale) SiO2 
 PCOD9336564
Probable space group: I 21 21 21
;
_chemical_formula_sum "Si O2"
_cell_formula_units_Z 44
_cell_length_a 18.604030
_cell_length_b 8.813380
_cell_length_c 13.069530
_cell_angle_alpha 90.000000
_cell_angle_beta 90.000000
_cell_angle_gamma 90.000000
_cell_volume 2142.937461
_symmetry_space_group_name_H-M "I 21 21 21"
_symmetry_group_IT_number 24
_symmetry_cell_setting 'orthorhombic'
loop_
_space_group_symop_operation_xyz
x,y,z
-x,1/2-y,z
x,-y,1/2-z
1/2-x,y,-z
1/2+x,1/2+y,1/2+z
1/2-x,-y,1/2+z
1/2+x,1/2-y,-z
-x,1/2+y,1/2-z
loop_
_atom_site_type_symbol
_atom_site_label
_atom_site_fract_x
_atom_site_fract_y
_atom_site_fract_z
Si Si1 0.116697 0.708185 0.515591
Si Si2 0.352348 0.671511 0.710583
Si Si3 0.017344 0.998107 0.011602
Si Si4 0.000000 0.750000 0.186186
Si Si5 0.696632 0.820024 0.269465
Si Si6 0.065928 0.155217 0.688482
O O1 0.157360 0.669522 0.411350
O O2 0.075064 0.865116 0.489746
O O3 0.165005 0.714412 0.616958
O O4 0.056231 0.577527 0.525257
O O5 0.356869 0.500000 0.750000
O O6 0.427476 0.745117 0.745976
O O7 0.277179 0.740338 0.749644
O O8 0.045094 0.883965 0.926110
O O9 0.004703 0.900861 0.114544
O O10 0.638714 0.747518 0.194562
O O11 0.697867 0.000000 0.250000
O O12 0.000000 0.250000 0.736468
O O13 0.074001 0.000000 0.750000
#
# Coordination Sequence:
#
# PCOD9336564 Si02
#       6
#     8   8   8   4   8   8
#     4  11  22  44  65  99 130 175 221 271 329 397
#     4  11  25  45  70  93 131 181 225 273 329 395
#     4  11  23  38  71  98 131 173 223 269 326 391
#     4  12  24  46  68 100 128 178 232 274 318 394
#     4  11  25  43  67 100 136 176 216 273 336 399
#     4  12  22  40  66 102 136 173 215 269 337 398
#
# _framework density 20.532564000000001
#
# number of rings (size 3 to 8) (size 9 to 14) (size 15 to 20)
#    0.000    0.727    4.545    4.364    0.000    0.000 
#    3.273    0.909    0.000    0.000    0.000    0.000 
#    0.000    0.000    0.000    0.000    0.000    0.000 
#
# Total GULP energy -122932.342631 kJ/mol
# GULP energy per Si atom -5587.833756 kJ/mol
# Density = 2.048583 g / cm^3
# Si number density = 20.532564 Si / 1000 Ang^3
#
#
#
# Elastic Constant Matrix: (Units=GPa)
#
#
# Indices 1 2 3 4 5 6 
#
# 1 157.9446 45.7301 16.5429 0.0000 0.0000 0.0000
# 2 45.7301 65.2875 22.6741 0.0000 0.0000 0.0000
# 3 16.5429 22.6741 68.6897 0.0000 0.0000 0.0000
# 4 0.0000 0.0000 0.0000 29.3736 0.0000 0.0000
# 5 0.0000 0.0000 0.0000 0.0000 -35.6804 0.0000
# 6 0.0000 0.0000 0.0000 0.0000 0.0000 15.9287
#
#
#
# Elastic Compliance Matrix: (Units=1/GPa)
#
#
# Indices 1 2 3 4 5 6 
#
# 1 0.007942 -0.005533 -0.000086 0.000000 0.000000 0.000000
# 2 -0.005533 0.021155 -0.005651 0.000000 0.000000 0.000000
# 3 -0.000086 -0.005651 0.016444 0.000000 0.000000 0.000000
# 4 0.000000 0.000000 0.000000 0.034044 0.000000 0.000000
# 5 0.000000 0.000000 0.000000 0.000000 -0.028027 0.000000
# 6 0.000000 0.000000 0.000000 0.000000 0.000000 0.062780
#
#
# Mechanical properties :
#
#
# Convention : Reuss Voigt Hill
#
# Bulk Modulus (GPa) = 43.47555 51.31288 47.39422
# Shear Modulus (GPa) = 34.59092 15.72268 25.15680
#
# Velocity S-wave (km/s) = 4.10895 2.77021 3.50410
# Velocity P-wave (km/s) = 6.61295 5.93947 6.28524
#
# Compressibility (1/GPa) = 0.02300143
#
# Stress axis : x y z
#
# Youngs Moduli (GPa) = 125.90611 47.27010 60.81153
#
# Poissons Ratio (x) = 0.26156 0.00525
# Poissons Ratio (y) = 0.69667 0.34362
# Poissons Ratio (z) = 0.01087 0.26710
#
# Static dielectric constant tensor:
#      x y z
#    x 1.763320 0.000000 0.000000 
#    y 0.000000 1.745780 0.000000 
#    z 0.000000 0.000000 1.764530 
# 
# From -- ./inp_files/26957.got.cif
#   From: 2010.05.17/outbox.cif.g08.bks.cpg/sg24_14_cif.got.tgz:26957.got - 2010.06.04 00:33:39.
