data_PCOD9336264
_publ_section_title
;
Structure prediction by ZEFSAII (Michael W. Deem and Ramdas Pophale) SiO2 
 PCOD9336264
Probable space group: I 21 21 21
;
_chemical_formula_sum "Si O2"
_cell_formula_units_Z 40
_cell_length_a 10.080338
_cell_length_b 10.686325
_cell_length_c 16.697263
_cell_angle_alpha 90.000000
_cell_angle_beta 90.000000
_cell_angle_gamma 90.000000
_cell_volume 1798.658691
_symmetry_space_group_name_H-M "I 21 21 21"
_symmetry_group_IT_number 24
_symmetry_cell_setting 'orthorhombic'
loop_
_space_group_symop_operation_xyz
x,y,z
-x,1/2-y,z
x,-y,1/2-z
1/2-x,y,-z
1/2+x,1/2+y,1/2+z
1/2-x,-y,1/2+z
1/2+x,1/2-y,-z
-x,1/2+y,1/2-z
loop_
_atom_site_type_symbol
_atom_site_label
_atom_site_fract_x
_atom_site_fract_y
_atom_site_fract_z
Si Si1 0.750000 0.648411 0.500000
Si Si2 0.319690 0.494737 0.335359
Si Si3 0.742036 0.704459 0.163087
Si Si4 0.500000 0.750000 0.936498
Si Si5 0.036359 0.040698 0.557332
Si Si6 0.658208 0.766872 0.665440
O O1 0.872360 0.555559 0.511914
O O2 0.718466 0.722565 0.581225
O O3 0.390816 0.500000 0.250000
O O4 0.293456 0.349905 0.351003
O O5 0.422887 0.538543 0.400348
O O6 0.195180 0.586023 0.327896
O O7 0.881656 0.694868 0.116826
O O8 0.630259 0.617644 0.121048
O O9 0.771553 0.696529 0.258615
O O10 0.466781 0.637034 0.996560
O O11 0.500000 0.750000 0.669338
#
# Coordination Sequence:
#
# PCOD9336264 Si02
#       6
#     4   8   8   4   8   8
#     4  12  30  44  66 108 142 194 232 294 362 430
#     4  10  25  45  74 102 134 191 239 293 363 424
#     4  11  23  47  74 105 139 185 239 306 354 420
#     4  12  22  42  72 106 142 176 242 298 356 412
#     4  12  25  45  71 108 145 185 243 296 363 424
#     4  11  28  50  70 101 146 192 242 290 363 438
#
# _framework density 22.238795
#
# number of rings (size 3 to 8) (size 9 to 14) (size 15 to 20)
#    0.000    0.800    5.000    0.000    8.400    0.000 
#    3.600    0.000    0.000    0.000    0.000    0.000 
#    0.000    0.000    0.000    0.000    0.000    0.000 
#
# Total GULP energy -111709.553356 kJ/mol
# GULP energy per Si atom -5585.477668 kJ/mol
# Density = 2.218818 g / cm^3
# Si number density = 22.238795 Si / 1000 Ang^3
#
#
#
# Elastic Constant Matrix: (Units=GPa)
#
#
# Indices 1 2 3 4 5 6 
#
# 1 68.8657 5.8830 28.9377 0.0000 0.0000 0.0000
# 2 5.8830 62.0267 29.9814 0.0000 0.0000 0.0000
# 3 28.9377 29.9814 148.7712 0.0000 0.0000 0.0000
# 4 0.0000 0.0000 0.0000 9.8062 0.0000 0.0000
# 5 0.0000 0.0000 0.0000 0.0000 37.8410 0.0000
# 6 0.0000 0.0000 0.0000 0.0000 0.0000 9.7812
#
#
#
# Elastic Compliance Matrix: (Units=1/GPa)
#
#
# Indices 1 2 3 4 5 6 
#
# 1 0.015814 -0.000014 -0.003073 0.000000 0.000000 0.000000
# 2 -0.000014 0.017862 -0.003597 0.000000 0.000000 0.000000
# 3 -0.003073 -0.003597 0.008044 0.000000 0.000000 0.000000
# 4 0.000000 0.000000 0.000000 0.101977 0.000000 0.000000
# 5 0.000000 0.000000 0.000000 0.000000 0.026426 0.000000
# 6 0.000000 0.000000 0.000000 0.000000 0.000000 0.102237
#
#
# Mechanical properties :
#
#
# Convention : Reuss Voigt Hill
#
# Bulk Modulus (GPa) = 35.27184 45.47420 40.37302
# Shear Modulus (GPa) = 16.93888 25.80978 21.37433
#
# Velocity S-wave (km/s) = 2.76285 3.41042 3.10357
# Velocity P-wave (km/s) = 5.10615 6.00004 5.57105
#
# Compressibility (1/GPa) = 0.02835123
#
# Stress axis : x y z
#
# Youngs Moduli (GPa) = 63.23697 55.98462 124.31116
#
# Poissons Ratio (x) = 0.00081 0.38201
# Poissons Ratio (y) = 0.00092 0.44713
# Poissons Ratio (z) = 0.19433 0.20137
#
# Static dielectric constant tensor:
#      x y z
#    x 2.961120 0.000000 0.000000 
#    y 0.000000 1.792950 0.000000 
#    z 0.000000 0.000000 1.888250 
# 
# From -- ./inp_files/13847.got.cif
#   From: 2010.05.17/outbox.cif.g08.bks.cpg/sg24_7_cif.got.tgz:13847.got - 2010.06.04 00:33:39.
