data_PCOD9336468
_publ_section_title
;
Structure prediction by ZEFSAII (Michael W. Deem and Ramdas Pophale) SiO2 
 PCOD9336468
Probable space group: I 21 21 21
;
_chemical_formula_sum "Si O2"
_cell_formula_units_Z 64
_cell_length_a 10.913678
_cell_length_b 13.852678
_cell_length_c 19.319045
_cell_angle_alpha 90.000000
_cell_angle_beta 90.000000
_cell_angle_gamma 90.000000
_cell_volume 2920.724069
_symmetry_space_group_name_H-M "I 21 21 21"
_symmetry_group_IT_number 24
_symmetry_cell_setting 'orthorhombic'
loop_
_space_group_symop_operation_xyz
x,y,z
-x,1/2-y,z
x,-y,1/2-z
1/2-x,y,-z
1/2+x,1/2+y,1/2+z
1/2-x,-y,1/2+z
1/2+x,1/2-y,-z
-x,1/2+y,1/2-z
loop_
_atom_site_type_symbol
_atom_site_label
_atom_site_fract_x
_atom_site_fract_y
_atom_site_fract_z
Si Si1 0.107774 0.985143 0.923182
Si Si2 0.648276 0.751373 0.221184
Si Si3 0.399857 0.544189 0.176007
Si Si4 0.614826 0.523229 0.924661
Si Si5 0.013480 0.135976 0.147622
Si Si6 0.911154 0.341521 0.301898
Si Si7 0.132706 0.789410 0.614246
Si Si8 0.258376 0.598111 0.580104
O O1 0.244422 0.945082 0.926698
O O2 0.123747 0.098283 0.905088
O O3 0.055365 0.970228 0.000166
O O4 0.023702 0.935799 0.866319
O O5 0.500000 0.750000 0.204603
O O6 0.677015 0.860636 0.195439
O O7 0.766780 0.689073 0.196465
O O8 0.649683 0.728135 0.303330
O O9 0.434660 0.500000 0.250000
O O10 0.331701 0.465427 0.128219
O O11 0.613052 0.411408 0.902191
O O12 0.558655 0.584457 0.862866
O O13 0.054426 0.116722 0.226245
O O14 0.000000 0.250000 0.141609
O O15 0.888430 0.090769 0.118572
O O16 0.000000 0.250000 0.310181
O O17 0.224325 0.711853 0.581100
O O18 0.000000 0.750000 0.593968
O O19 0.250000 0.566096 0.500000
#
# Coordination Sequence:
#
# PCOD9336468 Si02
#       8
#     8   8   8   8   8   8   8   8
#     4  11  24  43  67 103 137 173 234 291 365 419
#     4  11  23  44  74 103 136 181 248 299 354 413
#     4  12  24  43  71 102 135 181 236 302 347 424
#     4  11  25  43  69  97 142 185 227 289 363 437
#     4  11  25  41  67 101 141 184 232 286 352 430
#     4  11  25  46  68 100 138 190 240 293 352 421
#     4  11  21  40  64 102 135 176 219 290 345 425
#     4  12  26  41  67 102 146 185 233 281 365 431
#
# _framework density 21.912374
#
# number of rings (size 3 to 8) (size 9 to 14) (size 15 to 20)
#    0.000    0.750    2.500    5.625    5.250    1.000 
#    0.000    3.125    0.000    0.000    0.000    0.000 
#    0.000    0.000    0.000    0.000    0.000    0.000 
#
# Total GULP energy -178550.731580 kJ/mol
# GULP energy per Si atom -5579.710362 kJ/mol
# Density = 2.186250 g / cm^3
# Si number density = 21.912374 Si / 1000 Ang^3
#
#
#
# Elastic Constant Matrix: (Units=GPa)
#
#
# Indices 1 2 3 4 5 6 
#
# 1 100.5969 14.8106 46.2305 0.0000 0.0000 0.0000
# 2 14.8106 44.7313 55.8175 0.0000 0.0000 0.0000
# 3 46.2305 55.8175 173.0632 0.0000 0.0000 0.0000
# 4 0.0000 0.0000 0.0000 15.9444 0.0000 0.0000
# 5 0.0000 0.0000 0.0000 0.0000 23.0003 0.0000
# 6 0.0000 0.0000 0.0000 0.0000 0.0000 21.5246
#
#
#
# Elastic Compliance Matrix: (Units=1/GPa)
#
#
# Indices 1 2 3 4 5 6 
#
# 1 0.011332 0.000042 -0.003041 0.000000 0.000000 0.000000
# 2 0.000042 0.037413 -0.012078 0.000000 0.000000 0.000000
# 3 -0.003041 -0.012078 0.010486 0.000000 0.000000 0.000000
# 4 0.000000 0.000000 0.000000 0.062718 0.000000 0.000000
# 5 0.000000 0.000000 0.000000 0.000000 0.043478 0.000000
# 6 0.000000 0.000000 0.000000 0.000000 0.000000 0.046458
#
#
# Mechanical properties :
#
#
# Convention : Reuss Voigt Hill
#
# Bulk Modulus (GPa) = 34.39010 61.34539 47.86774
# Shear Modulus (GPa) = 19.86252 25.52939 22.69596
#
# Velocity S-wave (km/s) = 3.01400 3.41701 3.22181
# Velocity P-wave (km/s) = 5.27643 6.60488 5.97768
#
# Compressibility (1/GPa) = 0.02907814
#
# Stress axis : x y z
#
# Youngs Moduli (GPa) = 88.24689 26.72863 95.36527
#
# Poissons Ratio (x) = -0.00113 0.28998
# Poissons Ratio (y) = -0.00374 1.15182
# Poissons Ratio (z) = 0.26834 0.32283
#
# Static dielectric constant tensor:
#      x y z
#    x 1.914580 0.000000 0.000000 
#    y 0.000000 1.850770 0.000000 
#    z 0.000000 0.000000 1.791860 
# 
# From -- ./inp_files/30365.got.cif
#   From: 2010.05.17/outbox.cif.g08.bks.cpg/sg24_16_cif.got.tgz:30365.got - 2010.06.04 00:33:39.
