data_PCOD9336476
_publ_section_title
;
Structure prediction by ZEFSAII (Michael W. Deem and Ramdas Pophale) SiO2 
 PCOD9336476
Probable space group: I 21 21 21
;
_chemical_formula_sum "Si O2"
_cell_formula_units_Z 48
_cell_length_a 28.335900
_cell_length_b 9.325369
_cell_length_c 8.357415
_cell_angle_alpha 90.000000
_cell_angle_beta 90.000000
_cell_angle_gamma 90.000000
_cell_volume 2208.386101
_symmetry_space_group_name_H-M "I 21 21 21"
_symmetry_group_IT_number 24
_symmetry_cell_setting 'orthorhombic'
loop_
_space_group_symop_operation_xyz
x,y,z
-x,1/2-y,z
x,-y,1/2-z
1/2-x,y,-z
1/2+x,1/2+y,1/2+z
1/2-x,-y,1/2+z
1/2+x,1/2-y,-z
-x,1/2+y,1/2-z
loop_
_atom_site_type_symbol
_atom_site_label
_atom_site_fract_x
_atom_site_fract_y
_atom_site_fract_z
Si Si1 0.622752 0.341723 0.686218
Si Si2 0.534274 0.870842 0.359560
Si Si3 0.614536 0.898301 0.598942
Si Si4 0.687829 0.842307 0.325702
Si Si5 0.103958 0.160347 0.678445
Si Si6 0.731997 0.663192 0.816135
O O1 0.624150 0.500000 0.750000
O O2 0.597539 0.247487 0.818602
O O3 0.601195 0.340079 0.511638
O O4 0.677327 0.292443 0.677969
O O5 0.500000 0.750000 0.435976
O O6 0.572183 0.942575 0.480554
O O7 0.564937 0.766238 0.247315
O O8 0.513391 0.000000 0.250000
O O9 0.661293 0.866685 0.494567
O O10 0.622955 0.000000 0.750000
O O11 0.653009 0.734709 0.230650
O O12 0.738019 0.765776 0.301105
O O13 0.689917 0.000000 0.250000
O O14 0.102225 0.000000 0.750000
O O15 0.735899 0.500000 0.750000
O O16 0.750000 0.669448 0.000000
#
# Coordination Sequence:
#
# PCOD9336476 Si02
#       6
#     8   8   8   8   8   8
#     4  11  23  38  62  94 130 173 227 280 335 394
#     4  11  24  45  72 101 132 170 219 270 337 413
#     4  11  24  43  67  95 134 175 220 276 341 403
#     4  11  23  41  63  89 130 180 230 279 333 400
#     4  11  21  41  70  95 128 176 224 272 333 408
#     4  11  25  40  63  92 134 180 232 289 338 392
#
# _framework density 21.735327999999999
#
# number of rings (size 3 to 8) (size 9 to 14) (size 15 to 20)
#    0.000    1.000    1.667    7.000    4.667    0.667 
#    0.000    5.833    0.000    0.000    0.000    0.000 
#    0.000    0.000    0.000    0.000    0.000    0.000 
#
# Total GULP energy -134073.550951 kJ/mol
# GULP energy per Si atom -5586.397956 kJ/mol
# Density = 2.168586 g / cm^3
# Si number density = 21.735328 Si / 1000 Ang^3
#
#
#
# Elastic Constant Matrix: (Units=GPa)
#
#
# Indices 1 2 3 4 5 6 
#
# 1 35.8172 9.5204 21.9780 0.0000 0.0000 0.0000
# 2 9.5204 113.5210 24.9212 0.0000 0.0000 0.0000
# 3 21.9780 24.9212 133.1623 0.0000 0.0000 0.0000
# 4 0.0000 0.0000 0.0000 41.4815 0.0000 0.0000
# 5 0.0000 0.0000 0.0000 0.0000 20.1691 0.0000
# 6 0.0000 0.0000 0.0000 0.0000 0.0000 30.2665
#
#
#
# Elastic Compliance Matrix: (Units=1/GPa)
#
#
# Indices 1 2 3 4 5 6 
#
# 1 0.031327 -0.001556 -0.004879 0.000000 0.000000 0.000000
# 2 -0.001556 0.009264 -0.001477 0.000000 0.000000 0.000000
# 3 -0.004879 -0.001477 0.008591 0.000000 0.000000 0.000000
# 4 0.000000 0.000000 0.000000 0.024107 0.000000 0.000000
# 5 0.000000 0.000000 0.000000 0.000000 0.049581 0.000000
# 6 0.000000 0.000000 0.000000 0.000000 0.000000 0.033040
#
#
# Mechanical properties :
#
#
# Convention : Reuss Voigt Hill
#
# Bulk Modulus (GPa) = 29.97800 43.92661 36.95231
# Shear Modulus (GPa) = 27.34428 33.45547 30.39988
#
# Velocity S-wave (km/s) = 3.55076 3.92755 3.74390
# Velocity P-wave (km/s) = 5.53469 6.38914 5.97720
#
# Compressibility (1/GPa) = 0.03335780
#
# Stress axis : x y z
#
# Youngs Moduli (GPa) = 31.92119 107.94878 116.39655
#
# Poissons Ratio (x) = 0.16798 0.56792
# Poissons Ratio (y) = 0.04967 0.17190
# Poissons Ratio (z) = 0.15575 0.15942
#
# Static dielectric constant tensor:
#      x y z
#    x 1.839750 0.000000 0.000000 
#    y 0.000000 1.763220 0.000000 
#    z 0.000000 0.000000 1.776790 
# 
# From -- ./inp_files/16798.got.cif
#   From: 2010.05.17/outbox.cif.g08.bks.cpg/sg24_9_cif.got.tgz:16798.got - 2010.06.04 00:33:39.
