data_PCOD9336015
_publ_section_title
;
Structure prediction by ZEFSAII (Michael W. Deem and Ramdas Pophale) SiO2 
 PCOD9336015
Probable space group: I 21 21 21
;
_chemical_formula_sum "Si O2"
_cell_formula_units_Z 32
_cell_length_a 16.369545
_cell_length_b 10.014579
_cell_length_c 9.318330
_cell_angle_alpha 90.000000
_cell_angle_beta 90.000000
_cell_angle_gamma 90.000000
_cell_volume 1527.592057
_symmetry_space_group_name_H-M "I 21 21 21"
_symmetry_group_IT_number 24
_symmetry_cell_setting 'orthorhombic'
loop_
_space_group_symop_operation_xyz
x,y,z
-x,1/2-y,z
x,-y,1/2-z
1/2-x,y,-z
1/2+x,1/2+y,1/2+z
1/2-x,-y,1/2+z
1/2+x,1/2-y,-z
-x,1/2+y,1/2-z
loop_
_atom_site_type_symbol
_atom_site_label
_atom_site_fract_x
_atom_site_fract_y
_atom_site_fract_z
Si Si1 0.037451 0.965394 0.416290
Si Si2 0.622254 0.820039 0.560922
Si Si3 0.825198 0.587699 0.896158
Si Si4 0.720551 0.155455 0.229300
O O1 0.076395 0.819613 0.431744
O O2 0.941752 0.942035 0.448355
O O3 0.046256 0.000000 0.250000
O O4 0.090149 0.061659 0.519119
O O5 0.674026 0.810724 0.416724
O O6 0.683213 0.830153 0.695551
O O7 0.823840 0.500000 0.750000
O O8 0.809339 0.740913 0.849220
O O9 0.750000 0.546292 0.000000
O O10 0.703903 0.000000 0.250000
#
# Coordination Sequence:
#
# PCOD9336015 Si02
#       4
#     8   8   8   8
#     4  11  23  45  72 103 140 184 239 300 362 440
#     4  10  23  45  69  98 143 186 230 302 363 425
#     4  12  24  42  74 107 137 185 245 296 362 439
#     4  11  24  44  69  98 140 188 237 291 357 439
#
# _framework density 20.948003
#
# number of rings (size 3 to 8) (size 9 to 14) (size 15 to 20)
#    0.000    1.000    2.500    4.500    3.500    1.000 
#    9.000    0.000    0.000    0.000    0.000    0.000 
#    0.000    0.000    0.000    0.000    0.000    0.000 
#
# Total GULP energy -89390.149453 kJ/mol
# GULP energy per Si atom -5586.884341 kJ/mol
# Density = 2.090032 g / cm^3
# Si number density = 20.948003 Si / 1000 Ang^3
#
#
#
# Elastic Constant Matrix: (Units=GPa)
#
#
# Indices 1 2 3 4 5 6 
#
# 1 133.9498 42.6851 50.3187 0.0000 0.0000 0.0000
# 2 42.6851 91.7514 24.3457 0.0000 0.0000 0.0000
# 3 50.3187 24.3457 97.8836 0.0000 0.0000 0.0000
# 4 0.0000 0.0000 0.0000 29.5335 0.0000 0.0000
# 5 0.0000 0.0000 0.0000 0.0000 22.6322 0.0000
# 6 0.0000 0.0000 0.0000 0.0000 0.0000 23.9495
#
#
#
# Elastic Compliance Matrix: (Units=1/GPa)
#
#
# Indices 1 2 3 4 5 6 
#
# 1 0.010260 -0.003612 -0.004376 0.000000 0.000000 0.000000
# 2 -0.003612 0.012941 -0.001362 0.000000 0.000000 0.000000
# 3 -0.004376 -0.001362 0.012805 0.000000 0.000000 0.000000
# 4 0.000000 0.000000 0.000000 0.033860 0.000000 0.000000
# 5 0.000000 0.000000 0.000000 0.000000 0.044185 0.000000
# 6 0.000000 0.000000 0.000000 0.000000 0.000000 0.041754
#
#
# Mechanical properties :
#
#
# Convention : Reuss Voigt Hill
#
# Bulk Modulus (GPa) = 57.78460 62.03153 59.90807
# Shear Modulus (GPa) = 27.73559 28.97207 28.35383
#
# Velocity S-wave (km/s) = 3.64266 3.72297 3.68303
# Velocity P-wave (km/s) = 6.73325 6.93953 6.83717
#
# Compressibility (1/GPa) = 0.01730565
#
# Stress axis : x y z
#
# Youngs Moduli (GPa) = 97.46123 77.27461 78.09742
#
# Poissons Ratio (x) = 0.27914 0.34176
# Poissons Ratio (y) = 0.35206 0.10635
# Poissons Ratio (z) = 0.42650 0.10523
#
# Static dielectric constant tensor:
#      x y z
#    x 1.802190 0.000000 0.000000 
#    y 0.000000 1.681760 0.000000 
#    z 0.000000 0.000000 1.672980 
# 
# From -- ./inp_files/10363.got.cif
#   From: 2010.05.17/outbox.cif.g08.bks.cpg/sg24_6_cif.got.tgz:10363.got - 2010.06.04 00:33:39.
