data_PCOD9336650
_publ_section_title
;
Structure prediction by ZEFSAII (Michael W. Deem and Ramdas Pophale) SiO2 
 PCOD9336650
Probable space group: I 21 21 21
;
_chemical_formula_sum "Si O2"
_cell_formula_units_Z 60
_cell_length_a 29.483764
_cell_length_b 7.535957
_cell_length_c 11.729636
_cell_angle_alpha 90.000000
_cell_angle_beta 90.000000
_cell_angle_gamma 90.000000
_cell_volume 2606.188794
_symmetry_space_group_name_H-M "I 21 21 21"
_symmetry_group_IT_number 24
_symmetry_cell_setting 'orthorhombic'
loop_
_space_group_symop_operation_xyz
x,y,z
-x,1/2-y,z
x,-y,1/2-z
1/2-x,y,-z
1/2+x,1/2+y,1/2+z
1/2-x,-y,1/2+z
1/2+x,1/2-y,-z
-x,1/2+y,1/2-z
loop_
_atom_site_type_symbol
_atom_site_label
_atom_site_fract_x
_atom_site_fract_y
_atom_site_fract_z
Si Si1 0.000000 0.250000 0.079177
Si Si2 0.582374 0.797828 0.739183
Si Si3 0.660063 0.265409 0.156907
Si Si4 0.043241 0.124115 0.470382
Si Si5 0.661259 0.775819 0.583209
Si Si6 0.865024 0.329139 0.599910
Si Si7 0.241709 0.820588 0.304094
Si Si8 0.795626 0.153498 0.424529
O O1 0.038870 0.326439 0.160097
O O2 0.975523 0.421475 0.023179
O O3 0.565637 0.686630 0.848603
O O4 0.622600 0.708120 0.667589
O O5 0.600024 0.000000 0.750000
O O6 0.640645 0.224615 0.280857
O O7 0.652410 0.473244 0.128423
O O8 0.713520 0.216658 0.157745
O O9 0.639877 0.187269 0.040926
O O10 0.083325 0.156531 0.559772
O O11 0.000000 0.250000 0.487721
O O12 0.704801 0.646287 0.597005
O O13 0.686261 0.959981 0.606442
O O14 0.834089 0.248813 0.500089
O O15 0.215707 0.740899 0.196029
O O16 0.260828 0.000000 0.250000
O O17 0.750000 0.148712 0.500000
#
# Coordination Sequence:
#
# PCOD9336650 Si02
#       8
#     4   8   8   8   8   8   8   8
#     4  12  24  42  74 112 140 184 232 300 388 450
#     4  12  22  45  67 107 148 189 233 297 382 448
#     4  11  23  46  66  94 137 190 245 282 348 426
#     4  12  25  46  80 108 148 183 239 312 385 449
#     4  12  27  38  68 105 146 189 242 298 351 436
#     4  11  24  46  73  97 137 194 240 294 356 442
#     4  12  22  41  65  96 136 187 241 294 352 421
#     4  12  23  42  67 106 148 192 244 301 364 424
#
# _framework density 23.022124000000002
#
# number of rings (size 3 to 8) (size 9 to 14) (size 15 to 20)
#    0.000    0.267    4.667    6.000    0.000    1.600 
#    0.000    0.000   13.200    0.000    0.000    0.000 
#    0.000    0.000    0.000    0.000    0.000    0.000 
#
# Total GULP energy -167629.955538 kJ/mol
# GULP energy per Si atom -5587.665185 kJ/mol
# Density = 2.296972 g / cm^3
# Si number density = 23.022124 Si / 1000 Ang^3
#
#
#
# Elastic Constant Matrix: (Units=GPa)
#
#
# Indices 1 2 3 4 5 6 
#
# 1 172.3058 9.3751 70.4421 0.0000 0.0000 0.0000
# 2 9.3751 59.4896 18.0199 0.0000 0.0000 0.0000
# 3 70.4421 18.0199 128.4194 0.0000 0.0000 0.0000
# 4 0.0000 0.0000 0.0000 24.2120 0.0000 0.0000
# 5 0.0000 0.0000 0.0000 0.0000 38.5258 0.0000
# 6 0.0000 0.0000 0.0000 0.0000 0.0000 25.4728
#
#
#
# Elastic Compliance Matrix: (Units=1/GPa)
#
#
# Indices 1 2 3 4 5 6 
#
# 1 0.007482 0.000067 -0.004113 0.000000 0.000000 0.000000
# 2 0.000067 0.017556 -0.002500 0.000000 0.000000 0.000000
# 3 -0.004113 -0.002500 0.010394 0.000000 0.000000 0.000000
# 4 0.000000 0.000000 0.000000 0.041302 0.000000 0.000000
# 5 0.000000 0.000000 0.000000 0.000000 0.025957 0.000000
# 6 0.000000 0.000000 0.000000 0.000000 0.000000 0.039258
#
#
# Mechanical properties :
#
#
# Convention : Reuss Voigt Hill
#
# Bulk Modulus (GPa) = 44.76491 61.76543 53.26517
# Shear Modulus (GPa) = 30.77156 35.13397 32.95277
#
# Velocity S-wave (km/s) = 3.65993 3.91077 3.78743
# Velocity P-wave (km/s) = 6.11119 6.87598 6.50483
#
# Compressibility (1/GPa) = 0.02233892
#
# Stress axis : x y z
#
# Youngs Moduli (GPa) = 133.66162 56.95910 96.20866
#
# Poissons Ratio (x) = -0.00381 0.39573
# Poissons Ratio (y) = -0.00894 0.24054
# Poissons Ratio (z) = 0.54979 0.14241
#
# Static dielectric constant tensor:
#      x y z
#    x 1.835890 0.000000 0.000000 
#    y 0.000000 2.173300 0.000000 
#    z 0.000000 0.000000 1.973820 
# 
# From -- ./inp_files/22987.got.cif
#   From: 2010.05.17/outbox.cif.g08.bks.cpg/sg24_12_cif.got.tgz:22987.got - 2010.06.04 00:33:39.
