data_PCOD9336652
_publ_section_title
;
Structure prediction by ZEFSAII (Michael W. Deem and Ramdas Pophale) SiO2 
 PCOD9336652
Probable space group: I 21 21 21
;
_chemical_formula_sum "Si O2"
_cell_formula_units_Z 32
_cell_length_a 19.243690
_cell_length_b 12.518468
_cell_length_c 5.202584
_cell_angle_alpha 90.000000
_cell_angle_beta 90.000000
_cell_angle_gamma 90.000000
_cell_volume 1253.310380
_symmetry_space_group_name_H-M "I 21 21 21"
_symmetry_group_IT_number 24
_symmetry_cell_setting 'orthorhombic'
loop_
_space_group_symop_operation_xyz
x,y,z
-x,1/2-y,z
x,-y,1/2-z
1/2-x,y,-z
1/2+x,1/2+y,1/2+z
1/2-x,-y,1/2+z
1/2+x,1/2-y,-z
-x,1/2+y,1/2-z
loop_
_atom_site_type_symbol
_atom_site_label
_atom_site_fract_x
_atom_site_fract_y
_atom_site_fract_z
Si Si1 0.426621 0.736937 0.764688
Si Si2 0.314960 0.181748 0.336035
Si Si3 0.586626 0.436004 0.014810
Si Si4 0.827977 0.092010 0.934369
O O1 0.500000 0.750000 0.909398
O O2 0.443074 0.819034 0.532749
O O3 0.384290 0.633435 0.651287
O O4 0.373446 0.796529 0.951592
O O5 0.250000 0.147460 0.500000
O O6 0.337549 0.098229 0.119705
O O7 0.307930 0.297974 0.208862
O O8 0.553141 0.500000 0.250000
O O9 0.583412 0.500000 0.750000
O O10 0.859219 0.000000 0.750000
O O11 0.750000 0.049636 0.000000
#
# Coordination Sequence:
#
# PCOD9336652 Si02
#       4
#     8   8   8   8
#     4  11  26  48  73 110 154 201 254 326 397 465
#     4  11  23  46  75 106 153 197 253 320 387 460
#     4  11  24  49  73 106 146 197 251 307 374 463
#     4  11  24  43  76 113 150 202 265 324 393 471
#
# _framework density 25.532381999999998
#
# number of rings (size 3 to 8) (size 9 to 14) (size 15 to 20)
#    0.000    1.000    5.000    0.750    0.000    5.000 
#    9.000    0.000    0.000    0.000    0.000    0.000 
#    0.000    0.000    0.000    0.000    0.000    0.000 
#
# Total GULP energy -89190.782416 kJ/mol
# GULP energy per Si atom -5574.423901 kJ/mol
# Density = 2.547427 g / cm^3
# Si number density = 25.532382 Si / 1000 Ang^3
#
#
#
# Elastic Constant Matrix: (Units=GPa)
#
#
# Indices 1 2 3 4 5 6 
#
# 1 155.0571 12.3659 40.9270 0.0000 0.0000 0.0000
# 2 12.3659 83.5611 45.3949 0.0000 0.0000 0.0000
# 3 40.9270 45.3949 136.1748 0.0000 0.0000 0.0000
# 4 0.0000 0.0000 0.0000 37.3427 0.0000 0.0000
# 5 0.0000 0.0000 0.0000 0.0000 23.8159 0.0000
# 6 0.0000 0.0000 0.0000 0.0000 0.0000 -2.8262
#
#
#
# Elastic Compliance Matrix: (Units=1/GPa)
#
#
# Indices 1 2 3 4 5 6 
#
# 1 0.007006 0.000131 -0.002149 0.000000 0.000000 0.000000
# 2 0.000131 0.014616 -0.004912 0.000000 0.000000 0.000000
# 3 -0.002149 -0.004912 0.009627 0.000000 0.000000 0.000000
# 4 0.000000 0.000000 0.000000 0.026779 0.000000 0.000000
# 5 0.000000 0.000000 0.000000 0.000000 0.041989 0.000000
# 6 0.000000 0.000000 0.000000 0.000000 0.000000 -0.353830
#
#
# Mechanical properties :
#
#
# Convention : Reuss Voigt Hill
#
# Bulk Modulus (GPa) = 57.50849 63.57429 60.54139
# Shear Modulus (GPa) = -21.35321 30.07349 4.36014
#
# Velocity S-wave (km/s) = -2.89506 3.43572 1.30820
# Velocity P-wave (km/s) = 3.37602 6.37906 5.10343
#
# Compressibility (1/GPa) = 0.01738874
#
# Stress axis : x y z
#
# Youngs Moduli (GPa) = 142.73277 68.41693 103.87630
#
# Poissons Ratio (x) = -0.00895 0.22326
# Poissons Ratio (y) = -0.01867 0.51022
# Poissons Ratio (z) = 0.30677 0.33605
#
# Static dielectric constant tensor:
#      x y z
#    x 2.305920 0.000000 0.000000 
#    y 0.000000 2.141100 0.000000 
#    z 0.000000 0.000000 2.225350 
# 
# From -- ./inp_files/5259.got.cif
#   From: 2010.05.17/outbox.cif.g08.bks.cpg/sg24_3_cif.got.tgz:5259.got - 2010.06.04 00:33:39.
