data_PCOD9336348
_publ_section_title
;
Structure prediction by ZEFSAII (Michael W. Deem and Ramdas Pophale) SiO2 
 PCOD9336348
Probable space group: I 21 21 21
;
_chemical_formula_sum "Si O2"
_cell_formula_units_Z 20
_cell_length_a 28.211293
_cell_length_b 5.653641
_cell_length_c 5.095121
_cell_angle_alpha 90.000000
_cell_angle_beta 90.000000
_cell_angle_gamma 90.000000
_cell_volume 812.654083
_symmetry_space_group_name_H-M "I 21 21 21"
_symmetry_group_IT_number 24
_symmetry_cell_setting 'orthorhombic'
loop_
_space_group_symop_operation_xyz
x,y,z
-x,1/2-y,z
x,-y,1/2-z
1/2-x,y,-z
1/2+x,1/2+y,1/2+z
1/2-x,-y,1/2+z
1/2+x,1/2-y,-z
-x,1/2+y,1/2-z
loop_
_atom_site_type_symbol
_atom_site_label
_atom_site_fract_x
_atom_site_fract_y
_atom_site_fract_z
Si Si1 0.000000 0.250000 0.906896
Si Si2 0.173494 0.500000 0.250000
Si Si3 0.395253 0.838676 0.508204
Si Si4 0.750000 0.345519 0.500000
O O1 0.001839 0.500000 0.750000
O O2 0.949827 0.260695 0.053261
O O3 0.139659 0.618909 0.466978
O O4 0.207734 0.314352 0.391163
O O5 0.380903 0.000000 0.750000
O O6 0.392903 0.000000 0.250000
O O7 0.733997 0.500000 0.250000
#
# Coordination Sequence:
#
# PCOD9336348 Si02
#       4
#     4   4   8   4
#     4  10  26  52  80 120 172 218 276 338 416 498
#     4  12  30  52  86 116 166 214 280 338 428 492
#     4  11  29  49  80 120 162 216 274 336 410 500
#     4  12  30  56  80 118 162 212 276 350 420 496
#
# _framework density 24.610714999999999
#
# number of rings (size 3 to 8) (size 9 to 14) (size 15 to 20)
#    0.000    0.800    0.000    2.400   14.000   17.600 
#    0.000    0.000    0.000    0.000    0.000    0.000 
#    0.000    0.000    0.000    0.000    0.000    0.000 
#
# Total GULP energy -56073.265795 kJ/mol
# GULP energy per Si atom -5607.326579 kJ/mol
# Density = 2.455470 g / cm^3
# Si number density = 24.610715 Si / 1000 Ang^3
#
#
#
# Elastic Constant Matrix: (Units=GPa)
#
#
# Indices 1 2 3 4 5 6 
#
# 1 199.0256 74.7309 42.2880 0.0000 0.0000 0.0000
# 2 74.7309 139.0202 57.9688 0.0000 0.0000 0.0000
# 3 42.2880 57.9688 146.5285 0.0000 0.0000 0.0000
# 4 0.0000 0.0000 0.0000 42.9807 0.0000 0.0000
# 5 0.0000 0.0000 0.0000 0.0000 64.1205 0.0000
# 6 0.0000 0.0000 0.0000 0.0000 0.0000 26.1870
#
#
#
# Elastic Compliance Matrix: (Units=1/GPa)
#
#
# Indices 1 2 3 4 5 6 
#
# 1 0.006335 -0.003165 -0.000576 0.000000 0.000000 0.000000
# 2 -0.003165 0.010196 -0.003120 0.000000 0.000000 0.000000
# 3 -0.000576 -0.003120 0.008225 0.000000 0.000000 0.000000
# 4 0.000000 0.000000 0.000000 0.023266 0.000000 0.000000
# 5 0.000000 0.000000 0.000000 0.000000 0.015596 0.000000
# 6 0.000000 0.000000 0.000000 0.000000 0.000000 0.038187
#
#
# Mechanical properties :
#
#
# Convention : Reuss Voigt Hill
#
# Bulk Modulus (GPa) = 90.63507 92.72775 91.68141
# Shear Modulus (GPa) = 41.94414 47.29675 44.62045
#
# Velocity S-wave (km/s) = 4.13280 4.38858 4.26261
# Velocity P-wave (km/s) = 7.72534 7.96487 7.84602
#
# Compressibility (1/GPa) = 0.01103326
#
# Stress axis : x y z
#
# Youngs Moduli (GPa) = 157.84189 98.07967 121.57723
#
# Poissons Ratio (x) = 0.31046 0.07004
# Poissons Ratio (y) = 0.49964 0.37933
# Poissons Ratio (z) = 0.09094 0.30602
#
# Static dielectric constant tensor:
#      x y z
#    x 1.923710 0.000000 0.000000 
#    y 0.000000 1.874580 0.000000 
#    z 0.000000 0.000000 1.911120 
# 
# From -- ./inp_files/331.got.cif
#   From: 2010.05.17/outbox.cif.g08.bks.cpg/sg24_1_cif.got.tgz:331.got - 2010.06.04 00:33:39.
