data_PCOD9336819
_publ_section_title
;
Structure prediction by ZEFSAII (Michael W. Deem and Ramdas Pophale) SiO2 
 PCOD9336819
Probable space group: I 21 21 21
;
_chemical_formula_sum "Si O2"
_cell_formula_units_Z 28
_cell_length_a 15.793919
_cell_length_b 5.314663
_cell_length_c 12.846106
_cell_angle_alpha 90.000000
_cell_angle_beta 90.000000
_cell_angle_gamma 90.000000
_cell_volume 1078.293877
_symmetry_space_group_name_H-M "I 21 21 21"
_symmetry_group_IT_number 24
_symmetry_cell_setting 'orthorhombic'
loop_
_space_group_symop_operation_xyz
x,y,z
-x,1/2-y,z
x,-y,1/2-z
1/2-x,y,-z
1/2+x,1/2+y,1/2+z
1/2-x,-y,1/2+z
1/2+x,1/2-y,-z
-x,1/2+y,1/2-z
loop_
_atom_site_type_symbol
_atom_site_label
_atom_site_fract_x
_atom_site_fract_y
_atom_site_fract_z
Si Si1 0.860999 0.526745 0.364013
Si Si2 0.250000 0.348464 0.500000
Si Si3 0.949524 0.506725 0.579098
Si Si4 0.190769 0.690538 0.658698
O O1 0.901291 0.500000 0.250000
O O2 0.799810 0.310488 0.413332
O O3 0.928363 0.544371 0.456789
O O4 0.790242 0.741141 0.341525
O O5 0.180931 0.525082 0.554599
O O6 0.138831 0.946845 0.639732
O O7 0.000000 0.750000 0.617258
O O8 0.000000 0.250000 0.597211
O O9 0.167801 0.500000 0.750000
#
# Coordination Sequence:
#
# PCOD9336819 Si02
#       4
#     8   4   8   8
#     4  12  25  43  79 113 149 207 274 337 396 475
#     4  12  20  44  74 114 156 194 262 346 402 452
#     4  12  28  50  75 111 170 215 255 325 414 495
#     4  12  25  45  81 117 155 210 279 338 396 480
#
# _framework density 25.966946
#
# number of rings (size 3 to 8) (size 9 to 14) (size 15 to 20)
#    0.000    0.000    8.571    1.714    0.000    1.143 
#    0.000    5.714    0.000    0.000    0.000    0.000 
#    0.000    0.000    0.000    0.000    0.000    0.000 
#
# Total GULP energy -78289.110090 kJ/mol
# GULP energy per Si atom -5592.079292 kJ/mol
# Density = 2.590784 g / cm^3
# Si number density = 25.966946 Si / 1000 Ang^3
#
#
#
# Elastic Constant Matrix: (Units=GPa)
#
#
# Indices 1 2 3 4 5 6 
#
# 1 67.8960 51.7501 -0.6885 0.0000 0.0000 0.0000
# 2 51.7501 165.3648 43.8879 0.0000 0.0000 0.0000
# 3 -0.6885 43.8879 180.4065 0.0000 0.0000 0.0000
# 4 0.0000 0.0000 0.0000 39.7794 0.0000 0.0000
# 5 0.0000 0.0000 0.0000 0.0000 22.6339 0.0000
# 6 0.0000 0.0000 0.0000 0.0000 0.0000 54.1753
#
#
#
# Elastic Compliance Matrix: (Units=1/GPa)
#
#
# Indices 1 2 3 4 5 6 
#
# 1 0.019814 -0.006650 0.001693 0.000000 0.000000 0.000000
# 2 -0.006650 0.008697 -0.002141 0.000000 0.000000 0.000000
# 3 0.001693 -0.002141 0.006070 0.000000 0.000000 0.000000
# 4 0.000000 0.000000 0.000000 0.025139 0.000000 0.000000
# 5 0.000000 0.000000 0.000000 0.000000 0.044182 0.000000
# 6 0.000000 0.000000 0.000000 0.000000 0.000000 0.018459
#
#
# Mechanical properties :
#
#
# Convention : Reuss Voigt Hill
#
# Bulk Modulus (GPa) = 49.05401 67.06292 58.05846
# Shear Modulus (GPa) = 34.87938 44.56556 39.72247
#
# Velocity S-wave (km/s) = 3.66898 4.14725 3.91542
# Velocity P-wave (km/s) = 6.07293 6.98679 6.54583
#
# Compressibility (1/GPa) = 0.02038569
#
# Stress axis : x y z
#
# Youngs Moduli (GPa) = 50.46833 114.98698 164.73506
#
# Poissons Ratio (x) = 0.76469 -0.27897
# Poissons Ratio (y) = 0.33563 0.35270
# Poissons Ratio (z) = -0.08547 0.24619
#
# Static dielectric constant tensor:
#      x y z
#    x 2.125370 0.000000 0.000000 
#    y 0.000000 2.113510 0.000000 
#    z 0.000000 0.000000 2.072640 
# 
# From -- ./inp_files/30474.got.cif
#   From: 2010.05.17/outbox.cif.g08.bks.cpg/sg24_16_cif.got.tgz:30474.got - 2010.06.04 00:33:39.
