data_PCOD9336522
_publ_section_title
;
Structure prediction by ZEFSAII (Michael W. Deem and Ramdas Pophale) SiO2 
 PCOD9336522
Probable space group: I 21 21 21
;
_chemical_formula_sum "Si O2"
_cell_formula_units_Z 64
_cell_length_a 9.722273
_cell_length_b 14.569269
_cell_length_c 22.627155
_cell_angle_alpha 90.000000
_cell_angle_beta 90.000000
_cell_angle_gamma 90.000000
_cell_volume 3205.055288
_symmetry_space_group_name_H-M "I 21 21 21"
_symmetry_group_IT_number 24
_symmetry_cell_setting 'orthorhombic'
loop_
_space_group_symop_operation_xyz
x,y,z
-x,1/2-y,z
x,-y,1/2-z
1/2-x,y,-z
1/2+x,1/2+y,1/2+z
1/2-x,-y,1/2+z
1/2+x,1/2-y,-z
-x,1/2+y,1/2-z
loop_
_atom_site_type_symbol
_atom_site_label
_atom_site_fract_x
_atom_site_fract_y
_atom_site_fract_z
Si Si1 0.510010 0.637865 0.889267
Si Si2 0.156335 0.737188 0.746436
Si Si3 0.126833 0.817693 0.457414
Si Si4 0.775428 0.058089 0.306134
Si Si5 0.413797 0.024403 0.498579
Si Si6 0.260895 0.079789 0.703803
Si Si7 0.375682 0.800636 0.378260
Si Si8 0.994382 0.500405 0.863735
O O1 0.500000 0.750000 0.889743
O O2 0.384461 0.591573 0.854106
O O3 0.640500 0.600803 0.851579
O O4 0.518692 0.593722 0.954604
O O5 0.216521 0.649103 0.776394
O O6 0.246090 0.825582 0.761439
O O7 0.149464 0.733124 0.676037
O O8 0.000000 0.750000 0.767500
O O9 0.250000 0.780959 0.500000
O O10 0.275480 0.827540 0.599160
O O11 0.000000 0.750000 0.449001
O O12 0.077496 0.917176 0.480726
O O13 0.830001 0.000000 0.250000
O O14 0.647776 0.009450 0.339003
O O15 0.250000 0.043799 0.500000
O O16 0.474261 0.030350 0.432294
O O17 0.303113 0.000000 0.750000
O O18 0.111226 0.055284 0.677709
O O19 0.500000 0.750000 0.415135
O O20 0.441010 0.896739 0.359977
#
# Coordination Sequence:
#
# PCOD9336522 Si02
#       8
#     8   8   8   8   8   8   8   8
#     4  12  27  49  69  99 141 181 235 296 348 411
#     4  11  22  39  66 103 133 175 229 277 348 415
#     4  11  23  43  69  99 139 180 229 283 349 411
#     4  12  26  46  68 105 144 176 222 296 354 410
#     4  11  24  47  71  97 136 186 238 284 339 414
#     4  12  22  41  72  96 130 186 227 275 350 419
#     4  11  22  39  66 103 137 179 229 286 342 426
#     4  12  23  44  72  95 138 184 229 283 343 412
#
# _framework density 19.968454999999999
#
# number of rings (size 3 to 8) (size 9 to 14) (size 15 to 20)
#    0.000    0.500    7.500    2.625    0.000    2.500 
#    6.750    0.000    0.000    0.000    0.000    0.000 
#    0.000    0.000    0.000    0.000    0.000    0.000 
#
# Total GULP energy -178569.494823 kJ/mol
# GULP energy per Si atom -5580.296713 kJ/mol
# Density = 1.992301 g / cm^3
# Si number density = 19.968455 Si / 1000 Ang^3
#
#
#
# Elastic Constant Matrix: (Units=GPa)
#
#
# Indices 1 2 3 4 5 6 
#
# 1 80.3007 30.0086 22.3051 0.0000 0.0000 0.0000
# 2 30.0086 95.4058 31.2807 0.0000 0.0000 0.0000
# 3 22.3051 31.2807 105.6066 0.0000 0.0000 0.0000
# 4 0.0000 0.0000 0.0000 26.6591 0.0000 0.0000
# 5 0.0000 0.0000 0.0000 0.0000 42.5512 0.0000
# 6 0.0000 0.0000 0.0000 0.0000 0.0000 14.8302
#
#
#
# Elastic Compliance Matrix: (Units=1/GPa)
#
#
# Indices 1 2 3 4 5 6 
#
# 1 0.014444 -0.003924 -0.001888 0.000000 0.000000 0.000000
# 2 -0.003924 0.012675 -0.002926 0.000000 0.000000 0.000000
# 3 -0.001888 -0.002926 0.010735 0.000000 0.000000 0.000000
# 4 0.000000 0.000000 0.000000 0.037511 0.000000 0.000000
# 5 0.000000 0.000000 0.000000 0.000000 0.023501 0.000000
# 6 0.000000 0.000000 0.000000 0.000000 0.000000 0.067430
#
#
# Mechanical properties :
#
#
# Convention : Reuss Voigt Hill
#
# Bulk Modulus (GPa) = 49.07348 49.83355 49.45352
# Shear Modulus (GPa) = 26.23788 29.98935 28.11361
#
# Velocity S-wave (km/s) = 3.62880 3.87956 3.75627
# Velocity P-wave (km/s) = 6.49511 6.71404 6.60548
#
# Compressibility (1/GPa) = 0.02037760
#
# Stress axis : x y z
#
# Youngs Moduli (GPa) = 69.23201 78.89549 93.15757
#
# Poissons Ratio (x) = 0.30959 0.17592
# Poissons Ratio (y) = 0.27167 0.27254
# Poissons Ratio (z) = 0.13074 0.23081
#
# Static dielectric constant tensor:
#      x y z
#    x 1.800850 0.000000 0.000000 
#    y 0.000000 1.656680 0.000000 
#    z 0.000000 0.000000 1.833760 
# 
# From -- ./inp_files/35279.got.cif
#   From: 2010.05.17/outbox.cif.g08.bks.cpg/sg24_18_cif.got.tgz:35279.got - 2010.06.04 00:33:39.
