data_PCOD9336269
_publ_section_title
;
Structure prediction by ZEFSAII (Michael W. Deem and Ramdas Pophale) SiO2 
 PCOD9336269
Probable space group: I 21 21 21
;
_chemical_formula_sum "Si O2"
_cell_formula_units_Z 36
_cell_length_a 23.616396
_cell_length_b 13.650608
_cell_length_c 5.506657
_cell_angle_alpha 90.000000
_cell_angle_beta 90.000000
_cell_angle_gamma 90.000000
_cell_volume 1775.225974
_symmetry_space_group_name_H-M "I 21 21 21"
_symmetry_group_IT_number 24
_symmetry_cell_setting 'orthorhombic'
loop_
_space_group_symop_operation_xyz
x,y,z
-x,1/2-y,z
x,-y,1/2-z
1/2-x,y,-z
1/2+x,1/2+y,1/2+z
1/2-x,-y,1/2+z
1/2+x,1/2-y,-z
-x,1/2+y,1/2-z
loop_
_atom_site_type_symbol
_atom_site_label
_atom_site_fract_x
_atom_site_fract_y
_atom_site_fract_z
Si Si1 0.897792 0.765719 0.317768
Si Si2 0.560935 0.590919 0.388643
Si Si3 0.062548 0.451872 0.999441
Si Si4 0.715494 0.882871 0.752019
Si Si5 0.000000 0.250000 0.547156
O O1 0.902710 0.656342 0.425294
O O2 0.916341 0.841152 0.526117
O O3 0.837663 0.808384 0.238399
O O4 0.948212 0.783342 0.124625
O O5 0.590069 0.500000 0.250000
O O6 0.505348 0.545829 0.512872
O O7 0.530124 0.665398 0.202003
O O8 0.082986 0.500000 0.250000
O O9 0.081684 0.500000 0.750000
O O10 0.750000 0.864862 0.500000
O O11 0.701803 0.000000 0.750000
O O12 0.750000 0.866858 0.000000
#
# Coordination Sequence:
#
# PCOD9336269 Si02
#       5
#     8   8   8   8   4
#     4  12  23  39  65  98 137 184 226 281 345 412
#     4  11  24  37  57  94 141 180 222 277 333 421
#     4  11  22  36  59  93 137 177 216 264 329 407
#     4  10  25  46  69 101 136 179 235 287 341 405
#     4  12  22  42  62 102 138 180 234 268 364 416
#
# _framework density 20.279108999999998
#
# number of rings (size 3 to 8) (size 9 to 14) (size 15 to 20)
#    0.000    0.889    4.444    3.333    3.111    2.667 
#    0.000    0.000    0.000    0.000    5.778    0.000 
#    0.000    0.000    0.000    0.000    0.000    0.000 
#
# Total GULP energy -100414.515248 kJ/mol
# GULP energy per Si atom -5578.584180 kJ/mol
# Density = 2.023295 g / cm^3
# Si number density = 20.279109 Si / 1000 Ang^3
#
#
#
# Elastic Constant Matrix: (Units=GPa)
#
#
# Indices 1 2 3 4 5 6 
#
# 1 110.8037 14.2737 53.8267 0.0000 0.0000 0.0000
# 2 14.2737 73.7739 47.9273 0.0000 0.0000 0.0000
# 3 53.8267 47.9273 135.5398 0.0000 0.0000 0.0000
# 4 0.0000 0.0000 0.0000 32.0116 0.0000 0.0000
# 5 0.0000 0.0000 0.0000 0.0000 3.6939 0.0000
# 6 0.0000 0.0000 0.0000 0.0000 0.0000 27.1572
#
#
#
# Elastic Compliance Matrix: (Units=1/GPa)
#
#
# Indices 1 2 3 4 5 6 
#
# 1 0.011232 0.000941 -0.004793 0.000000 0.000000 0.000000
# 2 0.000941 0.017676 -0.006624 0.000000 0.000000 0.000000
# 3 -0.004793 -0.006624 0.011624 0.000000 0.000000 0.000000
# 4 0.000000 0.000000 0.000000 0.031239 0.000000 0.000000
# 5 0.000000 0.000000 0.000000 0.000000 0.270718 0.000000
# 6 0.000000 0.000000 0.000000 0.000000 0.000000 0.036823
#
#
# Mechanical properties :
#
#
# Convention : Reuss Voigt Hill
#
# Bulk Modulus (GPa) = 51.07463 61.35251 56.21357
# Shear Modulus (GPa) = 12.29133 26.17853 19.23493
#
# Velocity S-wave (km/s) = 2.46460 3.59682 3.08313
# Velocity P-wave (km/s) = 5.77404 6.89705 6.36037
#
# Compressibility (1/GPa) = 0.01957919
#
# Stress axis : x y z
#
# Youngs Moduli (GPa) = 89.02897 56.57329 86.03090
#
# Poissons Ratio (x) = -0.05322 0.41237
# Poissons Ratio (y) = -0.08376 0.56987
# Poissons Ratio (z) = 0.42674 0.37474
#
# Static dielectric constant tensor:
#      x y z
#    x 1.755760 0.000000 0.000000 
#    y 0.000000 1.828790 0.000000 
#    z 0.000000 0.000000 1.811610 
# 
# From -- ./inp_files/6273.got.cif
#   From: 2010.05.17/outbox.cif.g08.bks.cpg/sg24_4_cif.got.tgz:6273.got - 2010.06.04 00:33:39.
