data_PCOD9337824
_publ_section_title
;
Structure prediction by ZEFSAII (Michael W. Deem and Ramdas Pophale) SiO2 
 PCOD9337824
Probable space group: P M M 2
;
_chemical_formula_sum "Si O2"
_cell_formula_units_Z 32
_cell_length_a 7.431010
_cell_length_b 9.498516
_cell_length_c 21.884539
_cell_angle_alpha 90.000000
_cell_angle_beta 90.000000
_cell_angle_gamma 90.000000
_cell_volume 1544.688833
_symmetry_space_group_name_H-M "P M M 2"
_symmetry_group_IT_number 25
_symmetry_cell_setting 'orthorhombic'
loop_
_space_group_symop_operation_xyz
x,y,z
-x,-y,z
-x,y,z
x,-y,z
loop_
_atom_site_type_symbol
_atom_site_label
_atom_site_fract_x
_atom_site_fract_y
_atom_site_fract_z
Si Si1 0.220229 0.336544 0.582130
Si Si2 0.214900 0.839106 0.934641
Si Si3 0.284454 0.840095 0.071131
Si Si4 0.788529 0.671399 0.448387
Si Si5 0.780247 0.838071 0.700022
Si Si6 0.216175 0.662017 0.317592
Si Si7 0.285456 0.659874 0.184361
Si Si8 0.220141 0.661890 0.818750
O O1 0.272175 0.500000 0.591427
O O2 0.284141 0.287994 0.514856
O O3 0.277359 0.239453 0.637998
O O4 0.000000 0.335671 0.580821
O O5 0.249124 0.784178 0.003013
O O6 0.000000 0.847561 0.927451
O O7 0.285128 0.000000 0.930648
O O8 0.281061 0.740475 0.880258
O O9 0.500000 0.847172 0.077505
O O10 0.214691 0.748179 0.127285
O O11 0.214248 0.000000 0.073377
O O12 0.777752 0.500000 0.446828
O O13 0.716477 0.721654 0.382568
O O14 0.000000 0.708522 0.449552
O O15 0.724094 0.749726 0.759270
O O16 0.000000 0.838121 0.699886
O O17 0.722525 0.000000 0.702989
O O18 0.282899 0.500000 0.313922
O O19 0.256281 0.726172 0.251528
O O20 0.000000 0.656782 0.322479
O O21 0.500000 0.650091 0.176952
O O22 0.212699 0.500000 0.184316
O O23 0.277880 0.500000 0.816100
O O24 0.000000 0.661100 0.818926
#
# Coordination Sequence:
#
# PCOD9337824 Si02
#       8
#     4   4   4   4   4   4   4   4
#     4   8  12  18  29  45  65  91 125 163 198 231
#     4   9  17  29  44  61  81 105 133 166 202 237
#     4   9  18  32  47  61  80 108 137 162 194 241
#     4   7  10  17  30  48  69  94 126 162 196 231
#     4   9  15  21  30  46  71 104 136 162 193 236
#     4   8  13  22  37  57  80 106 135 165 199 241
#     4   9  17  28  42  61  83 104 129 166 206 237
#     4   9  16  25  37  54  77 104 133 165 200 238
#
# _framework density 20.716148
#
# number of rings (size 3 to 8) (size 9 to 14) (size 15 to 20)
#    0.000    3.500    0.000    2.250    0.000    4.000 
#    0.000    0.000    0.000    0.750    0.000    1.750 
#    0.000    1.000    0.000    4.000    0.000    5.125 
#
# Total GULP energy -178304.914868 kJ/mol
# GULP energy per Si atom -5572.028590 kJ/mol
# Density = 2.066900 g / cm^3
# Si number density = 20.716148 Si / 1000 Ang^3
#
#
#
# Elastic Constant Matrix: (Units=GPa)
#
#
# Indices 1 2 3 4 5 6 
#
# 1 65.1792 4.0160 3.8011 0.0000 0.0000 0.0000
# 2 4.0160 89.7987 108.6325 0.0000 0.0000 0.0000
# 3 3.8011 108.6325 270.1570 0.0000 0.0000 0.0000
# 4 0.0000 0.0000 0.0000 -34.5401 0.0000 0.0000
# 5 0.0000 0.0000 0.0000 0.0000 45.7420 0.0000
# 6 0.0000 0.0000 0.0000 0.0000 0.0000 -15.8244
#
#
#
# Elastic Compliance Matrix: (Units=1/GPa)
#
#
# Indices 1 2 3 4 5 6 
#
# 1 0.015387 -0.000830 0.000117 0.000000 0.000000 0.000000
# 2 -0.000830 0.021729 -0.008726 0.000000 0.000000 0.000000
# 3 0.000117 -0.008726 0.007209 0.000000 0.000000 0.000000
# 4 0.000000 0.000000 0.000000 -0.028952 0.000000 0.000000
# 5 0.000000 0.000000 0.000000 0.000000 0.021862 0.000000
# 6 0.000000 0.000000 0.000000 0.000000 0.000000 -0.063193
#
#
# Mechanical properties :
#
#
# Convention : Reuss Voigt Hill
#
# Bulk Modulus (GPa) = 39.29690 73.11489 56.20589
# Shear Modulus (GPa) = 3571.68430 19.65451 1795.66941
#
# Velocity S-wave (km/s) = 41.56741 3.08353 29.47336
# Velocity P-wave (km/s) = 48.19553 6.93165 34.43005
#
# Compressibility (1/GPa) = 0.02544730
#
# Stress axis : x y z
#
# Youngs Moduli (GPa) = 64.99152 46.02156 138.72332
#
# Poissons Ratio (x) = 0.03820 -0.01626
# Poissons Ratio (y) = 0.05394 1.21046
# Poissons Ratio (z) = -0.00762 0.40157
#
# Static dielectric constant tensor:
#      x y z
#    x 1.788470 0.000000 0.000000 
#    y 0.000000 1.702490 0.000000 
#    z 0.000000 0.000000 1.768510 
# 
# From -- ./inp_files/6256.got.cif
#   From: 2010.05.17/outbox.cif.g08.bks.cpg/sg25_4_cif.got.tgz:6256.got - 2010.06.04 01:04:00.
