data_PCOD9337770
_publ_section_title
;
Structure prediction by ZEFSAII (Michael W. Deem and Ramdas Pophale) SiO2 
 PCOD9337770
Probable space group: P M M 2
;
_chemical_formula_sum "Si O2"
_cell_formula_units_Z 32
_cell_length_a 14.341407
_cell_length_b 8.644550
_cell_length_c 13.446571
_cell_angle_alpha 90.000000
_cell_angle_beta 90.000000
_cell_angle_gamma 90.000000
_cell_volume 1667.038773
_symmetry_space_group_name_H-M "P M M 2"
_symmetry_group_IT_number 25
_symmetry_cell_setting 'orthorhombic'
loop_
_space_group_symop_operation_xyz
x,y,z
-x,-y,z
-x,y,z
x,-y,z
loop_
_atom_site_type_symbol
_atom_site_label
_atom_site_fract_x
_atom_site_fract_y
_atom_site_fract_z
Si Si1 0.392234 0.312841 0.921140
Si Si2 0.608753 0.688293 0.521863
Si Si3 0.612767 0.317042 0.302682
Si Si4 0.286128 0.182547 0.111561
Si Si5 0.113442 0.823056 0.413798
Si Si6 0.288299 0.688742 0.721845
Si Si7 0.892300 0.684410 0.201884
Si Si8 0.894159 0.313511 0.625688
O O1 0.500000 0.261498 0.922668
O O2 0.392567 0.500000 0.920299
O O3 0.340158 0.258732 0.820942
O O4 0.337695 0.258019 0.018138
O O5 0.500000 0.729642 0.530268
O O6 0.613505 0.500000 0.519742
O O7 0.643025 0.738977 0.412742
O O8 0.661095 0.740738 0.620516
O O9 0.500000 0.304190 0.298893
O O10 0.635250 0.500000 0.293278
O O11 0.658864 0.229273 0.211723
O O12 0.180965 0.243005 0.126274
O O13 0.286001 0.000000 0.100219
O O14 0.138156 0.733159 0.313429
O O15 0.139666 0.743915 0.517542
O O16 0.000000 0.823883 0.415215
O O17 0.145714 0.000000 0.408845
O O18 0.292122 0.500000 0.722576
O O19 0.180421 0.733861 0.708596
O O20 0.889461 0.500000 0.194654
O O21 0.000000 0.735121 0.187658
O O22 0.895869 0.500000 0.621851
O O23 0.000000 0.258788 0.642681
#
# Coordination Sequence:
#
# PCOD9337770 Si02
#       8
#     4   4   4   4   4   4   4   4
#     4  10  21  39  62  84 107 141 194 253 298 343
#     4   8  14  26  47  77 108 135 170 224 286 337
#     4   9  18  33  54  81 113 148 188 234 285 344
#     4  12  25  38  56  82 114 151 190 232 286 351
#     4   9  17  30  49  76 113 153 188 225 271 325
#     4   9  17  30  52  80 107 140 187 241 292 336
#     4  10  21  38  60  84 111 146 190 237 283 334
#     4   9  17  29  47  76 113 150 188 229 277 336
#
# _framework density 19.195713999999999
#
# number of rings (size 3 to 8) (size 9 to 14) (size 15 to 20)
#    0.000    2.500    0.000    3.375    1.750    5.750 
#    0.000    1.250    0.000    3.000    0.000    1.750 
#    0.000    0.000    0.000    0.000    0.000    0.000 
#
# Total GULP energy -178603.254457 kJ/mol
# GULP energy per Si atom -5581.351702 kJ/mol
# Density = 1.915202 g / cm^3
# Si number density = 19.195714 Si / 1000 Ang^3
#
#
#
# Elastic Constant Matrix: (Units=GPa)
#
#
# Indices 1 2 3 4 5 6 
#
# 1 121.2311 21.0136 88.4664 0.0000 0.0000 0.0000
# 2 21.0136 22.3919 17.3500 0.0000 0.0000 0.0000
# 3 88.4664 17.3500 146.4845 0.0000 0.0000 0.0000
# 4 0.0000 0.0000 0.0000 -16.6980 0.0000 0.0000
# 5 0.0000 0.0000 0.0000 0.0000 35.7150 0.0000
# 6 0.0000 0.0000 0.0000 0.0000 0.0000 11.2959
#
#
#
# Elastic Compliance Matrix: (Units=1/GPa)
#
#
# Indices 1 2 3 4 5 6 
#
# 1 0.016040 -0.008309 -0.008703 0.000000 0.000000 0.000000
# 2 -0.008309 0.053476 -0.001316 0.000000 0.000000 0.000000
# 3 -0.008703 -0.001316 0.012238 0.000000 0.000000 0.000000
# 4 0.000000 0.000000 0.000000 -0.059887 0.000000 0.000000
# 5 0.000000 0.000000 0.000000 0.000000 0.027999 0.000000
# 6 0.000000 0.000000 0.000000 0.000000 0.000000 0.088528
#
#
# Mechanical properties :
#
#
# Convention : Reuss Voigt Hill
#
# Bulk Modulus (GPa) = 22.17341 60.41860 41.29600
# Shear Modulus (GPa) = 26.30442 16.94774 21.62608
#
# Velocity S-wave (km/s) = 3.70581 2.97457 3.36014
# Velocity P-wave (km/s) = 5.46690 6.58337 6.05094
#
# Compressibility (1/GPa) = 0.04509907
#
# Stress axis : x y z
#
# Youngs Moduli (GPa) = 62.34590 18.69990 81.71094
#
# Poissons Ratio (x) = 0.15538 0.71110
# Poissons Ratio (y) = 0.51804 0.10751
# Poissons Ratio (z) = 0.54257 0.02460
#
# Static dielectric constant tensor:
#      x y z
#    x 1.710910 0.000000 0.000000 
#    y 0.000000 1.642610 0.000000 
#    z 0.000000 0.000000 1.642330 
# 
# From -- ./inp_files/4920.got.cif
#   From: 2010.05.17/outbox.cif.g08.bks.cpg/sg25_3_cif.got.tgz:4920.got - 2010.06.04 01:04:00.
