data_PCOD9337986
_publ_section_title
;
Structure prediction by ZEFSAII (Michael W. Deem and Ramdas Pophale) SiO2 
 PCOD9337986
Probable space group: P M C 21
;
_chemical_formula_sum "Si O2"
_cell_formula_units_Z 32
_cell_length_a 8.547030
_cell_length_b 10.850932
_cell_length_c 17.613031
_cell_angle_alpha 90.000000
_cell_angle_beta 90.000000
_cell_angle_gamma 90.000000
_cell_volume 1633.489585
_symmetry_space_group_name_H-M "P M C 21"
_symmetry_group_IT_number 26
_symmetry_cell_setting 'orthorhombic'
loop_
_space_group_symop_operation_xyz
x,y,z
-x,-y,1/2+z
-x,y,z
x,-y,1/2+z
loop_
_atom_site_type_symbol
_atom_site_label
_atom_site_fract_x
_atom_site_fract_y
_atom_site_fract_z
Si Si1 0.813548 0.320334 0.062250
Si Si2 0.821722 0.334890 0.368972
Si Si3 0.685639 0.782273 0.720005
Si Si4 0.824642 0.383986 0.826162
Si Si5 0.189910 0.396839 0.529748
Si Si6 0.690291 0.952394 0.274713
Si Si7 0.687126 0.705059 0.184011
Si Si8 0.681498 0.823268 0.422316
O O1 0.759603 0.282311 0.146473
O O2 0.757980 0.459191 0.038871
O O3 0.000000 0.325239 0.060450
O O4 0.760492 0.217025 0.001025
O O5 0.723722 0.285198 0.298968
O O6 0.831159 0.481922 0.360299
O O7 0.756369 0.325628 0.453845
O O8 0.000000 0.285518 0.364082
O O9 0.500000 0.785166 0.707482
O O10 0.743363 0.921760 0.735847
O O11 0.769687 0.392064 0.739818
O O12 0.703621 0.298852 0.870630
O O13 0.000000 0.329528 0.831898
O O14 0.249786 0.320827 0.601245
O O15 0.000000 0.398644 0.527312
O O16 0.500000 0.955530 0.278651
O O17 0.731179 0.836494 0.221330
O O18 0.742694 0.926623 0.362178
O O19 0.500000 0.693038 0.186424
O O20 0.500000 0.848450 0.437555
#
# Coordination Sequence:
#
# PCOD9337986 Si02
#       8
#     4   4   4   4   4   4   4   4
#     4  11  22  39  60  87 120 154 189 233 294 354
#     4  10  21  38  56  79 117 156 185 228 290 348
#     4  11  23  40  60  84 114 155 198 241 288 339
#     4  10  18  33  56  82 114 151 181 221 288 346
#     4  10  21  38  57  82 119 154 183 226 294 356
#     4   8  19  40  59  79 114 151 189 235 292 339
#     4  10  20  35  57  85 111 144 191 239 278 331
#     4  10  19  35  61  88 113 147 192 241 280 335
#
# _framework density 19.589963000000001
#
# number of rings (size 3 to 8) (size 9 to 14) (size 15 to 20)
#    0.000    2.000    1.250    3.375    0.000    5.500 
#    2.250    7.500    0.000    0.000    0.000    0.000 
#    0.000    0.000    0.000    0.000    0.000    0.000 
#
# Total GULP energy -178392.425381 kJ/mol
# GULP energy per Si atom -5574.763293 kJ/mol
# Density = 1.954538 g / cm^3
# Si number density = 19.589963 Si / 1000 Ang^3
#
#
#
# Elastic Constant Matrix: (Units=GPa)
#
#
# Indices 1 2 3 4 5 6 
#
# 1 27.0037 5.7114 16.5170 0.0000 0.0000 0.0000
# 2 5.7114 37.8565 20.7835 0.0000 0.0000 0.0000
# 3 16.5170 20.7835 152.2685 0.0000 0.0000 0.0000
# 4 0.0000 0.0000 0.0000 21.1650 0.0000 0.0000
# 5 0.0000 0.0000 0.0000 0.0000 33.0914 0.0000
# 6 0.0000 0.0000 0.0000 0.0000 0.0000 26.8330
#
#
#
# Elastic Compliance Matrix: (Units=1/GPa)
#
#
# Indices 1 2 3 4 5 6 
#
# 1 0.040208 -0.003969 -0.003820 0.000000 0.000000 0.000000
# 2 -0.003969 0.028947 -0.003521 0.000000 0.000000 0.000000
# 3 -0.003820 -0.003521 0.007462 0.000000 0.000000 0.000000
# 4 0.000000 0.000000 0.000000 0.047248 0.000000 0.000000
# 5 0.000000 0.000000 0.000000 0.000000 0.030219 0.000000
# 6 0.000000 0.000000 0.000000 0.000000 0.000000 0.037268
#
#
# Mechanical properties :
#
#
# Convention : Reuss Voigt Hill
#
# Bulk Modulus (GPa) = 18.51904 33.68362 26.10133
# Shear Modulus (GPa) = 21.55450 27.82566 24.69008
#
# Velocity S-wave (km/s) = 3.32065 3.77291 3.55398
# Velocity P-wave (km/s) = 4.91692 6.01760 5.49489
#
# Compressibility (1/GPa) = 0.05399849
#
# Stress axis : x y z
#
# Youngs Moduli (GPa) = 24.87076 34.54571 134.00856
#
# Poissons Ratio (x) = 0.13712 0.51187
# Poissons Ratio (y) = 0.09872 0.47178
# Poissons Ratio (z) = 0.09500 0.12162
#
# Static dielectric constant tensor:
#      x y z
#    x 1.687960 0.000000 0.000000 
#    y 0.000000 1.705380 0.000000 
#    z 0.000000 0.000000 1.714350 
# 
# From -- ./inp_files/4218.got.cif
#   From: 2010.05.17/outbox.cif.g08.bks.cpg/sg26_3_cif.got.tgz:4218.got - 2010.06.04 01:07:29.
