data_PCOD9337035
_publ_section_title
;
Structure prediction by ZEFSAII (Michael W. Deem and Ramdas Pophale) SiO2 
 PCOD9337035
Probable space group: I 21 21 21
;
_chemical_formula_sum "Si O2"
_cell_formula_units_Z 32
_cell_length_a 9.000000
_cell_length_b 18.000000
_cell_length_c 21.000000
_cell_angle_alpha 90.000000
_cell_angle_beta 90.000000
_cell_angle_gamma 90.000000
_cell_volume 3402.000000
_symmetry_space_group_name_H-M "I 21 21 21"
_symmetry_group_IT_number 24
_symmetry_cell_setting 'orthorhombic'
loop_
_space_group_symop_operation_xyz
x,y,z
-x,1/2-y,z
x,-y,1/2-z
1/2-x,y,-z
1/2+x,1/2+y,1/2+z
1/2-x,-y,1/2+z
1/2+x,1/2-y,-z
-x,1/2+y,1/2-z
loop_
_atom_site_type_symbol
_atom_site_label
_atom_site_fract_x
_atom_site_fract_y
_atom_site_fract_z
Si Si1 0.066610 0.916429 0.376989
Si Si2 0.572661 0.327918 0.000936
Si Si3 0.428178 0.172009 0.502759
Si Si4 0.581627 0.434676 0.116255
Si Si5 0.419969 0.424147 0.610162
Si Si6 0.073524 0.409677 0.248761
Si Si7 0.434759 0.403539 0.382812
Si Si8 0.912773 0.089859 0.759188
O O1 0.028104 0.858883 0.432119
O O2 0.239710 0.938362 0.381987
O O3 0.035523 0.885199 0.306723
O O4 0.965556 0.989469 0.386711
O O5 0.500000 0.250000 0.015373
O O6 0.535440 0.387512 0.055058
O O7 0.750000 0.319687 0.000000
O O8 0.500000 0.250000 0.522124
O O9 0.250000 0.174344 0.500000
O O10 0.489496 0.112300 0.553100
O O11 0.493528 0.150362 0.434042
O O12 0.513178 0.516490 0.110798
O O13 0.517438 0.397372 0.180611
O O14 0.460927 0.388210 0.678786
O O15 0.241930 0.414033 0.604883
O O16 0.068237 0.500000 0.250000
O O17 0.241561 0.388260 0.230198
O O18 0.458006 0.378787 0.309587
O O19 0.911667 0.000000 0.750000
#
# Coordination Sequence:
#
# PCOD9337035 Si02
#       8
#     8   8   8   8   8   8   8   8
#     4  10  19  33  55  83 111 139 178 226 271 317
#     4  10  23  38  51  73 105 141 181 222 265 316
#     4  12  25  40  57  79 109 143 181 224 269 320
#     4  10  19  33  55  83 111 139 178 226 271 317
#     4  10  20  36  58  83 110 142 179 217 263 321
#     4   8  16  31  52  80 110 138 173 217 264 317
#     4  10  20  36  58  83 110 142 179 217 263 321
#     4   8  16  31  52  80 110 138 173 217 264 317
#
# _framework density 9.4062319999999993
#
# number of rings (size 3 to 8) (size 9 to 14) (size 15 to 20)
#    0.000    2.250    0.000    4.875    0.000    8.500 
#    0.000    1.250    0.000    3.000    0.000    0.000 
#    0.000    0.000    0.000    0.000    0.000    0.000 
#
# Total GULP energy -178504.529666 kJ/mol
# GULP energy per Si atom -5578.266552 kJ/mol
# Density = 0.938482 g / cm^3
# Si number density = 9.406232 Si / 1000 Ang^3
#
#
#
# Elastic Constant Matrix: (Units=GPa)
#
#
# Indices 1 2 3 4 5 6 
#
# 1 48.7568 -4.8051 14.9147 0.0000 0.0000 0.0000
# 2 -4.8051 14.2487 -5.7320 0.0000 0.0000 0.0000
# 3 14.9147 -5.7320 67.6132 0.0000 0.0000 0.0000
# 4 0.0000 0.0000 0.0000 -12.8935 0.0000 0.0000
# 5 0.0000 0.0000 0.0000 0.0000 32.4747 0.0000
# 6 0.0000 0.0000 0.0000 0.0000 0.0000 25.7876
#
#
#
# Elastic Compliance Matrix: (Units=1/GPa)
#
#
# Indices 1 2 3 4 5 6 
#
# 1 0.022444 0.005774 -0.004461 0.000000 0.000000 0.000000
# 2 0.005774 0.074145 0.005012 0.000000 0.000000 0.000000
# 3 -0.004461 0.005012 0.016199 0.000000 0.000000 0.000000
# 4 0.000000 0.000000 0.000000 -0.077559 0.000000 0.000000
# 5 0.000000 0.000000 0.000000 0.000000 0.030793 0.000000
# 6 0.000000 0.000000 0.000000 0.000000 0.000000 0.038778
#
#
# Mechanical properties :
#
#
# Convention : Reuss Voigt Hill
#
# Bulk Modulus (GPa) = 7.97210 15.48599 11.72905
# Shear Modulus (GPa) = 37.32348 17.48984 27.40666
#
# Velocity S-wave (km/s) = 4.45902 3.05240 3.82099
# Velocity P-wave (km/s) = 5.54593 4.54670 5.07099
#
# Compressibility (1/GPa) = 0.12543742
#
# Stress axis : x y z
#
# Youngs Moduli (GPa) = 44.55589 13.48706 61.73208
#
# Poissons Ratio (x) = -0.07787 0.27541
# Poissons Ratio (y) = -0.25727 -0.30941
# Poissons Ratio (z) = 0.19878 -0.06760
#
# Static dielectric constant tensor:
#      x y z
#    x 1.630220 0.000000 0.000000 
#    y 0.000000 1.637420 0.000000 
#    z 0.000000 0.000000 1.679490 
# 
# From -- ./inp_files/32943.got.cif
#   From: 2010.05.17/outbox.ucp.g08.bks.cvg/sg24_17_cif.got.tgz:32943.got - 2010.06.11 15:20:44.
