data_PCOD9337556
_publ_section_title
;
Structure prediction by ZEFSAII (Michael W. Deem and Ramdas Pophale) SiO2 
 PCOD9337556
Probable space group: P M M 2
;
_chemical_formula_sum "Si O2"
_cell_formula_units_Z 32
_cell_length_a 9.050697
_cell_length_b 28.926407
_cell_length_c 7.158329
_cell_angle_alpha 90.000000
_cell_angle_beta 90.000000
_cell_angle_gamma 90.000000
_cell_volume 1874.080204
_symmetry_space_group_name_H-M "P M M 2"
_symmetry_group_IT_number 25
_symmetry_cell_setting 'orthorhombic'
loop_
_space_group_symop_operation_xyz
x,y,z
-x,-y,z
-x,y,z
x,-y,z
loop_
_atom_site_type_symbol
_atom_site_label
_atom_site_fract_x
_atom_site_fract_y
_atom_site_fract_z
Si Si1 0.323008 0.445994 0.000000
Si Si2 0.823605 0.870573 0.654007
Si Si3 0.324098 0.879550 0.252169
Si Si4 0.676634 0.196768 0.940684
Si Si5 0.323325 0.696774 0.998108
Si Si6 0.324702 0.376086 0.674290
Si Si7 0.177083 0.053585 0.963500
Si Si8 0.175926 0.373848 0.273822
O O1 0.500000 0.441045 0.029959
O O2 0.286459 0.500000 0.997042
O O3 0.239984 0.417813 0.160809
O O4 0.290459 0.420519 0.803837
O O5 0.750427 0.874623 0.452538
O O6 0.788078 0.915526 0.781474
O O7 0.000000 0.867297 0.637371
O O8 0.760351 0.827107 0.769124
O O9 0.500000 0.884037 0.271188
O O10 0.293380 0.834676 0.122688
O O11 0.258382 0.922656 0.137291
O O12 0.500000 0.194931 0.905249
O O13 0.717990 0.249860 0.974175
O O14 0.500000 0.694036 0.033954
O O15 0.295472 0.667789 0.808734
O O16 0.239684 0.670626 0.163926
O O17 0.500000 0.376751 0.631382
O O18 0.234406 0.374637 0.484675
O O19 0.000000 0.056602 0.992774
O O20 0.216649 0.000000 0.940336
O O21 0.000000 0.373881 0.267743
#
# Coordination Sequence:
#
# PCOD9337556 Si02
#       8
#     4   4   4   4   4   4   4   4
#     4   9  19  37  59  79 100 133 178 220 254 297
#     4  10  20  34  53  77 106 139 173 211 257 310
#     4  10  20  34  53  78 107 136 169 212 260 308
#     4   9  19  36  56  77 102 134 174 219 262 304
#     4   9  19  37  58  76  98 135 180 219 255 301
#     4   9  18  34  55  77 101 132 173 215 252 297
#     4   9  19  36  55  74  99 134 175 215 255 302
#     4  11  22  34  51  78 111 140 166 206 261 313
#
# _framework density 17.075043000000001
#
# number of rings (size 3 to 8) (size 9 to 14) (size 15 to 20)
#    0.000    2.500    0.000    2.625    0.000    6.000 
#    0.000    7.500    0.000    0.000    0.000    0.000 
#    0.000    0.000    0.000    0.000    0.000    0.000 
#
# Total GULP energy -178564.284585 kJ/mol
# GULP energy per Si atom -5580.133893 kJ/mol
# Density = 1.703618 g / cm^3
# Si number density = 17.075043 Si / 1000 Ang^3
#
#
#
# Elastic Constant Matrix: (Units=GPa)
#
#
# Indices 1 2 3 4 5 6 
#
# 1 56.4144 51.3538 67.9800 0.0000 0.0000 0.0000
# 2 51.3538 142.0148 56.4928 0.0000 0.0000 0.0000
# 3 67.9800 56.4928 134.2304 0.0000 0.0000 0.0000
# 4 0.0000 0.0000 0.0000 5.3385 0.0000 0.0000
# 5 0.0000 0.0000 0.0000 0.0000 14.6155 0.0000
# 6 0.0000 0.0000 0.0000 0.0000 0.0000 19.8876
#
#
#
# Elastic Compliance Matrix: (Units=1/GPa)
#
#
# Indices 1 2 3 4 5 6 
#
# 1 0.056781 -0.010922 -0.024160 0.000000 0.000000 0.000000
# 2 -0.010922 0.010558 0.001088 0.000000 0.000000 0.000000
# 3 -0.024160 0.001088 0.019228 0.000000 0.000000 0.000000
# 4 0.000000 0.000000 0.000000 0.187320 0.000000 0.000000
# 5 0.000000 0.000000 0.000000 0.000000 0.068421 0.000000
# 6 0.000000 0.000000 0.000000 0.000000 0.000000 0.050283
#
#
# Mechanical properties :
#
#
# Convention : Reuss Voigt Hill
#
# Bulk Modulus (GPa) = 53.82400 76.03475 64.92938
# Shear Modulus (GPa) = 10.71191 18.42384 14.56787
#
# Velocity S-wave (km/s) = 2.50740 3.28837 2.92407
# Velocity P-wave (km/s) = 6.32244 7.68402 7.03624
#
# Compressibility (1/GPa) = 0.01857907
#
# Stress axis : x y z
#
# Youngs Moduli (GPa) = 17.61161 94.71234 52.00872
#
# Poissons Ratio (x) = 1.03444 1.25651
# Poissons Ratio (y) = 0.19235 -0.05657
# Poissons Ratio (z) = 0.42549 -0.10302
#
# Static dielectric constant tensor:
#      x y z
#    x 1.568250 0.000000 0.000000 
#    y 0.000000 1.567860 0.000000 
#    z 0.000000 0.000000 1.543850 
# 
# From -- ./inp_files/375.got.cif
#   From: 2010.05.17/outbox.cif.g08.bks.cpg/sg25_1_cif.got.tgz:375.got - 2010.06.04 01:04:00.
