data_PCOD9337707
_publ_section_title
;
Structure prediction by ZEFSAII (Michael W. Deem and Ramdas Pophale) SiO2 
 PCOD9337707
Probable space group: P M M 2
;
_chemical_formula_sum "Si O2"
_cell_formula_units_Z 32
_cell_length_a 14.696962
_cell_length_b 9.220682
_cell_length_c 12.604895
_cell_angle_alpha 90.000000
_cell_angle_beta 90.000000
_cell_angle_gamma 90.000000
_cell_volume 1708.165114
_symmetry_space_group_name_H-M "P M M 2"
_symmetry_group_IT_number 25
_symmetry_cell_setting 'orthorhombic'
loop_
_space_group_symop_operation_xyz
x,y,z
-x,-y,z
-x,y,z
x,-y,z
loop_
_atom_site_type_symbol
_atom_site_label
_atom_site_fract_x
_atom_site_fract_y
_atom_site_fract_z
Si Si1 0.743130 0.674255 0.633970
Si Si2 0.895996 0.323427 0.799870
Si Si3 0.609646 0.331440 0.245196
Si Si4 0.389070 0.834862 0.032380
Si Si5 0.608668 0.331210 0.821069
Si Si6 0.895006 0.173575 0.246449
Si Si7 0.263154 0.826046 0.407809
Si Si8 0.888969 0.333798 0.032815
O O1 0.745533 0.500000 0.615652
O O2 0.831026 0.717000 0.703731
O O3 0.658678 0.705799 0.712042
O O4 0.738350 0.757295 0.523934
O O5 0.896381 0.500000 0.805051
O O6 0.000000 0.275687 0.784253
O O7 0.861970 0.276320 0.916569
O O8 0.500000 0.323504 0.251996
O O9 0.636182 0.500000 0.250989
O O10 0.637641 0.262391 0.132559
O O11 0.655345 0.241000 0.338833
O O12 0.500000 0.836662 0.031962
O O13 0.357312 0.000000 0.044507
O O14 0.361848 0.765120 0.920691
O O15 0.500000 0.318655 0.809381
O O16 0.630212 0.500000 0.845032
O O17 0.828406 0.212687 0.342313
O O18 0.863349 0.242797 0.135587
O O19 0.000000 0.218404 0.265582
O O20 0.893488 0.000000 0.235498
O O21 0.270280 0.000000 0.412776
O O22 0.858032 0.500000 0.044717
O O23 0.000000 0.335657 0.029269
#
# Coordination Sequence:
#
# PCOD9337707 Si02
#       8
#     4   4   4   4   4   4   4   4
#     4  10  21  36  53  74 100 136 184 227 262 310
#     4   8  15  30  52  77 104 131 163 213 271 316
#     4  10  21  38  60  83 108 140 177 219 268 321
#     4   9  17  31  54  84 114 140 169 209 260 318
#     4   9  18  33  52  75 106 141 174 211 257 311
#     4   9  19  36  55  76 107 144 177 214 264 319
#     4  11  24  39  54  76 107 143 184 228 271 317
#     4   8  14  27  50  79 106 132 168 214 263 316
#
# _framework density 18.733553000000001
#
# number of rings (size 3 to 8) (size 9 to 14) (size 15 to 20)
#    0.000    2.750    0.000    1.875    0.000    5.750 
#    0.000    3.125    0.000    0.750    0.000    0.000 
#    0.000    0.000    0.000    0.000    0.000    0.000 
#
# Total GULP energy -178582.408991 kJ/mol
# GULP energy per Si atom -5580.700281 kJ/mol
# Density = 1.869091 g / cm^3
# Si number density = 18.733553 Si / 1000 Ang^3
#
#
#
# Elastic Constant Matrix: (Units=GPa)
#
#
# Indices 1 2 3 4 5 6 
#
# 1 55.7986 36.0214 48.0474 0.0000 0.0000 0.0000
# 2 36.0214 66.8267 77.7316 0.0000 0.0000 0.0000
# 3 48.0474 77.7316 186.6098 0.0000 0.0000 0.0000
# 4 0.0000 0.0000 0.0000-1388.9378 0.0000 0.0000
# 5 0.0000 0.0000 0.0000 0.0000 31.7314 0.0000
# 6 0.0000 0.0000 0.0000 0.0000 0.0000 10.3197
#
#
#
# Elastic Compliance Matrix: (Units=1/GPa)
#
#
# Indices 1 2 3 4 5 6 
#
# 1 0.027786 -0.012912 -0.001776 0.000000 0.000000 0.000000
# 2 -0.012912 0.035029 -0.011267 0.000000 0.000000 0.000000
# 3 -0.001776 -0.011267 0.010509 0.000000 0.000000 0.000000
# 4 0.000000 0.000000 0.000000 -0.000720 0.000000 0.000000
# 5 0.000000 0.000000 0.000000 0.000000 0.031515 0.000000
# 6 0.000000 0.000000 0.000000 0.000000 0.000000 0.096902
#
#
# Mechanical properties :
#
#
# Convention : Reuss Voigt Hill
#
# Bulk Modulus (GPa) = 46.69510 70.31512 58.50511
# Shear Modulus (GPa) = 19.22570 -259.54835 -120.16132
#
# Velocity S-wave (km/s) = 3.20702 -11.78338 -8.01758
# Velocity P-wave (km/s) = 6.22040 12.14557 7.37637
#
# Compressibility (1/GPa) = 0.02141553
#
# Stress axis : x y z
#
# Youngs Moduli (GPa) = 35.98915 28.54751 95.15492
#
# Poissons Ratio (x) = 0.36860 0.16898
# Poissons Ratio (y) = 0.46469 1.07210
# Poissons Ratio (z) = 0.06391 0.32164
#
# Static dielectric constant tensor:
#      x y z
#    x 1.688780 0.000000 0.000000 
#    y 0.000000 1.639180 0.000000 
#    z 0.000000 0.000000 1.612010 
# 
# From -- ./inp_files/4225.got.cif
#   From: 2010.05.17/outbox.cif.g08.bks.cpg/sg25_3_cif.got.tgz:4225.got - 2010.06.04 01:04:00.
