data_PCOD9337166
_publ_section_title
;
Structure prediction by ZEFSAII (Michael W. Deem and Ramdas Pophale) SiO2 
 PCOD9337166
Probable space group: P M M 2
;
_chemical_formula_sum "Si O2"
_cell_formula_units_Z 32
_cell_length_a 7.972919
_cell_length_b 25.509639
_cell_length_c 7.321019
_cell_angle_alpha 90.000000
_cell_angle_beta 90.000000
_cell_angle_gamma 90.000000
_cell_volume 1488.994860
_symmetry_space_group_name_H-M "P M M 2"
_symmetry_group_IT_number 25
_symmetry_cell_setting 'orthorhombic'
loop_
_space_group_symop_operation_xyz
x,y,z
-x,-y,z
-x,y,z
x,-y,z
loop_
_atom_site_type_symbol
_atom_site_label
_atom_site_fract_x
_atom_site_fract_y
_atom_site_fract_z
Si Si1 0.799425 0.441372 0.828670
Si Si2 0.803601 0.648850 0.564002
Si Si3 0.693704 0.243136 0.460756
Si Si4 0.205718 0.850200 0.014959
Si Si5 0.694805 0.626184 0.155081
Si Si6 0.798045 0.132362 0.430355
Si Si7 0.807657 0.736635 0.057411
Si Si8 0.205064 0.058956 0.739305
O O1 0.732078 0.500000 0.801812
O O2 0.732012 0.397381 0.689580
O O3 0.000000 0.443598 0.800905
O O4 0.766531 0.419934 0.031335
O O5 0.726028 0.706668 0.586456
O O6 0.780576 0.633054 0.351713
O O7 0.000000 0.654260 0.603195
O O8 0.500000 0.244343 0.404413
O O9 0.739064 0.185579 0.529865
O O10 0.801980 0.251131 0.276180
O O11 0.259096 0.864328 0.221329
O O12 0.261837 0.790568 0.972877
O O13 0.000000 0.848069 0.011958
O O14 0.259137 0.896633 0.882266
O O15 0.500000 0.617798 0.188662
O O16 0.718095 0.680941 0.045018
O O17 0.744947 0.081353 0.541582
O O18 0.000000 0.133233 0.429512
O O19 0.000000 0.729274 0.999589
O O20 0.000000 0.057899 0.745622
O O21 0.263612 0.000000 0.774477
#
# Coordination Sequence:
#
# PCOD9337166 Si02
#       8
#     4   4   4   4   4   4   4   4
#     4  10  23  42  61  81 106 143 192 233 264 312
#     4  10  20  37  61  85 111 145 184 228 274 322
#     4  10  18  30  51  79 108 136 169 212 265 323
#     4   8  15  27  44  68  97 126 159 203 251 297
#     4  11  22  36  57  86 118 147 176 220 278 333
#     4   9  17  30  48  71  99 131 165 204 254 311
#     4   9  16  30  52  77 106 139 175 214 259 317
#     4   9  17  28  44  69  97 125 164 212 257 302
#
# _framework density 21.491008000000001
#
# number of rings (size 3 to 8) (size 9 to 14) (size 15 to 20)
#    0.000    2.500    0.000    5.250    0.000    3.250 
#    0.000    6.250    0.000    3.375    0.000    0.000 
#    0.000    0.000    0.000    0.000    0.000    0.000 
#
# Total GULP energy -178622.200359 kJ/mol
# GULP energy per Si atom -5581.943761 kJ/mol
# Density = 2.144209 g / cm^3
# Si number density = 21.491008 Si / 1000 Ang^3
#
#
#
# Elastic Constant Matrix: (Units=GPa)
#
#
# Indices 1 2 3 4 5 6 
#
# 1 30.7185 0.9996 -4.7168 0.0000 0.0000 0.0000
# 2 0.9996 133.4790 31.9462 0.0000 0.0000 0.0000
# 3 -4.7168 31.9462 57.4375 0.0000 0.0000 0.0000
# 4 0.0000 0.0000 0.0000 21.7126 0.0000 0.0000
# 5 0.0000 0.0000 0.0000 0.0000 -39.5688 0.0000
# 6 0.0000 0.0000 0.0000 0.0000 0.0000 -26.9946
#
#
#
# Elastic Compliance Matrix: (Units=1/GPa)
#
#
# Indices 1 2 3 4 5 6 
#
# 1 0.033093 -0.001036 0.003294 0.000000 0.000000 0.000000
# 2 -0.001036 0.008675 -0.004910 0.000000 0.000000 0.000000
# 3 0.003294 -0.004910 0.020412 0.000000 0.000000 0.000000
# 4 0.000000 0.000000 0.000000 0.046056 0.000000 0.000000
# 5 0.000000 0.000000 0.000000 0.000000 -0.025272 0.000000
# 6 0.000000 0.000000 0.000000 0.000000 0.000000 -0.037044
#
#
# Mechanical properties :
#
#
# Convention : Reuss Voigt Hill
#
# Bulk Modulus (GPa) = 17.58236 30.89922 24.24079
# Shear Modulus (GPa) = 71.24395 3.92357 37.58376
#
# Velocity S-wave (km/s) = 5.76390 1.35264 4.18642
# Velocity P-wave (km/s) = 7.24540 4.10469 5.88830
#
# Compressibility (1/GPa) = 0.05687520
#
# Stress axis : x y z
#
# Youngs Moduli (GPa) = 30.21772 115.27809 48.99185
#
# Poissons Ratio (x) = 0.11945 -0.16138
# Poissons Ratio (y) = 0.03131 0.24054
# Poissons Ratio (z) = -0.09954 0.56600
#
# Static dielectric constant tensor:
#      x y z
#    x 1.745140 0.000000 0.000000 
#    y 0.000000 1.792330 0.000000 
#    z 0.000000 0.000000 1.801940 
# 
# From -- ./inp_files/2412.got.cif
#   From: 2010.05.17/outbox.cif.g08.bks.cpg/sg25_2_cif.got.tgz:2412.got - 2010.06.04 01:04:00.
