data_PCOD9337989
_publ_section_title
;
Structure prediction by ZEFSAII (Michael W. Deem and Ramdas Pophale) SiO2 
 PCOD9337989
Probable space group: P M C 21
;
_chemical_formula_sum "Si O2"
_cell_formula_units_Z 32
_cell_length_a 7.583458
_cell_length_b 12.299245
_cell_length_c 15.843446
_cell_angle_alpha 90.000000
_cell_angle_beta 90.000000
_cell_angle_gamma 90.000000
_cell_volume 1477.731008
_symmetry_space_group_name_H-M "P M C 21"
_symmetry_group_IT_number 26
_symmetry_cell_setting 'orthorhombic'
loop_
_space_group_symop_operation_xyz
x,y,z
-x,-y,1/2+z
-x,y,z
x,-y,1/2+z
loop_
_atom_site_type_symbol
_atom_site_label
_atom_site_fract_x
_atom_site_fract_y
_atom_site_fract_z
Si Si1 0.294520 0.897920 0.871670
Si Si2 0.704028 0.733081 0.202507
Si Si3 0.206256 0.499183 0.761664
Si Si4 0.713416 0.498807 0.958134
Si Si5 0.286871 0.274098 0.034088
Si Si6 0.283209 0.143872 0.867891
Si Si7 0.717147 0.262303 0.516583
Si Si8 0.205467 0.739931 0.723628
O O1 0.500000 0.912902 0.892480
O O2 0.284302 0.829388 0.785626
O O3 0.222420 0.019304 0.863898
O O4 0.220964 0.823600 0.946967
O O5 0.500000 0.766965 0.199594
O O6 0.710007 0.603094 0.214683
O O7 0.779784 0.789540 0.285911
O O8 0.779181 0.762113 0.111214
O O9 0.228317 0.482469 0.861788
O O10 0.280156 0.618452 0.739498
O O11 0.000000 0.497878 0.739833
O O12 0.500000 0.497968 0.957579
O O13 0.771867 0.397859 0.015431
O O14 0.772268 0.616259 0.990307
O O15 0.500000 0.273448 0.035668
O O16 0.225175 0.234918 0.125157
O O17 0.229341 0.201338 0.954902
O O18 0.500000 0.147770 0.867177
O O19 0.500000 0.263309 0.516321
O O20 0.000000 0.734915 0.746238
#
# Coordination Sequence:
#
# PCOD9337989 Si02
#       8
#     4   4   4   4   4   4   4   4
#     4  10  20  37  60  85 113 148 190 237 283 329
#     4  10  19  36  59  84 114 145 182 233 284 339
#     4  11  22  35  54  82 114 150 187 228 280 337
#     4  10  18  33  57  84 109 142 187 230 283 342
#     4  10  20  36  59  87 114 145 186 236 288 339
#     4   9  19  35  59  89 114 141 185 237 283 328
#     4   9  18  31  55  85 109 140 184 227 276 329
#     4  11  24  39  55  82 117 155 193 230 277 337
#
# _framework density 21.654820999999998
#
# number of rings (size 3 to 8) (size 9 to 14) (size 15 to 20)
#    0.000    2.000    2.500    1.500    0.000    4.000 
#    0.000    6.250    0.000    0.000    0.000    0.000 
#    0.000    0.000    0.000    0.000    0.000    0.000 
#
# Total GULP energy -178815.422329 kJ/mol
# GULP energy per Si atom -5587.981948 kJ/mol
# Density = 2.160553 g / cm^3
# Si number density = 21.654821 Si / 1000 Ang^3
#
#
#
# Elastic Constant Matrix: (Units=GPa)
#
#
# Indices 1 2 3 4 5 6 
#
# 1 45.1878 1.4566 -6.2567 0.0000 0.0000 0.0000
# 2 1.4566 127.5498 32.3370 0.0000 0.0000 0.0000
# 3 -6.2567 32.3370 107.6282 0.0000 0.0000 0.0000
# 4 0.0000 0.0000 0.0000 3.2819 0.0000 0.0000
# 5 0.0000 0.0000 0.0000 0.0000 -75.6724 0.0000
# 6 0.0000 0.0000 0.0000 0.0000 0.0000 -4.5606
#
#
#
# Elastic Compliance Matrix: (Units=1/GPa)
#
#
# Indices 1 2 3 4 5 6 
#
# 1 0.022357 -0.000633 0.001490 0.000000 0.000000 0.000000
# 2 -0.000633 0.008504 -0.002592 0.000000 0.000000 0.000000
# 3 0.001490 -0.002592 0.010157 0.000000 0.000000 0.000000
# 4 0.000000 0.000000 0.000000 0.304697 0.000000 0.000000
# 5 0.000000 0.000000 0.000000 0.000000 -0.013215 0.000000
# 6 0.000000 0.000000 0.000000 0.000000 0.000000 -0.219267
#
#
# Mechanical properties :
#
#
# Convention : Reuss Voigt Hill
#
# Bulk Modulus (GPa) = 26.63309 37.27107 31.95208
# Shear Modulus (GPa) = 38.69416 1.46504 20.07960
#
# Velocity S-wave (km/s) = 4.23171 0.82341 3.04839
# Velocity P-wave (km/s) = 6.01682 4.26061 5.21320
#
# Compressibility (1/GPa) = 0.03754728
#
# Stress axis : x y z
#
# Youngs Moduli (GPa) = 44.72965 117.58574 98.45800
#
# Poissons Ratio (x) = 0.07443 -0.14669
# Poissons Ratio (y) = 0.02831 0.25520
# Poissons Ratio (z) = -0.06664 0.30478
#
# Static dielectric constant tensor:
#      x y z
#    x 1.819140 0.000000 0.000000 
#    y 0.000000 1.764910 0.000000 
#    z 0.000000 0.000000 1.756710 
# 
# From -- ./inp_files/4168.got.cif
#   From: 2010.05.17/outbox.cif.g08.bks.cpg/sg26_3_cif.got.tgz:4168.got - 2010.06.04 01:07:29.
