data_PCOD9337551
_publ_section_title
;
Structure prediction by ZEFSAII (Michael W. Deem and Ramdas Pophale) SiO2 
 PCOD9337551
Probable space group: P M M 2
;
_chemical_formula_sum "Si O2"
_cell_formula_units_Z 24
_cell_length_a 7.578541
_cell_length_b 9.430244
_cell_length_c 16.184832
_cell_angle_alpha 90.000000
_cell_angle_beta 90.000000
_cell_angle_gamma 90.000000
_cell_volume 1156.689332
_symmetry_space_group_name_H-M "P M M 2"
_symmetry_group_IT_number 25
_symmetry_cell_setting 'orthorhombic'
loop_
_space_group_symop_operation_xyz
x,y,z
-x,-y,z
-x,y,z
x,-y,z
loop_
_atom_site_type_symbol
_atom_site_label
_atom_site_fract_x
_atom_site_fract_y
_atom_site_fract_z
Si Si1 0.283900 0.835684 0.152810
Si Si2 0.283769 0.337202 0.313577
Si Si3 0.712886 0.837708 0.793231
Si Si4 0.791040 0.659921 0.630928
Si Si5 0.708738 0.840603 0.470340
Si Si6 0.295598 0.172640 0.972689
O O1 0.500000 0.834700 0.150169
O O2 0.228769 0.739365 0.229069
O O3 0.232563 0.000000 0.165645
O O4 0.220470 0.786662 0.061984
O O5 0.500000 0.337201 0.314108
O O6 0.227266 0.500000 0.317518
O O7 0.221062 0.249499 0.393218
O O8 0.500000 0.844175 0.799705
O O9 0.755386 0.735914 0.717848
O O10 0.780814 0.787793 0.883342
O O11 0.773753 0.000000 0.777695
O O12 0.717424 0.500000 0.628101
O O13 0.727172 0.756341 0.555568
O O14 0.000000 0.650535 0.621394
O O15 0.500000 0.853763 0.455084
O O16 0.782079 0.000000 0.475677
O O17 0.500000 0.219863 0.972895
O O18 0.295727 0.000000 0.972710
#
# Coordination Sequence:
#
# PCOD9337551 Si02
#       6
#     4   4   4   4   4   4
#     4   8  12  20  36  59  90 126 158 188 226 273
#     4   9  16  25  39  63  96 129 157 189 232 280
#     4   9  17  31  52  76  99 125 161 202 241 283
#     4  11  24  38  50  68  96 128 160 196 242 294
#     4  10  20  34  53  75  96 122 160 202 241 284
#     4   7  11  21  39  64  93 123 154 190 232 275
#
# _framework density 20.748873
#
# number of rings (size 3 to 8) (size 9 to 14) (size 15 to 20)
#    0.000    3.000    0.000    4.000    0.000    6.667 
#    0.000    0.833    0.000    3.000    0.000    1.167 
#    0.000    6.667    0.000    0.000    0.000    0.000 
#
# Total GULP energy -133847.235062 kJ/mol
# GULP energy per Si atom -5576.968128 kJ/mol
# Density = 2.070165 g / cm^3
# Si number density = 20.748873 Si / 1000 Ang^3
#
#
#
# Elastic Constant Matrix: (Units=GPa)
#
#
# Indices 1 2 3 4 5 6 
#
# 1 45.6447 4.8485 -2.9097 0.0000 0.0000 0.0000
# 2 4.8485 157.4441 121.1054 0.0000 0.0000 0.0000
# 3 -2.9097 121.1054 223.3612 0.0000 0.0000 0.0000
# 4 0.0000 0.0000 0.0000 2.6575 0.0000 0.0000
# 5 0.0000 0.0000 0.0000 0.0000 -49.0170 0.0000
# 6 0.0000 0.0000 0.0000 0.0000 0.0000 90.8258
#
#
#
# Elastic Compliance Matrix: (Units=1/GPa)
#
#
# Indices 1 2 3 4 5 6 
#
# 1 0.022145 -0.001551 0.001129 0.000000 0.000000 0.000000
# 2 -0.001551 0.011004 -0.005987 0.000000 0.000000 0.000000
# 3 0.001129 -0.005987 0.007738 0.000000 0.000000 0.000000
# 4 0.000000 0.000000 0.000000 0.376292 0.000000 0.000000
# 5 0.000000 0.000000 0.000000 0.000000 -0.020401 0.000000
# 6 0.000000 0.000000 0.000000 0.000000 0.000000 0.011010
#
#
# Mechanical properties :
#
#
# Convention : Reuss Voigt Hill
#
# Bulk Modulus (GPa) = 35.62403 74.72648 55.17526
# Shear Modulus (GPa) = 11.62898 29.12030 20.37464
#
# Velocity S-wave (km/s) = 2.36998 3.75035 3.13703
# Velocity P-wave (km/s) = 4.96945 7.40583 6.30642
#
# Compressibility (1/GPa) = 0.02807094
#
# Stress axis : x y z
#
# Youngs Moduli (GPa) = 45.15686 90.87588 129.23856
#
# Poissons Ratio (x) = 0.14090 -0.14593
# Poissons Ratio (y) = 0.07002 0.77369
# Poissons Ratio (z) = -0.05099 0.54403
#
# Static dielectric constant tensor:
#      x y z
#    x 1.778890 0.000000 0.000000 
#    y 0.000000 1.709300 0.000000 
#    z 0.000000 0.000000 1.749560 
# 
# From -- ./inp_files/5245.got.cif
#   From: 2010.05.17/outbox.cif.g08.bks.cpg/sg25_3_cif.got.tgz:5245.got - 2010.06.04 01:04:00.
