data_PCOD9337618
_publ_section_title
;
Structure prediction by ZEFSAII (Michael W. Deem and Ramdas Pophale) SiO2 
 PCOD9337618
Probable space group: P M M 2
;
_chemical_formula_sum "Si O2"
_cell_formula_units_Z 32
_cell_length_a 9.571760
_cell_length_b 7.832379
_cell_length_c 21.107833
_cell_angle_alpha 90.000000
_cell_angle_beta 90.000000
_cell_angle_gamma 90.000000
_cell_volume 1582.446895
_symmetry_space_group_name_H-M "P M M 2"
_symmetry_group_IT_number 25
_symmetry_cell_setting 'orthorhombic'
loop_
_space_group_symop_operation_xyz
x,y,z
-x,-y,z
-x,y,z
x,-y,z
loop_
_atom_site_type_symbol
_atom_site_label
_atom_site_fract_x
_atom_site_fract_y
_atom_site_fract_z
Si Si1 0.839888 0.794673 0.772200
Si Si2 0.660964 0.209502 0.652269
Si Si3 0.658452 0.701984 0.412987
Si Si4 0.839947 0.793625 0.293268
Si Si5 0.158677 0.794025 0.149882
Si Si6 0.159263 0.294433 0.913606
Si Si7 0.342946 0.704611 0.030279
Si Si8 0.158260 0.203123 0.532943
O O1 0.738728 0.734824 0.716419
O O2 0.791533 0.749130 0.842887
O O3 0.000000 0.731193 0.764458
O O4 0.845163 0.000000 0.768005
O O5 0.500000 0.264406 0.649116
O O6 0.750427 0.268948 0.591813
O O7 0.660053 0.000000 0.651795
O O8 0.500000 0.771778 0.415724
O O9 0.650731 0.500000 0.422518
O O10 0.731344 0.734834 0.345670
O O11 0.757612 0.771667 0.468161
O O12 0.805917 0.737531 0.221471
O O13 0.000000 0.738799 0.307664
O O14 0.840259 0.000000 0.293820
O O15 0.262802 0.738086 0.095486
O O16 0.000000 0.736167 0.135779
O O17 0.157300 0.000000 0.150764
O O18 0.154441 0.500000 0.918150
O O19 0.000000 0.229977 0.920110
O O20 0.255334 0.228647 0.970310
O O21 0.500000 0.773202 0.031738
O O22 0.350820 0.500000 0.022878
O O23 0.000000 0.272565 0.530249
O O24 0.146355 0.000000 0.542767
#
# Coordination Sequence:
#
# PCOD9337618 Si02
#       8
#     4   4   4   4   4   4   4   4
#     4   9  17  30  49  73  99 127 164 211 257 301
#     4   9  17  30  50  76 104 133 166 206 254 307
#     4  11  24  38  52  76 110 142 172 210 256 305
#     4   9  19  37  59  81 104 133 172 214 255 304
#     4   9  19  36  57  80 105 133 169 214 259 304
#     4   9  18  33  51  70  96 133 174 212 253 304
#     4  10  21  35  51  74 105 139 174 213 258 309
#     4  10  20  35  57  81 103 133 175 218 258 304
#
# _framework density 20.221847
#
# number of rings (size 3 to 8) (size 9 to 14) (size 15 to 20)
#    0.000    2.500    0.000    2.625    0.000    8.000 
#    0.000    5.625    0.000    2.250    0.000    0.000 
#    0.000    0.000    0.000    0.000    0.000    0.000 
#
# Total GULP energy -178643.041316 kJ/mol
# GULP energy per Si atom -5582.595041 kJ/mol
# Density = 2.017582 g / cm^3
# Si number density = 20.221847 Si / 1000 Ang^3
#
#
#
# Elastic Constant Matrix: (Units=GPa)
#
#
# Indices 1 2 3 4 5 6 
#
# 1 174.3501 6.3248 129.1841 0.0000 0.0000 0.0000
# 2 6.3248 20.5240 -2.5685 0.0000 0.0000 0.0000
# 3 129.1841 -2.5685 171.8734 0.0000 0.0000 0.0000
# 4 0.0000 0.0000 0.0000 41.5328 0.0000 0.0000
# 5 0.0000 0.0000 0.0000 0.0000 -65.1095 0.0000
# 6 0.0000 0.0000 0.0000 0.0000 0.0000 15.5799
#
#
#
# Elastic Compliance Matrix: (Units=1/GPa)
#
#
# Indices 1 2 3 4 5 6 
#
# 1 0.013527 -0.005451 -0.010249 0.000000 0.000000 0.000000
# 2 -0.005451 0.051011 0.004860 0.000000 0.000000 0.000000
# 3 -0.010249 0.004860 0.013594 0.000000 0.000000 0.000000
# 4 0.000000 0.000000 0.000000 0.024077 0.000000 0.000000
# 5 0.000000 0.000000 0.000000 0.000000 -0.015359 0.000000
# 6 0.000000 0.000000 0.000000 0.000000 0.000000 0.064185
#
#
# Mechanical properties :
#
#
# Convention : Reuss Voigt Hill
#
# Bulk Modulus (GPa) = 17.71422 70.29202 44.00312
# Shear Modulus (GPa) = 26.10497 13.98779 20.04638
#
# Velocity S-wave (km/s) = 3.59685 2.63290 3.15194
# Velocity P-wave (km/s) = 5.10183 6.63919 5.92062
#
# Compressibility (1/GPa) = 0.05645182
#
# Stress axis : x y z
#
# Youngs Moduli (GPa) = 73.92555 19.60346 73.56149
#
# Poissons Ratio (x) = 0.10686 0.75391
# Poissons Ratio (y) = 0.40298 -0.35748
# Poissons Ratio (z) = 0.75765 -0.09526
#
# Static dielectric constant tensor:
#      x y z
#    x 1.712440 0.000000 0.000000 
#    y 0.000000 1.742120 0.000000 
#    z 0.000000 0.000000 1.684630 
# 
# From -- ./inp_files/6487.got.cif
#   From: 2010.05.17/outbox.cif.g08.bks.cpg/sg25_4_cif.got.tgz:6487.got - 2010.06.04 01:04:00.
