data_PCOD9337221
_publ_section_title
;
Structure prediction by ZEFSAII (Michael W. Deem and Ramdas Pophale) SiO2 
 PCOD9337221
Probable space group: P M M 2
;
_chemical_formula_sum "Si O2"
_cell_formula_units_Z 32
_cell_length_a 7.664042
_cell_length_b 22.718812
_cell_length_c 7.351566
_cell_angle_alpha 90.000000
_cell_angle_beta 90.000000
_cell_angle_gamma 90.000000
_cell_volume 1280.039449
_symmetry_space_group_name_H-M "P M M 2"
_symmetry_group_IT_number 25
_symmetry_cell_setting 'orthorhombic'
loop_
_space_group_symop_operation_xyz
x,y,z
-x,-y,z
-x,y,z
x,-y,z
loop_
_atom_site_type_symbol
_atom_site_label
_atom_site_fract_x
_atom_site_fract_y
_atom_site_fract_z
Si Si1 0.211792 0.436986 0.206510
Si Si2 0.191900 0.308841 0.620537
Si Si3 0.799393 0.312519 0.187001
Si Si4 0.803692 0.185985 0.125264
Si Si5 0.704122 0.063193 0.636180
Si Si6 0.705738 0.562933 0.638356
Si Si7 0.298930 0.183578 0.723334
Si Si8 0.787425 0.063171 0.067465
O O1 0.271762 0.500000 0.129710
O O2 0.278385 0.375158 0.125891
O O3 0.260687 0.438051 0.420214
O O4 0.000000 0.435051 0.196329
O O5 0.192285 0.317836 0.404377
O O6 0.230636 0.373102 0.702354
O O7 0.300233 0.250248 0.653892
O O8 0.000000 0.291937 0.681695
O O9 0.000000 0.309155 0.117221
O O10 0.714236 0.249009 0.156106
O O11 0.810579 0.182898 0.907038
O O12 0.724421 0.122078 0.168789
O O13 0.000000 0.189614 0.204704
O O14 0.500000 0.060929 0.588480
O O15 0.766603 0.130071 0.594375
O O16 0.725588 0.062854 0.857438
O O17 0.784017 0.000000 0.576161
O O18 0.500000 0.562312 0.668435
O O19 0.780787 0.500000 0.706269
O O20 0.500000 0.169539 0.769373
O O21 0.000000 0.065941 0.066226
O O22 0.734388 0.000000 0.146378
#
# Coordination Sequence:
#
# PCOD9337221 Si02
#       8
#     4   4   4   4   4   4   4   4
#     4   8  13  23  40  61  84 110 142 179 215 253
#     4  10  19  31  47  66  90 121 154 184 217 261
#     4   8  15  27  44  65  86 111 144 179 214 256
#     4   9  16  28  45  63  86 115 144 177 220 266
#     4   8  14  25  41  60  82 109 141 179 222 264
#     4   9  16  26  42  65  90 113 141 182 227 264
#     4  10  19  30  45  67  92 116 147 186 226 268
#     4   8  13  21  36  59  82 104 135 175 215 255
#
# _framework density 24.999231999999999
#
# number of rings (size 3 to 8) (size 9 to 14) (size 15 to 20)
#    0.000    3.250    0.000    1.875    0.000    1.250 
#    0.000    3.125    0.000    1.500    0.000    3.500 
#    0.000    4.000    0.000    0.000    0.000    0.000 
#
# Total GULP energy -178163.560218 kJ/mol
# GULP energy per Si atom -5567.611257 kJ/mol
# Density = 2.494233 g / cm^3
# Si number density = 24.999232 Si / 1000 Ang^3
#
#
#
# Elastic Constant Matrix: (Units=GPa)
#
#
# Indices 1 2 3 4 5 6 
#
# 1 72.4749 20.3766 -8.2685 0.0000 0.0000 0.0000
# 2 20.3766 300.5265 -1.6016 0.0000 0.0000 0.0000
# 3 -8.2685 -1.6016 65.0875 0.0000 0.0000 0.0000
# 4 0.0000 0.0000 0.0000 12.8529 0.0000 0.0000
# 5 0.0000 0.0000 0.0000 0.0000 5.0100 0.0000
# 6 0.0000 0.0000 0.0000 0.0000 0.0000 42.2827
#
#
#
# Elastic Compliance Matrix: (Units=1/GPa)
#
#
# Indices 1 2 3 4 5 6 
#
# 1 0.014271 -0.000958 0.001789 0.000000 0.000000 0.000000
# 2 -0.000958 0.003392 -0.000038 0.000000 0.000000 0.000000
# 3 0.001789 -0.000038 0.015590 0.000000 0.000000 0.000000
# 4 0.000000 0.000000 0.000000 0.077803 0.000000 0.000000
# 5 0.000000 0.000000 0.000000 0.000000 0.199599 0.000000
# 6 0.000000 0.000000 0.000000 0.000000 0.000000 0.023650
#
#
# Mechanical properties :
#
#
# Convention : Reuss Voigt Hill
#
# Bulk Modulus (GPa) = 28.70256 51.01132 39.85694
# Shear Modulus (GPa) = 14.52078 40.53462 27.52770
#
# Velocity S-wave (km/s) = 2.41270 4.03107 3.32195
# Velocity P-wave (km/s) = 4.38951 6.48965 5.54000
#
# Compressibility (1/GPa) = 0.03484010
#
# Stress axis : x y z
#
# Youngs Moduli (GPa) = 70.07013 294.78939 64.14243
#
# Poissons Ratio (x) = 0.28244 -0.11478
# Poissons Ratio (y) = 0.06713 0.00245
# Poissons Ratio (z) = -0.12538 0.01127
#
# Static dielectric constant tensor:
#      x y z
#    x 1.908520 0.000000 0.000000 
#    y 0.000000 2.173600 0.000000 
#    z 0.000000 0.000000 2.022430 
# 
# From -- ./inp_files/4495.got.cif
#   From: 2010.05.17/outbox.cif.g08.bks.cpg/sg25_3_cif.got.tgz:4495.got - 2010.06.04 01:04:00.
