data_PCOD9337624
_publ_section_title
;
Structure prediction by ZEFSAII (Michael W. Deem and Ramdas Pophale) SiO2 
 PCOD9337624
Probable space group: P M M 2
;
_chemical_formula_sum "Si O2"
_cell_formula_units_Z 20
_cell_length_a 15.738932
_cell_length_b 8.369584
_cell_length_c 7.422301
_cell_angle_alpha 90.000000
_cell_angle_beta 90.000000
_cell_angle_gamma 90.000000
_cell_volume 977.727193
_symmetry_space_group_name_H-M "P M M 2"
_symmetry_group_IT_number 25
_symmetry_cell_setting 'orthorhombic'
loop_
_space_group_symop_operation_xyz
x,y,z
-x,-y,z
-x,y,z
x,-y,z
loop_
_atom_site_type_symbol
_atom_site_label
_atom_site_fract_x
_atom_site_fract_y
_atom_site_fract_z
Si Si1 0.226855 0.810118 0.783820
Si Si2 0.775693 0.690772 0.190332
Si Si3 0.903370 0.192454 0.481371
Si Si4 0.592519 0.312438 0.768898
Si Si5 0.591213 0.688893 0.206447
O O1 0.154712 0.750922 0.647582
O O2 0.321256 0.771518 0.710503
O O3 0.219220 0.000000 0.805161
O O4 0.217707 0.731966 0.979787
O O5 0.774543 0.500000 0.210101
O O6 0.853167 0.760384 0.302092
O O7 0.683433 0.754507 0.259635
O O8 0.000000 0.252137 0.486215
O O9 0.905992 0.000000 0.490860
O O10 0.500000 0.252090 0.706873
O O11 0.598009 0.500000 0.722522
O O12 0.591582 0.302560 0.987683
O O13 0.500000 0.757502 0.266850
O O14 0.590314 0.500000 0.252867
#
# Coordination Sequence:
#
# PCOD9337624 Si02
#       5
#     4   4   4   4   4
#     4  10  20  35  57  83 112 148 186 224 271 329
#     4  10  20  35  58  86 113 142 180 227 275 324
#     4  10  23  42  59  76 104 144 187 230 279 335
#     4   8  14  27  49  77 110 147 183 220 266 319
#     4   7  11  23  45  73 105 139 171 204 249 308
#
# _framework density 20.455601999999999
#
# number of rings (size 3 to 8) (size 9 to 14) (size 15 to 20)
#    0.000    3.000    0.000    3.600    0.000    3.200 
#    0.000    3.000    0.000    5.400    0.000    0.000 
#    0.000    0.000    0.000    0.000    0.000    0.000 
#
# Total GULP energy -111516.547623 kJ/mol
# GULP energy per Si atom -5575.827381 kJ/mol
# Density = 2.040904 g / cm^3
# Si number density = 20.455602 Si / 1000 Ang^3
#
#
#
# Elastic Constant Matrix: (Units=GPa)
#
#
# Indices 1 2 3 4 5 6 
#
# 1 225.9927 18.5940 62.3650 0.0000 0.0000 0.0000
# 2 18.5940 7.8250 -1.0804 0.0000 0.0000 0.0000
# 3 62.3650 -1.0804 80.0581 0.0000 0.0000 0.0000
# 4 0.0000 0.0000 0.0000 52.8276 0.0000 0.0000
# 5 0.0000 0.0000 0.0000 0.0000 38.7787 0.0000
# 6 0.0000 0.0000 0.0000 0.0000 0.0000 31.8764
#
#
#
# Elastic Compliance Matrix: (Units=1/GPa)
#
#
# Indices 1 2 3 4 5 6 
#
# 1 0.007749 -0.019283 -0.006297 0.000000 0.000000 0.000000
# 2 -0.019283 0.176020 0.017397 0.000000 0.000000 0.000000
# 3 -0.006297 0.017397 0.017631 0.000000 0.000000 0.000000
# 4 0.000000 0.000000 0.000000 0.018929 0.000000 0.000000
# 5 0.000000 0.000000 0.000000 0.000000 0.025787 0.000000
# 6 0.000000 0.000000 0.000000 0.000000 0.000000 0.031371
#
#
# Mechanical properties :
#
#
# Convention : Reuss Voigt Hill
#
# Bulk Modulus (GPa) = 5.40441 52.62589 29.01515
# Shear Modulus (GPa) = 14.06341 40.29634 27.17988
#
# Velocity S-wave (km/s) = 2.62488 4.44322 3.64912
# Velocity P-wave (km/s) = 3.44012 7.21842 5.65421
#
# Compressibility (1/GPa) = 0.18503409
#
# Stress axis : x y z
#
# Youngs Moduli (GPa) = 129.04603 5.68117 56.71857
#
# Poissons Ratio (x) = 0.10955 0.35715
# Poissons Ratio (y) = 2.48844 -0.98674
# Poissons Ratio (z) = 0.81258 -0.09884
#
# Static dielectric constant tensor:
#      x y z
#    x 1.765570 0.000000 0.000000 
#    y 0.000000 1.687190 0.000000 
#    z 0.000000 0.000000 1.747870 
# 
# From -- ./inp_files/1775.got.cif
#   From: 2010.05.17/outbox.cif.g08.bks.cpg/sg25_1_cif.got.tgz:1775.got - 2010.06.04 01:04:00.
