data_PCOD9337432
_publ_section_title
;
Structure prediction by ZEFSAII (Michael W. Deem and Ramdas Pophale) SiO2 
 PCOD9337432
Probable space group: P M M 2
;
_chemical_formula_sum "Si O2"
_cell_formula_units_Z 24
_cell_length_a 7.514202
_cell_length_b 9.875638
_cell_length_c 15.662025
_cell_angle_alpha 90.000000
_cell_angle_beta 90.000000
_cell_angle_gamma 90.000000
_cell_volume 1162.240328
_symmetry_space_group_name_H-M "P M M 2"
_symmetry_group_IT_number 25
_symmetry_cell_setting 'orthorhombic'
loop_
_space_group_symop_operation_xyz
x,y,z
-x,-y,z
-x,y,z
x,-y,z
loop_
_atom_site_type_symbol
_atom_site_label
_atom_site_fract_x
_atom_site_fract_y
_atom_site_fract_z
Si Si1 0.717419 0.345716 0.601670
Si Si2 0.718068 0.844513 0.252956
Si Si3 0.289948 0.848046 0.750354
Si Si4 0.788858 0.652657 0.904730
Si Si5 0.283215 0.345567 0.407126
Si Si6 0.712918 0.653074 0.100920
O O1 0.500000 0.345092 0.602565
O O2 0.771461 0.500000 0.622229
O O3 0.783282 0.240310 0.671810
O O4 0.771593 0.314967 0.504342
O O5 0.500000 0.845543 0.252845
O O6 0.775054 0.761690 0.336786
O O7 0.777816 0.761133 0.169666
O O8 0.775966 0.000000 0.252817
O O9 0.500000 0.860580 0.733645
O O10 0.273521 0.761819 0.836645
O O11 0.216389 0.000000 0.757333
O O12 0.716340 0.500000 0.889172
O O13 0.000000 0.645495 0.896202
O O14 0.748087 0.689482 0.002634
O O15 0.500000 0.345247 0.406450
O O16 0.228891 0.500000 0.386321
O O17 0.500000 0.646689 0.111335
O O18 0.782222 0.500000 0.115242
#
# Coordination Sequence:
#
# PCOD9337432 Si02
#       6
#     4   4   4   4   4   4
#     4   8  14  25  42  64  91 124 159 193 230 274
#     4   9  16  24  37  61  92 123 153 187 228 274
#     4  10  20  32  48  72 100 129 160 195 238 288
#     4  10  21  36  53  72  93 121 160 203 245 289
#     4   8  13  22  37  59  89 123 155 187 226 271
#     4   9  17  30  48  68  91 121 155 191 233 281
#
# _framework density 20.649775000000002
#
# number of rings (size 3 to 8) (size 9 to 14) (size 15 to 20)
#    0.000    3.000    0.000    2.500    0.000    5.333 
#    0.000    5.000    0.000    0.000    0.000    1.167 
#    0.000    4.000    0.000    0.000    0.000    0.000 
#
# Total GULP energy -133940.968477 kJ/mol
# GULP energy per Si atom -5580.873687 kJ/mol
# Density = 2.060278 g / cm^3
# Si number density = 20.649775 Si / 1000 Ang^3
#
#
#
# Elastic Constant Matrix: (Units=GPa)
#
#
# Indices 1 2 3 4 5 6 
#
# 1 53.3536 6.9314 -1.5108 0.0000 0.0000 0.0000
# 2 6.9314 205.9364 165.5548 0.0000 0.0000 0.0000
# 3 -1.5108 165.5548 176.1906 0.0000 0.0000 0.0000
# 4 0.0000 0.0000 0.0000 7.6223 0.0000 0.0000
# 5 0.0000 0.0000 0.0000 0.0000 -48.9078 0.0000
# 6 0.0000 0.0000 0.0000 0.0000 0.0000 -3.7973
#
#
#
# Elastic Compliance Matrix: (Units=1/GPa)
#
#
# Indices 1 2 3 4 5 6 
#
# 1 0.019247 -0.003191 0.003163 0.000000 0.000000 0.000000
# 2 -0.003191 0.020380 -0.019177 0.000000 0.000000 0.000000
# 3 0.003163 -0.019177 0.023722 0.000000 0.000000 0.000000
# 4 0.000000 0.000000 0.000000 0.131194 0.000000 0.000000
# 5 0.000000 0.000000 0.000000 0.000000 -0.020447 0.000000
# 6 0.000000 0.000000 0.000000 0.000000 0.000000 -0.263348
#
#
# Mechanical properties :
#
#
# Convention : Reuss Voigt Hill
#
# Bulk Modulus (GPa) = 40.09648 86.38128 63.23888
# Shear Modulus (GPa) = -117.56504 8.61713 -54.47396
#
# Velocity S-wave (km/s) = -7.55357 2.04501 -5.14171
# Velocity P-wave (km/s) = 7.52434 6.89191 2.13509
#
# Compressibility (1/GPa) = 0.02493985
#
# Stress axis : x y z
#
# Youngs Moduli (GPa) = 51.95630 49.06797 42.15465
#
# Poissons Ratio (x) = 0.15656 -0.13334
# Poissons Ratio (y) = 0.16577 0.80840
# Poissons Ratio (z) = -0.16434 0.94098
#
# Static dielectric constant tensor:
#      x y z
#    x 1.767780 0.000000 0.000000 
#    y 0.000000 1.718550 0.000000 
#    z 0.000000 0.000000 1.707420 
# 
# From -- ./inp_files/5965.got.cif
#   From: 2010.05.17/outbox.cif.g08.bks.cpg/sg25_3_cif.got.tgz:5965.got - 2010.06.04 01:04:00.
