data_PCOD9337021
_publ_section_title
;
Structure prediction by ZEFSAII (Michael W. Deem and Ramdas Pophale) SiO2 
 PCOD9337021
Probable space group: I 21 21 21
;
_chemical_formula_sum "Si O2"
_cell_formula_units_Z 48
_cell_length_a 18.670008
_cell_length_b 7.319549
_cell_length_c 13.686911
_cell_angle_alpha 90.000000
_cell_angle_beta 90.000000
_cell_angle_gamma 90.000000
_cell_volume 1870.399035
_symmetry_space_group_name_H-M "I 21 21 21"
_symmetry_group_IT_number 24
_symmetry_cell_setting 'orthorhombic'
loop_
_space_group_symop_operation_xyz
x,y,z
-x,1/2-y,z
x,-y,1/2-z
1/2-x,y,-z
1/2+x,1/2+y,1/2+z
1/2-x,-y,1/2+z
1/2+x,1/2-y,-z
-x,1/2+y,1/2-z
loop_
_atom_site_type_symbol
_atom_site_label
_atom_site_fract_x
_atom_site_fract_y
_atom_site_fract_z
Si Si1 0.730867 0.957957 0.115267
Si Si2 0.422498 0.026719 0.428246
Si Si3 0.422498 0.526720 0.071754
Si Si4 0.615878 0.468158 0.645653
Si Si5 0.730867 0.457957 0.384733
Si Si6 0.115878 0.531842 0.145653
O O1 0.726247 0.750000 0.153079
O O2 0.803423 0.046921 0.153422
O O3 0.750000 0.947405 0.000000
O O4 0.651064 0.036995 0.122559
O O5 0.420292 0.250000 0.426062
O O6 0.500000 0.969895 0.388802
O O7 0.417614 0.971070 0.543047
O O8 0.348936 0.963005 0.377441
O O9 0.417614 0.471070 0.956953
O O10 0.579838 0.500000 0.750000
O O11 0.696577 0.546921 0.653422
O O12 0.621752 0.250000 0.634602
O O13 0.750000 0.447406 0.500000
O O14 0.079838 0.500000 0.250000
#
# Coordination Sequence:
#
# PCOD9337021 Si02
#       6
#     8   8   8   8   8   8
#     4   7  11  21  36  52  70  94 125 156 180 206
#     4   8  13  22  38  58  75  93 123 160 188 210
#     4   8  13  22  38  58  75  93 123 160 188 210
#     4   9  16  25  38  57  79 100 121 148 184 223
#     4   7  11  21  36  52  70  94 125 156 180 206
#     4   9  16  25  38  57  79 100 121 148 184 223
#
# _framework density 25.662976
#
# number of rings (size 3 to 8) (size 9 to 14) (size 15 to 20)
#    0.000    4.000    0.000    4.000    0.000    0.667 
#    0.000    0.000    0.000   10.000    0.000    0.000 
#    0.000    0.000    0.000    0.000    0.000    0.000 
#
# Total GULP energy -133731.264333 kJ/mol
# GULP energy per Si atom -5572.136014 kJ/mol
# Density = 2.560457 g / cm^3
# Si number density = 25.662976 Si / 1000 Ang^3
#
#
#
# Elastic Constant Matrix: (Units=GPa)
#
#
# Indices 1 2 3 4 5 6 
#
# 1 232.6122 10.5585 -9.9793 0.0000 0.0000 0.0000
# 2 10.5585 106.9011 -4.7865 0.0000 0.0000 0.0000
# 3 -9.9793 -4.7865 49.1186 0.0000 0.0000 0.0000
# 4 0.0000 0.0000 0.0000 3.6077 0.0000 0.0000
# 5 0.0000 0.0000 0.0000 0.0000 -2.6970 0.0000
# 6 0.0000 0.0000 0.0000 0.0000 0.0000 -27.3890
#
#
#
# Elastic Compliance Matrix: (Units=1/GPa)
#
#
# Indices 1 2 3 4 5 6 
#
# 1 0.004353 -0.000392 0.000846 0.000000 0.000000 0.000000
# 2 -0.000392 0.009431 0.000839 0.000000 0.000000 0.000000
# 3 0.000846 0.000839 0.020613 0.000000 0.000000 0.000000
# 4 0.000000 0.000000 0.000000 0.277184 0.000000 0.000000
# 5 0.000000 0.000000 0.000000 0.000000 -0.370786 0.000000
# 6 0.000000 0.000000 0.000000 0.000000 0.000000 -0.036511
#
#
# Mechanical properties :
#
#
# Convention : Reuss Voigt Hill
#
# Bulk Modulus (GPa) = 27.03915 42.24636 34.64275
# Shear Modulus (GPa) = -58.15623 20.89362 -18.63130
#
# Velocity S-wave (km/s) = -4.76558 2.85643 -2.69736
# Velocity P-wave (km/s) = 4.44093 5.23227 1.95638
#
# Compressibility (1/GPa) = 0.03698341
#
# Stress axis : x y z
#
# Youngs Moduli (GPa) = 229.72133 106.03619 48.51404
#
# Poissons Ratio (x) = 0.04157 -0.04105
# Poissons Ratio (y) = 0.09006 -0.04072
# Poissons Ratio (z) = -0.19439 -0.08900
#
# Static dielectric constant tensor:
#      x y z
#    x 2.053380 0.000000 0.000000 
#    y 0.000000 1.991080 0.000000 
#    z 0.000000 0.000000 2.023610 
# 
# From -- ./inp_files/20930.got.cif
#   From: 2010.05.17/outbox.cif.g08.bks.cpg/sg24_11_cif.got.tgz:20930.got - 2010.06.04 00:33:39.
