data_PCOD9337969
_publ_section_title
;
Structure prediction by ZEFSAII (Michael W. Deem and Ramdas Pophale) SiO2 
 PCOD9337969
Probable space group: P M C 21
;
_chemical_formula_sum "Si O2"
_cell_formula_units_Z 18
_cell_length_a 15.775472
_cell_length_b 15.521252
_cell_length_c 5.149845
_cell_angle_alpha 90.000000
_cell_angle_beta 90.000000
_cell_angle_gamma 90.000000
_cell_volume 1260.965691
_symmetry_space_group_name_H-M "P M C 21"
_symmetry_group_IT_number 26
_symmetry_cell_setting 'orthorhombic'
loop_
_space_group_symop_operation_xyz
x,y,z
-x,-y,1/2+z
-x,y,z
x,-y,1/2+z
loop_
_atom_site_type_symbol
_atom_site_label
_atom_site_fract_x
_atom_site_fract_y
_atom_site_fract_z
Si Si1 0.500000 0.557343 0.552470
Si Si2 0.814132 0.060923 0.554992
Si Si3 0.500000 0.943213 0.909729
Si Si4 0.000000 0.055877 0.462493
Si Si5 0.402961 0.723534 0.470304
Si Si6 0.657696 0.184458 0.466390
O O1 0.500000 0.483543 0.336353
O O2 0.420565 0.622125 0.509831
O O3 0.744097 0.133836 0.518989
O O4 0.909674 0.097985 0.525206
O O5 0.804799 0.010992 0.827905
O O6 0.416841 0.886457 0.958000
O O7 0.500000 0.980398 0.619882
O O8 0.000000 0.974423 0.663118
O O9 0.500000 0.760034 0.490432
O O10 0.347318 0.765568 0.694880
O O11 0.365689 0.749336 0.194515
#
# Coordination Sequence:
#
# PCOD9337969 Si02
#       6
#     2   4   2   2   4   4
#     4  10  18  32  50  66  82 112 150 172 202 256
#     4  10  19  31  45  63  82 116 157 193 225 253
#     4  12  20  26  36  52  76 112 150 180 194 226
#     4   8  16  30  46  60  80 104 148 200 234 256
#     4  10  20  32  45  61  86 116 140 167 221 249
#     4  12  19  32  41  59  88 117 146 178 214 265
#
# _framework density 14.274775
#
# number of rings (size 3 to 8) (size 9 to 14) (size 15 to 20)
#    0.667    0.889    2.222    5.333    0.000    0.000 
#    0.000    0.000    0.000    0.000    0.000    0.000 
#    0.000    0.000    0.000   20.000    0.000    0.000 
#
# Total GULP energy -100322.934002 kJ/mol
# GULP energy per Si atom -5573.496333 kJ/mol
# Density = 1.424228 g / cm^3
# Si number density = 14.274775 Si / 1000 Ang^3
#
#
#
# Elastic Constant Matrix: (Units=GPa)
#
#
# Indices 1 2 3 4 5 6 
#
# 1 73.1090 12.3179 -21.3563 0.0000 0.0000 0.0000
# 2 12.3179 25.8929 -13.3607 0.0000 0.0000 0.0000
# 3 -21.3563 -13.3607 43.9381 0.0000 0.0000 0.0000
# 4 0.0000 0.0000 0.0000 27.4256 0.0000 0.0000
# 5 0.0000 0.0000 0.0000 0.0000 13.5710 0.0000
# 6 0.0000 0.0000 0.0000 0.0000 0.0000 7.5133
#
#
#
# Elastic Compliance Matrix: (Units=1/GPa)
#
#
# Indices 1 2 3 4 5 6 
#
# 1 0.016347 -0.004361 0.006619 0.000000 0.000000 0.000000
# 2 -0.004361 0.046971 0.012163 0.000000 0.000000 0.000000
# 3 0.006619 0.012163 0.029675 0.000000 0.000000 0.000000
# 4 0.000000 0.000000 0.000000 0.036462 0.000000 0.000000
# 5 0.000000 0.000000 0.000000 0.000000 0.073687 0.000000
# 6 0.000000 0.000000 0.000000 0.000000 0.000000 0.133098
#
#
# Mechanical properties :
#
#
# Convention : Reuss Voigt Hill
#
# Bulk Modulus (GPa) = 8.20773 10.90467 9.55620
# Shear Modulus (GPa) = 14.36745 20.72458 17.54601
#
# Velocity S-wave (km/s) = 3.17597 3.81443 3.50974
# Velocity P-wave (km/s) = 4.38307 5.20149 4.80972
#
# Compressibility (1/GPa) = 0.12183638
#
# Stress axis : x y z
#
# Youngs Moduli (GPa) = 61.17502 21.28954 33.69817
#
# Poissons Ratio (x) = 0.09284 -0.22306
# Poissons Ratio (y) = 0.26678 -0.40988
# Poissons Ratio (z) = -0.40493 -0.25895
#
# Static dielectric constant tensor:
#      x y z
#    x 1.476430 0.000000 0.000000 
#    y 0.000000 1.448600 0.000000 
#    z 0.000000 0.000000 1.482260 
# 
# From -- ./inp_files/559.got.cif
#   From: 2010.05.17/outbox.cif.g08.bks.cpg/sg26_1_cif.got.tgz:559.got - 2010.06.04 01:07:29.
