data_PCOD9337705
_publ_section_title
;
Structure prediction by ZEFSAII (Michael W. Deem and Ramdas Pophale) SiO2 
 PCOD9337705
Probable space group: P M M 2
;
_chemical_formula_sum "Si O2"
_cell_formula_units_Z 32
_cell_length_a 8.979864
_cell_length_b 9.640204
_cell_length_c 21.361375
_cell_angle_alpha 90.000000
_cell_angle_beta 90.000000
_cell_angle_gamma 90.000000
_cell_volume 1849.205548
_symmetry_space_group_name_H-M "P M M 2"
_symmetry_group_IT_number 25
_symmetry_cell_setting 'orthorhombic'
loop_
_space_group_symop_operation_xyz
x,y,z
-x,-y,z
-x,y,z
x,-y,z
loop_
_atom_site_type_symbol
_atom_site_label
_atom_site_fract_x
_atom_site_fract_y
_atom_site_fract_z
Si Si1 0.320802 0.161033 0.714030
Si Si2 0.681449 0.159565 0.476944
Si Si3 0.827983 0.168583 0.842587
Si Si4 0.180015 0.162993 0.981281
Si Si5 0.822864 0.336591 0.224618
Si Si6 0.677186 0.834541 0.335513
Si Si7 0.682031 0.659635 0.594850
Si Si8 0.677297 0.335914 0.092864
O O1 0.500000 0.162429 0.715138
O O2 0.261951 0.210896 0.781279
O O3 0.270454 0.255668 0.656354
O O4 0.274204 0.000000 0.704825
O O5 0.500000 0.159089 0.476985
O O6 0.725770 0.201033 0.406548
O O7 0.730870 0.260667 0.532114
O O8 0.727414 0.000000 0.488540
O O9 0.772953 0.211598 0.911461
O O10 0.000000 0.211013 0.835871
O O11 0.825313 0.000000 0.844156
O O12 0.000000 0.173027 0.983435
O O13 0.218020 0.000000 0.988126
O O14 0.251864 0.250970 0.036213
O O15 0.789017 0.500000 0.234048
O O16 0.761943 0.249439 0.282597
O O17 0.746321 0.292911 0.159541
O O18 0.000000 0.321159 0.218914
O O19 0.500000 0.807315 0.330393
O O20 0.698392 0.000000 0.328151
O O21 0.500000 0.660751 0.594617
O O22 0.729706 0.500000 0.596079
O O23 0.500000 0.317143 0.094237
O O24 0.709235 0.500000 0.084946
#
# Coordination Sequence:
#
# PCOD9337705 Si02
#       8
#     4   4   4   4   4   4   4   4
#     4   9  16  26  43  66  90 119 155 193 233 277
#     4   8  14  26  44  66  93 123 154 190 233 282
#     4   8  15  29  48  69  93 121 155 194 233 278
#     4   9  18  33  53  76 100 127 161 201 245 292
#     4  10  21  36  53  72  96 130 168 201 237 286
#     4   9  18  32  51  76 102 126 157 201 249 292
#     4   9  16  25  39  63  94 124 154 191 235 279
#     4  10  21  36  53  74 100 130 164 201 241 286
#
# _framework density 17.304728000000001
#
# number of rings (size 3 to 8) (size 9 to 14) (size 15 to 20)
#    0.000    3.000    0.000    2.625    0.000    5.000 
#    0.000    3.125    0.000    3.375    0.000    1.750 
#    0.000    0.000    0.000    0.000    0.000    0.000 
#
# Total GULP energy -178328.471629 kJ/mol
# GULP energy per Si atom -5572.764738 kJ/mol
# Density = 1.726534 g / cm^3
# Si number density = 17.304728 Si / 1000 Ang^3
#
#
#
# Elastic Constant Matrix: (Units=GPa)
#
#
# Indices 1 2 3 4 5 6 
#
# 1 17.3994 29.9707 46.2965 0.0000 0.0000 0.0000
# 2 29.9707 70.3280 94.3966 0.0000 0.0000 0.0000
# 3 46.2965 94.3966 205.4889 0.0000 0.0000 0.0000
# 4 0.0000 0.0000 0.0000 -21.7621 0.0000 0.0000
# 5 0.0000 0.0000 0.0000 0.0000 -178.5723 0.0000
# 6 0.0000 0.0000 0.0000 0.0000 0.0000 18.4807
#
#
#
# Elastic Compliance Matrix: (Units=1/GPa)
#
#
# Indices 1 2 3 4 5 6 
#
# 1 0.240403 -0.077594 -0.018518 0.000000 0.000000 0.000000
# 2 -0.077594 0.062131 -0.011059 0.000000 0.000000 0.000000
# 3 -0.018518 -0.011059 0.014119 0.000000 0.000000 0.000000
# 4 0.000000 0.000000 0.000000 -0.045951 0.000000 0.000000
# 5 0.000000 0.000000 0.000000 0.000000 -0.005600 0.000000
# 6 0.000000 0.000000 0.000000 0.000000 0.000000 0.054111
#
#
# Mechanical properties :
#
#
# Convention : Reuss Voigt Hill
#
# Bulk Modulus (GPa) = 9.77421 70.50489 40.13955
# Shear Modulus (GPa) = 8.80811 -28.20059 -9.69624
#
# Velocity S-wave (km/s) = 2.25855 -4.04127 -2.36968
# Velocity P-wave (km/s) = 3.53015 4.36529 3.96974
#
# Compressibility (1/GPa) = 0.10231006
#
# Stress axis : x y z
#
# Youngs Moduli (GPa) = 4.15967 16.09510 70.82701
#
# Poissons Ratio (x) = 1.24889 1.31156
# Poissons Ratio (y) = 0.32277 0.78330
# Poissons Ratio (z) = 0.07703 0.17800
#
# Static dielectric constant tensor:
#      x y z
#    x 1.583360 0.000000 0.000000 
#    y 0.000000 1.574560 0.000000 
#    z 0.000000 0.000000 1.582420 
# 
# From -- ./inp_files/6491.got.cif
#   From: 2010.05.17/outbox.cif.g08.bks.cpg/sg25_4_cif.got.tgz:6491.got - 2010.06.04 01:04:00.
