data_PCOD9337635
_publ_section_title
;
Structure prediction by ZEFSAII (Michael W. Deem and Ramdas Pophale) SiO2 
 PCOD9337635
Probable space group: P M M 2
;
_chemical_formula_sum "Si O2"
_cell_formula_units_Z 21
_cell_length_a 10.497036
_cell_length_b 7.428947
_cell_length_c 12.719822
_cell_angle_alpha 90.000000
_cell_angle_beta 90.000000
_cell_angle_gamma 90.000000
_cell_volume 991.916194
_symmetry_space_group_name_H-M "P M M 2"
_symmetry_group_IT_number 25
_symmetry_cell_setting 'orthorhombic'
loop_
_space_group_symop_operation_xyz
x,y,z
-x,-y,z
-x,y,z
x,-y,z
loop_
_atom_site_type_symbol
_atom_site_label
_atom_site_fract_x
_atom_site_fract_y
_atom_site_fract_z
Si Si1 0.143267 0.786674 0.860230
Si Si2 0.357926 0.716142 0.688856
Si Si3 0.642955 0.280539 0.447948
Si Si4 0.142167 0.718341 0.286157
Si Si5 0.500000 0.500000 0.106046
Si Si6 0.724298 0.208618 0.074511
O O1 0.242662 0.760261 0.765668
O O2 0.000000 0.714611 0.842360
O O3 0.130814 0.000000 0.873571
O O4 0.208195 0.722838 0.967942
O O5 0.500000 0.778712 0.723524
O O6 0.364052 0.500000 0.685755
O O7 0.337180 0.777052 0.568679
O O8 0.500000 0.227139 0.415119
O O9 0.644661 0.500000 0.447478
O O10 0.751192 0.219664 0.368619
O O11 0.146451 0.500000 0.283922
O O12 0.177017 0.785225 0.170675
O O13 0.000000 0.772176 0.317269
O O14 0.610699 0.342142 0.103377
O O15 0.683236 0.000000 0.059219
#
# Coordination Sequence:
#
# PCOD9337635 Si02
#       6
#     4   4   4   4   1   4
#     4  10  23  41  59  83 121 164 204 254 313 373
#     4   9  19  35  58  88 120 157 205 259 311 367
#     4   8  16  32  55  84 121 162 207 261 314 364
#     4  10  20  35  60  91 126 168 212 260 315 375
#     4  12  26  44  66  98 126 164 212 260 308 376
#     4  11  25  43  65  94 129 167 206 257 316 371
#
# _framework density 21.171144000000002
#
# number of rings (size 3 to 8) (size 9 to 14) (size 15 to 20)
#    0.000    2.286    0.952    2.000    4.000    2.667 
#    0.000    2.857    0.000    1.143    0.000    0.000 
#    0.000    0.000    0.000    0.000    0.000    0.000 
#
# Total GULP energy -117014.964445 kJ/mol
# GULP energy per Si atom -5572.141164 kJ/mol
# Density = 2.112296 g / cm^3
# Si number density = 21.171144 Si / 1000 Ang^3
#
#
#
# Elastic Constant Matrix: (Units=GPa)
#
#
# Indices 1 2 3 4 5 6 
#
# 1 160.0295 10.9653 70.7818 0.0000 0.0000 0.0000
# 2 10.9653 89.5548 -8.4878 0.0000 0.0000 0.0000
# 3 70.7818 -8.4878 91.4129 0.0000 0.0000 0.0000
# 4 0.0000 0.0000 0.0000 17.8847 0.0000 0.0000
# 5 0.0000 0.0000 0.0000 0.0000 -4.6031 0.0000
# 6 0.0000 0.0000 0.0000 0.0000 0.0000 12.7368
#
#
#
# Elastic Compliance Matrix: (Units=1/GPa)
#
#
# Indices 1 2 3 4 5 6 
#
# 1 0.009827 -0.001942 -0.007790 0.000000 0.000000 0.000000
# 2 -0.001942 0.011649 0.002585 0.000000 0.000000 0.000000
# 3 -0.007790 0.002585 0.017211 0.000000 0.000000 0.000000
# 4 0.000000 0.000000 0.000000 0.055914 0.000000 0.000000
# 5 0.000000 0.000000 0.000000 0.000000 -0.217247 0.000000
# 6 0.000000 0.000000 0.000000 0.000000 0.000000 0.078513
#
#
# Mechanical properties :
#
#
# Convention : Reuss Voigt Hill
#
# Bulk Modulus (GPa) = 40.99210 54.16844 47.58027
# Shear Modulus (GPa) = -230.31263 23.05288 -103.62988
#
# Velocity S-wave (km/s) = -10.44137 3.30340 -7.00392
# Velocity P-wave (km/s) = 11.22313 6.33967 6.54856
#
# Compressibility (1/GPa) = 0.02439495
#
# Stress axis : x y z
#
# Youngs Moduli (GPa) = 101.75766 85.84373 58.10248
#
# Poissons Ratio (x) = 0.16667 0.45260
# Poissons Ratio (y) = 0.19757 -0.15019
# Poissons Ratio (z) = 0.79265 -0.22191
#
# Static dielectric constant tensor:
#      x y z
#    x 1.769480 0.000000 0.000000 
#    y 0.000000 1.797920 0.000000 
#    z 0.000000 0.000000 1.739760 
# 
# From -- ./inp_files/5178.got.cif
#   From: 2010.05.17/outbox.cif.g08.bks.cpg/sg25_3_cif.got.tgz:5178.got - 2010.06.04 01:04:00.
