data_PCOD9337894
_publ_section_title
;
Structure prediction by ZEFSAII (Michael W. Deem and Ramdas Pophale) SiO2 
 PCOD9337894
Probable space group: P M C 21
;
_chemical_formula_sum "Si O2"
_cell_formula_units_Z 16
_cell_length_a 5.614365
_cell_length_b 7.389716
_cell_length_c 13.738375
_cell_angle_alpha 90.000000
_cell_angle_beta 90.000000
_cell_angle_gamma 90.000000
_cell_volume 569.985435
_symmetry_space_group_name_H-M "P M C 21"
_symmetry_group_IT_number 26
_symmetry_cell_setting 'orthorhombic'
loop_
_space_group_symop_operation_xyz
x,y,z
-x,-y,1/2+z
-x,y,z
x,-y,1/2+z
loop_
_atom_site_type_symbol
_atom_site_label
_atom_site_fract_x
_atom_site_fract_y
_atom_site_fract_z
Si Si1 0.000000 0.444218 0.001701
Si Si2 0.500000 0.036867 0.653774
Si Si3 0.000000 0.949729 0.899145
Si Si4 0.000000 0.435718 0.290674
Si Si5 0.500000 0.020019 0.421834
Si Si6 0.500000 0.563793 0.960426
Si Si7 0.000000 0.065680 0.112135
Si Si8 0.500000 0.572592 0.252295
O O1 0.000000 0.257427 0.058555
O O2 0.744703 0.539973 0.018691
O O3 0.000000 0.430104 0.883840
O O4 0.500000 0.999139 0.537427
O O5 0.238489 0.957405 0.675270
O O6 0.500000 0.239983 0.694194
O O7 0.000000 0.758512 0.844235
O O8 0.250738 0.046322 0.880935
O O9 0.000000 0.927068 0.018866
O O10 0.753020 0.470872 0.234618
O O11 0.500000 0.238494 0.411409
O O12 0.500000 0.422138 0.871272
#
# Coordination Sequence:
#
# PCOD9337894 Si02
#       8
#     2   2   2   2   2   2   2   2
#     4  10  18  30  49  78  93 124 166 209 248 280
#     4  10  21  32  48  75 108 134 157 205 256 305
#     4  10  16  30  48  75  98 123 156 214 249 277
#     4  10  17  30  53  76  94 122 172 212 238 284
#     4  10  16  30  48  75  98 123 162 209 248 279
#     4  10  17  30  53  76  94 122 176 216 232 281
#     4  10  21  32  48  75 105 129 162 201 259 297
#     4  10  18  30  49  78  96 131 167 206 246 289
#
# _framework density 28.070892000000001
#
# number of rings (size 3 to 8) (size 9 to 14) (size 15 to 20)
#    0.000    2.000    5.000    1.500    0.000    0.000 
#    0.000    0.000    0.000    0.000   39.000    0.000 
#    0.000    0.000    0.000    0.000    0.000    0.000 
#
# Total GULP energy -89483.109394 kJ/mol
# GULP energy per Si atom -5592.694337 kJ/mol
# Density = 2.800700 g / cm^3
# Si number density = 28.070892 Si / 1000 Ang^3
#
#
#
# Elastic Constant Matrix: (Units=GPa)
#
#
# Indices 1 2 3 4 5 6 
#
# 1 366.9007 64.5038 21.9354 0.0000 0.0000 0.0000
# 2 64.5038 120.3532 18.5864 0.0000 0.0000 0.0000
# 3 21.9354 18.5864 146.8975 0.0000 0.0000 0.0000
# 4 0.0000 0.0000 0.0000 60.0050 0.0000 0.0000
# 5 0.0000 0.0000 0.0000 0.0000 -28.8496 0.0000
# 6 0.0000 0.0000 0.0000 0.0000 0.0000 61.7762
#
#
#
# Elastic Compliance Matrix: (Units=1/GPa)
#
#
# Indices 1 2 3 4 5 6 
#
# 1 0.003018 -0.001579 -0.000251 0.000000 0.000000 0.000000
# 2 -0.001579 0.009300 -0.000941 0.000000 0.000000 0.000000
# 3 -0.000251 -0.000941 0.006964 0.000000 0.000000 0.000000
# 4 0.000000 0.000000 0.000000 0.016665 0.000000 0.000000
# 5 0.000000 0.000000 0.000000 0.000000 -0.034662 0.000000
# 6 0.000000 0.000000 0.000000 0.000000 0.000000 0.016187
#
#
# Mechanical properties :
#
#
# Convention : Reuss Voigt Hill
#
# Bulk Modulus (GPa) = 72.77473 93.80029 83.28751
# Shear Modulus (GPa) = 181.19554 53.86137 117.52846
#
# Velocity S-wave (km/s) = 8.04297 4.38512 6.47760
# Velocity P-wave (km/s) = 10.59406 7.68941 9.25638
#
# Compressibility (1/GPa) = 0.01374103
#
# Stress axis : x y z
#
# Youngs Moduli (GPa) = 331.33418 107.52261 143.59571
#
# Poissons Ratio (x) = 0.16976 0.03603
# Poissons Ratio (y) = 0.52312 0.13512
# Poissons Ratio (z) = 0.08314 0.10118
#
# Static dielectric constant tensor:
#      x y z
#    x 2.263090 0.000000 0.000000 
#    y 0.000000 2.093840 0.000000 
#    z 0.000000 0.000000 2.197950 
# 
# From -- ./inp_files/3749.got.cif
#   From: 2010.05.17/outbox.cif.g08.bks.cpg/sg26_2_cif.got.tgz:3749.got - 2010.06.04 01:07:29.
