data_PCOD9337586
_publ_section_title
;
Structure prediction by ZEFSAII (Michael W. Deem and Ramdas Pophale) SiO2 
 PCOD9337586
Probable space group: P M M 2
;
_chemical_formula_sum "Si O2"
_cell_formula_units_Z 28
_cell_length_a 9.197210
_cell_length_b 9.200647
_cell_length_c 18.702712
_cell_angle_alpha 90.000000
_cell_angle_beta 90.000000
_cell_angle_gamma 90.000000
_cell_volume 1582.628775
_symmetry_space_group_name_H-M "P M M 2"
_symmetry_group_IT_number 25
_symmetry_cell_setting 'orthorhombic'
loop_
_space_group_symop_operation_xyz
x,y,z
-x,-y,z
-x,y,z
x,-y,z
loop_
_atom_site_type_symbol
_atom_site_label
_atom_site_fract_x
_atom_site_fract_y
_atom_site_fract_z
Si Si1 0.675209 0.830489 0.909060
Si Si2 0.169597 0.675137 0.038799
Si Si3 0.828509 0.825353 0.606506
Si Si4 0.332262 0.823188 0.750665
Si Si5 0.825262 0.828600 0.341312
Si Si6 0.327152 0.672745 0.473912
Si Si7 0.176880 0.332327 0.197209
O O1 0.500000 0.823847 0.910814
O O2 0.718713 0.776476 0.829615
O O3 0.717383 0.000000 0.915754
O O4 0.742117 0.742160 0.973934
O O5 0.176333 0.500000 0.037003
O O6 0.223608 0.718586 0.118252
O O7 0.000000 0.717213 0.032127
O O8 0.765505 0.780295 0.683725
O O9 0.744037 0.745124 0.543546
O O10 0.000000 0.796348 0.601912
O O11 0.807510 0.000000 0.599372
O O12 0.500000 0.777313 0.739704
O O13 0.333165 0.000000 0.753126
O O14 0.745175 0.744100 0.404307
O O15 0.780189 0.765467 0.264123
O O16 0.000000 0.807798 0.348418
O O17 0.796067 0.000000 0.345877
O O18 0.500000 0.698294 0.473861
O O19 0.301326 0.500000 0.473935
O O20 0.222767 0.500000 0.208186
O O21 0.000000 0.333231 0.194758
#
# Coordination Sequence:
#
# PCOD9337586 Si02
#       7
#     4   4   4   4   4   4   4
#     4   9  18  32  50  74 103 135 173 213 253 301
#     4   9  18  32  50  74 103 135 173 213 253 301
#     4  10  20  34  55  82 106 129 164 209 255 304
#     4   8  15  30  51  73 100 135 171 208 252 300
#     4  10  20  34  55  82 106 129 164 209 255 304
#     4  11  24  39  54  74 102 137 174 207 244 296
#     4   8  15  30  51  73 100 135 171 208 252 300
#
# _framework density 17.692084000000001
#
# number of rings (size 3 to 8) (size 9 to 14) (size 15 to 20)
#    0.000    2.714    0.000    3.429    0.000    6.286 
#    0.000    4.286    0.000    1.714    0.000    0.000 
#    0.000    0.000    0.000    0.000    0.000    0.000 
#
# Total GULP energy -156139.144249 kJ/mol
# GULP energy per Si atom -5576.398009 kJ/mol
# Density = 1.765182 g / cm^3
# Si number density = 17.692084 Si / 1000 Ang^3
#
#
#
# Elastic Constant Matrix: (Units=GPa)
#
#
# Indices 1 2 3 4 5 6 
#
# 1 53.2283 49.4202 73.2821 0.0000 0.0000 0.0000
# 2 49.4202 53.7921 73.6685 0.0000 0.0000 0.0000
# 3 73.2821 73.6685 203.4302 0.0000 0.0000 0.0000
# 4 0.0000 0.0000 0.0000 65.0486 0.0000 0.0000
# 5 0.0000 0.0000 0.0000 0.0000 64.8393 0.0000
# 6 0.0000 0.0000 0.0000 0.0000 0.0000 24.6508
#
#
#
# Elastic Compliance Matrix: (Units=1/GPa)
#
#
# Indices 1 2 3 4 5 6 
#
# 1 0.133001 -0.112242 -0.007265 0.000000 0.000000 0.000000
# 2 -0.112242 0.131604 -0.007225 0.000000 0.000000 0.000000
# 3 -0.007265 -0.007225 0.010149 0.000000 0.000000 0.000000
# 4 0.000000 0.000000 0.000000 0.015373 0.000000 0.000000
# 5 0.000000 0.000000 0.000000 0.000000 0.015423 0.000000
# 6 0.000000 0.000000 0.000000 0.000000 0.000000 0.040567
#
#
# Mechanical properties :
#
#
# Convention : Reuss Voigt Hill
#
# Bulk Modulus (GPa) = 46.96899 78.13246 62.55073
# Shear Modulus (GPa) = 8.24164 38.51307 23.37735
#
# Velocity S-wave (km/s) = 2.16067 4.67074 3.63898
# Velocity P-wave (km/s) = 5.72977 8.56423 7.28616
#
# Compressibility (1/GPa) = 0.02129064
#
# Stress axis : x y z
#
# Youngs Moduli (GPa) = 7.51877 7.59855 98.53171
#
# Poissons Ratio (x) = 0.85288 0.71581
# Poissons Ratio (y) = 0.84392 0.71187
# Poissons Ratio (z) = 0.05462 0.05490
#
# Static dielectric constant tensor:
#      x y z
#    x 1.585420 0.000000 0.000000 
#    y 0.000000 1.585370 0.000000 
#    z 0.000000 0.000000 1.602770 
# 
# From -- ./inp_files/6037.got.cif
#   From: 2010.05.17/outbox.cif.g08.bks.cpg/sg25_4_cif.got.tgz:6037.got - 2010.06.04 01:04:00.
