data_PCOD9337022
_publ_section_title
;
Structure prediction by ZEFSAII (Michael W. Deem and Ramdas Pophale) SiO2 
 PCOD9337022
Probable space group: I 21 21 21
;
_chemical_formula_sum "Si O2"
_cell_formula_units_Z 40
_cell_length_a 7.311454
_cell_length_b 11.315684
_cell_length_c 19.426731
_cell_angle_alpha 90.000000
_cell_angle_beta 90.000000
_cell_angle_gamma 90.000000
_cell_volume 1607.253164
_symmetry_space_group_name_H-M "I 21 21 21"
_symmetry_group_IT_number 24
_symmetry_cell_setting 'orthorhombic'
loop_
_space_group_symop_operation_xyz
x,y,z
-x,1/2-y,z
x,-y,1/2-z
1/2-x,y,-z
1/2+x,1/2+y,1/2+z
1/2-x,-y,1/2+z
1/2+x,1/2-y,-z
-x,1/2+y,1/2-z
loop_
_atom_site_type_symbol
_atom_site_label
_atom_site_fract_x
_atom_site_fract_y
_atom_site_fract_z
Si Si1 0.717949 0.009513 0.080550
Si Si2 0.217561 0.750000 0.917688
Si Si3 0.217949 0.009513 0.919450
Si Si4 0.222759 0.122145 0.784601
Si Si5 0.722759 0.877855 0.284601
O O1 0.500000 0.001738 0.087466
O O2 0.776414 0.106634 0.135331
O O3 0.789101 0.879114 0.102534
O O4 0.750000 0.031840 0.000000
O O5 0.000000 0.750000 0.902640
O O6 0.289101 0.879114 0.897467
O O7 0.250000 0.750000 0.000000
O O8 0.276414 0.106633 0.864669
O O9 0.250000 0.031840 0.000000
O O10 0.283709 0.250000 0.757451
O O11 1.000000 0.123271 0.779136
O O12 0.282744 0.000000 0.750000
O O13 0.782744 0.000000 0.250000
#
# Coordination Sequence:
#
# PCOD9337022 Si02
#       5
#     8   8   8   8   8
#     4   9  17  29  47  71  97 124 158 197 239 284
#     4   8  14  24  40  64  92 120 149 184 228 276
#     4   9  17  29  47  71  97 124 158 197 239 284
#     4   9  18  30  46  69  96 126 160 198 240 285
#     4   9  18  30  46  69  96 126 160 198 240 285
#
# _framework density 24.887180000000001
#
# number of rings (size 3 to 8) (size 9 to 14) (size 15 to 20)
#    0.000    3.200    0.000    0.000    2.800    0.800 
#    0.000    0.000    0.000    1.200    0.000    0.000 
#    0.000    0.000    0.000    0.000    0.000    0.000 
#
# Total GULP energy -111570.981935 kJ/mol
# GULP energy per Si atom -5578.549097 kJ/mol
# Density = 2.483054 g / cm^3
# Si number density = 24.887180 Si / 1000 Ang^3
#
#
#
# Elastic Constant Matrix: (Units=GPa)
#
#
# Indices 1 2 3 4 5 6 
#
# 1 99.1713 4.2952 -8.0788 0.0000 0.0000 0.0000
# 2 4.2952 211.4603 77.4446 0.0000 0.0000 0.0000
# 3 -8.0788 77.4446 100.9355 0.0000 0.0000 0.0000
# 4 0.0000 0.0000 0.0000 39.3889 0.0000 0.0000
# 5 0.0000 0.0000 0.0000 0.0000 5.9298 0.0000
# 6 0.0000 0.0000 0.0000 0.0000 0.0000 -2.3493
#
#
#
# Elastic Compliance Matrix: (Units=1/GPa)
#
#
# Indices 1 2 3 4 5 6 
#
# 1 0.010225 -0.000706 0.001360 0.000000 0.000000 0.000000
# 2 -0.000706 0.006626 -0.005140 0.000000 0.000000 0.000000
# 3 0.001360 -0.005140 0.013960 0.000000 0.000000 0.000000
# 4 0.000000 0.000000 0.000000 0.025388 0.000000 0.000000
# 5 0.000000 0.000000 0.000000 0.000000 0.168640 0.000000
# 6 0.000000 0.000000 0.000000 0.000000 0.000000 -0.425662
#
#
# Mechanical properties :
#
#
# Convention : Reuss Voigt Hill
#
# Bulk Modulus (GPa) = 45.79045 62.09881 53.94463
# Shear Modulus (GPa) = -27.08975 31.12095 2.01560
#
# Velocity S-wave (km/s) = -3.30282 3.54005 0.90092
# Velocity P-wave (km/s) = 1.97339 6.45876 4.77545
#
# Compressibility (1/GPa) = 0.02183862
#
# Stress axis : x y z
#
# Youngs Moduli (GPa) = 97.80035 150.92181 71.63223
#
# Poissons Ratio (x) = 0.10651 -0.09741
# Poissons Ratio (y) = 0.06902 0.36822
# Poissons Ratio (z) = -0.13300 0.77579
#
# Static dielectric constant tensor:
#      x y z
#    x 1.898920 0.000000 0.000000 
#    y 0.000000 1.966520 0.000000 
#    z 0.000000 0.000000 1.980190 
# 
# From -- ./inp_files/14980.got.cif
#   From: 2010.05.17/outbox.cif.g08.bks.cpg/sg24_8_cif.got.tgz:14980.got - 2010.06.04 00:33:39.
