data_PCOD9337458
_publ_section_title
;
Structure prediction by ZEFSAII (Michael W. Deem and Ramdas Pophale) SiO2 
 PCOD9337458
Probable space group: P M M 2
;
_chemical_formula_sum "Si O2"
_cell_formula_units_Z 28
_cell_length_a 7.493361
_cell_length_b 9.589051
_cell_length_c 18.911975
_cell_angle_alpha 90.000000
_cell_angle_beta 90.000000
_cell_angle_gamma 90.000000
_cell_volume 1358.905227
_symmetry_space_group_name_H-M "P M M 2"
_symmetry_group_IT_number 25
_symmetry_cell_setting 'orthorhombic'
loop_
_space_group_symop_operation_xyz
x,y,z
-x,-y,z
-x,y,z
x,-y,z
loop_
_atom_site_type_symbol
_atom_site_label
_atom_site_fract_x
_atom_site_fract_y
_atom_site_fract_z
Si Si1 0.785544 0.838173 0.588810
Si Si2 0.708990 0.840613 0.744427
Si Si3 0.790840 0.343193 0.878128
Si Si4 0.217550 0.661278 0.301688
Si Si5 0.217455 0.661266 0.143645
Si Si6 0.218804 0.160320 0.009262
Si Si7 0.217826 0.162591 0.435146
O O1 0.732579 0.781125 0.665104
O O2 0.725812 0.780940 0.512611
O O3 0.000000 0.837450 0.587795
O O4 0.725543 0.000000 0.589837
O O5 0.500000 0.852076 0.757422
O O6 0.779879 0.739682 0.804684
O O7 0.784372 0.000000 0.747285
O O8 0.715624 0.500000 0.874202
O O9 0.717840 0.248306 0.941576
O O10 0.000000 0.357630 0.894363
O O11 0.268182 0.500000 0.311054
O O12 0.273661 0.704939 0.222718
O O13 0.280782 0.752989 0.367210
O O14 0.000000 0.666213 0.302121
O O15 0.271454 0.500000 0.131989
O O16 0.000000 0.661376 0.143369
O O17 0.275324 0.761745 0.080874
O O18 0.000000 0.158860 0.008885
O O19 0.276229 0.000000 0.006125
O O20 0.000000 0.166463 0.434465
O O21 0.268061 0.000000 0.430376
#
# Coordination Sequence:
#
# PCOD9337458 Si02
#       7
#     4   4   4   4   4   4   4
#     4   8  14  26  44  64  87 116 148 183 224 268
#     4  10  20  33  50  71  93 118 150 189 233 279
#     4  10  20  33  49  68  91 121 155 189 228 275
#     4   8  13  20  30  47  75 110 142 173 213 258
#     4   8  13  21  32  48  76 113 145 172 211 264
#     4   9  16  25  39  60  84 111 146 186 223 261
#     4   8  13  21  34  52  74 104 142 178 212 255
#
# _framework density 20.604821000000001
#
# number of rings (size 3 to 8) (size 9 to 14) (size 15 to 20)
#    0.000    3.286    0.000    3.000    0.000    4.000 
#    0.000    3.571    0.000    2.571    0.000    0.000 
#    0.000    1.143    0.000   10.571    0.000   12.857 
#
# Total GULP energy -156076.404873 kJ/mol
# GULP energy per Si atom -5574.157317 kJ/mol
# Density = 2.055792 g / cm^3
# Si number density = 20.604821 Si / 1000 Ang^3
#
#
#
# Elastic Constant Matrix: (Units=GPa)
#
#
# Indices 1 2 3 4 5 6 
#
# 1 52.8089 4.9638 -0.2884 0.0000 0.0000 0.0000
# 2 4.9638 118.8342 120.0604 0.0000 0.0000 0.0000
# 3 -0.2884 120.0604 224.7852 0.0000 0.0000 0.0000
# 4 0.0000 0.0000 0.0000 -286.0920 0.0000 0.0000
# 5 0.0000 0.0000 0.0000 0.0000 -39.3008 0.0000
# 6 0.0000 0.0000 0.0000 0.0000 0.0000 -5.3154
#
#
#
# Elastic Compliance Matrix: (Units=1/GPa)
#
#
# Indices 1 2 3 4 5 6 
#
# 1 0.019110 -0.001788 0.000979 0.000000 0.000000 0.000000
# 2 -0.001788 0.018446 -0.009854 0.000000 0.000000 0.000000
# 3 0.000979 -0.009854 0.009713 0.000000 0.000000 0.000000
# 4 0.000000 0.000000 0.000000 -0.003495 0.000000 0.000000
# 5 0.000000 0.000000 0.000000 0.000000 -0.025445 0.000000
# 6 0.000000 0.000000 0.000000 0.000000 0.000000 -0.188133
#
#
# Mechanical properties :
#
#
# Convention : Reuss Voigt Hill
#
# Bulk Modulus (GPa) = 38.54567 71.76665 55.15616
# Shear Modulus (GPa) = -35.75741 -48.02881 -41.89311
#
# Velocity S-wave (km/s) = -4.17032 -4.83323 -4.51396
# Velocity P-wave (km/s) = 2.10738 1.93877 0.58404
#
# Compressibility (1/GPa) = 0.02594325
#
# Stress axis : x y z
#
# Youngs Moduli (GPa) = 52.32976 54.21252 102.95121
#
# Poissons Ratio (x) = 0.09691 -0.10082
# Poissons Ratio (y) = 0.09355 1.01453
# Poissons Ratio (z) = -0.05125 0.53424
#
# Static dielectric constant tensor:
#      x y z
#    x 1.775480 0.000000 0.000000 
#    y 0.000000 1.716590 0.000000 
#    z 0.000000 0.000000 1.739450 
# 
# From -- ./inp_files/6330.got.cif
#   From: 2010.05.17/outbox.cif.g08.bks.cpg/sg25_4_cif.got.tgz:6330.got - 2010.06.04 01:04:00.
