data_PCOD9337912
_publ_section_title
;
Structure prediction by ZEFSAII (Michael W. Deem and Ramdas Pophale) SiO2 
 PCOD9337912
Probable space group: P M C 21
;
_chemical_formula_sum "Si O2"
_cell_formula_units_Z 32
_cell_length_a 7.457127
_cell_length_b 10.880165
_cell_length_c 14.551385
_cell_angle_alpha 90.000000
_cell_angle_beta 90.000000
_cell_angle_gamma 90.000000
_cell_volume 1180.623307
_symmetry_space_group_name_H-M "P M C 21"
_symmetry_group_IT_number 26
_symmetry_cell_setting 'orthorhombic'
loop_
_space_group_symop_operation_xyz
x,y,z
-x,-y,1/2+z
-x,y,z
x,-y,1/2+z
loop_
_atom_site_type_symbol
_atom_site_label
_atom_site_fract_x
_atom_site_fract_y
_atom_site_fract_z
Si Si1 0.781562 0.421280 0.167310
Si Si2 0.719383 0.937943 0.711370
Si Si3 0.782904 0.291872 0.997564
Si Si4 0.285867 0.197875 0.383542
Si Si5 0.711003 0.972827 0.505713
Si Si6 0.203840 0.452657 0.839665
Si Si7 0.212204 0.665954 0.057405
Si Si8 0.294459 0.208985 0.735815
O O1 0.720277 0.310597 0.102597
O O2 0.712815 0.448779 0.269558
O O3 0.730854 0.539351 0.105052
O O4 0.000000 0.418607 0.173513
O O5 0.500000 0.934467 0.707303
O O6 0.781911 0.829919 0.780333
O O7 0.788417 0.948695 0.607325
O O8 0.768059 0.071039 0.754468
O O9 0.729974 0.160321 0.959306
O O10 0.000000 0.299449 0.996938
O O11 0.714297 0.401436 0.932977
O O12 0.500000 0.188644 0.376714
O O13 0.251946 0.313341 0.450177
O O14 0.215212 0.083982 0.445850
O O15 0.500000 0.997743 0.515683
O O16 0.195563 0.325304 0.779845
O O17 0.000000 0.492151 0.859447
O O18 0.289535 0.770414 0.124937
O O19 0.000000 0.671722 0.066597
O O20 0.500000 0.219988 0.765324
#
# Coordination Sequence:
#
# PCOD9337912 Si02
#       8
#     4   4   4   4   4   4   4   4
#     4   8  17  35  54  74 102 138 175 217 268 316
#     4   9  18  32  51  75 104 141 177 208 260 323
#     4  10  20  36  56  78 105 141 183 221 269 325
#     4  10  19  34  55  77 105 143 179 213 262 325
#     4  10  20  36  54  77 111 143 175 220 269 318
#     4   9  18  33  54  79 105 137 178 229 272 308
#     4  10  19  33  53  78 106 134 174 225 268 308
#     4  10  17  31  55  78 102 139 181 217 258 317
#
# _framework density 27.104324999999999
#
# number of rings (size 3 to 8) (size 9 to 14) (size 15 to 20)
#    0.000    2.500    1.250    2.250    0.000    2.000 
#    2.250    5.000    0.000    0.000    0.000    0.000 
#    0.000    0.000    0.000    0.000    0.000    0.000 
#
# Total GULP energy -178946.412754 kJ/mol
# GULP energy per Si atom -5592.075399 kJ/mol
# Density = 2.704263 g / cm^3
# Si number density = 27.104325 Si / 1000 Ang^3
#
#
#
# Elastic Constant Matrix: (Units=GPa)
#
#
# Indices 1 2 3 4 5 6 
#
# 1 93.0876 -6.1826 6.0474 0.0000 0.0000 0.0000
# 2 -6.1826 77.5065 8.6707 0.0000 0.0000 0.0000
# 3 6.0474 8.6707 161.9820 0.0000 0.0000 0.0000
# 4 0.0000 0.0000 0.0000 53.6216 0.0000 0.0000
# 5 0.0000 0.0000 0.0000 0.0000 15.2827 0.0000
# 6 0.0000 0.0000 0.0000 0.0000 0.0000 18.3238
#
#
#
# Elastic Compliance Matrix: (Units=1/GPa)
#
#
# Indices 1 2 3 4 5 6 
#
# 1 0.010833 0.000915 -0.000453 0.000000 0.000000 0.000000
# 2 0.000915 0.013057 -0.000733 0.000000 0.000000 0.000000
# 3 -0.000453 -0.000733 0.006230 0.000000 0.000000 0.000000
# 4 0.000000 0.000000 0.000000 0.018649 0.000000 0.000000
# 5 0.000000 0.000000 0.000000 0.000000 0.065434 0.000000
# 6 0.000000 0.000000 0.000000 0.000000 0.000000 0.054574
#
#
# Mechanical properties :
#
#
# Convention : Reuss Voigt Hill
#
# Bulk Modulus (GPa) = 33.81084 38.84968 36.33026
# Shear Modulus (GPa) = 27.90516 39.04832 33.47674
#
# Velocity S-wave (km/s) = 3.21214 3.79973 3.51822
# Velocity P-wave (km/s) = 5.12430 5.79785 5.47145
#
# Compressibility (1/GPa) = 0.02957631
#
# Stress axis : x y z
#
# Youngs Moduli (GPa) = 92.31238 76.58652 160.52156
#
# Poissons Ratio (x) = -0.07006 0.07278
# Poissons Ratio (y) = -0.08445 0.11768
# Poissons Ratio (z) = 0.04185 0.05614
#
# Static dielectric constant tensor:
#      x y z
#    x 1.991370 0.000000 0.000000 
#    y 0.000000 2.131660 0.000000 
#    z 0.000000 0.000000 2.182390 
# 
# From -- ./inp_files/4261.got.cif
#   From: 2010.05.17/outbox.cif.g08.bks.cpg/sg26_3_cif.got.tgz:4261.got - 2010.06.04 01:07:29.
