data_PCOD9337680
_publ_section_title
;
Structure prediction by ZEFSAII (Michael W. Deem and Ramdas Pophale) SiO2 
 PCOD9337680
Probable space group: P M M 2
;
_chemical_formula_sum "Si O2"
_cell_formula_units_Z 32
_cell_length_a 15.167625
_cell_length_b 7.602303
_cell_length_c 12.877731
_cell_angle_alpha 90.000000
_cell_angle_beta 90.000000
_cell_angle_gamma 90.000000
_cell_volume 1484.916752
_symmetry_space_group_name_H-M "P M M 2"
_symmetry_group_IT_number 25
_symmetry_cell_setting 'orthorhombic'
loop_
_space_group_symop_operation_xyz
x,y,z
-x,-y,z
-x,y,z
x,-y,z
loop_
_atom_site_type_symbol
_atom_site_label
_atom_site_fract_x
_atom_site_fract_y
_atom_site_fract_z
Si Si1 0.398739 0.716099 0.598950
Si Si2 0.755690 0.793585 0.205683
Si Si3 0.896027 0.210794 0.816132
Si Si4 0.102678 0.784627 0.042863
Si Si5 0.749819 0.708348 0.445699
Si Si6 0.398898 0.287031 0.050136
Si Si7 0.607642 0.296745 0.825041
Si Si8 0.099247 0.292130 0.590180
O O1 0.500000 0.769819 0.583718
O O2 0.399351 0.500000 0.602943
O O3 0.335838 0.776128 0.506602
O O4 0.367168 0.778690 0.713155
O O5 0.835236 0.719770 0.135117
O O6 0.749595 0.728722 0.322830
O O7 0.666526 0.764048 0.141163
O O8 0.771553 0.000000 0.213763
O O9 0.860427 0.273901 0.705898
O O10 0.000000 0.259884 0.815792
O O11 0.890444 0.000000 0.814768
O O12 0.862859 0.272240 0.928610
O O13 0.000000 0.733911 0.054454
O O14 0.103914 0.000000 0.042278
O O15 0.750027 0.500000 0.466122
O O16 0.836433 0.782073 0.502762
O O17 0.500000 0.229620 0.067373
O O18 0.400381 0.500000 0.043990
O O19 0.367311 0.219040 0.936729
O O20 0.500000 0.297368 0.825455
O O21 0.637093 0.500000 0.825177
O O22 0.090475 0.500000 0.571860
O O23 0.000000 0.216123 0.589241
#
# Coordination Sequence:
#
# PCOD9337680 Si02
#       8
#     4   4   4   4   4   4   4   4
#     4   8  14  27  49  74  96 119 153 199 243 282
#     4  11  23  36  51  73 100 132 174 221 258 290
#     4   8  14  28  52  77  98 124 161 201 243 302
#     4   8  16  33  54  74  99 132 168 208 257 310
#     4  10  21  35  49  68  96 132 172 206 242 296
#     4   9  18  34  56  79 104 134 164 198 246 306
#     4   7  11  23  46  75  99 118 150 195 237 283
#     4   9  18  32  49  72 104 134 158 197 254 305
#
# _framework density 21.55003
#
# number of rings (size 3 to 8) (size 9 to 14) (size 15 to 20)
#    0.000    3.250    0.000    2.625    0.000    2.750 
#    0.000    3.750    0.000    3.375    0.000    1.750 
#    0.000    0.000    0.000    0.000    0.000    0.000 
#
# Total GULP energy -178424.534777 kJ/mol
# GULP energy per Si atom -5575.766712 kJ/mol
# Density = 2.150098 g / cm^3
# Si number density = 21.550030 Si / 1000 Ang^3
#
#
#
# Elastic Constant Matrix: (Units=GPa)
#
#
# Indices 1 2 3 4 5 6 
#
# 1 103.4671 -2.2259 93.3987 0.0000 0.0000 0.0000
# 2 -2.2259 38.3910 -5.5889 0.0000 0.0000 0.0000
# 3 93.3987 -5.5889 211.5323 0.0000 0.0000 0.0000
# 4 0.0000 0.0000 0.0000 21.4909 0.0000 0.0000
# 5 0.0000 0.0000 0.0000 0.0000 36.6968 0.0000
# 6 0.0000 0.0000 0.0000 0.0000 0.0000 -22.2913
#
#
#
# Elastic Compliance Matrix: (Units=1/GPa)
#
#
# Indices 1 2 3 4 5 6 
#
# 1 0.016070 -0.000102 -0.007098 0.000000 0.000000 0.000000
# 2 -0.000102 0.026149 0.000736 0.000000 0.000000 0.000000
# 3 -0.007098 0.000736 0.007881 0.000000 0.000000 0.000000
# 4 0.000000 0.000000 0.000000 0.046531 0.000000 0.000000
# 5 0.000000 0.000000 0.000000 0.000000 0.027250 0.000000
# 6 0.000000 0.000000 0.000000 0.000000 0.000000 -0.044860
#
#
# Mechanical properties :
#
#
# Convention : Reuss Voigt Hill
#
# Bulk Modulus (GPa) = 26.90200 58.28427 42.59313
# Shear Modulus (GPa) = 47.92010 25.03302 36.47656
#
# Velocity S-wave (km/s) = 4.72069 3.41196 4.11864
# Velocity P-wave (km/s) = 6.49799 6.52891 6.51347
#
# Compressibility (1/GPa) = 0.03717196
#
# Stress axis : x y z
#
# Youngs Moduli (GPa) = 62.22683 38.24241 126.88798
#
# Poissons Ratio (x) = 0.00389 0.90068
# Poissons Ratio (y) = 0.00632 -0.09336
# Poissons Ratio (z) = 0.44170 -0.02814
#
# Static dielectric constant tensor:
#      x y z
#    x 1.800550 0.000000 0.000000 
#    y 0.000000 1.815040 0.000000 
#    z 0.000000 0.000000 1.791260 
# 
# From -- ./inp_files/4925.got.cif
#   From: 2010.05.17/outbox.cif.g08.bks.cpg/sg25_3_cif.got.tgz:4925.got - 2010.06.04 01:04:00.
