data_PCOD9337341
_publ_section_title
;
Structure prediction by ZEFSAII (Michael W. Deem and Ramdas Pophale) SiO2 
 PCOD9337341
Probable space group: P M M 2
;
_chemical_formula_sum "Si O2"
_cell_formula_units_Z 32
_cell_length_a 16.373885
_cell_length_b 17.568740
_cell_length_c 5.306293
_cell_angle_alpha 90.000000
_cell_angle_beta 90.000000
_cell_angle_gamma 90.000000
_cell_volume 1526.453498
_symmetry_space_group_name_H-M "P M M 2"
_symmetry_group_IT_number 25
_symmetry_cell_setting 'orthorhombic'
loop_
_space_group_symop_operation_xyz
x,y,z
-x,-y,z
-x,y,z
x,-y,z
loop_
_atom_site_type_symbol
_atom_site_label
_atom_site_fract_x
_atom_site_fract_y
_atom_site_fract_z
Si Si1 0.820918 0.413812 0.031470
Si Si2 0.134597 0.744698 0.854624
Si Si3 0.408092 0.699410 0.320324
Si Si4 0.090486 0.167406 0.370872
Si Si5 0.310892 0.215336 0.961194
Si Si6 0.286391 0.414452 0.529576
Si Si7 0.251039 0.084185 0.328108
Si Si8 0.589878 0.864606 0.580418
O O1 0.856356 0.500000 0.043480
O O2 0.875857 0.342047 0.948333
O O3 0.779356 0.398038 0.304628
O O4 0.755844 0.415643 0.801500
O O5 0.106353 0.795700 0.094174
O O6 0.232274 0.759100 0.801141
O O7 0.094349 0.769630 0.593184
O O8 0.500000 0.674423 0.267352
O O9 0.349367 0.710110 0.083112
O O10 0.360213 0.644574 0.507322
O O11 0.411211 0.786048 0.422102
O O12 0.162675 0.107439 0.435129
O O13 0.000000 0.133200 0.370681
O O14 0.270897 0.153644 0.144732
O O15 0.387242 0.169391 0.849842
O O16 0.316730 0.500000 0.475259
O O17 0.330583 0.086977 0.508244
O O18 0.246755 0.000000 0.213943
O O19 0.500000 0.900065 0.565470
#
# Coordination Sequence:
#
# PCOD9337341 Si02
#       8
#     4   4   4   4   4   4   4   4
#     4  10  20  34  58  88 118 155 201 250 305 361
#     4  11  20  38  67  90 123 158 204 253 300 361
#     4  10  20  32  51  78 114 160 207 259 310 358
#     4  11  24  42  66  96 123 159 202 251 307 368
#     4  10  19  35  58  84 113 157 204 252 305 361
#     4  10  20  33  50  79 119 160 206 256 305 359
#     4  10  23  40  59  87 121 158 199 248 309 372
#     4  10  20  36  58  86 118 156 206 256 301 358
#
# _framework density 20.963626000000001
#
# number of rings (size 3 to 8) (size 9 to 14) (size 15 to 20)
#    0.000    1.750    2.500    2.250    1.750    1.750 
#    0.000    0.000    0.000    6.000    0.000    0.000 
#    0.000    0.000    0.000    0.000    0.000    0.000 
#
# Total GULP energy -178222.009917 kJ/mol
# GULP energy per Si atom -5569.437810 kJ/mol
# Density = 2.091591 g / cm^3
# Si number density = 20.963626 Si / 1000 Ang^3
#
#
#
# Elastic Constant Matrix: (Units=GPa)
#
#
# Indices 1 2 3 4 5 6 
#
# 1 124.8135 10.7502 15.4301 0.0000 0.0000 0.0000
# 2 10.7502 33.9469 -5.3801 0.0000 0.0000 0.0000
# 3 15.4301 -5.3801 67.8738 0.0000 0.0000 0.0000
# 4 0.0000 0.0000 0.0000 -6.8690 0.0000 0.0000
# 5 0.0000 0.0000 0.0000 0.0000 16.4066 0.0000
# 6 0.0000 0.0000 0.0000 0.0000 0.0000 -15.8664
#
#
#
# Elastic Compliance Matrix: (Units=1/GPa)
#
#
# Indices 1 2 3 4 5 6 
#
# 1 0.008545 -0.003052 -0.002184 0.000000 0.000000 0.000000
# 2 -0.003052 0.030923 0.003145 0.000000 0.000000 0.000000
# 3 -0.002184 0.003145 0.015479 0.000000 0.000000 0.000000
# 4 0.000000 0.000000 0.000000 -0.145582 0.000000 0.000000
# 5 0.000000 0.000000 0.000000 0.000000 0.060951 0.000000
# 6 0.000000 0.000000 0.000000 0.000000 0.000000 -0.063026
#
#
# Mechanical properties :
#
#
# Convention : Reuss Voigt Hill
#
# Bulk Modulus (GPa) = 19.69923 29.80385 24.75154
# Shear Modulus (GPa) = -69.82699 12.45651 -28.68524
#
# Velocity S-wave (km/s) = -5.77763 2.44026 -3.70311
# Velocity P-wave (km/s) = 5.92374 4.71037 2.53999
#
# Compressibility (1/GPa) = 0.05076341
#
# Stress axis : x y z
#
# Youngs Moduli (GPa) = 117.02893 32.33862 64.60316
#
# Poissons Ratio (x) = 0.09870 0.14112
# Poissons Ratio (y) = 0.35719 -0.20318
# Poissons Ratio (z) = 0.25565 -0.10170
#
# Static dielectric constant tensor:
#      x y z
#    x 1.783720 0.000000 0.000000 
#    y 0.000000 1.777260 0.000000 
#    z 0.000000 0.000000 1.837800 
# 
# From -- ./inp_files/972.got.cif
#   From: 2010.05.17/outbox.cif.g08.bks.cpg/sg25_1_cif.got.tgz:972.got - 2010.06.04 01:04:00.
