data_PCOD9337064
_publ_section_title
;
Structure prediction by ZEFSAII (Michael W. Deem and Ramdas Pophale) SiO2 
 PCOD9337064
Probable space group: I 21 21 21
;
_chemical_formula_sum "Si O2"
_cell_formula_units_Z 32
_cell_length_a 18.000000
_cell_length_b 21.000000
_cell_length_c 9.000000
_cell_angle_alpha 90.000000
_cell_angle_beta 90.000000
_cell_angle_gamma 90.000000
_cell_volume 3402.000000
_symmetry_space_group_name_H-M "I 21 21 21"
_symmetry_group_IT_number 24
_symmetry_cell_setting 'orthorhombic'
loop_
_space_group_symop_operation_xyz
x,y,z
-x,1/2-y,z
x,-y,1/2-z
1/2-x,y,-z
1/2+x,1/2+y,1/2+z
1/2-x,-y,1/2+z
1/2+x,1/2-y,-z
-x,1/2+y,1/2-z
loop_
_atom_site_type_symbol
_atom_site_label
_atom_site_fract_x
_atom_site_fract_y
_atom_site_fract_z
Si Si1 0.826782 0.996891 0.431918
Si Si2 0.559123 0.576211 0.777972
Si Si3 0.537893 0.318267 0.285220
Si Si4 0.336906 0.838440 0.965970
Si Si5 0.438957 0.402348 0.466290
Si Si6 0.324771 0.695346 0.903824
Si Si7 0.997030 0.819722 0.452173
Si Si8 0.673150 0.152033 0.932687
O O1 0.750000 0.023154 0.500000
O O2 0.828964 0.922689 0.467208
O O3 0.832543 0.000000 0.250000
O O4 0.889249 0.034873 0.522355
O O5 0.566413 0.500000 0.750000
O O6 0.631172 0.608100 0.854923
O O7 0.497098 0.586614 0.902703
O O8 0.529335 0.621008 0.642642
O O9 0.500000 0.250000 0.328524
O O10 0.611859 0.330523 0.384658
O O11 0.483936 0.377836 0.324413
O O12 0.542608 0.316060 0.106761
O O13 0.343520 0.769557 0.887811
O O14 0.250000 0.849325 0.000000
O O15 0.386865 0.343359 0.509011
O O16 0.319743 0.663374 0.743201
O O17 0.250000 0.691366 0.000000
O O18 0.908444 0.825638 0.483154
O O19 0.000000 0.750000 0.374013
O O20 0.750000 0.179327 0.000000
#
# Coordination Sequence:
#
# PCOD9337064 Si02
#       8
#     8   8   8   8   8   8   8   8
#     4  11  22  35  51  79 121 166 207 242 290 361
#     4  11  23  42  67  90 123 168 213 257 322 393
#     4  10  22  38  62  94 123 155 204 264 319 377
#     4  10  23  43  66  93 120 157 213 269 322 391
#     4  11  20  35  60  83 122 161 215 249 298 373
#     4  11  21  34  62  88 121 164 212 252 313 373
#     4  11  23  40  64  93 128 161 205 264 326 373
#     4  11  24  37  54  87 131 168 206 255 306 373
#
# _framework density 9.4062319999999993
#
# number of rings (size 3 to 8) (size 9 to 14) (size 15 to 20)
#    0.000    1.250    3.750    2.250    1.750    2.000 
#    0.000    6.875    0.000    0.000    0.000    0.000 
#    0.000    0.000    0.000    0.000    0.000    0.000 
#
# Total GULP energy -178426.643327 kJ/mol
# GULP energy per Si atom -5575.832604 kJ/mol
# Density = 0.938482 g / cm^3
# Si number density = 9.406232 Si / 1000 Ang^3
#
#
#
# Elastic Constant Matrix: (Units=GPa)
#
#
# Indices 1 2 3 4 5 6 
#
# 1 105.0186 39.3150 16.3246 0.0000 0.0000 0.0000
# 2 39.3150 129.4325 21.4596 0.0000 0.0000 0.0000
# 3 16.3246 21.4596 53.2679 0.0000 0.0000 0.0000
# 4 0.0000 0.0000 0.0000 19.7967 0.0000 0.0000
# 5 0.0000 0.0000 0.0000 0.0000 19.5417 0.0000
# 6 0.0000 0.0000 0.0000 0.0000 0.0000 34.6746
#
#
#
# Elastic Compliance Matrix: (Units=1/GPa)
#
#
# Indices 1 2 3 4 5 6 
#
# 1 0.010972 -0.002974 -0.002164 0.000000 0.000000 0.000000
# 2 -0.002974 0.009085 -0.002749 0.000000 0.000000 0.000000
# 3 -0.002164 -0.002749 0.020544 0.000000 0.000000 0.000000
# 4 0.000000 0.000000 0.000000 0.050514 0.000000 0.000000
# 5 0.000000 0.000000 0.000000 0.000000 0.051173 0.000000
# 6 0.000000 0.000000 0.000000 0.000000 0.000000 0.028840
#
#
# Mechanical properties :
#
#
# Convention : Reuss Voigt Hill
#
# Bulk Modulus (GPa) = 40.27908 49.10192 44.69050
# Shear Modulus (GPa) = 25.61794 28.84391 27.23093
#
# Velocity S-wave (km/s) = 3.69420 3.91990 3.80872
# Velocity P-wave (km/s) = 6.29710 6.82971 6.56880
#
# Compressibility (1/GPa) = 0.02482678
#
# Stress axis : x y z
#
# Youngs Moduli (GPa) = 91.14226 110.07092 48.67678
#
# Poissons Ratio (x) = 0.32733 0.10536
# Poissons Ratio (y) = 0.27104 0.13380
# Poissons Ratio (z) = 0.19727 0.30255
#
# Static dielectric constant tensor:
#      x y z
#    x 1.707520 0.000000 0.000000 
#    y 0.000000 1.671080 0.000000 
#    z 0.000000 0.000000 1.650720 
# 
# From -- ./inp_files/14614.got.cif
#   From: 2010.05.17/outbox.ucp.g08.bks.cvg/sg24_8_cif.got.tgz:14614.got - 2010.06.11 15:20:44.
