data_PCOD9337361
_publ_section_title
;
Structure prediction by ZEFSAII (Michael W. Deem and Ramdas Pophale) SiO2 
 PCOD9337361
Probable space group: P M M 2
;
_chemical_formula_sum "Si O2"
_cell_formula_units_Z 32
_cell_length_a 7.440533
_cell_length_b 9.870561
_cell_length_c 21.497343
_cell_angle_alpha 90.000000
_cell_angle_beta 90.000000
_cell_angle_gamma 90.000000
_cell_volume 1578.812913
_symmetry_space_group_name_H-M "P M M 2"
_symmetry_group_IT_number 25
_symmetry_cell_setting 'orthorhombic'
loop_
_space_group_symop_operation_xyz
x,y,z
-x,-y,z
-x,y,z
x,-y,z
loop_
_atom_site_type_symbol
_atom_site_label
_atom_site_fract_x
_atom_site_fract_y
_atom_site_fract_z
Si Si1 0.208095 0.164657 0.304170
Si Si2 0.779517 0.156781 0.168464
Si Si3 0.284857 0.346044 0.917542
Si Si4 0.716192 0.846091 0.666909
Si Si5 0.779445 0.843187 0.440693
Si Si6 0.785159 0.654314 0.056773
Si Si7 0.280711 0.844707 0.807274
Si Si8 0.787103 0.346891 0.551923
O O1 0.283025 0.205039 0.236946
O O2 0.283056 0.201426 0.371754
O O3 0.000000 0.208858 0.304542
O O4 0.209466 0.000000 0.303461
O O5 0.718465 0.250260 0.111918
O O6 0.000000 0.157940 0.169977
O O7 0.727113 0.000000 0.159643
O O8 0.500000 0.352515 0.910894
O O9 0.214797 0.500000 0.914356
O O10 0.216553 0.253687 0.861556
O O11 0.249548 0.293204 0.987086
O O12 0.500000 0.851544 0.668413
O O13 0.776274 0.809771 0.736910
O O14 0.765266 0.737376 0.615242
O O15 0.779032 0.000000 0.652249
O O16 0.716647 0.744180 0.495012
O O17 0.000000 0.843512 0.439531
O O18 0.726754 0.000000 0.451727
O O19 0.714996 0.500000 0.060397
O O20 0.000000 0.647462 0.063815
O O21 0.500000 0.841283 0.807494
O O22 0.228372 0.000000 0.819180
O O23 0.714686 0.500000 0.555324
O O24 0.000000 0.357963 0.541114
#
# Coordination Sequence:
#
# PCOD9337361 Si02
#       8
#     4   4   4   4   4   4   4   4
#     4   7  10  18  34  56  79 104 138 177 213 249
#     4   8  13  22  37  57  81 108 138 173 211 250
#     4   9  17  29  45  63  82 108 141 170 199 245
#     4   9  18  33  52  71  89 113 148 186 223 266
#     4   8  13  23  40  59  81 113 148 179 215 258
#     4   9  17  28  40  57  84 113 137 166 207 249
#     4   8  15  29  48  68  87 105 132 176 220 251
#     4  10  20  31  43  65  97 126 150 180 220 264
#
# _framework density 20.268393
#
# number of rings (size 3 to 8) (size 9 to 14) (size 15 to 20)
#    0.000    3.500    0.000    2.625    0.000    2.000 
#    0.000    2.500    0.000    6.000    0.000    0.875 
#    0.000    5.000    0.000    0.000    0.000    0.000 
#
# Total GULP energy -178341.721119 kJ/mol
# GULP energy per Si atom -5573.178785 kJ/mol
# Density = 2.022226 g / cm^3
# Si number density = 20.268393 Si / 1000 Ang^3
#
#
#
# Elastic Constant Matrix: (Units=GPa)
#
#
# Indices 1 2 3 4 5 6 
#
# 1 61.6656 4.8893 3.0258 0.0000 0.0000 0.0000
# 2 4.8893 110.7207 128.2386 0.0000 0.0000 0.0000
# 3 3.0258 128.2386 230.0142 0.0000 0.0000 0.0000
# 4 0.0000 0.0000 0.0000 -29.1795 0.0000 0.0000
# 5 0.0000 0.0000 0.0000 0.0000 21.3122 0.0000
# 6 0.0000 0.0000 0.0000 0.0000 0.0000 2.7615
#
#
#
# Elastic Compliance Matrix: (Units=1/GPa)
#
#
# Indices 1 2 3 4 5 6 
#
# 1 0.016296 -0.001330 0.000527 0.000000 0.000000 0.000000
# 2 -0.001330 0.025603 -0.014257 0.000000 0.000000 0.000000
# 3 0.000527 -0.014257 0.012289 0.000000 0.000000 0.000000
# 4 0.000000 0.000000 0.000000 -0.034271 0.000000 0.000000
# 5 0.000000 0.000000 0.000000 0.000000 0.046921 0.000000
# 6 0.000000 0.000000 0.000000 0.000000 0.000000 0.362126
#
#
# Mechanical properties :
#
#
# Convention : Reuss Voigt Hill
#
# Bulk Modulus (GPa) = 41.54812 74.96756 58.25784
# Shear Modulus (GPa) = 10.70417 16.72862 13.71640
#
# Velocity S-wave (km/s) = 2.30058 2.87602 2.60424
# Velocity P-wave (km/s) = 5.25361 6.93515 6.15210
#
# Compressibility (1/GPa) = 0.02406848
#
# Stress axis : x y z
#
# Youngs Moduli (GPa) = 61.36439 39.05816 81.37298
#
# Poissons Ratio (x) = 0.05196 -0.04291
# Poissons Ratio (y) = 0.08164 1.16011
# Poissons Ratio (z) = -0.03236 0.55684
#
# Static dielectric constant tensor:
#      x y z
#    x 1.803610 0.000000 0.000000 
#    y 0.000000 1.689880 0.000000 
#    z 0.000000 0.000000 1.723840 
# 
# From -- ./inp_files/6371.got.cif
#   From: 2010.05.17/outbox.cif.g08.bks.cpg/sg25_4_cif.got.tgz:6371.got - 2010.06.04 01:04:00.
