data_PCOD9337261
_publ_section_title
;
Structure prediction by ZEFSAII (Michael W. Deem and Ramdas Pophale) SiO2 
 PCOD9337261
Probable space group: P M M 2
;
_chemical_formula_sum "Si O2"
_cell_formula_units_Z 32
_cell_length_a 15.370424
_cell_length_b 7.666942
_cell_length_c 12.728168
_cell_angle_alpha 90.000000
_cell_angle_beta 90.000000
_cell_angle_gamma 90.000000
_cell_volume 1499.940130
_symmetry_space_group_name_H-M "P M M 2"
_symmetry_group_IT_number 25
_symmetry_cell_setting 'orthorhombic'
loop_
_space_group_symop_operation_xyz
x,y,z
-x,-y,z
-x,y,z
x,-y,z
loop_
_atom_site_type_symbol
_atom_site_label
_atom_site_fract_x
_atom_site_fract_y
_atom_site_fract_z
Si Si1 0.404822 0.713290 0.782430
Si Si2 0.100297 0.790775 0.506545
Si Si3 0.352523 0.288046 0.017487
Si Si4 0.091275 0.703680 0.868852
Si Si5 0.594246 0.290221 0.249434
Si Si6 0.160088 0.799271 0.081134
Si Si7 0.776070 0.289801 0.702919
Si Si8 0.789524 0.790567 0.307210
O O1 0.500000 0.771520 0.746912
O O2 0.404801 0.500000 0.781688
O O3 0.323159 0.773581 0.712677
O O4 0.391146 0.763560 0.905093
O O5 0.161910 0.754989 0.606071
O O6 0.154461 0.724724 0.405292
O O7 0.000000 0.725482 0.515167
O O8 0.094109 0.000000 0.496573
O O9 0.347478 0.500000 0.016472
O O10 0.399526 0.237458 0.126156
O O11 0.256323 0.214625 0.032304
O O12 0.089075 0.500000 0.841064
O O13 0.173062 0.775689 0.806334
O O14 0.000000 0.784913 0.835009
O O15 0.100822 0.714224 0.993423
O O16 0.500000 0.228457 0.291284
O O17 0.592949 0.500000 0.251278
O O18 0.685279 0.241388 0.305098
O O19 0.170367 0.722519 0.197441
O O20 0.133154 0.000000 0.090038
O O21 0.769575 0.500000 0.705026
O O22 0.798181 0.000000 0.304621
#
# Coordination Sequence:
#
# PCOD9337261 Si02
#       8
#     4   4   4   4   4   4   4   4
#     4   9  16  28  51  80 107 140 179 212 251 308
#     4  10  22  41  62  79  98 133 183 233 277 323
#     4   9  15  28  49  73 107 147 182 213 253 305
#     4  10  20  34  52  76 107 142 175 211 266 331
#     4   9  17  29  50  82 114 144 181 222 260 306
#     4  10  19  31  50  77 109 141 175 215 264 317
#     4  10  20  36  57  81 109 138 174 222 270 318
#     4   9  20  37  55  77 106 142 181 223 272 322
#
# _framework density 21.334184
#
# number of rings (size 3 to 8) (size 9 to 14) (size 15 to 20)
#    0.000    2.500    1.250    1.125    0.000    4.750 
#    0.000    1.875    0.000    4.500    0.000    0.000 
#    0.000    0.000    0.000    0.000    0.000    0.000 
#
# Total GULP energy -178375.540748 kJ/mol
# GULP energy per Si atom -5574.235648 kJ/mol
# Density = 2.128563 g / cm^3
# Si number density = 21.334184 Si / 1000 Ang^3
#
#
#
# Elastic Constant Matrix: (Units=GPa)
#
#
# Indices 1 2 3 4 5 6 
#
# 1 186.7965 10.7923 88.1042 0.0000 0.0000 0.0000
# 2 10.7923 34.4353 -0.1810 0.0000 0.0000 0.0000
# 3 88.1042 -0.1810 118.9199 0.0000 0.0000 0.0000
# 4 0.0000 0.0000 0.0000 18.4938 0.0000 0.0000
# 5 0.0000 0.0000 0.0000 0.0000 9.4367 0.0000
# 6 0.0000 0.0000 0.0000 0.0000 0.0000 10.6843
#
#
#
# Elastic Compliance Matrix: (Units=1/GPa)
#
#
# Indices 1 2 3 4 5 6 
#
# 1 0.008471 -0.002688 -0.006280 0.000000 0.000000 0.000000
# 2 -0.002688 0.029893 0.002037 0.000000 0.000000 0.000000
# 3 -0.006280 0.002037 0.013065 0.000000 0.000000 0.000000
# 4 0.000000 0.000000 0.000000 0.054072 0.000000 0.000000
# 5 0.000000 0.000000 0.000000 0.000000 0.105969 0.000000
# 6 0.000000 0.000000 0.000000 0.000000 0.000000 0.093595
#
#
# Mechanical properties :
#
#
# Convention : Reuss Voigt Hill
#
# Bulk Modulus (GPa) = 26.61920 59.73142 43.17531
# Shear Modulus (GPa) = 15.08531 23.81871 19.45201
#
# Velocity S-wave (km/s) = 2.66201 3.34497 3.02284
# Velocity P-wave (km/s) = 4.68538 6.55570 5.69780
#
# Compressibility (1/GPa) = 0.03756687
#
# Stress axis : x y z
#
# Youngs Moduli (GPa) = 118.05569 33.45257 76.54295
#
# Poissons Ratio (x) = 0.08991 0.48067
# Poissons Ratio (y) = 0.31731 -0.15590
# Poissons Ratio (z) = 0.74135 -0.06814
#
# Static dielectric constant tensor:
#      x y z
#    x 1.825120 0.000000 0.000000 
#    y 0.000000 1.789080 0.000000 
#    z 0.000000 0.000000 1.772320 
# 
# From -- ./inp_files/4295.got.cif
#   From: 2010.05.17/outbox.cif.g08.bks.cpg/sg25_3_cif.got.tgz:4295.got - 2010.06.04 01:04:00.
