data_PCOD9337892
_publ_section_title
;
Structure prediction by ZEFSAII (Michael W. Deem and Ramdas Pophale) SiO2 
 PCOD9337892
Probable space group: P M C 21
;
_chemical_formula_sum "Si O2"
_cell_formula_units_Z 18
_cell_length_a 21.878379
_cell_length_b 6.616824
_cell_length_c 5.211580
_cell_angle_alpha 90.000000
_cell_angle_beta 90.000000
_cell_angle_gamma 90.000000
_cell_volume 754.456376
_symmetry_space_group_name_H-M "P M C 21"
_symmetry_group_IT_number 26
_symmetry_cell_setting 'orthorhombic'
loop_
_space_group_symop_operation_xyz
x,y,z
-x,-y,1/2+z
-x,y,z
x,-y,1/2+z
loop_
_atom_site_type_symbol
_atom_site_label
_atom_site_fract_x
_atom_site_fract_y
_atom_site_fract_z
Si Si1 0.933049 0.360582 0.150180
Si Si2 0.500000 0.864463 0.056988
Si Si3 0.368948 0.860019 0.153185
Si Si4 0.755805 0.295184 0.493683
Si Si5 0.804902 0.750594 0.491529
O O1 0.930071 0.468767 0.426351
O O2 0.872967 0.230334 0.099171
O O3 0.000000 0.261035 0.126984
O O4 0.500000 0.951380 0.767187
O O5 0.435465 0.758629 0.113410
O O6 0.365876 0.031553 0.929439
O O7 0.312038 0.711878 0.107026
O O8 0.786016 0.513255 0.449597
O O9 0.756993 0.195333 0.213738
O O10 0.798222 0.180596 0.699474
#
# Coordination Sequence:
#
# PCOD9337892 Si02
#       5
#     4   2   4   4   4
#     4  10  16  25  41  63  93 117 146 184 218 263
#     4   8  16  30  48  64  86 110 144 192 228 254
#     4  10  19  32  48  70  89 114 150 188 228 260
#     4  10  18  28  46  63  93 121 145 178 219 277
#     4  10  17  30  43  67  95 122 145 172 227 268
#
# _framework density 23.858238
#
# number of rings (size 3 to 8) (size 9 to 14) (size 15 to 20)
#    0.000    2.222    4.444    1.333    0.000    0.000 
#    0.000    0.000    0.000    5.333    0.000    0.000 
#    0.000   30.222    0.000    0.000    0.000    0.000 
#
# Total GULP energy -100363.765407 kJ/mol
# GULP energy per Si atom -5575.764745 kJ/mol
# Density = 2.380394 g / cm^3
# Si number density = 23.858238 Si / 1000 Ang^3
#
#
#
# Elastic Constant Matrix: (Units=GPa)
#
#
# Indices 1 2 3 4 5 6 
#
# 1 189.1562 -7.6122 -20.6396 0.0000 0.0000 0.0000
# 2 -7.6122 49.3236 -24.1022 0.0000 0.0000 0.0000
# 3 -20.6396 -24.1022 136.1092 0.0000 0.0000 0.0000
# 4 0.0000 0.0000 0.0000 -46.0984 0.0000 0.0000
# 5 0.0000 0.0000 0.0000 0.0000 38.0702 0.0000
# 6 0.0000 0.0000 0.0000 0.0000 0.0000 24.3975
#
#
#
# Elastic Compliance Matrix: (Units=1/GPa)
#
#
# Indices 1 2 3 4 5 6 
#
# 1 0.005458 0.001365 0.001069 0.000000 0.000000 0.000000
# 2 0.001365 0.022536 0.004198 0.000000 0.000000 0.000000
# 3 0.001069 0.004198 0.008253 0.000000 0.000000 0.000000
# 4 0.000000 0.000000 0.000000 -0.021693 0.000000 0.000000
# 5 0.000000 0.000000 0.000000 0.000000 0.026267 0.000000
# 6 0.000000 0.000000 0.000000 0.000000 0.000000 0.040988
#
#
# Mechanical properties :
#
#
# Convention : Reuss Voigt Hill
#
# Bulk Modulus (GPa) = 20.19757 29.98680 25.09218
# Shear Modulus (GPa) = 58.78970 31.73673 45.26322
#
# Velocity S-wave (km/s) = 4.96938 3.65118 4.36038
# Velocity P-wave (km/s) = 6.43509 5.51097 5.99088
#
# Compressibility (1/GPa) = 0.04951090
#
# Stress axis : x y z
#
# Youngs Moduli (GPa) = 183.20892 44.37320 121.17501
#
# Poissons Ratio (x) = -0.06057 -0.12958
# Poissons Ratio (y) = -0.25007 -0.50865
# Poissons Ratio (z) = -0.19592 -0.18626
#
# Static dielectric constant tensor:
#      x y z
#    x 1.936890 0.000000 0.000000 
#    y 0.000000 3.048770 0.000000 
#    z 0.000000 0.000000 1.989430 
# 
# From -- ./inp_files/716.got.cif
#   From: 2010.05.17/outbox.cif.g08.bks.cpg/sg26_1_cif.got.tgz:716.got - 2010.06.04 01:07:29.
