data_PCOD9337214
_publ_section_title
;
Structure prediction by ZEFSAII (Michael W. Deem and Ramdas Pophale) SiO2 
 PCOD9337214
Probable space group: P M M 2
;
_chemical_formula_sum "Si O2"
_cell_formula_units_Z 32
_cell_length_a 7.758941
_cell_length_b 14.884538
_cell_length_c 16.218867
_cell_angle_alpha 90.000000
_cell_angle_beta 90.000000
_cell_angle_gamma 90.000000
_cell_volume 1873.088602
_symmetry_space_group_name_H-M "P M M 2"
_symmetry_group_IT_number 25
_symmetry_cell_setting 'orthorhombic'
loop_
_space_group_symop_operation_xyz
x,y,z
-x,-y,z
-x,y,z
x,-y,z
loop_
_atom_site_type_symbol
_atom_site_label
_atom_site_fract_x
_atom_site_fract_y
_atom_site_fract_z
Si Si1 0.799855 0.290932 0.577560
Si Si2 0.289804 0.900153 0.829146
Si Si3 0.699481 0.609220 0.236339
Si Si4 0.296843 0.399034 0.738609
Si Si5 0.707921 0.100093 0.637943
Si Si6 0.292648 0.602433 0.415074
Si Si7 0.711531 0.287051 0.896252
Si Si8 0.288697 0.395897 0.056252
O O1 0.716674 0.342457 0.654848
O O2 0.765422 0.184947 0.585285
O O3 0.745020 0.333347 0.491049
O O4 0.000000 0.307196 0.587128
O O5 0.500000 0.900374 0.829427
O O6 0.238246 0.886314 0.733476
O O7 0.232974 0.815702 0.882837
O O8 0.233443 0.000000 0.854733
O O9 0.500000 0.639699 0.235780
O O10 0.697944 0.500000 0.236635
O O11 0.775455 0.634078 0.325425
O O12 0.773778 0.634087 0.147111
O O13 0.500000 0.407988 0.754995
O O14 0.225000 0.500000 0.730099
O O15 0.227703 0.344419 0.817108
O O16 0.500000 0.099931 0.637582
O O17 0.765745 0.000000 0.612306
O O18 0.500000 0.597302 0.407104
O O19 0.231427 0.500000 0.431403
O O20 0.500000 0.287225 0.895957
O O21 0.766366 0.333762 0.980856
O O22 0.500000 0.395341 0.058634
O O23 0.238927 0.500000 0.042403
#
# Coordination Sequence:
#
# PCOD9337214 Si02
#       8
#     4   4   4   4   4   4   4   4
#     4  12  23  31  42  63  91 118 144 181 225 265
#     4   8  13  22  38  58  79 106 141 178 210 245
#     4   7  11  21  37  57  80 105 137 180 224 259
#     4  10  19  30  43  59  84 120 158 186 208 250
#     4   9  17  32  52  67  82 110 148 186 220 257
#     4   9  17  30  47  63  82 114 154 190 221 261
#     4   9  14  21  36  59  85 110 140 178 218 259
#     4   8  12  18  31  56  87 110 131 170 223 265
#
# _framework density 17.084081999999999
#
# number of rings (size 3 to 8) (size 9 to 14) (size 15 to 20)
#    0.000    3.000    1.250    4.125    0.000    3.750 
#    0.000    0.000    0.000    0.000    0.000    1.750 
#    0.000    8.000    0.000    0.000    0.000    0.000 
#
# Total GULP energy -178242.272786 kJ/mol
# GULP energy per Si atom -5570.071025 kJ/mol
# Density = 1.704520 g / cm^3
# Si number density = 17.084082 Si / 1000 Ang^3
#
#
#
# Elastic Constant Matrix: (Units=GPa)
#
#
# Indices 1 2 3 4 5 6 
#
# 1 21.9453 2.4004 -1.1132 0.0000 0.0000 0.0000
# 2 2.4004 128.9067 87.8379 0.0000 0.0000 0.0000
# 3 -1.1132 87.8379 151.4376 0.0000 0.0000 0.0000
# 4 0.0000 0.0000 0.0000 24.8810 0.0000 0.0000
# 5 0.0000 0.0000 0.0000 0.0000 -23.3667 0.0000
# 6 0.0000 0.0000 0.0000 0.0000 0.0000 -21.7581
#
#
#
# Elastic Compliance Matrix: (Units=1/GPa)
#
#
# Indices 1 2 3 4 5 6 
#
# 1 0.045834 -0.001791 0.001376 0.000000 0.000000 0.000000
# 2 -0.001791 0.012897 -0.007494 0.000000 0.000000 0.000000
# 3 0.001376 -0.007494 0.010960 0.000000 0.000000 0.000000
# 4 0.000000 0.000000 0.000000 0.040191 0.000000 0.000000
# 5 0.000000 0.000000 0.000000 0.000000 -0.042796 0.000000
# 6 0.000000 0.000000 0.000000 0.000000 0.000000 -0.045960
#
#
# Mechanical properties :
#
#
# Convention : Reuss Voigt Hill
#
# Bulk Modulus (GPa) = 18.56224 53.39330 35.97777
# Shear Modulus (GPa) = 91.07056 10.16221 50.61638
#
# Velocity S-wave (km/s) = 7.30910 2.44157 5.44905
# Velocity P-wave (km/s) = 9.06198 6.26653 7.79066
#
# Compressibility (1/GPa) = 0.05387280
#
# Stress axis : x y z
#
# Youngs Moduli (GPa) = 21.81806 77.53546 91.23929
#
# Poissons Ratio (x) = 0.13885 -0.12551
# Poissons Ratio (y) = 0.03907 0.68374
# Poissons Ratio (z) = -0.03001 0.58105
#
# Static dielectric constant tensor:
#      x y z
#    x 1.618500 0.000000 0.000000 
#    y 0.000000 1.575390 0.000000 
#    z 0.000000 0.000000 1.611660 
# 
# From -- ./inp_files/5751.got.cif
#   From: 2010.05.17/outbox.cif.g08.bks.cpg/sg25_3_cif.got.tgz:5751.got - 2010.06.04 01:04:00.
