data_PCOD9337958
_publ_section_title
;
Structure prediction by ZEFSAII (Michael W. Deem and Ramdas Pophale) SiO2 
 PCOD9337958
Probable space group: P M C 21
;
_chemical_formula_sum "Si O2"
_cell_formula_units_Z 32
_cell_length_a 7.499351
_cell_length_b 11.823396
_cell_length_c 16.582194
_cell_angle_alpha 90.000000
_cell_angle_beta 90.000000
_cell_angle_gamma 90.000000
_cell_volume 1470.306605
_symmetry_space_group_name_H-M "P M C 21"
_symmetry_group_IT_number 26
_symmetry_cell_setting 'orthorhombic'
loop_
_space_group_symop_operation_xyz
x,y,z
-x,-y,1/2+z
-x,y,z
x,-y,1/2+z
loop_
_atom_site_type_symbol
_atom_site_label
_atom_site_fract_x
_atom_site_fract_y
_atom_site_fract_z
Si Si1 0.698631 0.323302 0.632860
Si Si2 0.281772 0.068709 0.645477
Si Si3 0.282532 0.976576 0.469358
Si Si4 0.284544 0.280534 0.949685
Si Si5 0.201831 0.576000 0.295877
Si Si6 0.713259 0.660879 0.763137
Si Si7 0.281084 0.442269 0.092086
Si Si8 0.718370 0.914948 0.799204
O O1 0.500000 0.303123 0.598734
O O2 0.778953 0.199634 0.645492
O O3 0.684963 0.380979 0.720676
O O4 0.781453 0.427886 0.583880
O O5 0.500000 0.067703 0.649081
O O6 0.228314 0.019928 0.557973
O O7 0.225455 0.995625 0.724019
O O8 0.500000 0.979896 0.469653
O O9 0.223994 0.847310 0.459671
O O10 0.226410 0.042669 0.388202
O O11 0.500000 0.278149 0.951539
O O12 0.227971 0.337437 0.867304
O O13 0.223138 0.361732 0.020820
O O14 0.244322 0.446628 0.319534
O O15 0.000000 0.579588 0.267290
O O16 0.500000 0.669925 0.759452
O O17 0.774981 0.616868 0.675575
O O18 0.778441 0.785515 0.785066
O O19 0.500000 0.446371 0.092594
O O20 0.500000 0.916431 0.798622
#
# Coordination Sequence:
#
# PCOD9337958 Si02
#       8
#     4   4   4   4   4   4   4   4
#     4   9  17  32  53  76 102 130 163 203 252 305
#     4   9  16  27  47  77 108 131 158 204 252 295
#     4   9  17  27  45  77 107 130 162 205 250 296
#     4  10  18  31  51  74 103 134 165 203 251 302
#     4  11  22  34  49  71  99 131 170 211 249 295
#     4   9  17  32  52  72  95 124 163 208 255 305
#     4   8  15  27  47  73  95 123 162 202 244 294
#     4   9  16  26  44  70  99 131 163 198 245 298
#
# _framework density 21.764167
#
# number of rings (size 3 to 8) (size 9 to 14) (size 15 to 20)
#    0.000    2.750    0.000    3.375    0.000    6.000 
#    0.000    6.250    0.000    3.750    0.000    0.000 
#    0.000    0.000    0.000    0.000    0.000    0.000 
#
# Total GULP energy -178473.890829 kJ/mol
# GULP energy per Si atom -5577.309088 kJ/mol
# Density = 2.171463 g / cm^3
# Si number density = 21.764167 Si / 1000 Ang^3
#
#
#
# Elastic Constant Matrix: (Units=GPa)
#
#
# Indices 1 2 3 4 5 6 
#
# 1 60.2887 6.1743 0.8702 0.0000 0.0000 0.0000
# 2 6.1743 184.3641 49.5912 0.0000 0.0000 0.0000
# 3 0.8702 49.5912 86.5190 0.0000 0.0000 0.0000
# 4 0.0000 0.0000 0.0000 36.3271 0.0000 0.0000
# 5 0.0000 0.0000 0.0000 0.0000 -35.0293 0.0000
# 6 0.0000 0.0000 0.0000 0.0000 0.0000 -32.1201
#
#
#
# Elastic Compliance Matrix: (Units=1/GPa)
#
#
# Indices 1 2 3 4 5 6 
#
# 1 0.016646 -0.000606 0.000180 0.000000 0.000000 0.000000
# 2 -0.000606 0.006435 -0.003682 0.000000 0.000000 0.000000
# 3 0.000180 -0.003682 0.013667 0.000000 0.000000 0.000000
# 4 0.000000 0.000000 0.000000 0.027528 0.000000 0.000000
# 5 0.000000 0.000000 0.000000 0.000000 -0.028548 0.000000
# 6 0.000000 0.000000 0.000000 0.000000 0.000000 -0.031133
#
#
# Mechanical properties :
#
#
# Convention : Reuss Voigt Hill
#
# Bulk Modulus (GPa) = 35.04890 49.38259 42.21575
# Shear Modulus (GPa) = 223.99420 12.13795 118.06608
#
# Velocity S-wave (km/s) = 10.15590 2.36414 7.37331
# Velocity P-wave (km/s) = 12.39604 5.49466 9.58784
#
# Compressibility (1/GPa) = 0.02853156
#
# Stress axis : x y z
#
# Youngs Moduli (GPa) = 60.07338 155.40493 73.16932
#
# Poissons Ratio (x) = 0.09415 -0.01316
# Poissons Ratio (y) = 0.03640 0.26943
# Poissons Ratio (z) = -0.01080 0.57224
#
# Static dielectric constant tensor:
#      x y z
#    x 1.843230 0.000000 0.000000 
#    y 0.000000 1.789030 0.000000 
#    z 0.000000 0.000000 1.763330 
# 
# From -- ./inp_files/5094.got.cif
#   From: 2010.05.17/outbox.cif.g08.bks.cpg/sg26_3_cif.got.tgz:5094.got - 2010.06.04 01:07:29.
