data_PCOD9337702
_publ_section_title
;
Structure prediction by ZEFSAII (Michael W. Deem and Ramdas Pophale) SiO2 
 PCOD9337702
Probable space group: P M M 2
;
_chemical_formula_sum "Si O2"
_cell_formula_units_Z 32
_cell_length_a 9.225750
_cell_length_b 14.909633
_cell_length_c 12.693355
_cell_angle_alpha 90.000000
_cell_angle_beta 90.000000
_cell_angle_gamma 90.000000
_cell_volume 1746.003306
_symmetry_space_group_name_H-M "P M M 2"
_symmetry_group_IT_number 25
_symmetry_cell_setting 'orthorhombic'
loop_
_space_group_symop_operation_xyz
x,y,z
-x,-y,z
-x,y,z
x,-y,z
loop_
_atom_site_type_symbol
_atom_site_label
_atom_site_fract_x
_atom_site_fract_y
_atom_site_fract_z
Si Si1 0.329627 0.892693 0.925090
Si Si2 0.825050 0.255851 0.320567
Si Si3 0.333317 0.390687 0.703699
Si Si4 0.674323 0.394312 0.469837
Si Si5 0.174661 0.757860 0.076421
Si Si6 0.173782 0.603676 0.915083
Si Si7 0.166378 0.109315 0.713571
Si Si8 0.176396 0.897539 0.481275
O O1 0.500000 0.873633 0.927682
O O2 0.262559 0.864248 0.812613
O O3 0.309059 0.000000 0.934805
O O4 0.247992 0.840665 0.017247
O O5 0.752766 0.338661 0.380158
O O6 0.783408 0.249148 0.198477
O O7 0.781457 0.168069 0.387562
O O8 0.000000 0.263712 0.325382
O O9 0.500000 0.361778 0.716495
O O10 0.333533 0.500000 0.701545
O O11 0.279496 0.363697 0.587691
O O12 0.240595 0.364094 0.804560
O O13 0.500000 0.383615 0.464731
O O14 0.705595 0.500000 0.459734
O O15 0.000000 0.767375 0.071573
O O16 0.215149 0.668999 0.010220
O O17 0.218722 0.500000 0.932976
O O18 0.000000 0.604849 0.906203
O O19 0.221884 0.135588 0.597643
O O20 0.000000 0.139801 0.728320
O O21 0.163173 0.000000 0.710754
O O22 0.000000 0.899422 0.485395
O O23 0.225397 0.000000 0.465342
#
# Coordination Sequence:
#
# PCOD9337702 Si02
#       8
#     4   4   4   4   4   4   4   4
#     4  10  21  36  54  77 105 135 169 213 258 299
#     4  10  21  35  53  78 103 132 176 221 253 291
#     4   8  15  30  52  77 103 131 166 206 252 310
#     4   9  19  36  55  75 104 139 168 202 255 312
#     4  10  22  37  52  74 104 139 177 213 253 303
#     4   9  18  33  52  74 102 134 168 211 260 305
#     4   8  14  28  52  78 103 132 164 201 253 315
#     4   8  15  30  52  77 104 132 164 207 258 309
#
# _framework density 18.327572
#
# number of rings (size 3 to 8) (size 9 to 14) (size 15 to 20)
#    0.000    3.000    0.000    1.875    0.000    4.500 
#    0.000    8.125    0.000    2.625    0.000    0.000 
#    0.000    0.000    0.000    0.000    0.000    0.000 
#
# Total GULP energy -178454.395155 kJ/mol
# GULP energy per Si atom -5576.699849 kJ/mol
# Density = 1.828586 g / cm^3
# Si number density = 18.327572 Si / 1000 Ang^3
#
#
#
# Elastic Constant Matrix: (Units=GPa)
#
#
# Indices 1 2 3 4 5 6 
#
# 1 23.1671 33.8001 55.2515 0.0000 0.0000 0.0000
# 2 33.8001 74.5052 75.0076 0.0000 0.0000 0.0000
# 3 55.2515 75.0076 207.8079 0.0000 0.0000 0.0000
# 4 0.0000 0.0000 0.0000 33.1836 0.0000 0.0000
# 5 0.0000 0.0000 0.0000 0.0000 -6.0185 0.0000
# 6 0.0000 0.0000 0.0000 0.0000 0.0000 19.7250
#
#
#
# Elastic Compliance Matrix: (Units=1/GPa)
#
#
# Indices 1 2 3 4 5 6 
#
# 1 0.225812 -0.065972 -0.036226 0.000000 0.000000 0.000000
# 2 -0.065972 0.040357 0.002974 0.000000 0.000000 0.000000
# 3 -0.036226 0.002974 0.013371 0.000000 0.000000 0.000000
# 4 0.000000 0.000000 0.000000 0.030135 0.000000 0.000000
# 5 0.000000 0.000000 0.000000 0.000000 -0.166155 0.000000
# 6 0.000000 0.000000 0.000000 0.000000 0.000000 0.050697
#
#
# Mechanical properties :
#
#
# Convention : Reuss Voigt Hill
#
# Bulk Modulus (GPa) = 12.33180 70.39986 41.36583
# Shear Modulus (GPa) = 11.91342 18.80608 15.35975
#
# Velocity S-wave (km/s) = 2.55233 3.20677 2.89808
# Velocity P-wave (km/s) = 3.92798 7.22541 5.81530
#
# Compressibility (1/GPa) = 0.08109114
#
# Stress axis : x y z
#
# Youngs Moduli (GPa) = 4.42847 24.77896 74.79147
#
# Poissons Ratio (x) = 1.63471 2.70941
# Poissons Ratio (y) = 0.29215 -0.22241
# Poissons Ratio (z) = 0.16043 -0.07369
#
# Static dielectric constant tensor:
#      x y z
#    x 1.610750 0.000000 0.000000 
#    y 0.000000 1.652950 0.000000 
#    z 0.000000 0.000000 1.617580 
# 
# From -- ./inp_files/4260.got.cif
#   From: 2010.05.17/outbox.cif.g08.bks.cpg/sg25_3_cif.got.tgz:4260.got - 2010.06.04 01:04:00.
