data_PCOD9337337
_publ_section_title
;
Structure prediction by ZEFSAII (Michael W. Deem and Ramdas Pophale) SiO2 
 PCOD9337337
Probable space group: P M M 2
;
_chemical_formula_sum "Si O2"
_cell_formula_units_Z 32
_cell_length_a 8.846547
_cell_length_b 15.792811
_cell_length_c 12.202058
_cell_angle_alpha 90.000000
_cell_angle_beta 90.000000
_cell_angle_gamma 90.000000
_cell_volume 1704.772033
_symmetry_space_group_name_H-M "P M M 2"
_symmetry_group_IT_number 25
_symmetry_cell_setting 'orthorhombic'
loop_
_space_group_symop_operation_xyz
x,y,z
-x,-y,z
-x,y,z
x,-y,z
loop_
_atom_site_type_symbol
_atom_site_label
_atom_site_fract_x
_atom_site_fract_y
_atom_site_fract_z
Si Si1 0.684068 0.905891 0.428950
Si Si2 0.318994 0.251222 0.826172
Si Si3 0.180703 0.403423 0.424925
Si Si4 0.819261 0.595648 0.963961
Si Si5 0.682638 0.255396 0.570280
Si Si6 0.180395 0.904153 0.958621
Si Si7 0.321276 0.851042 0.185827
Si Si8 0.321679 0.352493 0.193113
O O1 0.500000 0.905119 0.430150
O O2 0.733217 0.830057 0.507857
O O3 0.728279 0.886770 0.303494
O O4 0.733911 0.000000 0.461636
O O5 0.500000 0.252442 0.836290
O O6 0.252735 0.332741 0.887873
O O7 0.278013 0.252630 0.698102
O O8 0.257292 0.167089 0.884408
O O9 0.216897 0.500000 0.456927
O O10 0.247698 0.335652 0.508966
O O11 0.249600 0.385297 0.305258
O O12 0.000000 0.394630 0.419429
O O13 0.781857 0.500000 0.927805
O O14 0.000000 0.605121 0.964271
O O15 0.757890 0.609141 0.086770
O O16 0.500000 0.260268 0.561137
O O17 0.000000 0.895708 0.951301
O O18 0.223036 0.000000 0.926820
O O19 0.231893 0.888091 0.083511
O O20 0.500000 0.870134 0.171873
O O21 0.305032 0.749405 0.188303
O O22 0.500000 0.371905 0.191261
#
# Coordination Sequence:
#
# PCOD9337337 Si02
#       8
#     4   4   4   4   4   4   4   4
#     4   9  17  33  59  88 117 148 184 232 289 346
#     4  11  24  41  63  88 117 157 204 256 307 357
#     4  11  24  40  60  88 122 161 201 241 295 360
#     4  11  24  41  62  88 120 157 197 246 304 367
#     4  10  22  41  62  87 117 152 201 253 299 347
#     4  11  24  40  60  88 124 163 200 244 300 362
#     4  10  19  34  60  90 120 155 194 241 298 356
#     4  11  21  36  62  93 123 155 195 245 298 356
#
# _framework density 18.770837
#
# number of rings (size 3 to 8) (size 9 to 14) (size 15 to 20)
#    0.000    1.500    2.500    2.625    0.000    7.500 
#    0.000    3.750    0.000    0.375    0.000    0.000 
#    0.000    0.000    0.000    0.000    0.000    0.000 
#
# Total GULP energy -178875.741502 kJ/mol
# GULP energy per Si atom -5589.866922 kJ/mol
# Density = 1.872811 g / cm^3
# Si number density = 18.770837 Si / 1000 Ang^3
#
#
#
# Elastic Constant Matrix: (Units=GPa)
#
#
# Indices 1 2 3 4 5 6 
#
# 1 44.9727 63.8175 54.4458 0.0000 0.0000 0.0000
# 2 63.8175 183.6239 107.4979 0.0000 0.0000 0.0000
# 3 54.4458 107.4979 160.3394 0.0000 0.0000 0.0000
# 4 0.0000 0.0000 0.0000 -3.5553 0.0000 0.0000
# 5 0.0000 0.0000 0.0000 0.0000 -6.4538 0.0000
# 6 0.0000 0.0000 0.0000 0.0000 0.0000 12.3331
#
#
#
# Elastic Compliance Matrix: (Units=1/GPa)
#
#
# Indices 1 2 3 4 5 6 
#
# 1 0.050514 -0.012369 -0.008860 0.000000 0.000000 0.000000
# 2 -0.012369 0.011993 -0.003841 0.000000 0.000000 0.000000
# 3 -0.008860 -0.003841 0.011820 0.000000 0.000000 0.000000
# 4 0.000000 0.000000 0.000000 -0.281268 0.000000 0.000000
# 5 0.000000 0.000000 0.000000 0.000000 -0.154947 0.000000
# 6 0.000000 0.000000 0.000000 0.000000 0.000000 0.081082
#
#
# Mechanical properties :
#
#
# Convention : Reuss Voigt Hill
#
# Bulk Modulus (GPa) = 41.34291 93.38427 67.36359
# Shear Modulus (GPa) = -22.46137 11.34313 -5.55912
#
# Velocity S-wave (km/s) = -3.46296 2.46091 -1.72279
# Velocity P-wave (km/s) = 2.46647 7.61134 5.65756
#
# Compressibility (1/GPa) = 0.02418795
#
# Stress axis : x y z
#
# Youngs Moduli (GPa) = 19.79648 83.38219 84.60050
#
# Poissons Ratio (x) = 1.03134 0.74959
# Poissons Ratio (y) = 0.24486 0.32491
# Poissons Ratio (z) = 0.17540 0.32023
#
# Static dielectric constant tensor:
#      x y z
#    x 1.630060 0.000000 0.000000 
#    y 0.000000 1.649800 0.000000 
#    z 0.000000 0.000000 1.612860 
# 
# From -- ./inp_files/4204.got.cif
#   From: 2010.05.17/outbox.cif.g08.bks.cpg/sg25_3_cif.got.tgz:4204.got - 2010.06.04 01:04:00.
