data_PCOD9337023
_publ_section_title
;
Structure prediction by ZEFSAII (Michael W. Deem and Ramdas Pophale) SiO2 
 PCOD9337023
Probable space group: I 21 21 21
;
_chemical_formula_sum "Si O2"
_cell_formula_units_Z 48
_cell_length_a 7.363037
_cell_length_b 15.447568
_cell_length_c 18.922841
_cell_angle_alpha 90.000000
_cell_angle_beta 90.000000
_cell_angle_gamma 90.000000
_cell_volume 2152.303137
_symmetry_space_group_name_H-M "I 21 21 21"
_symmetry_group_IT_number 24
_symmetry_cell_setting 'orthorhombic'
loop_
_space_group_symop_operation_xyz
x,y,z
-x,1/2-y,z
x,-y,1/2-z
1/2-x,y,-z
1/2+x,1/2+y,1/2+z
1/2-x,-y,1/2+z
1/2+x,1/2-y,-z
-x,1/2+y,1/2-z
loop_
_atom_site_type_symbol
_atom_site_label
_atom_site_fract_x
_atom_site_fract_y
_atom_site_fract_z
Si Si1 0.954200 0.346677 0.701016
Si Si2 0.458188 0.847314 0.361747
Si Si3 0.518999 0.528689 0.923554
Si Si4 0.024921 0.845594 0.366574
Si Si5 0.042739 0.098048 0.279610
Si Si6 0.536532 0.525994 0.078587
O O1 0.024030 0.359068 0.781062
O O2 0.736663 0.357982 0.706434
O O3 0.021013 0.416818 0.645053
O O4 0.000000 0.250000 0.678097
O O5 0.500000 0.750000 0.385660
O O6 0.241065 0.855542 0.359412
O O7 0.521342 0.926823 0.409095
O O8 0.461806 0.428996 0.909900
O O9 0.454892 0.584949 0.856507
O O10 0.741392 0.529142 0.921352
O O11 0.470541 0.557022 0.002237
O O12 0.950315 0.852682 0.285951
O O13 0.000000 0.750000 0.396705
O O14 0.074805 0.000000 0.250000
#
# Coordination Sequence:
#
# PCOD9337023 Si02
#       6
#     8   8   8   8   8   8
#     4   9  15  24  41  63  86 109 141 181 217 251
#     4   9  17  28  44  67  90 114 144 176 217 264
#     4   8  15  26  43  63  83 110 147 182 215 254
#     4   9  16  27  45  67  87 109 143 184 217 253
#     4   8  14  27  44  61  83 112 144 179 216 259
#     4   9  15  26  43  64  87 112 144 183 216 253
#
# _framework density 22.301691000000002
#
# number of rings (size 3 to 8) (size 9 to 14) (size 15 to 20)
#    0.000    3.333    0.000    3.500    0.000    0.667 
#    0.000    0.833    0.000   18.000    0.000    0.000 
#    0.000    0.000    0.000    0.000    0.000    0.000 
#
# Total GULP energy -133866.715752 kJ/mol
# GULP energy per Si atom -5577.779823 kJ/mol
# Density = 2.225093 g / cm^3
# Si number density = 22.301691 Si / 1000 Ang^3
#
#
#
# Elastic Constant Matrix: (Units=GPa)
#
#
# Indices 1 2 3 4 5 6 
#
# 1 73.4366 -2.8067 2.9390 0.0000 0.0000 0.0000
# 2 -2.8067 36.8933 -0.5115 0.0000 0.0000 0.0000
# 3 2.9390 -0.5115 61.3020 0.0000 0.0000 0.0000
# 4 0.0000 0.0000 0.0000 10.3643 0.0000 0.0000
# 5 0.0000 0.0000 0.0000 0.0000 -7.5571 0.0000
# 6 0.0000 0.0000 0.0000 0.0000 0.0000 14.2800
#
#
#
# Elastic Compliance Matrix: (Units=1/GPa)
#
#
# Indices 1 2 3 4 5 6 
#
# 1 0.013683 0.001032 -0.000647 0.000000 0.000000 0.000000
# 2 0.001032 0.027186 0.000177 0.000000 0.000000 0.000000
# 3 -0.000647 0.000177 0.016345 0.000000 0.000000 0.000000
# 4 0.000000 0.000000 0.000000 0.096485 0.000000 0.000000
# 5 0.000000 0.000000 0.000000 0.000000 -0.132325 0.000000
# 6 0.000000 0.000000 0.000000 0.000000 0.000000 0.070028
#
#
# Mechanical properties :
#
#
# Convention : Reuss Voigt Hill
#
# Bulk Modulus (GPa) = 17.14153 18.98592 18.06373
# Shear Modulus (GPa) = 45.56908 14.88484 30.22696
#
# Velocity S-wave (km/s) = 4.52519 2.58627 3.68552
# Velocity P-wave (km/s) = 5.91659 4.17733 5.12134
#
# Compressibility (1/GPa) = 0.05833783
#
# Stress axis : x y z
#
# Youngs Moduli (GPa) = 73.08585 36.78341 61.18000
#
# Poissons Ratio (x) = -0.03796 0.03961
# Poissons Ratio (y) = -0.07542 -0.01085
# Poissons Ratio (z) = 0.04731 -0.00652
#
# Static dielectric constant tensor:
#      x y z
#    x 1.876790 0.000000 0.000000 
#    y 0.000000 1.788960 0.000000 
#    z 0.000000 0.000000 1.837160 
# 
# From -- ./inp_files/21597.got.cif
#   From: 2010.05.17/outbox.cif.g08.bks.cpg/sg24_11_cif.got.tgz:21597.got - 2010.06.04 00:33:39.
