data_PCOD9337810
_publ_section_title
;
Structure prediction by ZEFSAII (Michael W. Deem and Ramdas Pophale) SiO2 
 PCOD9337810
Probable space group: P M M 2
;
_chemical_formula_sum "Si O2"
_cell_formula_units_Z 24
_cell_length_a 26.645016
_cell_length_b 7.819476
_cell_length_c 5.050898
_cell_angle_alpha 90.000000
_cell_angle_beta 90.000000
_cell_angle_gamma 90.000000
_cell_volume 1052.354917
_symmetry_space_group_name_H-M "P M M 2"
_symmetry_group_IT_number 25
_symmetry_cell_setting 'orthorhombic'
loop_
_space_group_symop_operation_xyz
x,y,z
-x,-y,z
-x,y,z
x,-y,z
loop_
_atom_site_type_symbol
_atom_site_label
_atom_site_fract_x
_atom_site_fract_y
_atom_site_fract_z
Si Si1 0.778197 0.698916 0.172810
Si Si2 0.943548 0.708599 0.439339
Si Si3 0.117257 0.291608 0.933729
Si Si4 0.616936 0.804334 0.422681
Si Si5 0.556856 0.301167 0.915260
Si Si6 0.281043 0.801255 0.672216
O O1 0.786240 0.500000 0.241210
O O2 0.829261 0.768939 0.042172
O O3 0.760467 0.786705 0.441880
O O4 0.736817 0.714116 0.941681
O O5 0.944351 0.500000 0.453025
O O6 0.925080 0.752784 0.147602
O O7 0.000000 0.767415 0.496030
O O8 0.902240 0.767842 0.650316
O O9 0.121084 0.500000 0.920956
O O10 0.592923 0.719295 0.166548
O O11 0.668238 0.728148 0.541603
O O12 0.628094 0.000000 0.346287
O O13 0.577778 0.798477 0.663514
O O14 0.500000 0.248805 0.985085
O O15 0.556071 0.500000 0.837742
O O16 0.290004 0.000000 0.737544
#
# Coordination Sequence:
#
# PCOD9337810 Si02
#       6
#     4   4   4   4   4   4
#     4  11  22  37  59  85 114 151 192 235 287 343
#     4   9  15  24  40  64 100 143 176 211 273 339
#     4   9  17  28  43  69 104 137 176 226 273 326
#     4  11  24  41  62  87 116 153 194 237 284 335
#     4  11  24  41  62  90 122 153 188 234 284 335
#     4  11  24  41  59  84 118 151 190 240 287 335
#
# _framework density 22.805993000000001
#
# number of rings (size 3 to 8) (size 9 to 14) (size 15 to 20)
#    0.000    1.667    0.000    5.000    0.000   14.667 
#    0.000    0.000    0.000    0.000    0.000    0.000 
#    0.000   46.667    0.000    0.000    0.000    0.000 
#
# Total GULP energy -134233.983540 kJ/mol
# GULP energy per Si atom -5593.082647 kJ/mol
# Density = 2.275409 g / cm^3
# Si number density = 22.805993 Si / 1000 Ang^3
#
#
#
# Elastic Constant Matrix: (Units=GPa)
#
#
# Indices 1 2 3 4 5 6 
#
# 1 52.7349 -2.0778 -23.6283 0.0000 0.0000 0.0000
# 2 -2.0778 34.2533 -6.8549 0.0000 0.0000 0.0000
# 3 -23.6283 -6.8549 68.4348 0.0000 0.0000 0.0000
# 4 0.0000 0.0000 0.0000 24.2350 0.0000 0.0000
# 5 0.0000 0.0000 0.0000 0.0000 36.9682 0.0000
# 6 0.0000 0.0000 0.0000 0.0000 0.0000 -52.1858
#
#
#
# Elastic Compliance Matrix: (Units=1/GPa)
#
#
# Indices 1 2 3 4 5 6 
#
# 1 0.022733 0.003010 0.008151 0.000000 0.000000 0.000000
# 2 0.003010 0.030190 0.004063 0.000000 0.000000 0.000000
# 3 0.008151 0.004063 0.017834 0.000000 0.000000 0.000000
# 4 0.000000 0.000000 0.000000 0.041263 0.000000 0.000000
# 5 0.000000 0.000000 0.000000 0.000000 0.027050 0.000000
# 6 0.000000 0.000000 0.000000 0.000000 0.000000 -0.019162
#
#
# Mechanical properties :
#
#
# Convention : Reuss Voigt Hill
#
# Bulk Modulus (GPa) = 9.88094 10.03345 9.95720
# Shear Modulus (GPa) = 40.58626 14.33576 27.46101
#
# Velocity S-wave (km/s) = 4.22314 2.50990 3.47380
# Velocity P-wave (km/s) = 5.30301 3.57890 4.52385
#
# Compressibility (1/GPa) = 0.10120495
#
# Stress axis : x y z
#
# Youngs Moduli (GPa) = 43.98831 33.12351 56.07400
#
# Poissons Ratio (x) = -0.09971 -0.45704
# Poissons Ratio (y) = -0.13241 -0.22785
# Poissons Ratio (z) = -0.35853 -0.13459
#
# Static dielectric constant tensor:
#      x y z
#    x 1.864670 0.000000 0.000000 
#    y 0.000000 1.825430 0.000000 
#    z 0.000000 0.000000 1.769070 
# 
# From -- ./inp_files/1271.got.cif
#   From: 2010.05.17/outbox.cif.g08.bks.cpg/sg25_1_cif.got.tgz:1271.got - 2010.06.04 01:04:00.
