data_PCOD9337515
_publ_section_title
;
Structure prediction by ZEFSAII (Michael W. Deem and Ramdas Pophale) SiO2 
 PCOD9337515
Probable space group: P M M 2
;
_chemical_formula_sum "Si O2"
_cell_formula_units_Z 32
_cell_length_a 14.032045
_cell_length_b 13.030808
_cell_length_c 8.354454
_cell_angle_alpha 90.000000
_cell_angle_beta 90.000000
_cell_angle_gamma 90.000000
_cell_volume 1527.602592
_symmetry_space_group_name_H-M "P M M 2"
_symmetry_group_IT_number 25
_symmetry_cell_setting 'orthorhombic'
loop_
_space_group_symop_operation_xyz
x,y,z
-x,-y,z
-x,y,z
x,-y,z
loop_
_atom_site_type_symbol
_atom_site_label
_atom_site_fract_x
_atom_site_fract_y
_atom_site_fract_z
Si Si1 0.614377 0.617861 0.895340
Si Si2 0.891119 0.815672 0.916503
Si Si3 0.737039 0.775762 0.689162
Si Si4 0.608852 0.675560 0.261336
Si Si5 0.208291 0.383727 0.444126
Si Si6 0.897067 0.117560 0.275901
Si Si7 0.683757 0.879079 0.381276
Si Si8 0.885983 0.613147 0.102490
O O1 0.500000 0.627621 0.875513
O O2 0.640386 0.500000 0.854206
O O3 0.668344 0.703202 0.792539
O O4 0.634716 0.638357 0.083413
O O5 0.809372 0.844180 0.793052
O O6 0.000000 0.818067 0.854400
O O7 0.891058 0.876493 0.083290
O O8 0.863550 0.700700 0.975555
O O9 0.802574 0.696868 0.585969
O O10 0.677104 0.845349 0.566261
O O11 0.500000 0.647200 0.293179
O O12 0.681786 0.626805 0.387313
O O13 0.622083 0.798677 0.278970
O O14 0.186644 0.500000 0.493233
O O15 0.150520 0.362434 0.280583
O O16 0.793764 0.148381 0.338568
O O17 0.000000 0.167505 0.319229
O O18 0.903656 0.000000 0.327538
O O19 0.666667 0.000000 0.355422
O O20 0.849832 0.500000 0.059187
O O21 0.000000 0.610365 0.109230
#
# Coordination Sequence:
#
# PCOD9337515 Si02
#       8
#     4   4   4   4   4   4   4   4
#     4  10  21  38  60  84 110 140 175 223 280 328
#     4  10  20  33  51  76 107 142 178 218 265 316
#     4  11  22  34  50  79 114 146 178 214 265 332
#     4  10  21  38  60  83 104 133 182 233 273 321
#     4  10  20  33  52  78 107 141 181 227 276 322
#     4   9  18  35  59  82 102 131 178 231 274 312
#     4  10  22  39  58  81 111 147 183 222 270 321
#     4   9  18  33  52  73 101 143 191 229 261 308
#
# _framework density 20.947856999999999
#
# number of rings (size 3 to 8) (size 9 to 14) (size 15 to 20)
#    0.000    2.125    0.000    3.750    0.000    6.500 
#    0.000    0.625    0.000    0.750    0.000    0.000 
#    0.000    0.000    0.000    0.000    0.000    0.000 
#
# Total GULP energy -178571.108756 kJ/mol
# GULP energy per Si atom -5580.347149 kJ/mol
# Density = 2.090018 g / cm^3
# Si number density = 20.947857 Si / 1000 Ang^3
#
#
#
# Elastic Constant Matrix: (Units=GPa)
#
#
# Indices 1 2 3 4 5 6 
#
# 1 64.4306 -13.0358 15.1908 0.0000 0.0000 0.0000
# 2 -13.0358 60.2717 -14.1849 0.0000 0.0000 0.0000
# 3 15.1908 -14.1849 33.3050 0.0000 0.0000 0.0000
# 4 0.0000 0.0000 0.0000 9.8651 0.0000 0.0000
# 5 0.0000 0.0000 0.0000 0.0000 7.9436 0.0000
# 6 0.0000 0.0000 0.0000 0.0000 0.0000 17.8310
#
#
#
# Elastic Compliance Matrix: (Units=1/GPa)
#
#
# Indices 1 2 3 4 5 6 
#
# 1 0.017635 0.002135 -0.007134 0.000000 0.000000 0.000000
# 2 0.002135 0.018698 0.006990 0.000000 0.000000 0.000000
# 3 -0.007134 0.006990 0.036256 0.000000 0.000000 0.000000
# 4 0.000000 0.000000 0.000000 0.101368 0.000000 0.000000
# 5 0.000000 0.000000 0.000000 0.000000 0.125888 0.000000
# 6 0.000000 0.000000 0.000000 0.000000 0.000000 0.056082
#
#
# Mechanical properties :
#
#
# Convention : Reuss Voigt Hill
#
# Bulk Modulus (GPa) = 13.05968 14.88307 13.97137
# Shear Modulus (GPa) = 13.24611 18.46374 15.85492
#
# Velocity S-wave (km/s) = 2.51736 2.97208 2.75412
# Velocity P-wave (km/s) = 3.83372 4.34718 4.09849
#
# Compressibility (1/GPa) = 0.07657157
#
# Stress axis : x y z
#
# Youngs Moduli (GPa) = 56.70693 53.48055 27.58128
#
# Poissons Ratio (x) = -0.11419 0.19676
# Poissons Ratio (y) = -0.12107 -0.19279
# Poissons Ratio (z) = 0.40454 -0.37383
#
# Static dielectric constant tensor:
#      x y z
#    x 1.773680 0.000000 0.000000 
#    y 0.000000 1.803190 0.000000 
#    z 0.000000 0.000000 1.753610 
# 
# From -- ./inp_files/3308.got.cif
#   From: 2010.05.17/outbox.cif.g08.bks.cpg/sg25_2_cif.got.tgz:3308.got - 2010.06.04 01:04:00.
