data_PCOD9337521
_publ_section_title
;
Structure prediction by ZEFSAII (Michael W. Deem and Ramdas Pophale) SiO2 
 PCOD9337521
Probable space group: P M M 2
;
_chemical_formula_sum "Si O2"
_cell_formula_units_Z 32
_cell_length_a 9.576750
_cell_length_b 8.223301
_cell_length_c 21.107593
_cell_angle_alpha 90.000000
_cell_angle_beta 90.000000
_cell_angle_gamma 90.000000
_cell_volume 1662.275672
_symmetry_space_group_name_H-M "P M M 2"
_symmetry_group_IT_number 25
_symmetry_cell_setting 'orthorhombic'
loop_
_space_group_symop_operation_xyz
x,y,z
-x,-y,z
-x,y,z
x,-y,z
loop_
_atom_site_type_symbol
_atom_site_label
_atom_site_fract_x
_atom_site_fract_y
_atom_site_fract_z
Si Si1 0.340473 0.695755 0.879250
Si Si2 0.839243 0.803577 0.239398
Si Si3 0.657206 0.693766 0.500254
Si Si4 0.159473 0.803804 0.382766
Si Si5 0.159473 0.196196 0.617741
Si Si6 0.839243 0.196423 0.761110
Si Si7 0.161289 0.699063 0.000254
Si Si8 0.659527 0.695755 0.121258
O O1 0.500000 0.756263 0.882766
O O2 0.345714 0.500000 0.883551
O O3 0.265616 0.740868 0.813883
O O4 0.245311 0.752976 0.937906
O O5 0.803332 0.751169 0.311208
O O6 0.734384 0.740868 0.186625
O O7 0.000000 0.752515 0.226334
O O8 0.837284 0.000000 0.238336
O O9 0.500000 0.760551 0.500254
O O10 0.651002 0.500000 0.500254
O O11 0.739079 0.746844 0.437560
O O12 0.739079 0.746844 0.562948
O O13 0.000000 0.750200 0.395539
O O14 0.159028 0.000000 0.382756
O O15 0.196668 0.248831 0.689300
O O16 0.000000 0.249800 0.604968
O O17 0.159028 0.000000 0.617752
O O18 0.000000 0.247484 0.774174
O O19 0.837284 0.000000 0.762173
O O20 0.160005 0.500000 0.000254
O O21 0.245311 0.752976 0.062602
O O22 0.000000 0.752204 0.000254
O O23 0.500000 0.756263 0.117742
O O24 0.654286 0.500000 0.116957
#
# Coordination Sequence:
#
# PCOD9337521 Si02
#       8
#     4   4   4   4   4   4   4   4
#     4  10  20  33  51  77 108 139 171 211 259 309
#     4   9  19  36  56  78 104 134 171 215 259 304
#     4  11  24  37  50  76 112 141 168 209 258 306
#     4   9  19  37  59  79 100 132 175 217 256 304
#     4   9  19  37  59  79 100 132 175 217 256 304
#     4   9  19  36  56  78 104 134 171 215 259 304
#     4   9  17  31  52  75 100 135 178 218 256 303
#     4  10  20  33  51  77 108 139 171 211 259 309
#
# _framework density 19.250717999999999
#
# number of rings (size 3 to 8) (size 9 to 14) (size 15 to 20)
#    0.000    2.500    0.000    3.375    0.000    8.500 
#    0.000    8.125    0.000    3.750    0.000    0.000 
#    0.000    0.000    0.000    0.000    0.000    0.000 
#
# Total GULP energy -178613.550174 kJ/mol
# GULP energy per Si atom -5581.673443 kJ/mol
# Density = 1.920690 g / cm^3
# Si number density = 19.250718 Si / 1000 Ang^3
#
#
#
# Elastic Constant Matrix: (Units=GPa)
#
#
# Indices 1 2 3 4 5 6 
#
# 1 192.2361 18.2132 147.3619 0.0000 0.0000 0.0000
# 2 18.2132 6.7487 15.0567 0.0000 0.0000 0.0000
# 3 147.3619 15.0567 185.1550 0.0000 0.0000 0.0000
# 4 0.0000 0.0000 0.0000 31.4920 0.0000 0.0000
# 5 0.0000 0.0000 0.0000 0.0000 -19.5613 0.0000
# 6 0.0000 0.0000 0.0000 0.0000 0.0000 25.6268
#
#
#
# Elastic Compliance Matrix: (Units=1/GPa)
#
#
# Indices 1 2 3 4 5 6 
#
# 1 0.014722 -0.016602 -0.010367 0.000000 0.000000 0.000000
# 2 -0.016602 0.199740 -0.003030 0.000000 0.000000 0.000000
# 3 -0.010367 -0.003030 0.013898 0.000000 0.000000 0.000000
# 4 0.000000 0.000000 0.000000 0.031754 0.000000 0.000000
# 5 0.000000 0.000000 0.000000 0.000000 -0.051121 0.000000
# 6 0.000000 0.000000 0.000000 0.000000 0.000000 0.039022
#
#
# Mechanical properties :
#
#
# Convention : Reuss Voigt Hill
#
# Bulk Modulus (GPa) = 5.93952 82.82261 44.38107
# Shear Modulus (GPa) = 13.73131 21.07870 17.40500
#
# Velocity S-wave (km/s) = 2.67364 3.31260 3.01012
# Velocity P-wave (km/s) = 3.55292 7.59919 5.93173
#
# Compressibility (1/GPa) = 0.16836364
#
# Stress axis : x y z
#
# Youngs Moduli (GPa) = 67.92774 5.00650 71.95355
#
# Poissons Ratio (x) = 0.08312 0.74591
# Poissons Ratio (y) = 1.12771 0.21800
# Poissons Ratio (z) = 0.70418 0.01517
#
# Static dielectric constant tensor:
#      x y z
#    x 1.659940 0.000000 0.000000 
#    y 0.000000 1.682100 0.000000 
#    z 0.000000 0.000000 1.648800 
# 
# From -- ./inp_files/6457.got.cif
#   From: 2010.05.17/outbox.cif.g08.bks.cpg/sg25_4_cif.got.tgz:6457.got - 2010.06.04 01:04:00.
