data_PCOD9337868
_publ_section_title
;
Structure prediction by ZEFSAII (Michael W. Deem and Ramdas Pophale) SiO2 
 PCOD9337868
Probable space group: P M M 2
;
_chemical_formula_sum "Si O2"
_cell_formula_units_Z 32
_cell_length_a 15.000000
_cell_length_b 9.000000
_cell_length_c 12.000000
_cell_angle_alpha 90.000000
_cell_angle_beta 90.000000
_cell_angle_gamma 90.000000
_cell_volume 1620.000000
_symmetry_space_group_name_H-M "P M M 2"
_symmetry_group_IT_number 25
_symmetry_cell_setting 'orthorhombic'
loop_
_space_group_symop_operation_xyz
x,y,z
-x,-y,z
-x,y,z
x,-y,z
loop_
_atom_site_type_symbol
_atom_site_label
_atom_site_fract_x
_atom_site_fract_y
_atom_site_fract_z
Si Si1 0.668231 0.833855 0.813650
Si Si2 0.717920 0.675093 0.593043
Si Si3 0.603144 0.822925 0.401861
Si Si4 0.281249 0.675083 0.214621
Si Si5 0.868538 0.169745 0.894119
Si Si6 0.903116 0.678737 0.127471
Si Si7 0.595663 0.667657 0.006209
Si Si8 0.902079 0.820885 0.641601
O O1 0.679578 0.720845 0.713168
O O2 0.762499 0.833557 0.877784
O O3 0.651612 0.000000 0.770834
O O4 0.599848 0.780961 0.905568
O O5 0.723436 0.500000 0.579674
O O6 0.651988 0.746439 0.504629
O O7 0.817114 0.744975 0.585977
O O8 0.500000 0.777183 0.393170
O O9 0.659166 0.770547 0.295981
O O10 0.606384 0.000000 0.413476
O O11 0.283192 0.500000 0.247246
O O12 0.179957 0.728634 0.201768
O O13 0.325819 0.686552 0.093398
O O14 0.901692 0.222275 0.772961
O O15 0.898748 0.000000 0.910671
O O16 0.893655 0.264079 0.001093
O O17 0.898415 0.500000 0.124358
O O18 0.000000 0.724358 0.170508
O O19 0.500000 0.679369 0.065309
O O20 0.603256 0.500000 0.960571
O O21 0.000000 0.785730 0.595050
O O22 0.889652 0.000000 0.639658
#
# Coordination Sequence:
#
# PCOD9337868 Si02
#       8
#     4   4   4   4   4   4   4   4
#     4  10  20  35  55  81 118 159 196 238 292 349
#     4  11  23  39  62  89 119 154 197 246 299 358
#     4  11  25  45  68  90 111 143 195 253 306 364
#     4  10  21  39  61  85 119 155 192 241 297 353
#     4   9  17  30  50  78 114 157 199 236 277 331
#     4  10  20  33  53  83 118 156 196 237 282 335
#     4  10  20  34  55  84 116 152 193 236 292 360
#     4   9  18  34  56  85 124 165 202 242 290 344
#
# _framework density 19.753086
#
# number of rings (size 3 to 8) (size 9 to 14) (size 15 to 20)
#    0.000    2.000    1.250    3.375    0.000    6.250 
#    0.000    0.625    0.000    2.250    0.000    0.000 
#    0.000    0.000    0.000    0.000    0.000    0.000 
#
# Total GULP energy -178487.871694 kJ/mol
# GULP energy per Si atom -5577.745990 kJ/mol
# Density = 1.970813 g / cm^3
# Si number density = 19.753086 Si / 1000 Ang^3
#
#
#
# Elastic Constant Matrix: (Units=GPa)
#
#
# Indices 1 2 3 4 5 6 
#
# 1 163.6007 62.0735 56.2024 0.0000 0.0000 0.0000
# 2 62.0735 50.9444 35.9474 0.0000 0.0000 0.0000
# 3 56.2024 35.9474 42.3924 0.0000 0.0000 0.0000
# 4 0.0000 0.0000 0.0000 29.7178 0.0000 0.0000
# 5 0.0000 0.0000 0.0000 0.0000 33.3752 0.0000
# 6 0.0000 0.0000 0.0000 0.0000 0.0000 19.6872
#
#
#
# Elastic Compliance Matrix: (Units=1/GPa)
#
#
# Indices 1 2 3 4 5 6 
#
# 1 0.012669 -0.008925 -0.009228 0.000000 0.000000 0.000000
# 2 -0.008925 0.055159 -0.034940 0.000000 0.000000 0.000000
# 3 -0.009228 -0.034940 0.065451 0.000000 0.000000 0.000000
# 4 0.000000 0.000000 0.000000 0.033650 0.000000 0.000000
# 5 0.000000 0.000000 0.000000 0.000000 0.029962 0.000000
# 6 0.000000 0.000000 0.000000 0.000000 0.000000 0.050794
#
#
# Mechanical properties :
#
#
# Convention : Reuss Voigt Hill
#
# Bulk Modulus (GPa) = 36.91046 62.82047 49.86546
# Shear Modulus (GPa) = 13.77782 23.40366 18.59074
#
# Velocity S-wave (km/s) = 2.64389 3.44584 3.07115
# Velocity P-wave (km/s) = 5.29591 6.90678 6.15428
#
# Compressibility (1/GPa) = 0.02709259
#
# Stress axis : x y z
#
# Youngs Moduli (GPa) = 78.93359 18.12948 15.27860
#
# Poissons Ratio (x) = 0.16181 0.14099
# Poissons Ratio (y) = 0.70450 0.53384
# Poissons Ratio (z) = 0.72837 0.63345
#
# Static dielectric constant tensor:
#      x y z
#    x 1.668050 0.000000 0.000000 
#    y 0.000000 1.677240 0.000000 
#    z 0.000000 0.000000 1.702900 
# 
# From -- ./inp_files/4913.got.cif
#   From: 2010.05.17/outbox.ucp.g08.bks.cvg/sg25_3_cif.got.tgz:4913.got - 2010.06.11 15:23:09.
