data_PCOD9337363
_publ_section_title
;
Structure prediction by ZEFSAII (Michael W. Deem and Ramdas Pophale) SiO2 
 PCOD9337363
Probable space group: P M M 2
;
_chemical_formula_sum "Si O2"
_cell_formula_units_Z 32
_cell_length_a 9.848062
_cell_length_b 7.443046
_cell_length_c 21.551128
_cell_angle_alpha 90.000000
_cell_angle_beta 90.000000
_cell_angle_gamma 90.000000
_cell_volume 1579.688598
_symmetry_space_group_name_H-M "P M M 2"
_symmetry_group_IT_number 25
_symmetry_cell_setting 'orthorhombic'
loop_
_space_group_symop_operation_xyz
x,y,z
-x,-y,z
-x,y,z
x,-y,z
loop_
_atom_site_type_symbol
_atom_site_label
_atom_site_fract_x
_atom_site_fract_y
_atom_site_fract_z
Si Si1 0.342830 0.215557 0.571440
Si Si2 0.654391 0.712697 0.707026
Si Si3 0.153550 0.713072 0.318686
Si Si4 0.156704 0.281006 0.956169
Si Si5 0.656784 0.783641 0.435529
Si Si6 0.343594 0.719363 0.208231
Si Si7 0.343952 0.281043 0.068293
Si Si8 0.843246 0.280586 0.817483
O O1 0.500000 0.276839 0.573567
O O2 0.283327 0.266055 0.638063
O O3 0.292614 0.277140 0.503917
O O4 0.342138 0.000000 0.570171
O O5 0.500000 0.786735 0.707404
O O6 0.643226 0.500000 0.717239
O O7 0.747372 0.784270 0.762256
O O8 0.141987 0.500000 0.308362
O O9 0.242111 0.735196 0.380692
O O10 0.240857 0.784561 0.260732
O O11 0.000000 0.784871 0.323682
O O12 0.159534 0.500000 0.956840
O O13 0.201055 0.226338 0.886884
O O14 0.000000 0.227746 0.964210
O O15 0.248635 0.218141 0.012839
O O16 0.500000 0.721580 0.425747
O O17 0.650561 0.000000 0.437026
O O18 0.500000 0.773961 0.220302
O O19 0.343849 0.500000 0.209270
O O20 0.305228 0.773869 0.138206
O O21 0.500000 0.228025 0.058081
O O22 0.340658 0.500000 0.067958
O O23 0.842563 0.500000 0.816619
O O24 0.000000 0.226293 0.808843
#
# Coordination Sequence:
#
# PCOD9337363 Si02
#       8
#     4   4   4   4   4   4   4   4
#     4   8  15  29  47  65  85 108 135 170 212 256
#     4   9  16  25  40  63  85 105 135 173 207 242
#     4  10  20  31  44  66  94 121 149 182 221 264
#     4   8  13  20  30  45  68 102 140 170 199 243
#     4   9  18  33  52  70  87 113 149 184 221 267
#     4   8  14  25  39  55  79 112 146 178 214 256
#     4   8  13  20  31  49  73 102 137 175 212 248
#     4   8  14  24  35  49  75 110 141 168 204 249
#
# _framework density 20.257156999999999
#
# number of rings (size 3 to 8) (size 9 to 14) (size 15 to 20)
#    0.000    3.500    0.000    2.625    0.000    2.500 
#    0.000    6.875    0.000    2.625    0.000    0.000 
#    0.000    1.000    0.000    5.500    0.000    7.500 
#
# Total GULP energy -178318.526424 kJ/mol
# GULP energy per Si atom -5572.453951 kJ/mol
# Density = 2.021105 g / cm^3
# Si number density = 20.257157 Si / 1000 Ang^3
#
#
#
# Elastic Constant Matrix: (Units=GPa)
#
#
# Indices 1 2 3 4 5 6 
#
# 1 106.9487 4.8095 128.2457 0.0000 0.0000 0.0000
# 2 4.8095 60.0188 2.6816 0.0000 0.0000 0.0000
# 3 128.2457 2.6816 241.5053 0.0000 0.0000 0.0000
# 4 0.0000 0.0000 0.0000 59.7887 0.0000 0.0000
# 5 0.0000 0.0000 0.0000 0.0000 -22.2230 0.0000
# 6 0.0000 0.0000 0.0000 0.0000 0.0000 -1.7485
#
#
#
# Elastic Compliance Matrix: (Units=1/GPa)
#
#
# Indices 1 2 3 4 5 6 
#
# 1 0.025869 -0.001460 -0.013721 0.000000 0.000000 0.000000
# 2 -0.001460 0.016752 0.000589 0.000000 0.000000 0.000000
# 3 -0.013721 0.000589 0.011420 0.000000 0.000000 0.000000
# 4 0.000000 0.000000 0.000000 0.016726 0.000000 0.000000
# 5 0.000000 0.000000 0.000000 0.000000 -0.044998 0.000000
# 6 0.000000 0.000000 0.000000 0.000000 0.000000 -0.571931
#
#
# Mechanical properties :
#
#
# Convention : Reuss Voigt Hill
#
# Bulk Modulus (GPa) = 40.22803 75.54960 57.88881
# Shear Modulus (GPa) = -9.82913 25.34584 7.75835
#
# Velocity S-wave (km/s) = -2.20516 3.54107 1.95914
# Velocity P-wave (km/s) = 3.66308 7.35494 5.81005
#
# Compressibility (1/GPa) = 0.02485829
#
# Stress axis : x y z
#
# Youngs Moduli (GPa) = 38.65577 59.69402 87.56246
#
# Poissons Ratio (x) = 0.08715 1.20145
# Poissons Ratio (y) = 0.05644 -0.05160
# Poissons Ratio (z) = 0.53040 -0.03518
#
# Static dielectric constant tensor:
#      x y z
#    x 1.687420 0.000000 0.000000 
#    y 0.000000 1.785580 0.000000 
#    z 0.000000 0.000000 1.728360 
# 
# From -- ./inp_files/6578.got.cif
#   From: 2010.05.17/outbox.cif.g08.bks.cpg/sg25_4_cif.got.tgz:6578.got - 2010.06.04 01:04:00.
