data_PCOD9337356
_publ_section_title
;
Structure prediction by ZEFSAII (Michael W. Deem and Ramdas Pophale) SiO2 
 PCOD9337356
Probable space group: P M M 2
;
_chemical_formula_sum "Si O2"
_cell_formula_units_Z 32
_cell_length_a 8.105215
_cell_length_b 14.451099
_cell_length_c 14.496424
_cell_angle_alpha 90.000000
_cell_angle_beta 90.000000
_cell_angle_gamma 90.000000
_cell_volume 1697.955479
_symmetry_space_group_name_H-M "P M M 2"
_symmetry_group_IT_number 25
_symmetry_cell_setting 'orthorhombic'
loop_
_space_group_symop_operation_xyz
x,y,z
-x,-y,z
-x,y,z
x,-y,z
loop_
_atom_site_type_symbol
_atom_site_label
_atom_site_fract_x
_atom_site_fract_y
_atom_site_fract_z
Si Si1 0.307398 0.246404 0.139720
Si Si2 0.298792 0.103794 0.502920
Si Si3 0.699092 0.393683 0.997164
Si Si4 0.804044 0.605713 0.793961
Si Si5 0.816164 0.890520 0.781014
Si Si6 0.701452 0.896123 0.286883
Si Si7 0.310988 0.105321 0.972409
Si Si8 0.684673 0.752387 0.647909
O O1 0.500000 0.268338 0.161718
O O2 0.236496 0.191330 0.227606
O O3 0.236397 0.334529 0.084308
O O4 0.303742 0.169165 0.060175
O O5 0.500000 0.104035 0.510381
O O6 0.257926 0.112210 0.394937
O O7 0.238004 0.192287 0.561092
O O8 0.244489 0.000000 0.534471
O O9 0.500000 0.391691 0.003168
O O10 0.756106 0.500000 0.001579
O O11 0.739871 0.358592 0.893628
O O12 0.740782 0.500000 0.782925
O O13 0.762303 0.668288 0.705475
O O14 0.000000 0.602825 0.801942
O O15 0.802416 0.865812 0.888161
O O16 0.686208 0.834573 0.722833
O O17 0.000000 0.867467 0.747073
O O18 0.790411 0.000000 0.774693
O O19 0.500000 0.895760 0.279214
O O20 0.753997 0.000000 0.255902
O O21 0.500000 0.107535 0.937601
O O22 0.272162 0.000000 0.998136
O O23 0.500000 0.723910 0.622217
#
# Coordination Sequence:
#
# PCOD9337356 Si02
#       8
#     4   4   4   4   4   4   4   4
#     4   9  15  23  39  62  87 116 149 185 226 270
#     4   8  15  27  43  66  95 124 154 190 233 278
#     4   9  17  29  45  67  95 124 153 186 226 273
#     4  10  21  36  52  70  93 122 157 196 237 283
#     4  10  20  31  42  61  92 127 159 190 227 274
#     4   8  13  23  40  63  92 122 151 186 227 270
#     4   9  16  25  38  59  86 114 146 184 226 273
#     4  11  20  30  48  70  92 120 155 195 238 284
#
# _framework density 18.846195000000002
#
# number of rings (size 3 to 8) (size 9 to 14) (size 15 to 20)
#    0.000    2.750    0.000    3.375    0.000    4.500 
#    0.000    0.000    0.000    0.750    0.000    7.000 
#    0.000    8.000    0.000    0.000    0.000    0.000 
#
# Total GULP energy -178176.053963 kJ/mol
# GULP energy per Si atom -5568.001686 kJ/mol
# Density = 1.880330 g / cm^3
# Si number density = 18.846195 Si / 1000 Ang^3
#
#
#
# Elastic Constant Matrix: (Units=GPa)
#
#
# Indices 1 2 3 4 5 6 
#
# 1 14.1517 7.9486 5.7953 0.0000 0.0000 0.0000
# 2 7.9486 99.9401 52.0477 0.0000 0.0000 0.0000
# 3 5.7953 52.0477 83.4855 0.0000 0.0000 0.0000
# 4 0.0000 0.0000 0.0000 36.2730 0.0000 0.0000
# 5 0.0000 0.0000 0.0000 0.0000 -8.1182 0.0000
# 6 0.0000 0.0000 0.0000 0.0000 0.0000 47.0596
#
#
#
# Elastic Compliance Matrix: (Units=1/GPa)
#
#
# Indices 1 2 3 4 5 6 
#
# 1 0.074234 -0.004769 -0.002180 0.000000 0.000000 0.000000
# 2 -0.004769 0.015123 -0.009097 0.000000 0.000000 0.000000
# 3 -0.002180 -0.009097 0.017801 0.000000 0.000000 0.000000
# 4 0.000000 0.000000 0.000000 0.027569 0.000000 0.000000
# 5 0.000000 0.000000 0.000000 0.000000 -0.123180 0.000000
# 6 0.000000 0.000000 0.000000 0.000000 0.000000 0.021250
#
#
# Mechanical properties :
#
#
# Convention : Reuss Voigt Hill
#
# Bulk Modulus (GPa) = 13.32159 36.57339 24.94749
# Shear Modulus (GPa) = 55.61085 23.82858 39.71971
#
# Velocity S-wave (km/s) = 5.43800 3.55966 4.59581
# Velocity P-wave (km/s) = 6.82004 6.02854 6.43647
#
# Compressibility (1/GPa) = 0.07506614
#
# Stress axis : x y z
#
# Youngs Moduli (GPa) = 13.47088 66.12452 56.17681
#
# Poissons Ratio (x) = 0.31533 0.12247
# Poissons Ratio (y) = 0.06424 0.51105
# Poissons Ratio (z) = 0.02937 0.60155
#
# Static dielectric constant tensor:
#      x y z
#    x 1.692410 0.000000 0.000000 
#    y 0.000000 1.692510 0.000000 
#    z 0.000000 0.000000 1.664120 
# 
# From -- ./inp_files/5712.got.cif
#   From: 2010.05.17/outbox.cif.g08.bks.cpg/sg25_3_cif.got.tgz:5712.got - 2010.06.04 01:04:00.
