data_PCOD9337879
_publ_section_title
;
Structure prediction by ZEFSAII (Michael W. Deem and Ramdas Pophale) SiO2 
 PCOD9337879
Probable space group: P M C 21
;
_chemical_formula_sum "Si O2"
_cell_formula_units_Z 28
_cell_length_a 22.903561
_cell_length_b 18.270248
_cell_length_c 5.402392
_cell_angle_alpha 90.000000
_cell_angle_beta 90.000000
_cell_angle_gamma 90.000000
_cell_volume 2260.651135
_symmetry_space_group_name_H-M "P M C 21"
_symmetry_group_IT_number 26
_symmetry_cell_setting 'orthorhombic'
loop_
_space_group_symop_operation_xyz
x,y,z
-x,-y,1/2+z
-x,y,z
x,-y,1/2+z
loop_
_atom_site_type_symbol
_atom_site_label
_atom_site_fract_x
_atom_site_fract_y
_atom_site_fract_z
Si Si1 0.928864 0.710985 0.482430
Si Si2 0.259966 0.075975 0.482455
Si Si3 0.691460 0.910167 0.482456
Si Si4 0.878001 0.955874 0.982449
Si Si5 0.564876 0.048877 0.982450
Si Si6 0.928851 0.458469 0.982426
Si Si7 0.929516 0.206038 0.482429
O O1 0.910593 0.626255 0.482430
O O2 0.910230 0.752387 0.732533
O O3 0.000000 0.711290 0.482432
O O4 0.910231 0.752386 0.232325
O O5 0.278676 0.116624 0.233237
O O6 0.192008 0.056339 0.482449
O O7 0.294769 0.998234 0.482458
O O8 0.278674 0.116623 0.731678
O O9 0.622053 0.900893 0.482451
O O10 0.893273 0.999997 0.232456
O O11 0.907539 0.876836 0.982434
O O12 0.500000 0.083020 0.982450
O O13 0.568693 1.000000 0.232450
O O14 0.910366 0.499999 0.732425
O O15 0.000000 0.458935 0.982426
O O16 0.000000 0.205971 0.482428
#
# Coordination Sequence:
#
# PCOD9337879 Si02
#       7
#     4   4   4   4   4   4   4
#     4   9  17  31  44  56  77  97 111 125 156 212
#     4  10  16  25  37  49  59  76  99 136 180 207
#     4  10  14  25  36  46  63  80  96 123 174 211
#     4  12  21  31  43  55  65  79 117 162 189 218
#     4  10  16  20  29  45  62  80  98 114 139 199
#     4   9  15  23  40  64  81  93 109 127 143 172
#     4  10  21  33  43  53  69  95 114 137 184 225
#
# _framework density 12.385813000000001
#
# number of rings (size 3 to 8) (size 9 to 14) (size 15 to 20)
#    0.000    2.000    5.714    1.714    0.000    4.000 
#    0.000    0.000    0.000    0.000    0.000    0.000 
#    0.000    0.000    0.000    0.000    0.000    0.000 
#
# Total GULP energy -155883.180681 kJ/mol
# GULP energy per Si atom -5567.256453 kJ/mol
# Density = 1.235762 g / cm^3
# Si number density = 12.385813 Si / 1000 Ang^3
#
#
#
# Elastic Constant Matrix: (Units=GPa)
#
#
# Indices 1 2 3 4 5 6 
#
# 1 11.8343 14.2447 14.3205 0.0000 0.0000 0.0000
# 2 14.2447 81.8506 58.8525 0.0000 0.0000 0.0000
# 3 14.3205 58.8525 155.5085 0.0000 0.0000 0.0000
# 4 0.0000 0.0000 0.0000 16.9378 0.0000 0.0000
# 5 0.0000 0.0000 0.0000 0.0000 7.5582 0.0000
# 6 0.0000 0.0000 0.0000 0.0000 0.0000 -0.7812
#
#
#
# Elastic Compliance Matrix: (Units=1/GPa)
#
#
# Indices 1 2 3 4 5 6 
#
# 1 0.108597 -0.016086 -0.003913 0.000000 0.000000 0.000000
# 2 -0.016086 0.019168 -0.005773 0.000000 0.000000 0.000000
# 3 -0.003913 -0.005773 0.008976 0.000000 0.000000 0.000000
# 4 0.000000 0.000000 0.000000 0.059040 0.000000 0.000000
# 5 0.000000 0.000000 0.000000 0.000000 0.132306 0.000000
# 6 0.000000 0.000000 0.000000 0.000000 0.000000 -1.280131
#
#
# Mechanical properties :
#
#
# Convention : Reuss Voigt Hill
#
# Bulk Modulus (GPa) = 11.73748 47.11429 29.42588
# Shear Modulus (GPa) = -5.73327 15.52802 4.89738
#
# Velocity S-wave (km/s) = -2.15382 3.54460 1.99063
# Velocity P-wave (km/s) = 1.81985 7.40768 5.39377
#
# Compressibility (1/GPa) = 0.08519715
#
# Stress axis : x y z
#
# Youngs Moduli (GPa) = 9.20836 52.17150 111.41440
#
# Poissons Ratio (x) = 0.83923 0.43593
# Poissons Ratio (y) = 0.14813 0.64316
# Poissons Ratio (z) = 0.03603 0.30117
#
# Static dielectric constant tensor:
#      x y z
#    x 1.401410 0.000000 0.000000 
#    y 0.000000 1.367560 0.000000 
#    z 0.000000 0.000000 1.481330 
# 
# From -- ./inp_files/899.got.cif
#   From: 2010.05.17/outbox.cif.g08.bks.cpg/sg26_1_cif.got.tgz:899.got - 2010.06.04 01:07:29.
