data_PCOD9337471
_publ_section_title
;
Structure prediction by ZEFSAII (Michael W. Deem and Ramdas Pophale) SiO2 
 PCOD9337471
Probable space group: P M M 2
;
_chemical_formula_sum "Si O2"
_cell_formula_units_Z 28
_cell_length_a 7.491752
_cell_length_b 9.597904
_cell_length_c 18.902893
_cell_angle_alpha 90.000000
_cell_angle_beta 90.000000
_cell_angle_gamma 90.000000
_cell_volume 1359.214723
_symmetry_space_group_name_H-M "P M M 2"
_symmetry_group_IT_number 25
_symmetry_cell_setting 'orthorhombic'
loop_
_space_group_symop_operation_xyz
x,y,z
-x,-y,z
-x,y,z
x,-y,z
loop_
_atom_site_type_symbol
_atom_site_label
_atom_site_fract_x
_atom_site_fract_y
_atom_site_fract_z
Si Si1 0.281077 0.838690 0.229680
Si Si2 0.788944 0.658765 0.938787
Si Si3 0.292070 0.830507 0.383415
Si Si4 0.714125 0.658214 0.097682
Si Si5 0.718440 0.161433 0.538181
Si Si6 0.290074 0.843156 0.804608
Si Si7 0.281379 0.660210 0.673345
O O1 0.500000 0.836011 0.231347
O O2 0.218675 0.786479 0.307052
O O3 0.220128 0.750435 0.162646
O O4 0.229681 0.000000 0.221657
O O5 0.715405 0.500000 0.932026
O O6 0.724124 0.762199 0.878484
O O7 0.000000 0.649567 0.930180
O O8 0.752827 0.709734 0.018502
O O9 0.500000 0.788119 0.383884
O O10 0.217785 0.791427 0.460196
O O11 0.287802 0.000000 0.382423
O O12 0.500000 0.653331 0.104031
O O13 0.782785 0.500000 0.101977
O O14 0.500000 0.161389 0.536133
O O15 0.773412 0.260260 0.601998
O O16 0.770920 0.000000 0.550016
O O17 0.500000 0.856705 0.789356
O O18 0.217984 0.747267 0.741359
O O19 0.215386 0.000000 0.807291
O O20 0.500000 0.658696 0.673937
O O21 0.223506 0.500000 0.675775
#
# Coordination Sequence:
#
# PCOD9337471 Si02
#       7
#     4   4   4   4   4   4   4
#     4   8  13  22  37  57  81 111 148 184 216 257
#     4  10  21  36  52  69  91 120 152 187 231 281
#     4   7  10  17  30  49  75 109 145 178 214 257
#     4   9  17  29  45  65  89 116 146 182 224 268
#     4   8  12  19  32  50  76 111 147 180 216 260
#     4  10  20  33  50  71  93 119 153 191 230 273
#     4   9  16  25  38  58  85 116 149 184 221 263
#
# _framework density 20.60013
#
# number of rings (size 3 to 8) (size 9 to 14) (size 15 to 20)
#    0.000    3.286    0.000    3.000    0.000    4.000 
#    0.000    2.143    0.000    4.286    0.000    0.000 
#    0.000    1.143    0.000    9.143    0.000   10.143 
#
# Total GULP energy -156094.735137 kJ/mol
# GULP energy per Si atom -5574.811969 kJ/mol
# Density = 2.055324 g / cm^3
# Si number density = 20.600130 Si / 1000 Ang^3
#
#
#
# Elastic Constant Matrix: (Units=GPa)
#
#
# Indices 1 2 3 4 5 6 
#
# 1 55.4872 5.2821 -0.9568 0.0000 0.0000 0.0000
# 2 5.2821 119.1381 125.0202 0.0000 0.0000 0.0000
# 3 -0.9568 125.0202 238.0741 0.0000 0.0000 0.0000
# 4 0.0000 0.0000 0.0000 30.9459 0.0000 0.0000
# 5 0.0000 0.0000 0.0000 0.0000 -43.3449 0.0000
# 6 0.0000 0.0000 0.0000 0.0000 0.0000 -6.2221
#
#
#
# Elastic Compliance Matrix: (Units=1/GPa)
#
#
# Indices 1 2 3 4 5 6 
#
# 1 0.018229 -0.001971 0.001109 0.000000 0.000000 0.000000
# 2 -0.001971 0.018910 -0.009938 0.000000 0.000000 0.000000
# 3 0.001109 -0.009938 0.009424 0.000000 0.000000 0.000000
# 4 0.000000 0.000000 0.000000 0.032314 0.000000 0.000000
# 5 0.000000 0.000000 0.000000 0.000000 -0.023071 0.000000
# 6 0.000000 0.000000 0.000000 0.000000 0.000000 -0.160717
#
#
# Mechanical properties :
#
#
# Convention : Reuss Voigt Hill
#
# Bulk Modulus (GPa) = 40.06347 74.59894 57.33120
# Shear Modulus (GPa) = -66.67605 15.16603 -25.75501
#
# Velocity S-wave (km/s) = -5.69536 2.71626 -3.53970
# Velocity P-wave (km/s) = 4.87433 6.79183 3.34439
#
# Compressibility (1/GPa) = 0.02496039
#
# Stress axis : x y z
#
# Youngs Moduli (GPa) = 54.85771 52.88292 106.11668
#
# Poissons Ratio (x) = 0.10426 -0.11763
# Poissons Ratio (y) = 0.10815 1.05459
# Poissons Ratio (z) = -0.06081 0.52555
#
# Static dielectric constant tensor:
#      x y z
#    x 1.770360 0.000000 0.000000 
#    y 0.000000 1.701500 0.000000 
#    z 0.000000 0.000000 1.739910 
# 
# From -- ./inp_files/6395.got.cif
#   From: 2010.05.17/outbox.cif.g08.bks.cpg/sg25_4_cif.got.tgz:6395.got - 2010.06.04 01:04:00.
