data_PCOD9337584
_publ_section_title
;
Structure prediction by ZEFSAII (Michael W. Deem and Ramdas Pophale) SiO2 
 PCOD9337584
Probable space group: P M M 2
;
_chemical_formula_sum "Si O2"
_cell_formula_units_Z 32
_cell_length_a 9.648849
_cell_length_b 7.874407
_cell_length_c 20.924338
_cell_angle_alpha 90.000000
_cell_angle_beta 90.000000
_cell_angle_gamma 90.000000
_cell_volume 1589.809526
_symmetry_space_group_name_H-M "P M M 2"
_symmetry_group_IT_number 25
_symmetry_cell_setting 'orthorhombic'
loop_
_space_group_symop_operation_xyz
x,y,z
-x,-y,z
-x,y,z
x,-y,z
loop_
_atom_site_type_symbol
_atom_site_label
_atom_site_fract_x
_atom_site_fract_y
_atom_site_fract_z
Si Si1 0.657775 0.794800 0.553750
Si Si2 0.843326 0.703335 0.289520
Si Si3 0.656734 0.296642 0.173049
Si Si4 0.842026 0.205042 0.053781
Si Si5 0.841273 0.207495 0.908703
Si Si6 0.343843 0.202901 0.792288
Si Si7 0.342644 0.794948 0.408254
Si Si8 0.843171 0.298788 0.672584
O O1 0.500000 0.739757 0.569857
O O2 0.687943 0.739396 0.480989
O O3 0.767744 0.736615 0.605611
O O4 0.657307 0.000000 0.554111
O O5 0.851947 0.500000 0.281479
O O6 0.749576 0.771476 0.231454
O O7 0.766274 0.736407 0.356041
O O8 0.000000 0.771246 0.288461
O O9 0.500000 0.228814 0.173652
O O10 0.648066 0.500000 0.181043
O O11 0.734899 0.263423 0.106824
O O12 0.000000 0.261441 0.068572
O O13 0.842796 0.000000 0.053781
O O14 0.808185 0.260289 0.981310
O O15 0.736606 0.269614 0.854676
O O16 0.000000 0.257924 0.894335
O O17 0.839369 0.000000 0.908209
O O18 0.500000 0.270765 0.785521
O O19 0.251965 0.231399 0.729686
O O20 0.354325 0.000000 0.800467
O O21 0.500000 0.738765 0.392153
O O22 0.343093 0.000000 0.408413
O O23 0.851146 0.500000 0.680873
O O24 0.000000 0.228879 0.674392
#
# Coordination Sequence:
#
# PCOD9337584 Si02
#       8
#     4   4   4   4   4   4   4   4
#     4   9  19  37  59  81 105 135 172 211 253 306
#     4  10  21  36  54  76 103 137 176 216 258 306
#     4  10  21  36  53  74 102 138 179 218 257 306
#     4   9  18  33  54  80 107 135 170 212 258 309
#     4   8  15  30  52  77 105 136 170 209 254 306
#     4  10  20  34  55  81 105 133 172 215 259 309
#     4   9  19  36  57  81 108 136 168 209 256 306
#     4  11  24  38  52  75 107 140 175 215 257 303
#
# _framework density 20.128198000000001
#
# number of rings (size 3 to 8) (size 9 to 14) (size 15 to 20)
#    0.000    2.500    0.000    3.375    0.000    7.500 
#    0.000    5.625    0.000    0.750    0.000    0.000 
#    0.000    0.000    0.000    0.000    0.000    0.000 
#
# Total GULP energy -178644.290367 kJ/mol
# GULP energy per Si atom -5582.634074 kJ/mol
# Density = 2.008238 g / cm^3
# Si number density = 20.128198 Si / 1000 Ang^3
#
#
#
# Elastic Constant Matrix: (Units=GPa)
#
#
# Indices 1 2 3 4 5 6 
#
# 1 205.8192 9.5116 134.8898 0.0000 0.0000 0.0000
# 2 9.5116 18.9818 0.5233 0.0000 0.0000 0.0000
# 3 134.8898 0.5233 145.7583 0.0000 0.0000 0.0000
# 4 0.0000 0.0000 0.0000 37.6395 0.0000 0.0000
# 5 0.0000 0.0000 0.0000 0.0000 39.6909 0.0000
# 6 0.0000 0.0000 0.0000 0.0000 0.0000 18.8663
#
#
#
# Elastic Compliance Matrix: (Units=1/GPa)
#
#
# Indices 1 2 3 4 5 6 
#
# 1 0.013039 -0.006202 -0.012044 0.000000 0.000000 0.000000
# 2 -0.006202 0.055637 0.005539 0.000000 0.000000 0.000000
# 3 -0.012044 0.005539 0.017987 0.000000 0.000000 0.000000
# 4 0.000000 0.000000 0.000000 0.026568 0.000000 0.000000
# 5 0.000000 0.000000 0.000000 0.000000 0.025195 0.000000
# 6 0.000000 0.000000 0.000000 0.000000 0.000000 0.053005
#
#
# Mechanical properties :
#
#
# Convention : Reuss Voigt Hill
#
# Bulk Modulus (GPa) = 16.32656 73.37873 44.85265
# Shear Modulus (GPa) = 21.07396 34.28164 27.67780
#
# Velocity S-wave (km/s) = 3.23923 4.13142 3.71222
# Velocity P-wave (km/s) = 4.70309 7.70019 6.38013
#
# Compressibility (1/GPa) = 0.06124990
#
# Stress axis : x y z
#
# Youngs Moduli (GPa) = 76.69383 17.97364 55.59556
#
# Poissons Ratio (x) = 0.11147 0.66961
# Poissons Ratio (y) = 0.47563 -0.30797
# Poissons Ratio (z) = 0.92373 -0.09956
#
# Static dielectric constant tensor:
#      x y z
#    x 1.708240 0.000000 0.000000 
#    y 0.000000 1.739170 0.000000 
#    z 0.000000 0.000000 1.682890 
# 
# From -- ./inp_files/6494.got.cif
#   From: 2010.05.17/outbox.cif.g08.bks.cpg/sg25_4_cif.got.tgz:6494.got - 2010.06.04 01:04:00.
