data_PCOD9337297
_publ_section_title
;
Structure prediction by ZEFSAII (Michael W. Deem and Ramdas Pophale) SiO2 
 PCOD9337297
Probable space group: P M M 2
;
_chemical_formula_sum "Si O2"
_cell_formula_units_Z 28
_cell_length_a 19.750605
_cell_length_b 8.940353
_cell_length_c 9.783073
_cell_angle_alpha 90.000000
_cell_angle_beta 90.000000
_cell_angle_gamma 90.000000
_cell_volume 1727.469405
_symmetry_space_group_name_H-M "P M M 2"
_symmetry_group_IT_number 25
_symmetry_cell_setting 'orthorhombic'
loop_
_space_group_symop_operation_xyz
x,y,z
-x,-y,z
-x,y,z
x,-y,z
loop_
_atom_site_type_symbol
_atom_site_label
_atom_site_fract_x
_atom_site_fract_y
_atom_site_fract_z
Si Si1 0.576833 0.681981 0.757080
Si Si2 0.419760 0.677500 0.070127
Si Si3 0.303378 0.681425 0.555723
Si Si4 0.307602 0.177750 0.256612
Si Si5 0.186914 0.675690 0.760664
Si Si6 0.197656 0.674980 0.064743
Si Si7 0.078506 0.178346 0.925401
O O1 0.500000 0.729956 0.724145
O O2 0.576697 0.500000 0.758012
O O3 0.632540 0.729345 0.647884
O O4 0.592757 0.726206 0.913187
O O5 0.500000 0.694671 0.095755
O O6 0.403830 0.500000 0.080324
O O7 0.373633 0.765530 0.175408
O O8 0.305897 0.751211 0.406753
O O9 0.235520 0.723353 0.639090
O O10 0.306691 0.000000 0.264672
O O11 0.304474 0.500000 0.546309
O O12 0.243755 0.236785 0.169294
O O13 0.170462 0.500000 0.744734
O O14 0.225393 0.687993 0.907921
O O15 0.118691 0.767751 0.789571
O O16 0.195723 0.500000 0.099533
O O17 0.122393 0.742089 0.044419
O O18 0.000000 0.221126 0.924935
O O19 0.083733 0.000000 0.938254
#
# Coordination Sequence:
#
# PCOD9337297 Si02
#       7
#     4   4   4   4   4   4   4
#     4   8  15  30  54  79  98 122 167 221 263 300
#     4   9  18  35  58  78  97 129 174 221 265 311
#     4  10  19  33  51  73 102 137 177 216 256 304
#     4  12  24  34  47  73 108 142 173 213 266 316
#     4   8  17  31  52  77 100 132 174 217 250 292
#     4   9  18  34  55  77 100 132 174 216 251 296
#     4   9  17  30  52  83 113 136 161 201 255 310
#
# _framework density 16.208682
#
# number of rings (size 3 to 8) (size 9 to 14) (size 15 to 20)
#    0.857    1.857    0.000    3.429    0.000    4.857 
#    0.000    2.143    0.000    1.714    0.000    4.000 
#    0.000    0.000    0.000    0.000    0.000    0.000 
#
# Total GULP energy -155877.898356 kJ/mol
# GULP energy per Si atom -5567.067798 kJ/mol
# Density = 1.617179 g / cm^3
# Si number density = 16.208682 Si / 1000 Ang^3
#
#
#
# Elastic Constant Matrix: (Units=GPa)
#
#
# Indices 1 2 3 4 5 6 
#
# 1 106.9781 51.0631 70.6380 0.0000 0.0000 0.0000
# 2 51.0631 58.3198 46.5242 0.0000 0.0000 0.0000
# 3 70.6380 46.5242 108.7471 0.0000 0.0000 0.0000
# 4 0.0000 0.0000 0.0000 11.0752 0.0000 0.0000
# 5 0.0000 0.0000 0.0000 0.0000 -1.2283 0.0000
# 6 0.0000 0.0000 0.0000 0.0000 0.0000 20.4312
#
#
#
# Elastic Compliance Matrix: (Units=1/GPa)
#
#
# Indices 1 2 3 4 5 6 
#
# 1 0.020086 -0.010898 -0.008385 0.000000 0.000000 0.000000
# 2 -0.010898 0.031944 -0.006587 0.000000 0.000000 0.000000
# 3 -0.008385 -0.006587 0.017460 0.000000 0.000000 0.000000
# 4 0.000000 0.000000 0.000000 0.090292 0.000000 0.000000
# 5 0.000000 0.000000 0.000000 0.000000 -0.814113 0.000000
# 6 0.000000 0.000000 0.000000 0.000000 0.000000 0.048945
#
#
# Mechanical properties :
#
#
# Convention : Reuss Voigt Hill
#
# Bulk Modulus (GPa) = 56.33788 67.83284 62.08536
# Shear Modulus (GPa) = -9.12858 13.11027 1.99084
#
# Velocity S-wave (km/s) = -2.37574 2.84710 1.10947
# Velocity P-wave (km/s) = 5.22569 7.26282 6.32678
#
# Compressibility (1/GPa) = 0.01775005
#
# Stress axis : x y z
#
# Youngs Moduli (GPa) = 49.78601 31.30517 57.27283
#
# Poissons Ratio (x) = 0.34116 0.48022
# Poissons Ratio (y) = 0.54256 0.37728
# Poissons Ratio (z) = 0.41745 0.20622
#
# Static dielectric constant tensor:
#      x y z
#    x 1.545510 0.000000 0.000000 
#    y 0.000000 1.537540 0.000000 
#    z 0.000000 0.000000 1.527560 
# 
# From -- ./inp_files/3563.got.cif
#   From: 2010.05.17/outbox.cif.g08.bks.cpg/sg25_2_cif.got.tgz:3563.got - 2010.06.04 01:04:00.
