data_PCOD9337938
_publ_section_title
;
Structure prediction by ZEFSAII (Michael W. Deem and Ramdas Pophale) SiO2 
 PCOD9337938
Probable space group: P M C 21
;
_chemical_formula_sum "Si O2"
_cell_formula_units_Z 32
_cell_length_a 18.063562
_cell_length_b 7.147186
_cell_length_c 10.699547
_cell_angle_alpha 90.000000
_cell_angle_beta 90.000000
_cell_angle_gamma 90.000000
_cell_volume 1381.350437
_symmetry_space_group_name_H-M "P M C 21"
_symmetry_group_IT_number 26
_symmetry_cell_setting 'orthorhombic'
loop_
_space_group_symop_operation_xyz
x,y,z
-x,-y,1/2+z
-x,y,z
x,-y,1/2+z
loop_
_atom_site_type_symbol
_atom_site_label
_atom_site_fract_x
_atom_site_fract_y
_atom_site_fract_z
Si Si1 0.412782 0.739672 0.107720
Si Si2 0.912564 0.213225 0.741219
Si Si3 0.912563 0.786769 0.974209
Si Si4 0.168751 0.189714 0.248718
Si Si5 0.672067 0.273449 0.353600
Si Si6 0.831256 0.810281 0.466712
Si Si7 0.327926 0.726540 0.361834
Si Si8 0.416393 0.713886 0.607715
O O1 0.500000 0.797087 0.107722
O O2 0.366454 0.789794 0.232713
O O3 0.415067 0.512559 0.107717
O O4 0.366456 0.789799 0.982726
O O5 0.897209 0.310877 0.607715
O O6 0.886273 0.295946 0.872544
O O7 0.000000 0.176585 0.746703
O O8 0.867574 0.016635 0.735142
O O9 0.886263 0.704051 0.842888
O O10 0.000000 0.823395 0.968713
O O11 0.867578 0.983366 0.980289
O O12 0.247213 0.198081 0.318977
O O13 0.177855 0.263341 0.107715
O O14 0.677909 0.499994 0.357716
O O15 0.622095 0.224396 0.234652
O O16 0.752796 0.801900 0.396445
O O17 0.377891 0.775600 0.480790
O O18 0.500000 0.776596 0.607699
#
# Coordination Sequence:
#
# PCOD9337938 Si02
#       8
#     4   4   4   4   4   4   4   4
#     4   9  18  30  46  67  95 132 168 205 242 276
#     4   9  19  35  56  79  96 118 159 206 245 283
#     4   9  19  35  56  79  96 118 159 206 245 283
#     4  10  18  30  49  75 103 128 155 198 247 288
#     4  10  19  30  46  73 103 130 163 199 242 293
#     4  10  18  30  49  75 103 128 155 198 247 288
#     4  10  19  30  46  73 103 130 163 199 242 293
#     4   9  16  30  48  67  95 128 166 207 240 280
#
# _framework density 23.165735000000002
#
# number of rings (size 3 to 8) (size 9 to 14) (size 15 to 20)
#    0.000    2.500    1.250    2.250    1.750    4.500 
#    0.000    0.000    0.000    3.000    0.000   24.500 
#    0.000    0.000    0.000    0.000    0.000    0.000 
#
# Total GULP energy -178532.026767 kJ/mol
# GULP energy per Si atom -5579.125836 kJ/mol
# Density = 2.311301 g / cm^3
# Si number density = 23.165735 Si / 1000 Ang^3
#
#
#
# Elastic Constant Matrix: (Units=GPa)
#
#
# Indices 1 2 3 4 5 6 
#
# 1 206.5562 20.6254 111.7924 0.0000 0.0000 0.0000
# 2 20.6254 97.6359 13.8222 0.0000 0.0000 0.0000
# 3 111.7924 13.8222 273.8617 0.0000 0.0000 0.0000
# 4 0.0000 0.0000 0.0000 -18.3538 0.0000 0.0000
# 5 0.0000 0.0000 0.0000 0.0000 55.0917 0.0000
# 6 0.0000 0.0000 0.0000 0.0000 0.0000 20.9865
#
#
#
# Elastic Compliance Matrix: (Units=1/GPa)
#
#
# Indices 1 2 3 4 5 6 
#
# 1 0.006305 -0.000975 -0.002525 0.000000 0.000000 0.000000
# 2 -0.000975 0.010466 -0.000130 0.000000 0.000000 0.000000
# 3 -0.002525 -0.000130 0.004689 0.000000 0.000000 0.000000
# 4 0.000000 0.000000 0.000000 -0.054485 0.000000 0.000000
# 5 0.000000 0.000000 0.000000 0.000000 0.018152 0.000000
# 6 0.000000 0.000000 0.000000 0.000000 0.000000 0.047650
#
#
# Mechanical properties :
#
#
# Convention : Reuss Voigt Hill
#
# Bulk Modulus (GPa) = 70.41757 96.72596 83.57177
# Shear Modulus (GPa) = 111.68353 40.33247 76.00800
#
# Velocity S-wave (km/s) = 6.95092 4.17710 5.73426
# Velocity P-wave (km/s) = 9.74083 8.06900 8.94406
#
# Compressibility (1/GPa) = 0.01420100
#
# Stress axis : x y z
#
# Youngs Moduli (GPa) = 158.60586 95.54320 213.28336
#
# Poissons Ratio (x) = 0.09311 0.53844
# Poissons Ratio (y) = 0.15456 0.02782
# Poissons Ratio (z) = 0.40041 0.01246
#
# Static dielectric constant tensor:
#      x y z
#    x 1.816040 0.000000 0.000000 
#    y 0.000000 1.957430 0.000000 
#    z 0.000000 0.000000 1.924170 
# 
# From -- ./inp_files/3605.got.cif
#   From: 2010.05.17/outbox.cif.g08.bks.cpg/sg26_2_cif.got.tgz:3605.got - 2010.06.04 01:07:29.
