data_PCOD9337520
_publ_section_title
;
Structure prediction by ZEFSAII (Michael W. Deem and Ramdas Pophale) SiO2 
 PCOD9337520
Probable space group: P M M 2
;
_chemical_formula_sum "Si O2"
_cell_formula_units_Z 32
_cell_length_a 13.218328
_cell_length_b 7.742850
_cell_length_c 12.796369
_cell_angle_alpha 90.000000
_cell_angle_beta 90.000000
_cell_angle_gamma 90.000000
_cell_volume 1309.676772
_symmetry_space_group_name_H-M "P M M 2"
_symmetry_group_IT_number 25
_symmetry_cell_setting 'orthorhombic'
loop_
_space_group_symop_operation_xyz
x,y,z
-x,-y,z
-x,y,z
x,-y,z
loop_
_atom_site_type_symbol
_atom_site_label
_atom_site_fract_x
_atom_site_fract_y
_atom_site_fract_z
Si Si1 0.610048 0.790823 0.613440
Si Si2 0.891210 0.200761 0.440198
Si Si3 0.830939 0.794411 0.895876
Si Si4 0.165659 0.699171 0.667978
Si Si5 0.892677 0.298638 0.121015
Si Si6 0.392256 0.200313 0.936360
Si Si7 0.330324 0.704388 0.159157
Si Si8 0.327628 0.791450 0.383600
O O1 0.500000 0.736471 0.654081
O O2 0.712378 0.723092 0.664968
O O3 0.618059 0.741712 0.490913
O O4 0.614921 0.000000 0.620218
O O5 0.876429 0.206294 0.565775
O O6 0.788074 0.277101 0.393838
O O7 0.000000 0.279896 0.413359
O O8 0.893219 0.000000 0.409047
O O9 0.871796 0.760720 0.780578
O O10 0.829434 0.000000 0.914133
O O11 0.886244 0.713710 0.994973
O O12 0.714869 0.725928 0.899776
O O13 0.140309 0.500000 0.654730
O O14 0.893137 0.500000 0.150824
O O15 0.785706 0.225353 0.159272
O O16 0.000000 0.220304 0.155246
O O17 0.500000 0.278482 0.904878
O O18 0.385253 0.208093 0.062268
O O19 0.392840 0.000000 0.902030
O O20 0.328565 0.500000 0.136302
O O21 0.372719 0.732444 0.274309
O O22 0.325604 0.000000 0.383223
#
# Coordination Sequence:
#
# PCOD9337520 Si02
#       8
#     4   4   4   4   4   4   4   4
#     4   9  19  37  58  77 101 137 179 220 260 303
#     4   9  19  37  58  78 102 135 177 221 260 302
#     4  10  20  35  55  78 103 133 172 215 257 305
#     4  11  22  35  53  79 110 140 170 209 260 316
#     4   9  19  36  54  73 102 138 173 211 257 307
#     4   9  19  36  56  76  99 131 172 215 256 300
#     4  10  20  33  51  77 107 138 170 207 254 307
#     4   9  18  33  53  78 106 136 171 212 258 305
#
# _framework density 24.433509000000001
#
# number of rings (size 3 to 8) (size 9 to 14) (size 15 to 20)
#    0.000    2.500    0.000    2.625    0.000    6.000 
#    0.000    2.500    0.000    0.000    0.000    0.000 
#    0.000    0.000    0.000    0.000    0.000    0.000 
#
# Total GULP energy -178806.453223 kJ/mol
# GULP energy per Si atom -5587.701663 kJ/mol
# Density = 2.437790 g / cm^3
# Si number density = 24.433509 Si / 1000 Ang^3
#
#
#
# Elastic Constant Matrix: (Units=GPa)
#
#
# Indices 1 2 3 4 5 6 
#
# 1 124.1136 2.4691 -6.4467 0.0000 0.0000 0.0000
# 2 2.4691 52.7388 -15.7658 0.0000 0.0000 0.0000
# 3 -6.4467 -15.7658 120.9982 0.0000 0.0000 0.0000
# 4 0.0000 0.0000 0.0000 21.0988 0.0000 0.0000
# 5 0.0000 0.0000 0.0000 0.0000 -20.6969 0.0000
# 6 0.0000 0.0000 0.0000 0.0000 0.0000 3.7923
#
#
#
# Elastic Compliance Matrix: (Units=1/GPa)
#
#
# Indices 1 2 3 4 5 6 
#
# 1 0.008083 -0.000260 0.000397 0.000000 0.000000 0.000000
# 2 -0.000260 0.019738 0.002558 0.000000 0.000000 0.000000
# 3 0.000397 0.002558 0.008619 0.000000 0.000000 0.000000
# 4 0.000000 0.000000 0.000000 0.047396 0.000000 0.000000
# 5 0.000000 0.000000 0.000000 0.000000 -0.048317 0.000000
# 6 0.000000 0.000000 0.000000 0.000000 0.000000 0.263694
#
#
# Mechanical properties :
#
#
# Convention : Reuss Voigt Hill
#
# Bulk Modulus (GPa) = 23.90618 28.70709 26.30663
# Shear Modulus (GPa) = 16.24607 22.01178 19.12892
#
# Velocity S-wave (km/s) = 2.58138 3.00473 2.80107
# Velocity P-wave (km/s) = 4.32321 4.87980 4.60991
#
# Compressibility (1/GPa) = 0.04183019
#
# Stress axis : x y z
#
# Youngs Moduli (GPa) = 123.71771 50.66307 116.02237
#
# Poissons Ratio (x) = 0.01316 -0.04604
# Poissons Ratio (y) = 0.03214 -0.29679
# Poissons Ratio (z) = -0.04909 -0.12960
#
# Static dielectric constant tensor:
#      x y z
#    x 1.991630 0.000000 0.000000 
#    y 0.000000 1.894720 0.000000 
#    z 0.000000 0.000000 1.915100 
# 
# From -- ./inp_files/4932.got.cif
#   From: 2010.05.17/outbox.cif.g08.bks.cpg/sg25_3_cif.got.tgz:4932.got - 2010.06.04 01:04:00.
