data_PCOD9337379
_publ_section_title
;
Structure prediction by ZEFSAII (Michael W. Deem and Ramdas Pophale) SiO2 
 PCOD9337379
Probable space group: P M M 2
;
_chemical_formula_sum "Si O2"
_cell_formula_units_Z 26
_cell_length_a 7.394278
_cell_length_b 14.525825
_cell_length_c 15.373904
_cell_angle_alpha 90.000000
_cell_angle_beta 90.000000
_cell_angle_gamma 90.000000
_cell_volume 1651.280100
_symmetry_space_group_name_H-M "P M M 2"
_symmetry_group_IT_number 25
_symmetry_cell_setting 'orthorhombic'
loop_
_space_group_symop_operation_xyz
x,y,z
-x,-y,z
-x,y,z
x,-y,z
loop_
_atom_site_type_symbol
_atom_site_label
_atom_site_fract_x
_atom_site_fract_y
_atom_site_fract_z
Si Si1 0.500000 0.199500 0.447580
Si Si2 0.784799 0.396399 0.668964
Si Si3 0.219094 0.790412 0.753907
Si Si4 0.216073 0.109095 0.575420
Si Si5 0.779015 0.893541 0.925480
Si Si6 0.500000 0.111331 0.258473
Si Si7 0.500000 0.604267 0.515869
Si Si8 0.206236 0.888170 0.117473
O O1 0.328277 0.160922 0.501488
O O2 0.500000 0.159438 0.351118
O O3 0.500000 0.310094 0.451319
O O4 0.750536 0.500000 0.702042
O O5 0.729539 0.314533 0.733308
O O6 0.672165 0.386364 0.580358
O O7 0.000000 0.387496 0.652550
O O8 0.270434 0.850731 0.669686
O O9 0.283024 0.832953 0.844393
O O10 0.000000 0.793461 0.757448
O O11 0.000000 0.123226 0.565464
O O12 0.251535 0.000000 0.571803
O O13 0.000000 0.893573 0.926810
O O14 0.724078 0.000000 0.913261
O O15 0.724448 0.860387 0.021679
O O16 0.670860 0.137231 0.198558
O O17 0.500000 0.000000 0.270286
O O18 0.500000 0.500000 0.480030
O O19 0.000000 0.857184 0.128430
O O20 0.205387 0.000000 0.113903
#
# Coordination Sequence:
#
# PCOD9337379 Si02
#       8
#     2   4   4   4   4   2   2   4
#     4  12  22  34  49  68  91 119 159 197 234 277
#     4   9  17  30  47  66  90 121 156 193 231 270
#     4   9  15  25  43  67  93 124 155 184 220 264
#     4  10  20  32  45  65  98 133 157 180 218 272
#     4   8  13  23  42  66  91 120 153 185 218 263
#     4  10  20  32  46  65  89 115 146 189 232 273
#     4  10  20  34  51  67  86 116 155 200 242 274
#     4   8  15  29  46  63  86 117 151 187 225 263
#
# _framework density 15.745359000000001
#
# number of rings (size 3 to 8) (size 9 to 14) (size 15 to 20)
#    0.000    2.769    1.538    2.077    0.000    2.462 
#    0.000    3.077    0.000    1.846    0.000    1.077 
#    0.000    1.231    0.000    0.000    0.000    0.000 
#
# Total GULP energy -144918.266115 kJ/mol
# GULP energy per Si atom -5573.779466 kJ/mol
# Density = 1.570952 g / cm^3
# Si number density = 15.745359 Si / 1000 Ang^3
#
#
#
# Elastic Constant Matrix: (Units=GPa)
#
#
# Indices 1 2 3 4 5 6 
#
# 1 65.3286 27.8164 40.0201 0.0000 0.0000 0.0000
# 2 27.8164 102.7594 65.3549 0.0000 0.0000 0.0000
# 3 40.0201 65.3549 144.6451 0.0000 0.0000 0.0000
# 4 0.0000 0.0000 0.0000 11.6317 0.0000 0.0000
# 5 0.0000 0.0000 0.0000 0.0000 21.1860 0.0000
# 6 0.0000 0.0000 0.0000 0.0000 0.0000 11.0070
#
#
#
# Elastic Compliance Matrix: (Units=1/GPa)
#
#
# Indices 1 2 3 4 5 6 
#
# 1 0.018881 -0.002510 -0.004090 0.000000 0.000000 0.000000
# 2 -0.002510 0.013989 -0.005626 0.000000 0.000000 0.000000
# 3 -0.004090 -0.005626 0.010587 0.000000 0.000000 0.000000
# 4 0.000000 0.000000 0.000000 0.085972 0.000000 0.000000
# 5 0.000000 0.000000 0.000000 0.000000 0.047201 0.000000
# 6 0.000000 0.000000 0.000000 0.000000 0.000000 0.090851
#
#
# Mechanical properties :
#
#
# Convention : Reuss Voigt Hill
#
# Bulk Modulus (GPa) = 52.61640 64.34620 58.48130
# Shear Modulus (GPa) = 16.76334 20.73438 18.74886
#
# Velocity S-wave (km/s) = 3.26644 3.63279 3.45447
# Velocity P-wave (km/s) = 6.90766 7.65191 7.28929
#
# Compressibility (1/GPa) = 0.01900548
#
# Stress axis : x y z
#
# Youngs Moduli (GPa) = 52.96199 71.48369 94.45330
#
# Poissons Ratio (x) = 0.17941 0.38632
# Poissons Ratio (y) = 0.13293 0.53142
# Poissons Ratio (z) = 0.21662 0.40219
#
# Static dielectric constant tensor:
#      x y z
#    x 1.580250 0.000000 0.000000 
#    y 0.000000 1.519600 0.000000 
#    z 0.000000 0.000000 1.501720 
# 
# From -- ./inp_files/4085.got.cif
#   From: 2010.05.17/outbox.cif.g08.bks.cpg/sg25_3_cif.got.tgz:4085.got - 2010.06.04 01:04:00.
