data_PCOD9337033
_publ_section_title
;
Structure prediction by ZEFSAII (Michael W. Deem and Ramdas Pophale) SiO2 
 PCOD9337033
Probable space group: I 21 21 21
;
_chemical_formula_sum "Si O2"
_cell_formula_units_Z 24
_cell_length_a 30.000000
_cell_length_b 9.000000
_cell_length_c 9.000000
_cell_angle_alpha 90.000000
_cell_angle_beta 90.000000
_cell_angle_gamma 90.000000
_cell_volume 2430.000000
_symmetry_space_group_name_H-M "I 21 21 21"
_symmetry_group_IT_number 24
_symmetry_cell_setting 'orthorhombic'
loop_
_space_group_symop_operation_xyz
x,y,z
-x,1/2-y,z
x,-y,1/2-z
1/2-x,y,-z
1/2+x,1/2+y,1/2+z
1/2-x,-y,1/2+z
1/2+x,1/2-y,-z
-x,1/2+y,1/2-z
loop_
_atom_site_type_symbol
_atom_site_label
_atom_site_fract_x
_atom_site_fract_y
_atom_site_fract_z
Si Si1 0.039406 0.859779 0.148258
Si Si2 0.321433 0.324955 0.259477
Si Si3 0.361162 0.192639 0.563568
Si Si4 0.767167 0.657913 0.169460
Si Si5 0.021432 0.913375 0.603393
Si Si6 0.127757 0.905191 0.603566
O O1 0.086996 0.780650 0.110118
O O2 0.000000 0.750000 0.204687
O O3 0.051857 0.000000 0.250000
O O4 0.017067 0.953073 0.014657
O O5 0.322013 0.500000 0.250000
O O6 0.348480 0.274901 0.408828
O O7 0.270914 0.264463 0.264476
O O8 0.346131 0.246840 0.120863
O O9 0.317965 0.219899 0.666817
O O10 0.360434 0.014737 0.530035
O O11 0.766033 0.500000 0.250000
O O12 0.750000 0.636091 0.000000
O O13 0.074741 0.884186 0.610798
O O14 0.000000 0.750000 0.580645
O O15 0.005704 0.000000 0.750000
O O16 0.140899 0.000000 0.750000
#
# Coordination Sequence:
#
# PCOD9337033 Si02
#       6
#     8   8   8   8   8   8
#     4  11  23  40  59  82 114 151 190 235 286 336
#     4  10  19  32  52  83 118 144 172 228 293 331
#     4   9  19  37  57  77 105 148 193 226 263 334
#     4  10  19  35  58  81 106 144 190 229 270 329
#     4  10  20  34  56  86 115 147 192 239 280 332
#     4   8  16  32  51  73 104 142 182 219 264 322
#
# _framework density 9.8765429999999999
#
# number of rings (size 3 to 8) (size 9 to 14) (size 15 to 20)
#    0.000    2.333    0.000    5.000    0.000    2.000 
#    0.000    8.333    0.000    0.000    0.000    0.000 
#    0.000    0.000    0.000    0.000    0.000    0.000 
#
# Total GULP energy -133672.442712 kJ/mol
# GULP energy per Si atom -5569.685113 kJ/mol
# Density = 0.985406 g / cm^3
# Si number density = 9.876543 Si / 1000 Ang^3
#
#
#
# Elastic Constant Matrix: (Units=GPa)
#
#
# Indices 1 2 3 4 5 6 
#
# 1 133.0724 45.4661 -0.6466 0.0000 0.0000 0.0000
# 2 45.4661 106.5549 1.3878 0.0000 0.0000 0.0000
# 3 -0.6466 1.3878 23.6705 0.0000 0.0000 0.0000
# 4 0.0000 0.0000 0.0000 19.5905 0.0000 0.0000
# 5 0.0000 0.0000 0.0000 0.0000 17.3632 0.0000
# 6 0.0000 0.0000 0.0000 0.0000 0.0000 24.7611
#
#
#
# Elastic Compliance Matrix: (Units=1/GPa)
#
#
# Indices 1 2 3 4 5 6 
#
# 1 0.008802 -0.003762 0.000461 0.000000 0.000000 0.000000
# 2 -0.003762 0.011000 -0.000748 0.000000 0.000000 0.000000
# 3 0.000461 -0.000748 0.042303 0.000000 0.000000 0.000000
# 4 0.000000 0.000000 0.000000 0.051045 0.000000 0.000000
# 5 0.000000 0.000000 0.000000 0.000000 0.057593 0.000000
# 6 0.000000 0.000000 0.000000 0.000000 0.000000 0.040386
#
#
# Mechanical properties :
#
#
# Convention : Reuss Voigt Hill
#
# Bulk Modulus (GPa) = 18.51576 39.52358 29.01967
# Shear Modulus (GPa) = 21.07670 26.81567 23.94619
#
# Velocity S-wave (km/s) = 3.27005 3.68848 3.48555
# Velocity P-wave (km/s) = 4.86329 6.17998 5.56074
#
# Compressibility (1/GPa) = 0.05400804
#
# Stress axis : x y z
#
# Youngs Moduli (GPa) = 113.60756 90.91140 23.63893
#
# Poissons Ratio (x) = 0.34199 -0.01090
# Poissons Ratio (y) = 0.42737 0.01767
# Poissons Ratio (z) = -0.05237 0.06797
#
# Static dielectric constant tensor:
#      x y z
#    x 1.705700 0.000000 0.000000 
#    y 0.000000 1.651050 0.000000 
#    z 0.000000 0.000000 2.007780 
# 
# From -- ./inp_files/16826.got.cif
#   From: 2010.05.17/outbox.ucp.g08.bks.cvg/sg24_9_cif.got.tgz:16826.got - 2010.06.11 15:20:44.
