data_PCOD9337225
_publ_section_title
;
Structure prediction by ZEFSAII (Michael W. Deem and Ramdas Pophale) SiO2 
 PCOD9337225
Probable space group: P M M 2
;
_chemical_formula_sum "Si O2"
_cell_formula_units_Z 28
_cell_length_a 14.973581
_cell_length_b 7.922538
_cell_length_c 13.242730
_cell_angle_alpha 90.000000
_cell_angle_beta 90.000000
_cell_angle_gamma 90.000000
_cell_volume 1570.968698
_symmetry_space_group_name_H-M "P M M 2"
_symmetry_group_IT_number 25
_symmetry_cell_setting 'orthorhombic'
loop_
_space_group_symop_operation_xyz
x,y,z
-x,-y,z
-x,y,z
x,-y,z
loop_
_atom_site_type_symbol
_atom_site_label
_atom_site_fract_x
_atom_site_fract_y
_atom_site_fract_z
Si Si1 0.399296 0.199691 0.485480
Si Si2 0.099264 0.203566 0.362679
Si Si3 0.900969 0.794174 0.597304
Si Si4 0.288747 0.304039 0.292228
Si Si5 0.602049 0.796236 0.097997
Si Si6 0.286012 0.207353 0.677979
Si Si7 0.397350 0.794103 0.869976
O O1 0.500000 0.269541 0.476506
O O2 0.343045 0.217311 0.383080
O O3 0.344281 0.265755 0.581725
O O4 0.407716 0.000000 0.503666
O O5 0.111778 0.255544 0.479942
O O6 0.184233 0.261373 0.299869
O O7 0.000000 0.260494 0.330381
O O8 0.099142 0.000000 0.361749
O O9 0.816070 0.738040 0.661391
O O10 0.000000 0.738641 0.629666
O O11 0.901236 0.000000 0.598247
O O12 0.300127 0.500000 0.310587
O O13 0.331527 0.259670 0.184991
O O14 0.500000 0.740539 0.119818
O O15 0.601222 0.000000 0.097506
O O16 0.625285 0.740067 0.984130
O O17 0.331683 0.262950 0.781814
O O18 0.286080 0.000000 0.677594
O O19 0.500000 0.744482 0.848801
O O20 0.396123 0.000000 0.869722
#
# Coordination Sequence:
#
# PCOD9337225 Si02
#       7
#     4   4   4   4   4   4   4
#     4  10  19  30  46  69  97 129 162 195 238 294
#     4   9  17  32  53  73  95 125 161 198 236 284
#     4   8  13  22  40  67  96 123 150 183 227 280
#     4  12  23  32  46  69  99 130 161 199 242 291
#     4   9  18  33  51  68  90 125 170 212 245 283
#     4   9  14  23  43  70  97 120 150 196 246 291
#     4   8  14  25  43  68  92 117 156 204 246 280
#
# _framework density 17.823398999999998
#
# number of rings (size 3 to 8) (size 9 to 14) (size 15 to 20)
#    0.000    2.714    1.429    3.857    0.000    4.286 
#    0.000    0.000    0.000    1.714    0.000    6.000 
#    0.000    0.000    0.000    0.000    0.000    0.000 
#
# Total GULP energy -156101.894689 kJ/mol
# GULP energy per Si atom -5575.067667 kJ/mol
# Density = 1.778283 g / cm^3
# Si number density = 17.823399 Si / 1000 Ang^3
#
#
#
# Elastic Constant Matrix: (Units=GPa)
#
#
# Indices 1 2 3 4 5 6 
#
# 1 173.1843 4.3278 99.6497 0.0000 0.0000 0.0000
# 2 4.3278 12.9886 -1.3949 0.0000 0.0000 0.0000
# 3 99.6497 -1.3949 116.3007 0.0000 0.0000 0.0000
# 4 0.0000 0.0000 0.0000 -22.8241 0.0000 0.0000
# 5 0.0000 0.0000 0.0000 0.0000 20.9365 0.0000
# 6 0.0000 0.0000 0.0000 0.0000 0.0000 -11.6021
#
#
#
# Elastic Compliance Matrix: (Units=1/GPa)
#
#
# Indices 1 2 3 4 5 6 
#
# 1 0.011703 -0.004983 -0.010087 0.000000 0.000000 0.000000
# 2 -0.004983 0.079211 0.005219 0.000000 0.000000 0.000000
# 3 -0.010087 0.005219 0.017304 0.000000 0.000000 0.000000
# 4 0.000000 0.000000 0.000000 -0.043813 0.000000 0.000000
# 5 0.000000 0.000000 0.000000 0.000000 0.047763 0.000000
# 6 0.000000 0.000000 0.000000 0.000000 0.000000 -0.086191
#
#
# Mechanical properties :
#
#
# Convention : Reuss Voigt Hill
#
# Bulk Modulus (GPa) = 11.29723 56.40431 33.85077
# Shear Modulus (GPa) = 66.50437 10.62812 38.56625
#
# Velocity S-wave (km/s) = 6.11506 2.44458 4.65671
# Velocity P-wave (km/s) = 7.49739 6.29943 6.92437
#
# Compressibility (1/GPa) = 0.08851730
#
# Stress axis : x y z
#
# Youngs Moduli (GPa) = 85.45003 12.62445 57.79064
#
# Poissons Ratio (x) = 0.06290 0.58293
# Poissons Ratio (y) = 0.42577 -0.30163
# Poissons Ratio (z) = 0.86194 -0.06589
#
# Static dielectric constant tensor:
#      x y z
#    x 1.627020 0.000000 0.000000 
#    y 0.000000 1.631370 0.000000 
#    z 0.000000 0.000000 1.589040 
# 
# From -- ./inp_files/5888.got.cif
#   From: 2010.05.17/outbox.cif.g08.bks.cpg/sg25_3_cif.got.tgz:5888.got - 2010.06.04 01:04:00.
