data_PCOD9337127
_publ_section_title
;
Structure prediction by ZEFSAII (Michael W. Deem and Ramdas Pophale) SiO2 
 PCOD9337127
Probable space group: P M M 2
;
_chemical_formula_sum "Si O2"
_cell_formula_units_Z 24
_cell_length_a 8.191038
_cell_length_b 16.993538
_cell_length_c 9.522834
_cell_angle_alpha 90.000000
_cell_angle_beta 90.000000
_cell_angle_gamma 90.000000
_cell_volume 1325.528170
_symmetry_space_group_name_H-M "P M M 2"
_symmetry_group_IT_number 25
_symmetry_cell_setting 'orthorhombic'
loop_
_space_group_symop_operation_xyz
x,y,z
-x,-y,z
-x,y,z
x,-y,z
loop_
_atom_site_type_symbol
_atom_site_label
_atom_site_fract_x
_atom_site_fract_y
_atom_site_fract_z
Si Si1 0.802722 0.087539 0.583430
Si Si2 0.193394 0.256019 0.074044
Si Si3 0.188432 0.337037 0.497156
Si Si4 0.689511 0.814462 0.343606
Si Si5 0.307317 0.587265 0.226965
Si Si6 0.800286 0.757838 0.754071
O O1 0.734792 0.107752 0.428729
O O2 0.749355 0.158742 0.685666
O O3 0.000000 0.089772 0.577942
O O4 0.752963 0.000000 0.628047
O O5 0.274902 0.193233 0.179197
O O6 0.226756 0.342274 0.139412
O O7 0.000000 0.241986 0.074838
O O8 0.252865 0.250939 0.914172
O O9 0.201042 0.253384 0.415692
O O10 0.279298 0.395607 0.392534
O O11 0.252810 0.313318 0.650969
O O12 0.000000 0.361458 0.506947
O O13 0.500000 0.794900 0.367791
O O14 0.500000 0.590657 0.199820
O O15 0.245528 0.500000 0.192366
O O16 0.000000 0.756320 0.751138
#
# Coordination Sequence:
#
# PCOD9337127 Si02
#       6
#     4   4   4   4   4   4
#     4   9  17  32  53  73  94 123 161 203 244 285
#     4  10  18  31  51  72  97 128 163 197 234 287
#     4   9  16  30  51  71  91 118 157 196 232 280
#     4  10  18  29  46  69  97 125 156 192 231 278
#     4  10  20  33  48  69  97 126 160 202 244 285
#     4   8  16  30  49  74  98 121 155 200 241 281
#
# _framework density 18.105989999999998
#
# number of rings (size 3 to 8) (size 9 to 14) (size 15 to 20)
#    0.000    2.667    0.000    6.000    0.000    1.667 
#    0.000   10.000    0.000    8.000    0.000    0.000 
#    0.000    0.000    0.000    0.000    0.000    0.000 
#
# Total GULP energy -133657.061195 kJ/mol
# GULP energy per Si atom -5569.044216 kJ/mol
# Density = 1.806478 g / cm^3
# Si number density = 18.105990 Si / 1000 Ang^3
#
#
#
# Elastic Constant Matrix: (Units=GPa)
#
#
# Indices 1 2 3 4 5 6 
#
# 1 26.4639 3.7909 4.2745 0.0000 0.0000 0.0000
# 2 3.7909 71.5929 33.6935 0.0000 0.0000 0.0000
# 3 4.2745 33.6935 137.0550 0.0000 0.0000 0.0000
# 4 0.0000 0.0000 0.0000 16.8183 0.0000 0.0000
# 5 0.0000 0.0000 0.0000 0.0000 -12.5674 0.0000
# 6 0.0000 0.0000 0.0000 0.0000 0.0000 97.9284
#
#
#
# Elastic Compliance Matrix: (Units=1/GPa)
#
#
# Indices 1 2 3 4 5 6 
#
# 1 0.038151 -0.001651 -0.000784 0.000000 0.000000 0.000000
# 2 -0.001651 0.015867 -0.003849 0.000000 0.000000 0.000000
# 3 -0.000784 -0.003849 0.008267 0.000000 0.000000 0.000000
# 4 0.000000 0.000000 0.000000 0.059459 0.000000 0.000000
# 5 0.000000 0.000000 0.000000 0.000000 -0.079571 0.000000
# 6 0.000000 0.000000 0.000000 0.000000 0.000000 0.010212
#
#
# Mechanical properties :
#
#
# Convention : Reuss Voigt Hill
#
# Bulk Modulus (GPa) = 20.11430 35.40328 27.75879
# Shear Modulus (GPa) = 61.33124 33.32606 47.32865
#
# Velocity S-wave (km/s) = 5.82640 4.29489 5.11825
# Velocity P-wave (km/s) = 7.50972 6.64760 7.09177
#
# Compressibility (1/GPa) = 0.04971587
#
# Stress axis : x y z
#
# Youngs Moduli (GPa) = 26.21195 63.02457 120.96182
#
# Poissons Ratio (x) = 0.10406 0.09482
# Poissons Ratio (y) = 0.04328 0.46561
# Poissons Ratio (z) = 0.02055 0.24259
#
# Static dielectric constant tensor:
#      x y z
#    x 1.621900 0.000000 0.000000 
#    y 0.000000 1.634000 0.000000 
#    z 0.000000 0.000000 1.653300 
# 
# From -- ./inp_files/2108.got.cif
#   From: 2010.05.17/outbox.cif.g08.bks.cpg/sg25_2_cif.got.tgz:2108.got - 2010.06.04 01:04:00.
