data_PCOD9337784
_publ_section_title
;
Structure prediction by ZEFSAII (Michael W. Deem and Ramdas Pophale) SiO2 
 PCOD9337784
Probable space group: P M M 2
;
_chemical_formula_sum "Si O2"
_cell_formula_units_Z 20
_cell_length_a 7.701218
_cell_length_b 8.067139
_cell_length_c 15.097860
_cell_angle_alpha 90.000000
_cell_angle_beta 90.000000
_cell_angle_gamma 90.000000
_cell_volume 937.981669
_symmetry_space_group_name_H-M "P M M 2"
_symmetry_group_IT_number 25
_symmetry_cell_setting 'orthorhombic'
loop_
_space_group_symop_operation_xyz
x,y,z
-x,-y,z
-x,y,z
x,-y,z
loop_
_atom_site_type_symbol
_atom_site_label
_atom_site_fract_x
_atom_site_fract_y
_atom_site_fract_z
Si Si1 0.287677 0.182569 0.910240
Si Si2 0.208386 0.309429 0.292190
Si Si3 0.294713 0.500000 0.596026
Si Si4 0.208713 0.819538 0.479379
Si Si5 0.286865 0.500000 0.796768
Si Si6 0.708265 0.690592 0.098937
O O1 0.500000 0.183977 0.909849
O O2 0.231801 0.335146 0.849207
O O3 0.232007 0.000000 0.880524
O O4 0.231101 0.214931 0.011588
O O5 0.273803 0.500000 0.294495
O O6 0.272994 0.216526 0.379412
O O7 0.249588 0.238189 0.195518
O O8 0.000000 0.315744 0.298519
O O9 0.500000 0.500000 0.604904
O O10 0.248230 0.664514 0.541595
O O11 0.223608 0.500000 0.695822
O O12 0.000000 0.827179 0.474783
O O13 0.272410 0.000000 0.510197
O O14 0.500000 0.500000 0.797487
O O15 0.500000 0.683534 0.093068
O O16 0.773938 0.500000 0.096164
#
# Coordination Sequence:
#
# PCOD9337784 Si02
#       6
#     4   4   2   4   2   4
#     4   9  16  28  48  72 101 138 174 206 250 314
#     4   9  17  31  51  75 104 140 180 217 258 314
#     4  11  23  37  58  85 114 140 175 235 294 331
#     4  10  21  39  61  81 107 148 192 226 266 331
#     4   9  18  33  50  73 104 136 169 213 268 321
#     4   9  16  27  46  73 104 136 171 212 256 305
#
# _framework density 21.322379999999999
#
# number of rings (size 3 to 8) (size 9 to 14) (size 15 to 20)
#    0.000    2.600    2.000    0.300    0.000    2.800 
#    0.000    2.000    0.000    2.400    0.000    0.000 
#    0.000    0.000    0.000    0.000    0.000    0.000 
#
# Total GULP energy -111614.538350 kJ/mol
# GULP energy per Si atom -5580.726918 kJ/mol
# Density = 2.127385 g / cm^3
# Si number density = 21.322380 Si / 1000 Ang^3
#
#
#
# Elastic Constant Matrix: (Units=GPa)
#
#
# Indices 1 2 3 4 5 6 
#
# 1 32.1714 7.4993 5.3220 0.0000 0.0000 0.0000
# 2 7.4993 184.0171 111.3834 0.0000 0.0000 0.0000
# 3 5.3220 111.3834 183.1600 0.0000 0.0000 0.0000
# 4 0.0000 0.0000 0.0000 -4.7721 0.0000 0.0000
# 5 0.0000 0.0000 0.0000 0.0000 33.8334 0.0000
# 6 0.0000 0.0000 0.0000 0.0000 0.0000 -0.4519
#
#
#
# Elastic Compliance Matrix: (Units=1/GPa)
#
#
# Indices 1 2 3 4 5 6 
#
# 1 0.031387 -0.001151 -0.000212 0.000000 0.000000 0.000000
# 2 -0.001151 0.008642 -0.005222 0.000000 0.000000 0.000000
# 3 -0.000212 -0.005222 0.008641 0.000000 0.000000 0.000000
# 4 0.000000 0.000000 0.000000 -0.209551 0.000000 0.000000
# 5 0.000000 0.000000 0.000000 0.000000 0.029557 0.000000
# 6 0.000000 0.000000 0.000000 0.000000 0.000000 -2.213010
#
#
# Mechanical properties :
#
#
# Convention : Reuss Voigt Hill
#
# Bulk Modulus (GPa) = 28.16858 71.97310 50.07084
# Shear Modulus (GPa) = -2.15579 24.06481 10.95451
#
# Velocity S-wave (km/s) = -1.00660 3.36313 2.26908
# Velocity P-wave (km/s) = 3.44797 6.99349 5.51350
#
# Compressibility (1/GPa) = 0.03550054
#
# Stress axis : x y z
#
# Youngs Moduli (GPa) = 31.86053 115.71497 115.72169
#
# Poissons Ratio (x) = 0.13314 0.02456
# Poissons Ratio (y) = 0.03666 0.60429
# Poissons Ratio (z) = 0.00676 0.60425
#
# Static dielectric constant tensor:
#      x y z
#    x 1.785620 0.000000 0.000000 
#    y 0.000000 1.747300 0.000000 
#    z 0.000000 0.000000 1.764030 
# 
# From -- ./inp_files/5157.got.cif
#   From: 2010.05.17/outbox.cif.g08.bks.cpg/sg25_3_cif.got.tgz:5157.got - 2010.06.04 01:04:00.
