data_PCOD9337942
_publ_section_title
;
Structure prediction by ZEFSAII (Michael W. Deem and Ramdas Pophale) SiO2 
 PCOD9337942
Probable space group: P M C 21
;
_chemical_formula_sum "Si O2"
_cell_formula_units_Z 26
_cell_length_a 33.146688
_cell_length_b 6.774264
_cell_length_c 5.190727
_cell_angle_alpha 90.000000
_cell_angle_beta 90.000000
_cell_angle_gamma 90.000000
_cell_volume 1165.548759
_symmetry_space_group_name_H-M "P M C 21"
_symmetry_group_IT_number 26
_symmetry_cell_setting 'orthorhombic'
loop_
_space_group_symop_operation_xyz
x,y,z
-x,-y,1/2+z
-x,y,z
x,-y,1/2+z
loop_
_atom_site_type_symbol
_atom_site_label
_atom_site_fract_x
_atom_site_fract_y
_atom_site_fract_z
Si Si1 0.338693 0.860620 0.438490
Si Si2 0.545998 0.733318 0.792269
Si Si3 0.000000 0.635022 0.480731
Si Si4 0.420961 0.708533 0.293412
Si Si5 0.833797 0.130244 0.866692
Si Si6 0.915091 0.370128 0.865629
Si Si7 0.749266 0.134548 0.983982
O O1 0.375828 0.712207 0.401728
O O2 0.341500 0.985418 0.701330
O O3 0.293998 0.764838 0.438706
O O4 0.500000 0.745247 0.878892
O O5 0.559655 0.505776 0.747932
O O6 0.576404 0.803080 0.012027
O O7 0.551229 0.813636 0.505225
O O8 0.042528 0.740373 0.424365
O O9 0.000000 0.455955 0.268172
O O10 0.874472 0.250075 0.908243
O O11 0.833561 0.045891 0.577286
O O12 0.791517 0.242102 0.925648
O O13 0.915299 0.453352 0.575665
O O14 0.749711 0.956224 0.771654
#
# Coordination Sequence:
#
# PCOD9337942 Si02
#       7
#     4   4   2   4   4   4   4
#     4  10  19  32  50  72  96 125 156 188 231 286
#     4  10  19  33  53  69  87 122 158 190 227 275
#     4   8  16  30  48  70  96 142 178 208 250 332
#     4  10  18  30  51  71  91 114 156 191 223 267
#     4  10  19  33  53  77 102 134 178 219 259 311
#     4  10  19  33  53  74 105 138 180 216 267 314
#     4   8  16  30  49  69  92 126 163 193 230 291
#
# _framework density 22.307089999999999
#
# number of rings (size 3 to 8) (size 9 to 14) (size 15 to 20)
#    0.000    2.462    0.000    4.154    0.000    0.000 
#    0.000    0.769    6.769   15.692    0.000    0.000 
#    0.000    0.000    0.000    0.000    0.000    0.000 
#
# Total GULP energy -144909.301082 kJ/mol
# GULP energy per Si atom -5573.434657 kJ/mol
# Density = 2.225632 g / cm^3
# Si number density = 22.307090 Si / 1000 Ang^3
#
#
#
# Elastic Constant Matrix: (Units=GPa)
#
#
# Indices 1 2 3 4 5 6 
#
# 1 199.8588 -2.7472 -6.4994 0.0000 0.0000 0.0000
# 2 -2.7472 20.7917 -14.3496 0.0000 0.0000 0.0000
# 3 -6.4994 -14.3496 137.4310 0.0000 0.0000 0.0000
# 4 0.0000 0.0000 0.0000 13.0995 0.0000 0.0000
# 5 0.0000 0.0000 0.0000 0.0000 33.6062 0.0000
# 6 0.0000 0.0000 0.0000 0.0000 0.0000 33.4105
#
#
#
# Elastic Compliance Matrix: (Units=1/GPa)
#
#
# Indices 1 2 3 4 5 6 
#
# 1 0.005027 0.000893 0.000331 0.000000 0.000000 0.000000
# 2 0.000893 0.051990 0.005471 0.000000 0.000000 0.000000
# 3 0.000331 0.005471 0.007863 0.000000 0.000000 0.000000
# 4 0.000000 0.000000 0.000000 0.076339 0.000000 0.000000
# 5 0.000000 0.000000 0.000000 0.000000 0.029756 0.000000
# 6 0.000000 0.000000 0.000000 0.000000 0.000000 0.029931
#
#
# Mechanical properties :
#
#
# Convention : Reuss Voigt Hill
#
# Bulk Modulus (GPa) = 12.77670 34.54323 23.65996
# Shear Modulus (GPa) = 23.40755 41.46843 32.43799
#
# Velocity S-wave (km/s) = 3.24285 4.31627 3.81748
# Velocity P-wave (km/s) = 4.44540 6.35288 5.48273
#
# Compressibility (1/GPa) = 0.07826746
#
# Stress axis : x y z
#
# Youngs Moduli (GPa) = 198.94310 19.23464 127.17414
#
# Poissons Ratio (x) = -0.01717 -0.04208
# Poissons Ratio (y) = -0.17757 -0.69572
# Poissons Ratio (z) = -0.06583 -0.10523
#
# Static dielectric constant tensor:
#      x y z
#    x 1.896220 0.000000 0.000000 
#    y 0.000000 1.155230 0.000000 
#    z 0.000000 0.000000 1.871830 
# 
# From -- ./inp_files/1058.got.cif
#   From: 2010.05.17/outbox.cif.g08.bks.cpg/sg26_1_cif.got.tgz:1058.got - 2010.06.04 01:07:29.
