data_PCOD9337148
_publ_section_title
;
Structure prediction by ZEFSAII (Michael W. Deem and Ramdas Pophale) SiO2 
 PCOD9337148
Probable space group: P M M 2
;
_chemical_formula_sum "Si O2"
_cell_formula_units_Z 32
_cell_length_a 8.892806
_cell_length_b 14.605151
_cell_length_c 15.920287
_cell_angle_alpha 90.000000
_cell_angle_beta 90.000000
_cell_angle_gamma 90.000000
_cell_volume 2067.739205
_symmetry_space_group_name_H-M "P M M 2"
_symmetry_group_IT_number 25
_symmetry_cell_setting 'orthorhombic'
loop_
_space_group_symop_operation_xyz
x,y,z
-x,-y,z
-x,y,z
x,-y,z
loop_
_atom_site_type_symbol
_atom_site_label
_atom_site_fract_x
_atom_site_fract_y
_atom_site_fract_z
Si Si1 0.320336 0.108189 0.419830
Si Si2 0.179946 0.603937 0.827311
Si Si3 0.320212 0.892454 0.068114
Si Si4 0.679500 0.605217 0.643321
Si Si5 0.817210 0.895056 0.740386
Si Si6 0.827021 0.888927 0.243965
Si Si7 0.819343 0.782874 0.574453
Si Si8 0.818712 0.209980 0.910519
O O1 0.500000 0.116978 0.422339
O O2 0.259110 0.137976 0.328665
O O3 0.245340 0.166233 0.493490
O O4 0.283076 0.000000 0.430993
O O5 0.212065 0.500000 0.855507
O O6 0.261472 0.619037 0.738509
O O7 0.219706 0.684156 0.891852
O O8 0.000000 0.611236 0.811882
O O9 0.500000 0.887227 0.071541
O O10 0.251918 0.861452 0.157255
O O11 0.278828 0.000000 0.055284
O O12 0.256751 0.833270 0.991784
O O13 0.500000 0.616139 0.641305
O O14 0.716108 0.500000 0.620514
O O15 0.757394 0.680624 0.585563
O O16 0.770691 0.838718 0.658197
O O17 0.772596 0.845970 0.826796
O O18 0.000000 0.895740 0.739915
O O19 0.765337 0.000000 0.737189
O O20 0.000000 0.858682 0.246274
O O21 0.825679 0.000000 0.243563
O O22 0.000000 0.782327 0.571663
O O23 0.000000 0.202663 0.918726
#
# Coordination Sequence:
#
# PCOD9337148 Si02
#       8
#     4   4   4   4   4   4   4   4
#     4  10  20  33  49  72 103 134 162 198 243 289
#     4   9  17  31  50  70  92 120 159 205 248 289
#     4  10  20  32  46  68  98 129 160 198 242 285
#     4  10  20  33  49  69  94 124 159 204 255 299
#     4   9  17  28  42  63  93 127 162 197 231 270
#     4   9  17  31  51  72  93 123 163 203 240 282
#     4  11  20  32  49  70  96 130 169 205 240 285
#     4  10  18  30  47  68  93 126 163 198 238 285
#
# _framework density 15.475839000000001
#
# number of rings (size 3 to 8) (size 9 to 14) (size 15 to 20)
#    0.000    2.250    1.250    2.625    0.000    5.250 
#    0.000    0.000    0.000    2.250    0.000    0.875 
#    0.000    5.000    0.000    0.000    0.000    0.000 
#
# Total GULP energy -178487.704395 kJ/mol
# GULP energy per Si atom -5577.740762 kJ/mol
# Density = 1.544062 g / cm^3
# Si number density = 15.475839 Si / 1000 Ang^3
#
#
#
# Elastic Constant Matrix: (Units=GPa)
#
#
# Indices 1 2 3 4 5 6 
#
# 1 52.9353 48.8809 54.2771 0.0000 0.0000 0.0000
# 2 48.8809 105.5755 74.0593 0.0000 0.0000 0.0000
# 3 54.2771 74.0593 144.7405 0.0000 0.0000 0.0000
# 4 0.0000 0.0000 0.0000 9.0873 0.0000 0.0000
# 5 0.0000 0.0000 0.0000 0.0000 15.7339 0.0000
# 6 0.0000 0.0000 0.0000 0.0000 0.0000 19.6154
#
#
#
# Elastic Compliance Matrix: (Units=1/GPa)
#
#
# Indices 1 2 3 4 5 6 
#
# 1 0.038465 -0.011997 -0.008286 0.000000 0.000000 0.000000
# 2 -0.011997 0.018517 -0.004976 0.000000 0.000000 0.000000
# 3 -0.008286 -0.004976 0.012562 0.000000 0.000000 0.000000
# 4 0.000000 0.000000 0.000000 0.110044 0.000000 0.000000
# 5 0.000000 0.000000 0.000000 0.000000 0.063557 0.000000
# 6 0.000000 0.000000 0.000000 0.000000 0.000000 0.050980
#
#
# Mechanical properties :
#
#
# Convention : Reuss Voigt Hill
#
# Bulk Modulus (GPa) = 52.55688 73.07622 62.81655
# Shear Modulus (GPa) = 14.24570 17.28957 15.76764
#
# Velocity S-wave (km/s) = 3.03729 3.34608 3.19541
# Velocity P-wave (km/s) = 6.80694 7.88989 7.36834
#
# Compressibility (1/GPa) = 0.01902701
#
# Stress axis : x y z
#
# Youngs Moduli (GPa) = 25.99795 54.00547 79.60522
#
# Poissons Ratio (x) = 0.64788 0.65959
# Poissons Ratio (y) = 0.31189 0.39609
# Poissons Ratio (z) = 0.21541 0.26872
#
# Static dielectric constant tensor:
#      x y z
#    x 1.518150 0.000000 0.000000 
#    y 0.000000 1.516840 0.000000 
#    z 0.000000 0.000000 1.487000 
# 
# From -- ./inp_files/5669.got.cif
#   From: 2010.05.17/outbox.cif.g08.bks.cpg/sg25_3_cif.got.tgz:5669.got - 2010.06.04 01:04:00.
