data_PCOD9337632
_publ_section_title
;
Structure prediction by ZEFSAII (Michael W. Deem and Ramdas Pophale) SiO2 
 PCOD9337632
Probable space group: P M M 2
;
_chemical_formula_sum "Si O2"
_cell_formula_units_Z 32
_cell_length_a 15.033526
_cell_length_b 8.701270
_cell_length_c 12.653768
_cell_angle_alpha 90.000000
_cell_angle_beta 90.000000
_cell_angle_gamma 90.000000
_cell_volume 1655.249120
_symmetry_space_group_name_H-M "P M M 2"
_symmetry_group_IT_number 25
_symmetry_cell_setting 'orthorhombic'
loop_
_space_group_symop_operation_xyz
x,y,z
-x,-y,z
-x,y,z
x,-y,z
loop_
_atom_site_type_symbol
_atom_site_label
_atom_site_fract_x
_atom_site_fract_y
_atom_site_fract_z
Si Si1 0.599395 0.678165 0.967160
Si Si2 0.098529 0.315615 0.875868
Si Si3 0.157274 0.317877 0.113239
Si Si4 0.721366 0.180211 0.795942
Si Si5 0.095901 0.316315 0.347491
Si Si6 0.602778 0.314629 0.608198
Si Si7 0.342465 0.820547 0.172344
Si Si8 0.704803 0.686308 0.394129
O O1 0.500000 0.696105 0.922893
O O2 0.625629 0.500000 0.956841
O O3 0.668348 0.780101 0.903150
O O4 0.599334 0.726911 0.088979
O O5 0.102240 0.500000 0.864416
O O6 0.179613 0.245252 0.810856
O O7 0.000000 0.262556 0.844270
O O8 0.112141 0.284430 0.001345
O O9 0.183544 0.500000 0.111888
O O10 0.101375 0.296939 0.220287
O O11 0.242949 0.212699 0.129722
O O12 0.663737 0.256578 0.703489
O O13 0.725029 0.000000 0.779023
O O14 0.094886 0.500000 0.367155
O O15 0.191050 0.261423 0.393130
O O16 0.000000 0.253645 0.384871
O O17 0.500000 0.260985 0.614021
O O18 0.600986 0.500000 0.612261
O O19 0.650990 0.270517 0.498721
O O20 0.341810 0.754998 0.290489
O O21 0.363799 0.000000 0.170486
O O22 0.705231 0.500000 0.384806
#
# Coordination Sequence:
#
# PCOD9337632 Si02
#       8
#     4   4   4   4   4   4   4   4
#     4  11  23  39  60  84 113 153 198 243 294 356
#     4  10  20  35  59  88 118 158 205 245 284 341
#     4   9  16  29  51  78 113 156 200 241 279 331
#     4  12  25  40  60  87 121 154 189 244 308 363
#     4   8  13  24  47  80 113 144 184 234 284 332
#     4  10  22  42  66  87 109 147 202 257 305 358
#     4  11  21  33  53  84 123 159 189 232 295 358
#     4   9  19  36  58  83 112 149 197 249 295 346
#
# _framework density 19.332436999999999
#
# number of rings (size 3 to 8) (size 9 to 14) (size 15 to 20)
#    0.000    2.000    1.250    4.125    0.000    5.500 
#    0.000    1.875    0.000   11.250    0.000    0.000 
#    0.000    0.000    0.000    0.000    0.000    0.000 
#
# Total GULP energy -178561.226244 kJ/mol
# GULP energy per Si atom -5580.038320 kJ/mol
# Density = 1.928844 g / cm^3
# Si number density = 19.332437 Si / 1000 Ang^3
#
#
#
# Elastic Constant Matrix: (Units=GPa)
#
#
# Indices 1 2 3 4 5 6 
#
# 1 136.8580 19.5159 60.4837 0.0000 0.0000 0.0000
# 2 19.5159 18.1560 14.4828 0.0000 0.0000 0.0000
# 3 60.4837 14.4828 102.4076 0.0000 0.0000 0.0000
# 4 0.0000 0.0000 0.0000 5.5741 0.0000 0.0000
# 5 0.0000 0.0000 0.0000 0.0000 11.7634 0.0000
# 6 0.0000 0.0000 0.0000 0.0000 0.0000 298.9812
#
#
#
# Elastic Compliance Matrix: (Units=1/GPa)
#
#
# Indices 1 2 3 4 5 6 
#
# 1 0.010675 -0.007265 -0.005278 0.000000 0.000000 0.000000
# 2 -0.007265 0.067026 -0.005188 0.000000 0.000000 0.000000
# 3 -0.005278 -0.005188 0.013616 0.000000 0.000000 0.000000
# 4 0.000000 0.000000 0.000000 0.179402 0.000000 0.000000
# 5 0.000000 0.000000 0.000000 0.000000 0.085009 0.000000
# 6 0.000000 0.000000 0.000000 0.000000 0.000000 0.003345
#
#
# Mechanical properties :
#
#
# Convention : Reuss Voigt Hill
#
# Bulk Modulus (GPa) = 17.90340 49.59851 33.75095
# Shear Modulus (GPa) = 12.10207 74.12634 43.11420
#
# Velocity S-wave (km/s) = 2.50471 6.19889 4.72757
# Velocity P-wave (km/s) = 4.20068 8.77190 6.87721
#
# Compressibility (1/GPa) = 0.05585531
#
# Stress axis : x y z
#
# Youngs Moduli (GPa) = 93.67501 14.91961 73.44497
#
# Poissons Ratio (x) = 0.10839 0.38761
# Poissons Ratio (y) = 0.68055 0.38105
# Poissons Ratio (z) = 0.49437 0.07741
#
# Static dielectric constant tensor:
#      x y z
#    x 1.718540 0.000000 0.000000 
#    y 0.000000 1.642020 0.000000 
#    z 0.000000 0.000000 1.668540 
# 
# From -- ./inp_files/4910.got.cif
#   From: 2010.05.17/outbox.cif.g08.bks.cpg/sg25_3_cif.got.tgz:4910.got - 2010.06.04 01:04:00.
