data_PCOD9337913
_publ_section_title
;
Structure prediction by ZEFSAII (Michael W. Deem and Ramdas Pophale) SiO2 
 PCOD9337913
Probable space group: P M C 21
;
_chemical_formula_sum "Si O2"
_cell_formula_units_Z 32
_cell_length_a 7.823400
_cell_length_b 11.160102
_cell_length_c 14.508082
_cell_angle_alpha 90.000000
_cell_angle_beta 90.000000
_cell_angle_gamma 90.000000
_cell_volume 1266.699798
_symmetry_space_group_name_H-M "P M C 21"
_symmetry_group_IT_number 26
_symmetry_cell_setting 'orthorhombic'
loop_
_space_group_symop_operation_xyz
x,y,z
-x,-y,1/2+z
-x,y,z
x,-y,1/2+z
loop_
_atom_site_type_symbol
_atom_site_label
_atom_site_fract_x
_atom_site_fract_y
_atom_site_fract_z
Si Si1 0.291817 0.540658 0.801050
Si Si2 0.798645 0.941960 0.636552
Si Si3 0.796438 0.174969 0.745836
Si Si4 0.697377 0.796287 0.797506
Si Si5 0.293977 0.690036 0.415839
Si Si6 0.291452 0.443294 0.088832
Si Si7 0.805476 0.942948 0.963662
Si Si8 0.301775 0.291098 0.567626
O O1 0.500000 0.531582 0.803846
O O2 0.240575 0.671009 0.840139
O O3 0.231267 0.425354 0.856356
O O4 0.235590 0.551174 0.694617
O O5 0.734140 0.050094 0.701936
O O6 0.725291 0.960154 0.534075
O O7 0.000000 0.960266 0.623257
O O8 0.776436 0.826739 0.698999
O O9 0.759147 0.198178 0.852841
O O10 0.710732 0.273076 0.678557
O O11 0.000000 0.182152 0.734168
O O12 0.500000 0.780485 0.777367
O O13 0.719079 0.902462 0.869989
O O14 0.500000 0.690791 0.418185
O O15 0.233452 0.661842 0.519736
O O16 0.500000 0.438950 0.091268
O O17 0.246721 0.573797 0.046983
O O18 0.799680 0.819550 0.024084
O O19 0.000000 0.973859 0.939030
O O20 0.500000 0.277361 0.538684
#
# Coordination Sequence:
#
# PCOD9337913 Si02
#       8
#     4   4   4   4   4   4   4   4
#     4   9  18  34  53  82 119 148 179 231 292 335
#     4   9  21  41  60  78 110 153 188 232 295 347
#     4  10  20  35  54  78 110 144 182 233 288 337
#     4  11  22  37  61  88 116 150 196 246 284 341
#     4  10  18  32  56  81 108 147 187 223 275 343
#     4   9  17  30  52  80 112 148 182 224 286 342
#     4  10  21  38  60  85 117 154 191 237 294 349
#     4  10  17  31  58  84 108 144 191 236 272 328
#
# _framework density 25.262497
#
# number of rings (size 3 to 8) (size 9 to 14) (size 15 to 20)
#    0.000    2.250    1.250    3.000    0.000    5.000 
#    2.250    3.750    0.000    0.000    0.000    0.000 
#    0.000    0.000    0.000    0.000    0.000    0.000 
#
# Total GULP energy -178813.693305 kJ/mol
# GULP energy per Si atom -5587.927916 kJ/mol
# Density = 2.520500 g / cm^3
# Si number density = 25.262497 Si / 1000 Ang^3
#
#
#
# Elastic Constant Matrix: (Units=GPa)
#
#
# Indices 1 2 3 4 5 6 
#
# 1 37.1092 -2.0876 -3.4595 0.0000 0.0000 0.0000
# 2 -2.0876 53.5596 15.5145 0.0000 0.0000 0.0000
# 3 -3.4595 15.5145 122.4093 0.0000 0.0000 0.0000
# 4 0.0000 0.0000 0.0000 50.0817 0.0000 0.0000
# 5 0.0000 0.0000 0.0000 0.0000 10.1925 0.0000
# 6 0.0000 0.0000 0.0000 0.0000 0.0000 18.6880
#
#
#
# Elastic Compliance Matrix: (Units=1/GPa)
#
#
# Indices 1 2 3 4 5 6 
#
# 1 0.027057 0.000865 0.000655 0.000000 0.000000 0.000000
# 2 0.000865 0.019410 -0.002436 0.000000 0.000000 0.000000
# 3 0.000655 -0.002436 0.008497 0.000000 0.000000 0.000000
# 4 0.000000 0.000000 0.000000 0.019967 0.000000 0.000000
# 5 0.000000 0.000000 0.000000 0.000000 0.098111 0.000000
# 6 0.000000 0.000000 0.000000 0.000000 0.000000 0.053510
#
#
# Mechanical properties :
#
#
# Convention : Reuss Voigt Hill
#
# Bulk Modulus (GPa) = 18.82093 25.89033 22.35563
# Shear Modulus (GPa) = 20.31736 29.33316 24.82526
#
# Velocity S-wave (km/s) = 2.83901 3.41124 3.13819
# Velocity P-wave (km/s) = 4.26766 5.07801 4.69037
#
# Compressibility (1/GPa) = 0.05313234
#
# Stress axis : x y z
#
# Youngs Moduli (GPa) = 36.95873 51.51980 117.69512
#
# Poissons Ratio (x) = -0.04456 -0.07710
# Poissons Ratio (y) = -0.03196 0.28666
# Poissons Ratio (z) = -0.02421 0.12548
#
# Static dielectric constant tensor:
#      x y z
#    x 1.898530 0.000000 0.000000 
#    y 0.000000 2.055800 0.000000 
#    z 0.000000 0.000000 2.035550 
# 
# From -- ./inp_files/4144.got.cif
#   From: 2010.05.17/outbox.cif.g08.bks.cpg/sg26_3_cif.got.tgz:4144.got - 2010.06.04 01:07:29.
