data_PCOD9337940
_publ_section_title
;
Structure prediction by ZEFSAII (Michael W. Deem and Ramdas Pophale) SiO2 
 PCOD9337940
Probable space group: P M C 21
;
_chemical_formula_sum "Si O2"
_cell_formula_units_Z 28
_cell_length_a 11.510663
_cell_length_b 7.276398
_cell_length_c 13.436494
_cell_angle_alpha 90.000000
_cell_angle_beta 90.000000
_cell_angle_gamma 90.000000
_cell_volume 1125.389212
_symmetry_space_group_name_H-M "P M C 21"
_symmetry_group_IT_number 26
_symmetry_cell_setting 'orthorhombic'
loop_
_space_group_symop_operation_xyz
x,y,z
-x,-y,1/2+z
-x,y,z
x,-y,1/2+z
loop_
_atom_site_type_symbol
_atom_site_label
_atom_site_fract_x
_atom_site_fract_y
_atom_site_fract_z
Si Si1 0.372079 0.551138 0.917160
Si Si2 0.875119 0.377213 0.113194
Si Si3 0.373404 0.870225 0.167902
Si Si4 0.627119 0.559447 0.647849
Si Si5 0.814634 0.727233 0.393532
Si Si6 0.626101 0.017946 0.387335
Si Si7 0.124784 0.195106 0.666021
O O1 0.500000 0.505923 0.875907
O O2 0.263439 0.451528 0.869067
O O3 0.360095 0.769585 0.912850
O O4 0.372238 0.480269 0.029793
O O5 0.748850 0.332873 0.163115
O O6 0.874072 0.599376 0.121552
O O7 0.000000 0.318944 0.159368
O O8 0.877173 0.321049 0.996866
O O9 0.500000 0.900594 0.117900
O O10 0.371819 0.649955 0.188833
O O11 0.374931 0.983556 0.269285
O O12 0.242936 0.899641 0.127187
O O13 0.500000 0.644188 0.672154
O O14 0.727764 0.889869 0.423963
O O15 0.870065 0.784983 0.287490
O O16 0.500000 0.951022 0.422282
O O17 0.000000 0.110249 0.638975
#
# Coordination Sequence:
#
# PCOD9337940 Si02
#       7
#     4   4   4   4   4   4   4
#     4   9  17  29  46  70  98 125 156 195 238 283
#     4   9  17  29  47  71  97 126 160 196 236 283
#     4   8  14  26  45  67  91 121 157 196 235 276
#     4   8  14  26  45  67  91 121 157 196 235 276
#     4  10  18  30  50  70  93 128 161 194 237 282
#     4   9  17  29  46  70  98 125 156 195 238 283
#     4   9  17  29  47  71  97 126 160 196 236 283
#
# _framework density 24.880281
#
# number of rings (size 3 to 8) (size 9 to 14) (size 15 to 20)
#    0.000    3.143    0.000    0.857    0.000    1.143 
#    0.000    1.429    0.000   23.143    0.000   16.000 
#    0.000    0.000    0.000    0.000    0.000    0.000 
#
# Total GULP energy -156149.833642 kJ/mol
# GULP energy per Si atom -5576.779773 kJ/mol
# Density = 2.482365 g / cm^3
# Si number density = 24.880281 Si / 1000 Ang^3
#
#
#
# Elastic Constant Matrix: (Units=GPa)
#
#
# Indices 1 2 3 4 5 6 
#
# 1 254.9067 37.6642 15.9203 0.0000 0.0000 0.0000
# 2 37.6642 80.8855 3.9194 0.0000 0.0000 0.0000
# 3 15.9203 3.9194 88.9689 0.0000 0.0000 0.0000
# 4 0.0000 0.0000 0.0000 13.0653 0.0000 0.0000
# 5 0.0000 0.0000 0.0000 0.0000 -205.5033 0.0000
# 6 0.0000 0.0000 0.0000 0.0000 0.0000 -25.6068
#
#
#
# Elastic Compliance Matrix: (Units=1/GPa)
#
#
# Indices 1 2 3 4 5 6 
#
# 1 0.004253 -0.001948 -0.000675 0.000000 0.000000 0.000000
# 2 -0.001948 0.013282 -0.000237 0.000000 0.000000 0.000000
# 3 -0.000675 -0.000237 0.011371 0.000000 0.000000 0.000000
# 4 0.000000 0.000000 0.000000 0.076538 0.000000 0.000000
# 5 0.000000 0.000000 0.000000 0.000000 -0.004866 0.000000
# 6 0.000000 0.000000 0.000000 0.000000 0.000000 -0.039052
#
#
# Mechanical properties :
#
#
# Convention : Reuss Voigt Hill
#
# Bulk Modulus (GPa) = 43.12820 59.97432 51.55126
# Shear Modulus (GPa) = 66.69022 -19.12511 23.78256
#
# Velocity S-wave (km/s) = 5.18292 -2.77553 3.09508
# Velocity P-wave (km/s) = 7.29306 3.72641 5.79115
#
# Compressibility (1/GPa) = 0.02318668
#
# Stress axis : x y z
#
# Youngs Moduli (GPa) = 235.13062 75.29250 87.94199
#
# Poissons Ratio (x) = 0.14664 0.05938
# Poissons Ratio (y) = 0.45795 0.02081
# Poissons Ratio (z) = 0.15877 0.01781
#
# Static dielectric constant tensor:
#      x y z
#    x 2.071850 0.000000 0.000000 
#    y 0.000000 1.901420 0.000000 
#    z 0.000000 0.000000 1.991740 
# 
# From -- ./inp_files/5168.got.cif
#   From: 2010.05.17/outbox.cif.g08.bks.cpg/sg26_3_cif.got.tgz:5168.got - 2010.06.04 01:07:29.
