data_PCOD9337435
_publ_section_title
;
Structure prediction by ZEFSAII (Michael W. Deem and Ramdas Pophale) SiO2 
 PCOD9337435
Probable space group: P M M 2
;
_chemical_formula_sum "Si O2"
_cell_formula_units_Z 28
_cell_length_a 7.516974
_cell_length_b 10.041240
_cell_length_c 18.436898
_cell_angle_alpha 90.000000
_cell_angle_beta 90.000000
_cell_angle_gamma 90.000000
_cell_volume 1391.612268
_symmetry_space_group_name_H-M "P M M 2"
_symmetry_group_IT_number 25
_symmetry_cell_setting 'orthorhombic'
loop_
_space_group_symop_operation_xyz
x,y,z
-x,-y,z
-x,y,z
x,-y,z
loop_
_atom_site_type_symbol
_atom_site_label
_atom_site_fract_x
_atom_site_fract_y
_atom_site_fract_z
Si Si1 0.282978 0.347932 0.943660
Si Si2 0.211212 0.151022 0.648965
Si Si3 0.285699 0.650942 0.778987
Si Si4 0.287236 0.150223 0.231337
Si Si5 0.787229 0.648953 0.360484
Si Si6 0.217397 0.346987 0.524049
Si Si7 0.282986 0.845845 0.070163
O O1 0.500000 0.343872 0.943488
O O2 0.231800 0.500000 0.959939
O O3 0.226258 0.317840 0.861183
O O4 0.220003 0.247487 0.005286
O O5 0.234637 0.237474 0.721564
O O6 0.282277 0.240715 0.582658
O O7 0.000000 0.139743 0.637071
O O8 0.282282 0.000000 0.653390
O O9 0.500000 0.646327 0.780067
O O10 0.224223 0.500000 0.759968
O O11 0.500000 0.141597 0.225749
O O12 0.250589 0.248001 0.297192
O O13 0.224666 0.195049 0.151333
O O14 0.219860 0.000000 0.244722
O O15 0.720381 0.500000 0.343365
O O16 0.725256 0.685169 0.441695
O O17 0.000000 0.641134 0.365810
O O18 0.270349 0.500000 0.540557
O O19 0.000000 0.345995 0.525672
O O20 0.500000 0.841365 0.068987
O O21 0.232564 0.000000 0.059769
#
# Coordination Sequence:
#
# PCOD9337435 Si02
#       7
#     4   4   4   4   4   4   4
#     4   8  14  25  42  65  90 115 148 189 227 265
#     4  10  20  32  48  72  97 120 152 192 230 272
#     4   9  18  32  49  70  96 124 154 189 230 276
#     4   9  18  31  46  68  98 127 155 188 227 274
#     4   9  18  32  50  72  94 117 152 195 233 273
#     4   8  15  30  50  68  88 118 155 192 229 271
#     4   8  14  25  41  62  89 120 152 185 222 266
#
# _framework density 20.120546000000001
#
# number of rings (size 3 to 8) (size 9 to 14) (size 15 to 20)
#    0.000    3.286    0.000    3.000    0.000    3.429 
#    0.000    5.000    0.000    1.714    0.000    0.000 
#    0.000    0.000    0.000    0.000    0.000    0.000 
#
# Total GULP energy -156120.021929 kJ/mol
# GULP energy per Si atom -5575.715069 kJ/mol
# Density = 2.007475 g / cm^3
# Si number density = 20.120546 Si / 1000 Ang^3
#
#
#
# Elastic Constant Matrix: (Units=GPa)
#
#
# Indices 1 2 3 4 5 6 
#
# 1 49.1795 5.0819 3.5105 0.0000 0.0000 0.0000
# 2 5.0819 169.4068 157.2427 0.0000 0.0000 0.0000
# 3 3.5105 157.2427 199.1283 0.0000 0.0000 0.0000
# 4 0.0000 0.0000 0.0000 156.9845 0.0000 0.0000
# 5 0.0000 0.0000 0.0000 0.0000 20.8436 0.0000
# 6 0.0000 0.0000 0.0000 0.0000 0.0000 13.5390
#
#
#
# Elastic Compliance Matrix: (Units=1/GPa)
#
#
# Indices 1 2 3 4 5 6 
#
# 1 0.020408 -0.001042 0.000463 0.000000 0.000000 0.000000
# 2 -0.001042 0.022158 -0.017479 0.000000 0.000000 0.000000
# 3 0.000463 -0.017479 0.018816 0.000000 0.000000 0.000000
# 4 0.000000 0.000000 0.000000 0.006370 0.000000 0.000000
# 5 0.000000 0.000000 0.000000 0.000000 0.047976 0.000000
# 6 0.000000 0.000000 0.000000 0.000000 0.000000 0.073861
#
#
# Mechanical properties :
#
#
# Convention : Reuss Voigt Hill
#
# Bulk Modulus (GPa) = 39.57777 83.26497 61.42137
# Shear Modulus (GPa) = 21.35594 55.06538 38.21066
#
# Velocity S-wave (km/s) = 3.26145 5.23709 4.36258
# Velocity P-wave (km/s) = 5.82201 8.83416 7.48125
#
# Compressibility (1/GPa) = 0.02526671
#
# Stress axis : x y z
#
# Youngs Moduli (GPa) = 48.99966 45.13060 53.14650
#
# Poissons Ratio (x) = 0.04703 -0.02461
# Poissons Ratio (y) = 0.05106 0.92893
# Poissons Ratio (z) = -0.02269 0.78883
#
# Static dielectric constant tensor:
#      x y z
#    x 1.787530 0.000000 0.000000 
#    y 0.000000 1.700540 0.000000 
#    z 0.000000 0.000000 1.701180 
# 
# From -- ./inp_files/6323.got.cif
#   From: 2010.05.17/outbox.cif.g08.bks.cpg/sg25_4_cif.got.tgz:6323.got - 2010.06.04 01:04:00.
