data_PCOD9337993
_publ_section_title
;
Structure prediction by ZEFSAII (Michael W. Deem and Ramdas Pophale) SiO2 
 PCOD9337993
Probable space group: P M C 21
;
_chemical_formula_sum "Si O2"
_cell_formula_units_Z 32
_cell_length_a 9.076879
_cell_length_b 16.173134
_cell_length_c 11.212495
_cell_angle_alpha 90.000000
_cell_angle_beta 90.000000
_cell_angle_gamma 90.000000
_cell_volume 1646.011986
_symmetry_space_group_name_H-M "P M C 21"
_symmetry_group_IT_number 26
_symmetry_cell_setting 'orthorhombic'
loop_
_space_group_symop_operation_xyz
x,y,z
-x,-y,1/2+z
-x,y,z
x,-y,1/2+z
loop_
_atom_site_type_symbol
_atom_site_label
_atom_site_fract_x
_atom_site_fract_y
_atom_site_fract_z
Si Si1 0.172983 0.650076 0.233600
Si Si2 0.174334 0.774000 0.813933
Si Si3 0.327940 0.654444 0.985452
Si Si4 0.330931 0.342648 0.134337
Si Si5 0.179056 0.065975 0.971561
Si Si6 0.330336 0.490098 0.289766
Si Si7 0.822006 0.039485 0.239625
Si Si8 0.329525 0.764119 0.406679
O O1 0.231929 0.638337 0.100789
O O2 0.222753 0.566545 0.300255
O O3 0.251725 0.729759 0.289639
O O4 0.000000 0.660975 0.238883
O O5 0.215921 0.712791 0.706260
O O6 0.215036 0.866495 0.776015
O O7 0.000000 0.771299 0.839353
O O8 0.267366 0.737118 0.922681
O O9 0.500000 0.661533 0.015716
O O10 0.312606 0.579021 0.891757
O O11 0.500000 0.325092 0.177752
O O12 0.306768 0.438139 0.167103
O O13 0.324799 0.311976 0.000101
O O14 0.245370 0.157690 0.961549
O O15 0.000000 0.069713 0.971983
O O16 0.226756 0.018097 0.850406
O O17 0.224584 0.027074 0.100724
O O18 0.500000 0.519928 0.291533
O O19 0.000000 0.032930 0.237961
O O20 0.500000 0.785367 0.386624
#
# Coordination Sequence:
#
# PCOD9337993 Si02
#       8
#     4   4   4   4   4   4   4   4
#     4  12  26  40  58  88 122 157 199 256 309 359
#     4  10  18  33  59  90 117 150 198 249 299 355
#     4  10  22  41  61  84 118 159 200 246 303 369
#     4   9  19  36  60  85 113 154 198 240 293 357
#     4  10  20  39  61  88 122 164 210 260 315 378
#     4   9  20  39  61  85 114 157 200 243 300 363
#     4   9  19  34  59  90 124 162 206 255 316 377
#     4  11  23  40  61  88 120 161 205 249 305 372
#
# _framework density 19.440926999999999
#
# number of rings (size 3 to 8) (size 9 to 14) (size 15 to 20)
#    0.000    2.000    1.250    3.000    1.750    4.000 
#    0.000    4.375    0.000    0.000    0.000    0.000 
#    0.000    0.000    0.000    0.000    0.000    0.000 
#
# Total GULP energy -178528.027517 kJ/mol
# GULP energy per Si atom -5579.000860 kJ/mol
# Density = 1.939668 g / cm^3
# Si number density = 19.440927 Si / 1000 Ang^3
#
#
#
# Elastic Constant Matrix: (Units=GPa)
#
#
# Indices 1 2 3 4 5 6 
#
# 1 51.6617 20.4620 25.4876 0.0000 0.0000 0.0000
# 2 20.4620 50.4258 38.0406 0.0000 0.0000 0.0000
# 3 25.4876 38.0406 90.1841 0.0000 0.0000 0.0000
# 4 0.0000 0.0000 0.0000 24.8399 0.0000 0.0000
# 5 0.0000 0.0000 0.0000 0.0000 24.0534 0.0000
# 6 0.0000 0.0000 0.0000 0.0000 0.0000 17.3223
#
#
#
# Elastic Compliance Matrix: (Units=1/GPa)
#
#
# Indices 1 2 3 4 5 6 
#
# 1 0.023972 -0.006771 -0.003919 0.000000 0.000000 0.000000
# 2 -0.006771 0.030999 -0.011162 0.000000 0.000000 0.000000
# 3 -0.003919 -0.011162 0.016904 0.000000 0.000000 0.000000
# 4 0.000000 0.000000 0.000000 0.040258 0.000000 0.000000
# 5 0.000000 0.000000 0.000000 0.000000 0.041574 0.000000
# 6 0.000000 0.000000 0.000000 0.000000 0.000000 0.057729
#
#
# Mechanical properties :
#
#
# Convention : Reuss Voigt Hill
#
# Bulk Modulus (GPa) = 35.49706 40.02798 37.76252
# Shear Modulus (GPa) = 18.90135 20.46188 19.68162
#
# Velocity S-wave (km/s) = 3.12147 3.24777 3.18524
# Velocity P-wave (km/s) = 5.59375 5.89052 5.74405
#
# Compressibility (1/GPa) = 0.02817134
#
# Stress axis : x y z
#
# Youngs Moduli (GPa) = 41.71543 32.25871 59.15666
#
# Poissons Ratio (x) = 0.21843 0.23182
# Poissons Ratio (y) = 0.28246 0.66032
# Poissons Ratio (z) = 0.16347 0.36008
#
# Static dielectric constant tensor:
#      x y z
#    x 1.644520 0.000000 0.000000 
#    y 0.000000 1.662130 0.000000 
#    z 0.000000 0.000000 1.737320 
# 
# From -- ./inp_files/3058.got.cif
#   From: 2010.05.17/outbox.cif.g08.bks.cpg/sg26_2_cif.got.tgz:3058.got - 2010.06.04 01:07:29.
