data_PCOD9337331
_publ_section_title
;
Structure prediction by ZEFSAII (Michael W. Deem and Ramdas Pophale) SiO2 
 PCOD9337331
Probable space group: P M M 2
;
_chemical_formula_sum "Si O2"
_cell_formula_units_Z 24
_cell_length_a 8.020352
_cell_length_b 14.651857
_cell_length_c 10.597540
_cell_angle_alpha 90.000000
_cell_angle_beta 90.000000
_cell_angle_gamma 90.000000
_cell_volume 1245.349254
_symmetry_space_group_name_H-M "P M M 2"
_symmetry_group_IT_number 25
_symmetry_cell_setting 'orthorhombic'
loop_
_space_group_symop_operation_xyz
x,y,z
-x,-y,z
-x,y,z
x,-y,z
loop_
_atom_site_type_symbol
_atom_site_label
_atom_site_fract_x
_atom_site_fract_y
_atom_site_fract_z
Si Si1 0.703427 0.102229 0.372660
Si Si2 0.299719 0.603137 0.232586
Si Si3 0.298961 0.897667 0.080325
Si Si4 0.200909 0.395312 0.733375
Si Si5 0.198099 0.291069 0.981583
Si Si6 0.298190 0.290228 0.481035
O O1 0.500000 0.101867 0.373147
O O2 0.753095 0.118922 0.226421
O O3 0.758595 0.185795 0.459779
O O4 0.758023 0.000000 0.408372
O O5 0.500000 0.598958 0.243042
O O6 0.234709 0.500000 0.222659
O O7 0.238790 0.652851 0.359010
O O8 0.261006 0.660091 0.107998
O O9 0.500000 0.897345 0.080449
O O10 0.243293 0.000000 0.045066
O O11 0.241360 0.815512 0.992777
O O12 0.262688 0.500000 0.727687
O O13 0.264399 0.342286 0.857441
O O14 0.244294 0.339086 0.608454
O O15 0.000000 0.399383 0.741602
O O16 0.000000 0.299613 0.980178
O O17 0.500000 0.289641 0.479126
#
# Coordination Sequence:
#
# PCOD9337331 Si02
#       6
#     4   4   4   4   4   4
#     4   8  14  28  53  82 110 138 167 209 266 322
#     4  10  20  34  54  81 110 137 176 233 285 328
#     4   9  17  33  58  84 111 143 178 220 273 327
#     4  10  23  41  55  71 105 151 190 223 268 326
#     4  11  22  36  55  79 110 147 185 225 272 326
#     4  10  19  34  57  83 108 136 178 228 274 322
#
# _framework density 19.271702000000001
#
# number of rings (size 3 to 8) (size 9 to 14) (size 15 to 20)
#    0.000    2.333    1.667    2.500    0.000    4.333 
#    0.000    0.833    0.000    3.500    0.000    0.000 
#    0.000    0.000    0.000    0.000    0.000    0.000 
#
# Total GULP energy -133926.495882 kJ/mol
# GULP energy per Si atom -5580.270662 kJ/mol
# Density = 1.922784 g / cm^3
# Si number density = 19.271702 Si / 1000 Ang^3
#
#
#
# Elastic Constant Matrix: (Units=GPa)
#
#
# Indices 1 2 3 4 5 6 
#
# 1 10.5126 9.0590 4.0697 0.0000 0.0000 0.0000
# 2 9.0590 193.2294 95.8791 0.0000 0.0000 0.0000
# 3 4.0697 95.8791 146.4164 0.0000 0.0000 0.0000
# 4 0.0000 0.0000 0.0000 33.5763 0.0000 0.0000
# 5 0.0000 0.0000 0.0000 0.0000 24.9234 0.0000
# 6 0.0000 0.0000 0.0000 0.0000 0.0000**********
#
#
#
# Elastic Compliance Matrix: (Units=1/GPa)
#
#
# Indices 1 2 3 4 5 6 
#
# 1 0.099146 -0.004860 0.000427 0.000000 0.000000 0.000000
# 2 -0.004860 0.007904 -0.005041 0.000000 0.000000 0.000000
# 3 0.000427 -0.005041 0.010119 0.000000 0.000000 0.000000
# 4 0.000000 0.000000 0.000000 0.029783 0.000000 0.000000
# 5 0.000000 0.000000 0.000000 0.000000 0.040123 0.000000
# 6 0.000000 0.000000 0.000000 0.000000 0.000000 -0.000005
#
#
# Mechanical properties :
#
#
# Convention : Reuss Voigt Hill
#
# Bulk Modulus (GPa) = 10.18110 63.13045 36.65578
# Shear Modulus (GPa) = 20.94162 -37920.83305 -18949.94572
#
# Velocity S-wave (km/s) = 3.30002 -140.42673 -99.26927
# Velocity P-wave (km/s) = 4.45135 162.04956 114.54311
#
# Compressibility (1/GPa) = 0.09822119
#
# Stress axis : x y z
#
# Youngs Moduli (GPa) = 10.08611 126.51267 98.82384
#
# Poissons Ratio (x) = 0.61484 -0.04217
# Poissons Ratio (y) = 0.04902 0.49817
# Poissons Ratio (z) = -0.00430 0.63775
#
# Static dielectric constant tensor:
#      x y z
#    x 1.694980 0.000000 0.000000 
#    y 0.000000 1.700880 0.000000 
#    z 0.000000 0.000000 1.636280 
# 
# From -- ./inp_files/1994.got.cif
#   From: 2010.05.17/outbox.cif.g08.bks.cpg/sg25_1_cif.got.tgz:1994.got - 2010.06.04 01:04:00.
