data_PCOD9337413
_publ_section_title
;
Structure prediction by ZEFSAII (Michael W. Deem and Ramdas Pophale) SiO2 
 PCOD9337413
Probable space group: P M M 2
;
_chemical_formula_sum "Si O2"
_cell_formula_units_Z 32
_cell_length_a 9.671294
_cell_length_b 7.418322
_cell_length_c 20.988884
_cell_angle_alpha 90.000000
_cell_angle_beta 90.000000
_cell_angle_gamma 90.000000
_cell_volume 1505.842719
_symmetry_space_group_name_H-M "P M M 2"
_symmetry_group_IT_number 25
_symmetry_cell_setting 'orthorhombic'
loop_
_space_group_symop_operation_xyz
x,y,z
-x,-y,z
-x,y,z
x,-y,z
loop_
_atom_site_type_symbol
_atom_site_label
_atom_site_fract_x
_atom_site_fract_y
_atom_site_fract_z
Si Si1 0.841846 0.719476 0.853850
Si Si2 0.156407 0.716906 0.998136
Si Si3 0.341298 0.720744 0.735409
Si Si4 0.844295 0.712983 0.618192
Si Si5 0.841298 0.779256 0.235409
Si Si6 0.343593 0.216906 0.498135
Si Si7 0.658154 0.780524 0.353850
Si Si8 0.344296 0.787017 0.118192
O O1 0.840286 0.500000 0.853838
O O2 0.810301 0.777634 0.926161
O O3 0.735204 0.778042 0.800116
O O4 0.000000 0.772770 0.838758
O O5 0.152221 0.500000 0.996457
O O6 0.000000 0.779050 0.014226
O O7 0.266500 0.767200 0.051219
O O8 0.500000 0.778944 0.732028
O O9 0.342393 0.500000 0.735015
O O10 0.252419 0.783727 0.674862
O O11 0.856166 0.500000 0.630395
O O12 0.766500 0.732800 0.551219
O O13 0.000000 0.787257 0.617475
O O14 0.764796 0.721959 0.300116
O O15 0.752419 0.716273 0.174862
O O16 0.000000 0.721054 0.232028
O O17 0.842395 0.000000 0.235014
O O18 0.500000 0.279052 0.514225
O O19 0.310300 0.277632 0.426161
O O20 0.347780 0.000000 0.496457
O O21 0.500000 0.727227 0.338758
O O22 0.659712 0.000000 0.353837
O O23 0.500000 0.712742 0.117475
O O24 0.356166 0.000000 0.130395
#
# Coordination Sequence:
#
# PCOD9337413 Si02
#       8
#     4   4   4   4   4   4   4   4
#     4   8  14  26  44  66  92 119 148 187 234 280
#     4   9  18  32  50  72  97 125 156 191 234 282
#     4   9  16  26  43  67  92 119 154 195 235 274
#     4  10  20  32  47  69  97 128 160 194 233 277
#     4   9  16  26  43  67  92 119 154 195 235 274
#     4   9  18  32  50  72  97 125 156 191 234 282
#     4   8  14  26  44  66  92 119 148 187 234 280
#     4  10  20  32  47  69  97 128 160 194 233 277
#
# _framework density 21.250558999999999
#
# number of rings (size 3 to 8) (size 9 to 14) (size 15 to 20)
#    0.000    3.000    0.000    3.000    0.000    6.000 
#    0.000    2.500    0.000    1.500    0.000    7.000 
#    0.000    0.000    0.000    0.000    0.000    0.000 
#
# Total GULP energy -178662.610931 kJ/mol
# GULP energy per Si atom -5583.206592 kJ/mol
# Density = 2.120219 g / cm^3
# Si number density = 21.250559 Si / 1000 Ang^3
#
#
#
# Elastic Constant Matrix: (Units=GPa)
#
#
# Indices 1 2 3 4 5 6 
#
# 1 233.2274 7.3885 161.6864 0.0000 0.0000 0.0000
# 2 7.3885 66.9926 -0.0195 0.0000 0.0000 0.0000
# 3 161.6864 -0.0195 173.7497 0.0000 0.0000 0.0000
# 4 0.0000 0.0000 0.0000 15.6628 0.0000 0.0000
# 5 0.0000 0.0000 0.0000 0.0000 39.8331 0.0000
# 6 0.0000 0.0000 0.0000 0.0000 0.0000 6.9709
#
#
#
# Elastic Compliance Matrix: (Units=1/GPa)
#
#
# Indices 1 2 3 4 5 6 
#
# 1 0.012203 -0.001349 -0.011356 0.000000 0.000000 0.000000
# 2 -0.001349 0.015076 0.001257 0.000000 0.000000 0.000000
# 3 -0.011356 0.001257 0.016323 0.000000 0.000000 0.000000
# 4 0.000000 0.000000 0.000000 0.063846 0.000000 0.000000
# 5 0.000000 0.000000 0.000000 0.000000 0.025105 0.000000
# 6 0.000000 0.000000 0.000000 0.000000 0.000000 0.143454
#
#
# Mechanical properties :
#
#
# Convention : Reuss Voigt Hill
#
# Bulk Modulus (GPa) = 48.29417 90.23117 69.26267
# Shear Modulus (GPa) = 16.35032 32.82097 24.58564
#
# Velocity S-wave (km/s) = 2.77683 3.93424 3.40507
# Velocity P-wave (km/s) = 5.74947 7.94925 6.93711
#
# Compressibility (1/GPa) = 0.02070643
#
# Stress axis : x y z
#
# Youngs Moduli (GPa) = 81.94787 66.32977 61.26356
#
# Poissons Ratio (x) = 0.08949 0.69570
# Poissons Ratio (y) = 0.11056 -0.07702
# Poissons Ratio (z) = 0.93058 -0.08339
#
# Static dielectric constant tensor:
#      x y z
#    x 1.731500 0.000000 0.000000 
#    y 0.000000 1.848930 0.000000 
#    z 0.000000 0.000000 1.730260 
# 
# From -- ./inp_files/6510.got.cif
#   From: 2010.05.17/outbox.cif.g08.bks.cpg/sg25_4_cif.got.tgz:6510.got - 2010.06.04 01:04:00.
