data_PCOD9337571
_publ_section_title
;
Structure prediction by ZEFSAII (Michael W. Deem and Ramdas Pophale) SiO2 
 PCOD9337571
Probable space group: P M M 2
;
_chemical_formula_sum "Si O2"
_cell_formula_units_Z 28
_cell_length_a 8.004696
_cell_length_b 9.402856
_cell_length_c 19.956942
_cell_angle_alpha 90.000000
_cell_angle_beta 90.000000
_cell_angle_gamma 90.000000
_cell_volume 1502.099230
_symmetry_space_group_name_H-M "P M M 2"
_symmetry_group_IT_number 25
_symmetry_cell_setting 'orthorhombic'
loop_
_space_group_symop_operation_xyz
x,y,z
-x,-y,z
-x,y,z
x,-y,z
loop_
_atom_site_type_symbol
_atom_site_label
_atom_site_fract_x
_atom_site_fract_y
_atom_site_fract_z
Si Si1 0.306615 0.837187 0.156380
Si Si2 0.000000 0.330402 0.911342
Si Si3 0.801864 0.659333 0.279971
Si Si4 0.799103 0.160959 0.405467
Si Si5 0.810058 0.839321 0.014327
Si Si6 0.000000 0.168691 0.771795
Si Si7 0.304192 0.168784 0.670643
Si Si8 0.701164 0.662383 0.535809
O O1 0.500000 0.840135 0.175163
O O2 0.220426 0.733835 0.208535
O O3 0.293420 0.792498 0.078541
O O4 0.241644 0.000000 0.160410
O O5 0.000000 0.263621 0.837968
O O6 0.000000 0.500000 0.911998
O O7 0.839800 0.266009 0.952221
O O8 0.730780 0.500000 0.280907
O O9 0.733325 0.757100 0.339870
O O10 0.000000 0.648073 0.291841
O O11 0.761161 0.249599 0.471958
O O12 0.000000 0.151953 0.399482
O O13 0.733577 0.000000 0.409738
O O14 0.000000 0.849383 0.041540
O O15 0.759203 0.000000 0.993486
O O16 0.832785 0.196087 0.728091
O O17 0.000000 0.000000 0.789573
O O18 0.500000 0.199796 0.688148
O O19 0.256392 0.258243 0.604946
O O20 0.295719 0.000000 0.655119
O O21 0.500000 0.658780 0.533131
O O22 0.763397 0.500000 0.534524
#
# Coordination Sequence:
#
# PCOD9337571 Si02
#       8
#     4   2   4   4   4   2   4   4
#     4  10  20  34  54  80 107 138 179 223 269 323
#     4  10  20  34  56  84 109 138 179 218 260 322
#     4  10  21  36  53  75 104 140 180 224 277 330
#     4  10  21  36  55  77 102 136 183 233 276 322
#     4   8  16  33  55  76 102 138 172 212 259 309
#     4  10  20  36  60  86 113 148 187 226 276 332
#     4   9  19  36  57  83 114 148 189 234 276 328
#     4  10  21  36  54  78 110 146 180 221 277 333
#
# _framework density 18.640578999999999
#
# number of rings (size 3 to 8) (size 9 to 14) (size 15 to 20)
#    0.429    2.000    0.000    2.143    1.000    5.143 
#    0.000    0.714    0.000    4.286    0.000    0.000 
#    0.000    0.000    0.000    0.000    0.000    0.000 
#
# Total GULP energy -156010.245856 kJ/mol
# GULP energy per Si atom -5571.794495 kJ/mol
# Density = 1.859815 g / cm^3
# Si number density = 18.640579 Si / 1000 Ang^3
#
#
#
# Elastic Constant Matrix: (Units=GPa)
#
#
# Indices 1 2 3 4 5 6 
#
# 1 30.3543 28.0720 24.5523 0.0000 0.0000 0.0000
# 2 28.0720 150.6495 111.2922 0.0000 0.0000 0.0000
# 3 24.5523 111.2922 142.2605 0.0000 0.0000 0.0000
# 4 0.0000 0.0000 0.0000 -52.4649 0.0000 0.0000
# 5 0.0000 0.0000 0.0000 0.0000 -124.4400 0.0000
# 6 0.0000 0.0000 0.0000 0.0000 0.0000 8.5964
#
#
#
# Elastic Compliance Matrix: (Units=1/GPa)
#
#
# Indices 1 2 3 4 5 6 
#
# 1 0.040191 -0.005603 -0.002553 0.000000 0.000000 0.000000
# 2 -0.005603 0.016508 -0.011948 0.000000 0.000000 0.000000
# 3 -0.002553 -0.011948 0.016817 0.000000 0.000000 0.000000
# 4 0.000000 0.000000 0.000000 -0.019060 0.000000 0.000000
# 5 0.000000 0.000000 0.000000 0.000000 -0.008036 0.000000
# 6 0.000000 0.000000 0.000000 0.000000 0.000000 0.116328
#
#
# Mechanical properties :
#
#
# Convention : Reuss Voigt Hill
#
# Bulk Modulus (GPa) = 30.02231 72.34415 51.18323
# Shear Modulus (GPa) = 23.35817 -23.03849 0.15984
#
# Velocity S-wave (km/s) = 3.54373 -3.51940 0.29314
# Velocity P-wave (km/s) = 5.73453 4.73069 5.25663
#
# Compressibility (1/GPa) = 0.03330856
#
# Stress axis : x y z
#
# Youngs Moduli (GPa) = 24.88110 60.57562 59.46449
#
# Poissons Ratio (x) = 0.33941 0.15182
# Poissons Ratio (y) = 0.13941 0.71046
# Poissons Ratio (z) = 0.06352 0.72373
#
# Static dielectric constant tensor:
#      x y z
#    x 1.742470 0.000000 0.000000 
#    y 0.000000 1.654950 0.000000 
#    z 0.000000 0.000000 1.612470 
# 
# From -- ./inp_files/6423.got.cif
#   From: 2010.05.17/outbox.cif.g08.bks.cpg/sg25_4_cif.got.tgz:6423.got - 2010.06.04 01:04:00.
