data_PCOD9337729
_publ_section_title
;
Structure prediction by ZEFSAII (Michael W. Deem and Ramdas Pophale) SiO2 
 PCOD9337729
Probable space group: P M M 2
;
_chemical_formula_sum "Si O2"
_cell_formula_units_Z 32
_cell_length_a 8.910201
_cell_length_b 14.281687
_cell_length_c 13.344879
_cell_angle_alpha 90.000000
_cell_angle_beta 90.000000
_cell_angle_gamma 90.000000
_cell_volume 1698.171908
_symmetry_space_group_name_H-M "P M M 2"
_symmetry_group_IT_number 25
_symmetry_cell_setting 'orthorhombic'
loop_
_space_group_symop_operation_xyz
x,y,z
-x,-y,z
-x,y,z
x,-y,z
loop_
_atom_site_type_symbol
_atom_site_label
_atom_site_fract_x
_atom_site_fract_y
_atom_site_fract_z
Si Si1 0.678335 0.109526 0.812210
Si Si2 0.819886 0.609148 0.923724
Si Si3 0.319021 0.283160 0.332019
Si Si4 0.320111 0.389553 0.130404
Si Si5 0.818702 0.891788 0.244738
Si Si6 0.681334 0.609271 0.534574
Si Si7 0.828895 0.113661 0.021129
Si Si8 0.820188 0.717169 0.721977
O O1 0.500000 0.119362 0.804601
O O2 0.759334 0.177876 0.734810
O O3 0.717337 0.000000 0.797826
O O4 0.731757 0.136965 0.924385
O O5 0.774530 0.500000 0.914179
O O6 0.773621 0.663602 0.824146
O O7 0.000000 0.612560 0.930158
O O8 0.753098 0.646398 0.027764
O O9 0.500000 0.276947 0.331083
O O10 0.271368 0.338395 0.231643
O O11 0.249444 0.180277 0.323106
O O12 0.275110 0.340004 0.430976
O O13 0.500000 0.381320 0.122228
O O14 0.283325 0.500000 0.139006
O O15 0.770825 0.861542 0.131743
O O16 0.000000 0.888072 0.245228
O O17 0.774694 0.000000 0.260945
O O18 0.500000 0.613012 0.541992
O O19 0.725316 0.500000 0.534063
O O20 0.752468 0.663497 0.627616
O O21 0.000000 0.148671 0.007412
O O22 0.836898 0.000000 0.024122
O O23 0.000000 0.716848 0.716566
#
# Coordination Sequence:
#
# PCOD9337729 Si02
#       8
#     4   4   4   4   4   4   4   4
#     4  10  21  36  55  82 116 152 193 239 285 340
#     4   9  19  35  53  77 111 146 179 222 278 337
#     4  10  21  36  57  85 113 145 189 237 286 337
#     4   9  18  33  53  79 112 146 179 220 274 337
#     4   9  19  35  54  79 114 154 194 234 279 336
#     4  10  22  42  65  86 112 148 191 240 292 346
#     4   8  15  30  51  75 108 151 192 230 277 331
#     4  11  23  38  59  85 114 149 192 240 290 344
#
# _framework density 18.843793999999999
#
# number of rings (size 3 to 8) (size 9 to 14) (size 15 to 20)
#    0.000    2.500    0.000    2.250    1.750    5.750 
#    0.000    3.125    0.000    3.000    0.000    0.000 
#    0.000    0.000    0.000    0.000    0.000    0.000 
#
# Total GULP energy -178648.742458 kJ/mol
# GULP energy per Si atom -5582.773202 kJ/mol
# Density = 1.880090 g / cm^3
# Si number density = 18.843794 Si / 1000 Ang^3
#
#
#
# Elastic Constant Matrix: (Units=GPa)
#
#
# Indices 1 2 3 4 5 6 
#
# 1 19.9209 38.9169 43.4595 0.0000 0.0000 0.0000
# 2 38.9169 126.6417 89.8454 0.0000 0.0000 0.0000
# 3 43.4595 89.8454 152.4466 0.0000 0.0000 0.0000
# 4 0.0000 0.0000 0.0000 36.8826 0.0000 0.0000
# 5 0.0000 0.0000 0.0000 0.0000 37.8319 0.0000
# 6 0.0000 0.0000 0.0000 0.0000 0.0000 22.5873
#
#
#
# Elastic Compliance Matrix: (Units=1/GPa)
#
#
# Indices 1 2 3 4 5 6 
#
# 1 0.194943 -0.035194 -0.034833 0.000000 0.000000 0.000000
# 2 -0.035194 0.019924 -0.001709 0.000000 0.000000 0.000000
# 3 -0.034833 -0.001709 0.017497 0.000000 0.000000 0.000000
# 4 0.000000 0.000000 0.000000 0.027113 0.000000 0.000000
# 5 0.000000 0.000000 0.000000 0.000000 0.026433 0.000000
# 6 0.000000 0.000000 0.000000 0.000000 0.000000 0.044273
#
#
# Mechanical properties :
#
#
# Convention : Reuss Voigt Hill
#
# Bulk Modulus (GPa) = 11.24954 71.49476 41.37215
# Shear Modulus (GPa) = 9.93474 27.91286 18.92380
#
# Velocity S-wave (km/s) = 2.29861 3.85291 3.17242
# Velocity P-wave (km/s) = 3.60938 7.60371 5.95164
#
# Compressibility (1/GPa) = 0.08889251
#
# Stress axis : x y z
#
# Youngs Moduli (GPa) = 5.12971 50.19091 57.15235
#
# Poissons Ratio (x) = 1.76641 1.99077
# Poissons Ratio (y) = 0.18053 0.09769
# Poissons Ratio (z) = 0.17868 0.08579
#
# Static dielectric constant tensor:
#      x y z
#    x 1.630600 0.000000 0.000000 
#    y 0.000000 1.682390 0.000000 
#    z 0.000000 0.000000 1.632150 
# 
# From -- ./inp_files/4211.got.cif
#   From: 2010.05.17/outbox.cif.g08.bks.cpg/sg25_3_cif.got.tgz:4211.got - 2010.06.04 01:04:00.
