data_PCOD9337733
_publ_section_title
;
Structure prediction by ZEFSAII (Michael W. Deem and Ramdas Pophale) SiO2 
 PCOD9337733
Probable space group: P M M 2
;
_chemical_formula_sum "Si O2"
_cell_formula_units_Z 32
_cell_length_a 14.328626
_cell_length_b 8.738805
_cell_length_c 13.427912
_cell_angle_alpha 90.000000
_cell_angle_beta 90.000000
_cell_angle_gamma 90.000000
_cell_volume 1681.376921
_symmetry_space_group_name_H-M "P M M 2"
_symmetry_group_IT_number 25
_symmetry_cell_setting 'orthorhombic'
loop_
_space_group_symop_operation_xyz
x,y,z
-x,-y,z
-x,y,z
x,-y,z
loop_
_atom_site_type_symbol
_atom_site_label
_atom_site_fract_x
_atom_site_fract_y
_atom_site_fract_z
Si Si1 0.216156 0.183386 0.939030
Si Si2 0.112709 0.820518 0.356518
Si Si3 0.613294 0.173613 0.238584
Si Si4 0.209771 0.316228 0.548435
Si Si5 0.108759 0.314603 0.749582
Si Si6 0.108130 0.186272 0.137436
Si Si7 0.606865 0.684693 0.450023
Si Si8 0.391603 0.317538 0.027057
O O1 0.162137 0.250166 0.844976
O O2 0.213816 0.000000 0.935761
O O3 0.165076 0.235399 0.041090
O O4 0.321780 0.241465 0.949147
O O5 0.154601 0.733517 0.449909
O O6 0.143357 0.764234 0.246608
O O7 0.000000 0.809678 0.357468
O O8 0.136971 0.000000 0.365641
O O9 0.500000 0.168748 0.240255
O O10 0.638764 0.251017 0.342812
O O11 0.636909 0.262466 0.137943
O O12 0.649073 0.000000 0.232659
O O13 0.209283 0.500000 0.553043
O O14 0.159628 0.260738 0.648422
O O15 0.317047 0.266935 0.531474
O O16 0.111938 0.500000 0.752293
O O17 0.000000 0.268910 0.749598
O O18 0.000000 0.232953 0.126801
O O19 0.109164 0.000000 0.139861
O O20 0.500000 0.734294 0.469082
O O21 0.606526 0.500000 0.444075
O O22 0.500000 0.273304 0.012188
O O23 0.385148 0.500000 0.021724
#
# Coordination Sequence:
#
# PCOD9337733 Si02
#       8
#     4   4   4   4   4   4   4   4
#     4  11  22  36  59  87 113 145 191 242 289 341
#     4   9  18  33  53  78 109 142 176 221 283 351
#     4   9  17  30  50  77 110 149 190 231 275 325
#     4  10  21  36  56  81 109 146 193 240 284 331
#     4  10  22  41  61  81 111 149 190 240 294 349
#     4   8  16  32  52  77 110 143 174 218 281 345
#     4   9  18  33  52  77 111 149 189 232 281 338
#     4  10  21  37  56  80 115 156 194 232 278 337
#
# _framework density 19.032021
#
# number of rings (size 3 to 8) (size 9 to 14) (size 15 to 20)
#    0.000    2.500    0.000    2.625    1.750    4.750 
#    0.000    1.250    0.000    3.750    0.000    0.000 
#    0.000    0.000    0.000    0.000    0.000    0.000 
#
# Total GULP energy -178609.193419 kJ/mol
# GULP energy per Si atom -5581.537294 kJ/mol
# Density = 1.898870 g / cm^3
# Si number density = 19.032021 Si / 1000 Ang^3
#
#
#
# Elastic Constant Matrix: (Units=GPa)
#
#
# Indices 1 2 3 4 5 6 
#
# 1 126.0575 30.4728 92.0411 0.0000 0.0000 0.0000
# 2 30.4728 14.7469 26.5658 0.0000 0.0000 0.0000
# 3 92.0411 26.5658 155.0137 0.0000 0.0000 0.0000
# 4 0.0000 0.0000 0.0000 20.9399 0.0000 0.0000
# 5 0.0000 0.0000 0.0000 0.0000 37.0859 0.0000
# 6 0.0000 0.0000 0.0000 0.0000 0.0000 19.0815
#
#
#
# Elastic Compliance Matrix: (Units=1/GPa)
#
#
# Indices 1 2 3 4 5 6 
#
# 1 0.019915 -0.028716 -0.006904 0.000000 0.000000 0.000000
# 2 -0.028716 0.139502 -0.006857 0.000000 0.000000 0.000000
# 3 -0.006904 -0.006857 0.011725 0.000000 0.000000 0.000000
# 4 0.000000 0.000000 0.000000 0.047756 0.000000 0.000000
# 5 0.000000 0.000000 0.000000 0.000000 0.026964 0.000000
# 6 0.000000 0.000000 0.000000 0.000000 0.000000 0.052407
#
#
# Mechanical properties :
#
#
# Convention : Reuss Voigt Hill
#
# Bulk Modulus (GPa) = 11.60240 65.99749 38.79994
# Shear Modulus (GPa) = 12.13730 25.20400 18.67065
#
# Velocity S-wave (km/s) = 2.52807 3.64303 3.13551
# Velocity P-wave (km/s) = 3.82505 7.24210 5.79133
#
# Compressibility (1/GPa) = 0.08618910
#
# Stress axis : x y z
#
# Youngs Moduli (GPa) = 50.21230 7.16835 85.28581
#
# Poissons Ratio (x) = 0.20585 0.58879
# Poissons Ratio (y) = 1.44191 0.58479
# Poissons Ratio (z) = 0.34665 0.04915
#
# Static dielectric constant tensor:
#      x y z
#    x 1.706560 0.000000 0.000000 
#    y 0.000000 1.642720 0.000000 
#    z 0.000000 0.000000 1.633160 
# 
# From -- ./inp_files/4268.got.cif
#   From: 2010.05.17/outbox.cif.g08.bks.cpg/sg25_3_cif.got.tgz:4268.got - 2010.06.04 01:04:00.
