data_PCOD9337525
_publ_section_title
;
Structure prediction by ZEFSAII (Michael W. Deem and Ramdas Pophale) SiO2 
 PCOD9337525
Probable space group: P M M 2
;
_chemical_formula_sum "Si O2"
_cell_formula_units_Z 20
_cell_length_a 7.576337
_cell_length_b 9.547213
_cell_length_c 13.150173
_cell_angle_alpha 90.000000
_cell_angle_beta 90.000000
_cell_angle_gamma 90.000000
_cell_volume 951.190189
_symmetry_space_group_name_H-M "P M M 2"
_symmetry_group_IT_number 25
_symmetry_cell_setting 'orthorhombic'
loop_
_space_group_symop_operation_xyz
x,y,z
-x,-y,z
-x,y,z
x,-y,z
loop_
_atom_site_type_symbol
_atom_site_label
_atom_site_fract_x
_atom_site_fract_y
_atom_site_fract_z
Si Si1 0.709822 0.157879 0.372630
Si Si2 0.212459 0.841131 0.758818
Si Si3 0.288404 0.658797 0.560069
Si Si4 0.784627 0.339115 0.948581
Si Si5 0.212725 0.340852 0.178381
O O1 0.500000 0.147388 0.389630
O O2 0.781674 0.255778 0.462813
O O3 0.734484 0.233039 0.264835
O O4 0.782134 0.000000 0.374393
O O5 0.253876 0.746085 0.661804
O O6 0.277294 0.765572 0.861413
O O7 0.000000 0.847898 0.766142
O O8 0.278540 0.000000 0.747419
O O9 0.500000 0.648986 0.548916
O O10 0.219328 0.500000 0.565769
O O11 0.732811 0.500000 0.926657
O O12 0.000000 0.336779 0.948129
O O13 0.728335 0.304657 0.063748
O O14 0.273254 0.500000 0.201772
O O15 0.000000 0.344115 0.176390
#
# Coordination Sequence:
#
# PCOD9337525 Si02
#       5
#     4   4   4   4   4
#     4  10  21  36  53  74 102 135 169 207 254 304
#     4  10  20  33  52  79 107 134 166 205 251 302
#     4  10  21  37  56  75  97 131 173 212 253 301
#     4   8  15  30  51  74 102 135 169 206 248 293
#     4   9  18  33  54  79 104 132 169 210 250 295
#
# _framework density 21.026288000000001
#
# number of rings (size 3 to 8) (size 9 to 14) (size 15 to 20)
#    0.000    2.600    0.000    3.000    0.000    5.600 
#    0.000    3.000    0.000    1.200    0.000    0.000 
#    0.000    0.000    0.000    0.000    0.000    0.000 
#
# Total GULP energy -111687.719093 kJ/mol
# GULP energy per Si atom -5584.385955 kJ/mol
# Density = 2.097843 g / cm^3
# Si number density = 21.026288 Si / 1000 Ang^3
#
#
#
# Elastic Constant Matrix: (Units=GPa)
#
#
# Indices 1 2 3 4 5 6 
#
# 1 47.0554 8.6189 -0.9548 0.0000 0.0000 0.0000
# 2 8.6189 226.7208 149.6665 0.0000 0.0000 0.0000
# 3 -0.9548 149.6665 176.7212 0.0000 0.0000 0.0000
# 4 0.0000 0.0000 0.0000 203.6983 0.0000 0.0000
# 5 0.0000 0.0000 0.0000 0.0000 29.8302 0.0000
# 6 0.0000 0.0000 0.0000 0.0000 0.0000 16.9912
#
#
#
# Elastic Compliance Matrix: (Units=1/GPa)
#
#
# Indices 1 2 3 4 5 6 
#
# 1 0.021663 -0.002043 0.001847 0.000000 0.000000 0.000000
# 2 -0.002043 0.010196 -0.008646 0.000000 0.000000 0.000000
# 3 0.001847 -0.008646 0.012991 0.000000 0.000000 0.000000
# 4 0.000000 0.000000 0.000000 0.004909 0.000000 0.000000
# 5 0.000000 0.000000 0.000000 0.000000 0.033523 0.000000
# 6 0.000000 0.000000 0.000000 0.000000 0.000000 0.058854
#
#
# Mechanical properties :
#
#
# Convention : Reuss Voigt Hill
#
# Bulk Modulus (GPa) = 36.80985 85.01762 60.91374
# Shear Modulus (GPa) = 29.60759 69.64841 49.62800
#
# Velocity S-wave (km/s) = 3.75657 5.76163 4.86355
# Velocity P-wave (km/s) = 6.02995 9.20780 7.78280
#
# Compressibility (1/GPa) = 0.02716664
#
# Stress axis : x y z
#
# Youngs Moduli (GPa) = 46.16116 98.07817 76.97623
#
# Poissons Ratio (x) = 0.20037 -0.14220
# Poissons Ratio (y) = 0.09431 0.66554
# Poissons Ratio (z) = -0.08527 0.84799
#
# Static dielectric constant tensor:
#      x y z
#    x 1.807950 0.000000 0.000000 
#    y 0.000000 1.731570 0.000000 
#    z 0.000000 0.000000 1.716170 
# 
# From -- ./inp_files/3767.got.cif
#   From: 2010.05.17/outbox.cif.g08.bks.cpg/sg25_2_cif.got.tgz:3767.got - 2010.06.04 01:04:00.
