data_PCOD9337211
_publ_section_title
;
Structure prediction by ZEFSAII (Michael W. Deem and Ramdas Pophale) SiO2 
 PCOD9337211
Probable space group: P M M 2
;
_chemical_formula_sum "Si O2"
_cell_formula_units_Z 24
_cell_length_a 17.099838
_cell_length_b 7.409369
_cell_length_c 7.759047
_cell_angle_alpha 90.000000
_cell_angle_beta 90.000000
_cell_angle_gamma 90.000000
_cell_volume 983.063570
_symmetry_space_group_name_H-M "P M M 2"
_symmetry_group_IT_number 25
_symmetry_cell_setting 'orthorhombic'
loop_
_space_group_symop_operation_xyz
x,y,z
-x,-y,z
-x,y,z
x,-y,z
loop_
_atom_site_type_symbol
_atom_site_label
_atom_site_fract_x
_atom_site_fract_y
_atom_site_fract_z
Si Si1 0.916165 0.218658 0.856350
Si Si2 0.584289 0.283263 0.962464
Si Si3 0.251806 0.297734 0.394640
Si Si4 0.916528 0.708572 0.454780
Si Si5 0.416032 0.720407 0.368467
Si Si6 0.751176 0.787977 0.007970
O O1 0.918954 0.285910 0.661069
O O2 0.000000 0.271572 0.939409
O O3 0.914450 0.000000 0.852750
O O4 0.833527 0.278112 0.933054
O O5 0.500000 0.221134 0.888834
O O6 0.582951 0.500000 0.954967
O O7 0.582859 0.228404 0.165562
O O8 0.670995 0.231153 0.899118
O O9 0.245961 0.500000 0.471045
O O10 0.167513 0.206853 0.414723
O O11 0.334731 0.215683 0.451329
O O12 0.261157 0.309427 0.188964
O O13 0.914427 0.500000 0.394370
O O14 0.000000 0.786957 0.393676
O O15 0.500000 0.775619 0.442686
O O16 0.413324 0.500000 0.374261
O O17 0.759864 0.000000 0.043820
#
# Coordination Sequence:
#
# PCOD9337211 Si02
#       6
#     4   4   4   4   4   4
#     4   9  19  35  50  64  88 124 161 193 230 279
#     4   8  14  26  44  65  91 123 154 184 224 274
#     4   9  17  29  45  67  94 119 145 185 234 276
#     4   9  18  32  49  68  88 114 153 196 234 275
#     4   7  10  19  37  59  82 110 141 169 203 253
#     4  10  19  29  45  71  97 121 154 194 231 269
#
# _framework density 24.413477
#
# number of rings (size 3 to 8) (size 9 to 14) (size 15 to 20)
#    0.000    3.333    0.000    2.500    0.000    3.000 
#    0.000    0.000    0.000    1.000    0.000    2.333 
#    0.000    0.000    0.000    0.000    0.000    0.000 
#
# Total GULP energy -133621.921409 kJ/mol
# GULP energy per Si atom -5567.580059 kJ/mol
# Density = 2.435791 g / cm^3
# Si number density = 24.413477 Si / 1000 Ang^3
#
#
#
# Elastic Constant Matrix: (Units=GPa)
#
#
# Indices 1 2 3 4 5 6 
#
# 1 349.1628 12.0310 22.1098 0.0000 0.0000 0.0000
# 2 12.0310 90.8458 -7.0589 0.0000 0.0000 0.0000
# 3 22.1098 -7.0589 23.0811 0.0000 0.0000 0.0000
# 4 0.0000 0.0000 0.0000 5.8001 0.0000 0.0000
# 5 0.0000 0.0000 0.0000 0.0000 45.8474 0.0000
# 6 0.0000 0.0000 0.0000 0.0000 0.0000 12.6572
#
#
#
# Elastic Compliance Matrix: (Units=1/GPa)
#
#
# Indices 1 2 3 4 5 6 
#
# 1 0.003086 -0.000654 -0.003157 0.000000 0.000000 0.000000
# 2 -0.000654 0.011414 0.004117 0.000000 0.000000 0.000000
# 3 -0.003157 0.004117 0.047608 0.000000 0.000000 0.000000
# 4 0.000000 0.000000 0.000000 0.172412 0.000000 0.000000
# 5 0.000000 0.000000 0.000000 0.000000 0.021811 0.000000
# 6 0.000000 0.000000 0.000000 0.000000 0.000000 0.079006
#
#
# Mechanical properties :
#
#
# Convention : Reuss Voigt Hill
#
# Bulk Modulus (GPa) = 15.94326 57.47261 36.70793
# Shear Modulus (GPa) = 14.05945 41.92812 27.99379
#
# Velocity S-wave (km/s) = 2.40237 4.14867 3.38990
# Velocity P-wave (km/s) = 3.77358 6.82210 5.51276
#
# Compressibility (1/GPa) = 0.06272244
#
# Stress axis : x y z
#
# Youngs Moduli (GPa) = 324.00118 87.61013 21.00472
#
# Poissons Ratio (x) = 0.05730 0.06630
# Poissons Ratio (y) = 0.21190 -0.08648
# Poissons Ratio (z) = 1.02272 -0.36072
#
# Static dielectric constant tensor:
#      x y z
#    x 2.122620 0.000000 0.000000 
#    y 0.000000 1.927530 0.000000 
#    z 0.000000 0.000000 1.903380 
# 
# From -- ./inp_files/3342.got.cif
#   From: 2010.05.17/outbox.cif.g08.bks.cpg/sg25_2_cif.got.tgz:3342.got - 2010.06.04 01:04:00.
