data_PCOD9337409
_publ_section_title
;
Structure prediction by ZEFSAII (Michael W. Deem and Ramdas Pophale) SiO2 
 PCOD9337409
Probable space group: P M M 2
;
_chemical_formula_sum "Si O2"
_cell_formula_units_Z 32
_cell_length_a 9.333783
_cell_length_b 7.452512
_cell_length_c 22.067243
_cell_angle_alpha 90.000000
_cell_angle_beta 90.000000
_cell_angle_gamma 90.000000
_cell_volume 1535.000288
_symmetry_space_group_name_H-M "P M M 2"
_symmetry_group_IT_number 25
_symmetry_cell_setting 'orthorhombic'
loop_
_space_group_symop_operation_xyz
x,y,z
-x,-y,z
-x,y,z
x,-y,z
loop_
_atom_site_type_symbol
_atom_site_label
_atom_site_fract_x
_atom_site_fract_y
_atom_site_fract_z
Si Si1 0.166427 0.280164 0.079840
Si Si2 0.664774 0.780296 0.436195
Si Si3 0.164258 0.285489 0.817936
Si Si4 0.661742 0.284884 0.197054
Si Si5 0.832548 0.218644 0.555267
Si Si6 0.164809 0.785352 0.687264
Si Si7 0.838052 0.785398 0.318592
Si Si8 0.825410 0.710838 0.947449
O O1 0.168437 0.500000 0.078714
O O2 0.260467 0.218791 0.136253
O O3 0.000000 0.229064 0.088120
O O4 0.217054 0.216655 0.013272
O O5 0.500000 0.724411 0.433408
O O6 0.741175 0.720883 0.498058
O O7 0.751597 0.719157 0.377118
O O8 0.666130 0.000000 0.436201
O O9 0.155461 0.500000 0.824365
O O10 0.234195 0.254443 0.752383
O O11 0.225262 0.216840 0.882131
O O12 0.000000 0.215378 0.813704
O O13 0.500000 0.216158 0.203307
O O14 0.654206 0.500000 0.191260
O O15 0.753871 0.248212 0.256684
O O16 0.777460 0.275901 0.621986
O O17 0.000000 0.269918 0.549568
O O18 0.830054 0.000000 0.554223
O O19 0.000000 0.716979 0.689716
O O20 0.158402 0.000000 0.684009
O O21 0.000000 0.714965 0.315949
O O22 0.847030 0.000000 0.325503
O O23 0.787461 0.500000 0.948769
O O24 0.000000 0.721706 0.946101
#
# Coordination Sequence:
#
# PCOD9337409 Si02
#       8
#     4   4   4   4   4   4   4   4
#     4   8  13  23  40  60  82 110 144 180 216 254
#     4   9  16  26  42  64  87 110 140 179 217 252
#     4   8  12  18  30  50  75 100 128 166 209 248
#     4  10  20  32  47  69  95 121 149 182 221 265
#     4   8  13  22  36  54  77 105 137 172 209 250
#     4   8  13  20  31  49  74 103 131 160 200 249
#     4  10  20  33  50  71  93 118 148 182 221 265
#     4   7  10  17  31  52  75  99 131 171 211 248
#
# _framework density 20.846900999999999
#
# number of rings (size 3 to 8) (size 9 to 14) (size 15 to 20)
#    0.000    3.500    0.000    3.375    0.000    3.000 
#    0.000    0.000    0.000    1.500    0.000    6.125 
#    0.000    1.000    0.000    0.000    0.000    0.000 
#
# Total GULP energy -178239.835575 kJ/mol
# GULP energy per Si atom -5569.994862 kJ/mol
# Density = 2.079945 g / cm^3
# Si number density = 20.846901 Si / 1000 Ang^3
#
#
#
# Elastic Constant Matrix: (Units=GPa)
#
#
# Indices 1 2 3 4 5 6 
#
# 1 98.7260 4.3708 103.3271 0.0000 0.0000 0.0000
# 2 4.3708 61.5938 6.6800 0.0000 0.0000 0.0000
# 3 103.3271 6.6800 283.0349 0.0000 0.0000 0.0000
# 4 0.0000 0.0000 0.0000 17.6300 0.0000 0.0000
# 5 0.0000 0.0000 0.0000 0.0000 -20.2187 0.0000
# 6 0.0000 0.0000 0.0000 0.0000 0.0000 0.9396
#
#
#
# Elastic Compliance Matrix: (Units=1/GPa)
#
#
# Indices 1 2 3 4 5 6 
#
# 1 0.016409 -0.000516 -0.005978 0.000000 0.000000 0.000000
# 2 -0.000516 0.016293 -0.000196 0.000000 0.000000 0.000000
# 3 -0.005978 -0.000196 0.005720 0.000000 0.000000 0.000000
# 4 0.000000 0.000000 0.000000 0.056721 0.000000 0.000000
# 5 0.000000 0.000000 0.000000 0.000000 -0.049459 0.000000
# 6 0.000000 0.000000 0.000000 0.000000 0.000000 1.064294
#
#
# Mechanical properties :
#
#
# Convention : Reuss Voigt Hill
#
# Bulk Modulus (GPa) = 39.93370 74.67895 57.30632
# Shear Modulus (GPa) = 4.41811 21.60197 13.01004
#
# Velocity S-wave (km/s) = 1.45737 3.22253 2.50086
# Velocity P-wave (km/s) = 4.69352 7.05313 5.99065
#
# Compressibility (1/GPa) = 0.02504151
#
# Stress axis : x y z
#
# Youngs Moduli (GPa) = 60.94377 61.37493 174.82003
#
# Poissons Ratio (x) = 0.03167 1.04509
# Poissons Ratio (y) = 0.03145 0.03429
# Poissons Ratio (z) = 0.36433 0.01204
#
# Static dielectric constant tensor:
#      x y z
#    x 1.701030 0.000000 0.000000 
#    y 0.000000 1.830020 0.000000 
#    z 0.000000 0.000000 1.793610 
# 
# From -- ./inp_files/6528.got.cif
#   From: 2010.05.17/outbox.cif.g08.bks.cpg/sg25_4_cif.got.tgz:6528.got - 2010.06.04 01:04:00.
