data_PCOD9337055
_publ_section_title
;
Structure prediction by ZEFSAII (Michael W. Deem and Ramdas Pophale) SiO2 
 PCOD9337055
Probable space group: I 21 21 21
;
_chemical_formula_sum "Si O2"
_cell_formula_units_Z 30
_cell_length_a 18.000000
_cell_length_b 18.000000
_cell_length_c 9.000000
_cell_angle_alpha 90.000000
_cell_angle_beta 90.000000
_cell_angle_gamma 90.000000
_cell_volume 2916.000000
_symmetry_space_group_name_H-M "I 21 21 21"
_symmetry_group_IT_number 24
_symmetry_cell_setting 'orthorhombic'
loop_
_space_group_symop_operation_xyz
x,y,z
-x,1/2-y,z
x,-y,1/2-z
1/2-x,y,-z
1/2+x,1/2+y,1/2+z
1/2-x,-y,1/2+z
1/2+x,1/2-y,-z
-x,1/2+y,1/2-z
loop_
_atom_site_type_symbol
_atom_site_label
_atom_site_fract_x
_atom_site_fract_y
_atom_site_fract_z
Si Si1 0.690198 0.292782 0.656913
Si Si2 0.135247 0.500000 0.250000
Si Si3 0.238957 0.623514 0.163440
Si Si4 0.905312 0.159012 0.714335
Si Si5 0.518843 0.935423 0.964067
Si Si6 0.143068 0.173247 0.679195
Si Si7 0.034171 0.084211 0.893660
Si Si8 0.043561 0.829118 0.297712
O O1 0.703436 0.204704 0.634937
O O2 0.769056 0.323518 0.715647
O O3 0.655911 0.326569 0.502109
O O4 0.628191 0.306554 0.775477
O O5 0.186517 0.572290 0.260927
O O6 0.082149 0.485633 0.388917
O O7 0.320414 0.633596 0.229295
O O8 0.250000 0.588240 0.000000
O O9 0.941248 0.127545 0.562687
O O10 0.899738 0.248751 0.713331
O O11 0.957088 0.117308 0.830970
O O12 0.480527 0.888399 0.830889
O O13 0.472498 0.996003 0.062847
O O14 0.097804 0.111639 0.774443
O O15 0.041513 0.128145 0.047544
O O16 0.000000 0.750000 0.291213
#
# Coordination Sequence:
#
# PCOD9337055 Si02
#       8
#     8   4   8   8   8   8   8   8
#     4  10  21  41  72  95 128 177 234 279 337 405
#     4  12  22  38  64  98 140 182 218 262 330 406
#     4  11  21  39  66  97 136 177 229 266 327 417
#     4  11  22  41  66  95 134 182 224 275 330 405
#     4  12  25  45  65  96 141 184 228 270 338 413
#     4  10  20  43  68 101 128 173 232 286 333 407
#     4  12  26  41  65 102 142 172 228 289 341 390
#     4  12  24  41  68 100 136 185 228 281 337 404
#
# _framework density 10.288066000000001
#
# number of rings (size 3 to 8) (size 9 to 14) (size 15 to 20)
#    0.000    0.800    5.333    4.000    1.867    0.533 
#    0.000    0.000    0.000   12.800    0.000    0.000 
#    0.000    0.000    0.000    0.000    0.000    0.000 
#
# Total GULP energy -167387.548218 kJ/mol
# GULP energy per Si atom -5579.584941 kJ/mol
# Density = 1.026465 g / cm^3
# Si number density = 10.288066 Si / 1000 Ang^3
#
#
#
# Elastic Constant Matrix: (Units=GPa)
#
#
# Indices 1 2 3 4 5 6 
#
# 1 116.9659 53.3751 64.2165 0.0000 0.0000 0.0000
# 2 53.3751 106.3333 51.1249 0.0000 0.0000 0.0000
# 3 64.2165 51.1249 88.5264 0.0000 0.0000 0.0000
# 4 0.0000 0.0000 0.0000 26.3887 0.0000 0.0000
# 5 0.0000 0.0000 0.0000 0.0000 39.1871 0.0000
# 6 0.0000 0.0000 0.0000 0.0000 0.0000 28.0948
#
#
#
# Elastic Compliance Matrix: (Units=1/GPa)
#
#
# Indices 1 2 3 4 5 6 
#
# 1 0.014941 -0.003169 -0.009008 0.000000 0.000000 0.000000
# 2 -0.003169 0.013691 -0.005608 0.000000 0.000000 0.000000
# 3 -0.009008 -0.005608 0.021070 0.000000 0.000000 0.000000
# 4 0.000000 0.000000 0.000000 0.037895 0.000000 0.000000
# 5 0.000000 0.000000 0.000000 0.000000 0.025519 0.000000
# 6 0.000000 0.000000 0.000000 0.000000 0.000000 0.035594
#
#
# Mechanical properties :
#
#
# Convention : Reuss Voigt Hill
#
# Bulk Modulus (GPa) = 70.76443 72.13986 71.45214
# Shear Modulus (GPa) = 26.45630 28.27472 27.36551
#
# Velocity S-wave (km/s) = 3.58966 3.71098 3.65082
# Velocity P-wave (km/s) = 7.18659 7.31422 7.25069
#
# Compressibility (1/GPa) = 0.01413139
#
# Stress axis : x y z
#
# Youngs Moduli (GPa) = 66.92897 73.03823 47.46195
#
# Poissons Ratio (x) = 0.23144 0.42755
# Poissons Ratio (y) = 0.21208 0.26618
# Poissons Ratio (z) = 0.60292 0.40963
#
# Static dielectric constant tensor:
#      x y z
#    x 1.764560 0.000000 0.000000 
#    y 0.000000 1.744280 0.000000 
#    z 0.000000 0.000000 1.789230 
# 
# From -- ./inp_files/14463.got.cif
#   From: 2010.05.17/outbox.ucp.g08.bks.cvg/sg24_8_cif.got.tgz:14463.got - 2010.06.11 15:20:44.
