data_PCOD9337575
_publ_section_title
;
Structure prediction by ZEFSAII (Michael W. Deem and Ramdas Pophale) SiO2 
 PCOD9337575
Probable space group: P M M 2
;
_chemical_formula_sum "Si O2"
_cell_formula_units_Z 28
_cell_length_a 8.054435
_cell_length_b 9.370604
_cell_length_c 18.535524
_cell_angle_alpha 90.000000
_cell_angle_beta 90.000000
_cell_angle_gamma 90.000000
_cell_volume 1398.967206
_symmetry_space_group_name_H-M "P M M 2"
_symmetry_group_IT_number 25
_symmetry_cell_setting 'orthorhombic'
loop_
_space_group_symop_operation_xyz
x,y,z
-x,-y,z
-x,y,z
x,-y,z
loop_
_atom_site_type_symbol
_atom_site_label
_atom_site_fract_x
_atom_site_fract_y
_atom_site_fract_z
Si Si1 0.700644 0.162707 0.784000
Si Si2 0.801091 0.338091 0.361039
Si Si3 0.796622 0.164591 0.500995
Si Si4 0.799627 0.336690 0.642588
Si Si5 0.303012 0.161860 0.222118
Si Si6 0.700540 0.664209 0.923295
Si Si7 0.198039 0.336042 0.083620
O O1 0.500000 0.159403 0.786657
O O2 0.750385 0.255705 0.715224
O O3 0.759312 0.237330 0.857836
O O4 0.760703 0.000000 0.777564
O O5 0.735393 0.500000 0.360605
O O6 0.739716 0.246569 0.429173
O O7 0.766535 0.257743 0.286622
O O8 0.000000 0.347031 0.368996
O O9 0.742573 0.249084 0.572406
O O10 0.000000 0.164148 0.500726
O O11 0.743084 0.000000 0.501792
O O12 0.738993 0.500000 0.642070
O O13 0.000000 0.340905 0.639467
O O14 0.500000 0.155825 0.231657
O O15 0.266583 0.235155 0.145683
O O16 0.236292 0.000000 0.224917
O O17 0.500000 0.664001 0.922483
O O18 0.756730 0.500000 0.912809
O O19 0.756141 0.710888 0.002758
O O20 0.259802 0.500000 0.092390
O O21 0.000000 0.338637 0.090268
#
# Coordination Sequence:
#
# PCOD9337575 Si02
#       7
#     4   4   4   4   4   4   4
#     4  10  21  36  54  78 109 144 181 222 269 320
#     4  10  20  35  57  83 109 139 178 222 267 318
#     4   9  17  31  53  80 110 143 177 217 268 321
#     4  10  20  34  54  80 109 142 182 226 269 316
#     4  11  24  39  55  78 109 144 181 221 266 316
#     4   9  18  34  55  77 105 143 182 219 263 317
#     4  10  21  37  58  84 111 139 175 219 266 318
#
# _framework density 20.014766000000002
#
# number of rings (size 3 to 8) (size 9 to 14) (size 15 to 20)
#    0.000    2.143    0.000    3.000    0.000    9.143 
#    0.000    3.571    0.000    4.286    0.000    0.000 
#    0.000    0.000    0.000    0.000    0.000    0.000 
#
# Total GULP energy -156420.236307 kJ/mol
# GULP energy per Si atom -5586.437011 kJ/mol
# Density = 1.996921 g / cm^3
# Si number density = 20.014766 Si / 1000 Ang^3
#
#
#
# Elastic Constant Matrix: (Units=GPa)
#
#
# Indices 1 2 3 4 5 6 
#
# 1 11.1193 9.6849 -0.2212 0.0000 0.0000 0.0000
# 2 9.6849 197.4008 124.8964 0.0000 0.0000 0.0000
# 3 -0.2212 124.8964 171.9411 0.0000 0.0000 0.0000
# 4 0.0000 0.0000 0.0000 76.7267 0.0000 0.0000
# 5 0.0000 0.0000 0.0000 0.0000 40.8311 0.0000
# 6 0.0000 0.0000 0.0000 0.0000 0.0000 -18.0420
#
#
#
# Elastic Compliance Matrix: (Units=1/GPa)
#
#
# Indices 1 2 3 4 5 6 
#
# 1 0.097940 -0.009039 0.006692 0.000000 0.000000 0.000000
# 2 -0.009039 0.010208 -0.007427 0.000000 0.000000 0.000000
# 3 0.006692 -0.007427 0.011219 0.000000 0.000000 0.000000
# 4 0.000000 0.000000 0.000000 0.013033 0.000000 0.000000
# 5 0.000000 0.000000 0.000000 0.000000 0.024491 0.000000
# 6 0.000000 0.000000 0.000000 0.000000 0.000000 -0.055426
#
#
# Mechanical properties :
#
#
# Convention : Reuss Voigt Hill
#
# Bulk Modulus (GPa) = 10.01803 72.13126 41.07465
# Shear Modulus (GPa) = 32.40694 36.30989 34.35842
#
# Velocity S-wave (km/s) = 4.02823 4.26391 4.14775
# Velocity P-wave (km/s) = 5.16253 7.76907 6.59584
#
# Compressibility (1/GPa) = 0.09981998
#
# Stress axis : x y z
#
# Youngs Moduli (GPa) = 10.21029 97.95911 89.13158
#
# Poissons Ratio (x) = 0.88548 -0.59647
# Poissons Ratio (y) = 0.09229 0.66197
# Poissons Ratio (z) = -0.06833 0.72753
#
# Static dielectric constant tensor:
#      x y z
#    x 1.719770 0.000000 0.000000 
#    y 0.000000 1.701340 0.000000 
#    z 0.000000 0.000000 1.659590 
# 
# From -- ./inp_files/6091.got.cif
#   From: 2010.05.17/outbox.cif.g08.bks.cpg/sg25_4_cif.got.tgz:6091.got - 2010.06.04 01:04:00.
