data_PCOD9337455
_publ_section_title
;
Structure prediction by ZEFSAII (Michael W. Deem and Ramdas Pophale) SiO2 
 PCOD9337455
Probable space group: P M M 2
;
_chemical_formula_sum "Si O2"
_cell_formula_units_Z 32
_cell_length_a 14.927596
_cell_length_b 8.941628
_cell_length_c 12.743208
_cell_angle_alpha 90.000000
_cell_angle_beta 90.000000
_cell_angle_gamma 90.000000
_cell_volume 1700.925306
_symmetry_space_group_name_H-M "P M M 2"
_symmetry_group_IT_number 25
_symmetry_cell_setting 'orthorhombic'
loop_
_space_group_symop_operation_xyz
x,y,z
-x,-y,z
-x,y,z
x,-y,z
loop_
_atom_site_type_symbol
_atom_site_label
_atom_site_fract_x
_atom_site_fract_y
_atom_site_fract_z
Si Si1 0.605385 0.319600 0.188420
Si Si2 0.900779 0.178715 0.462337
Si Si3 0.274819 0.179862 0.004928
Si Si4 0.345469 0.329652 0.622972
Si Si5 0.102053 0.679475 0.921296
Si Si6 0.137016 0.672062 0.681790
Si Si7 0.284893 0.319556 0.398789
Si Si8 0.404582 0.178765 0.825024
O O1 0.500000 0.275811 0.188135
O O2 0.608418 0.500000 0.175694
O O3 0.663962 0.242851 0.097958
O O4 0.656015 0.283608 0.297539
O O5 0.897323 0.232241 0.583817
O O6 0.814920 0.250978 0.404737
O O7 0.000000 0.220631 0.420898
O O8 0.892263 0.000000 0.458284
O O9 0.272967 0.000000 0.009737
O O10 0.175014 0.243560 0.995170
O O11 0.324081 0.231433 0.897720
O O12 0.379307 0.500000 0.621435
O O13 0.243765 0.331208 0.666049
O O14 0.337248 0.272101 0.504527
O O15 0.397898 0.233784 0.706764
O O16 0.115800 0.500000 0.923276
O O17 0.114019 0.726239 0.798717
O O18 0.000000 0.711460 0.952375
O O19 0.105113 0.500000 0.671892
O O20 0.275021 0.500000 0.405688
O O21 0.500000 0.228136 0.871188
O O22 0.401728 0.000000 0.825862
#
# Coordination Sequence:
#
# PCOD9337455 Si02
#       8
#     4   4   4   4   4   4   4   4
#     4  10  22  42  67  89 109 141 191 247 296 345
#     4  10  20  32  50  81 119 156 193 231 274 331
#     4  11  23  39  59  83 117 153 189 238 289 344
#     4   9  17  31  53  81 112 144 180 225 276 330
#     4  10  20  35  57  84 115 152 195 240 285 338
#     4   9  17  31  52  78 112 153 193 233 276 327
#     4   9  20  38  59  84 112 144 186 237 290 340
#     4  10  21  35  51  76 112 151 185 221 274 337
#
# _framework density 18.813289999999999
#
# number of rings (size 3 to 8) (size 9 to 14) (size 15 to 20)
#    0.000    2.250    1.250    2.250    0.000    6.750 
#    0.000    1.875    0.000    0.750    0.000    0.000 
#    0.000    0.000    0.000    0.000    0.000    0.000 
#
# Total GULP energy -178465.692923 kJ/mol
# GULP energy per Si atom -5577.052904 kJ/mol
# Density = 1.877047 g / cm^3
# Si number density = 18.813290 Si / 1000 Ang^3
#
#
#
# Elastic Constant Matrix: (Units=GPa)
#
#
# Indices 1 2 3 4 5 6 
#
# 1 144.2573 43.6935 71.9873 0.0000 0.0000 0.0000
# 2 43.6935 26.6702 33.7389 0.0000 0.0000 0.0000
# 3 71.9873 33.7389 109.1747 0.0000 0.0000 0.0000
# 4 0.0000 0.0000 0.0000 15.7427 0.0000 0.0000
# 5 0.0000 0.0000 0.0000 0.0000 17.6690 0.0000
# 6 0.0000 0.0000 0.0000 0.0000 0.0000 47.6956
#
#
#
# Elastic Compliance Matrix: (Units=1/GPa)
#
#
# Indices 1 2 3 4 5 6 
#
# 1 0.014604 -0.019282 -0.003671 0.000000 0.000000 0.000000
# 2 -0.019282 0.087021 -0.014178 0.000000 0.000000 0.000000
# 3 -0.003671 -0.014178 0.015962 0.000000 0.000000 0.000000
# 4 0.000000 0.000000 0.000000 0.063521 0.000000 0.000000
# 5 0.000000 0.000000 0.000000 0.000000 0.056596 0.000000
# 6 0.000000 0.000000 0.000000 0.000000 0.000000 0.020966
#
#
# Mechanical properties :
#
#
# Convention : Reuss Voigt Hill
#
# Bulk Modulus (GPa) = 23.08175 64.32683 43.70429
# Shear Modulus (GPa) = 14.39367 24.93364 19.66366
#
# Velocity S-wave (km/s) = 2.76901 3.64444 3.23646
# Velocity P-wave (km/s) = 4.74539 7.20942 6.10305
#
# Compressibility (1/GPa) = 0.04332428
#
# Stress axis : x y z
#
# Youngs Moduli (GPa) = 68.47380 11.49147 62.65007
#
# Poissons Ratio (x) = 0.22158 0.22997
# Poissons Ratio (y) = 1.32032 0.88828
# Poissons Ratio (z) = 0.25135 0.16293
#
# Static dielectric constant tensor:
#      x y z
#    x 1.679800 0.000000 0.000000 
#    y 0.000000 1.636580 0.000000 
#    z 0.000000 0.000000 1.640980 
# 
# From -- ./inp_files/4244.got.cif
#   From: 2010.05.17/outbox.cif.g08.bks.cpg/sg25_3_cif.got.tgz:4244.got - 2010.06.04 01:04:00.
