data_PCOD9337872
_publ_section_title
;
Structure prediction by ZEFSAII (Michael W. Deem and Ramdas Pophale) SiO2 
 PCOD9337872
Probable space group: P M M 2
;
_chemical_formula_sum "Si O2"
_cell_formula_units_Z 28
_cell_length_a 9.000000
_cell_length_b 9.000000
_cell_length_c 18.000000
_cell_angle_alpha 90.000000
_cell_angle_beta 90.000000
_cell_angle_gamma 90.000000
_cell_volume 1458.000000
_symmetry_space_group_name_H-M "P M M 2"
_symmetry_group_IT_number 25
_symmetry_cell_setting 'orthorhombic'
loop_
_space_group_symop_operation_xyz
x,y,z
-x,-y,z
-x,y,z
x,-y,z
loop_
_atom_site_type_symbol
_atom_site_label
_atom_site_fract_x
_atom_site_fract_y
_atom_site_fract_z
Si Si1 0.678288 0.169217 0.784000
Si Si2 0.672139 0.324351 0.371248
Si Si3 0.821082 0.167282 0.505699
Si Si4 0.821713 0.331604 0.651522
Si Si5 0.328030 0.175607 0.222010
Si Si6 0.678014 0.828686 0.955501
Si Si7 0.176605 0.332536 0.088187
O O1 0.500000 0.176400 0.778327
O O2 0.752116 0.282758 0.728551
O O3 0.717081 0.196451 0.869692
O O4 0.724017 0.000000 0.765193
O O5 0.500000 0.276645 0.379749
O O6 0.675879 0.500000 0.363000
O O7 0.761448 0.273668 0.442490
O O8 0.732148 0.250207 0.296522
O O9 0.770732 0.223054 0.586144
O O10 0.000000 0.169884 0.505486
O O11 0.770481 0.000000 0.491117
O O12 0.781722 0.500000 0.632002
O O13 0.000000 0.322565 0.656770
O O14 0.500000 0.223646 0.212450
O O15 0.238363 0.224474 0.150663
O O16 0.325705 0.000000 0.230844
O O17 0.500000 0.814865 0.962935
O O18 0.715998 0.000000 0.974224
O O19 0.758259 0.717702 0.009923
O O20 0.224291 0.500000 0.106398
O O21 0.000000 0.326796 0.085958
#
# Coordination Sequence:
#
# PCOD9337872 Si02
#       7
#     4   4   4   4   4   4   4
#     4   9  19  36  57  81 108 139 178 223 269 319
#     4  10  21  37  58  84 112 142 177 218 267 321
#     4  10  21  37  57  80 107 143 185 224 266 318
#     4  10  21  36  54  78 109 144 181 222 269 320
#     4  10  21  38  60  83 107 139 180 223 267 317
#     4   9  19  37  59  81 106 139 180 223 268 320
#     4  11  24  38  53  79 113 145 179 220 266 317
#
# _framework density 19.20439
#
# number of rings (size 3 to 8) (size 9 to 14) (size 15 to 20)
#    0.000    2.143    0.000    3.429    0.000    9.143 
#    0.000    4.286    0.000    0.000    0.000    0.000 
#    0.000    0.000    0.000    0.000    0.000    0.000 
#
# Total GULP energy -156290.376239 kJ/mol
# GULP energy per Si atom -5581.799151 kJ/mol
# Density = 1.916068 g / cm^3
# Si number density = 19.204390 Si / 1000 Ang^3
#
#
#
# Elastic Constant Matrix: (Units=GPa)
#
#
# Indices 1 2 3 4 5 6 
#
# 1 2.6118 20.1829 19.4874 0.0000 0.0000 0.0000
# 2 20.1829 35.9354 31.2640 0.0000 0.0000 0.0000
# 3 19.4874 31.2640 50.5255 0.0000 0.0000 0.0000
# 4 0.0000 0.0000 0.0000 37.6683 0.0000 0.0000
# 5 0.0000 0.0000 0.0000 0.0000 28.6474 0.0000
# 6 0.0000 0.0000 0.0000 0.0000 0.0000 27.6028
#
#
#
# Elastic Compliance Matrix: (Units=1/GPa)
#
#
# Indices 1 2 3 4 5 6 
#
# 1 -0.112573 0.055130 0.009306 0.000000 0.000000 0.000000
# 2 0.055130 0.033279 -0.041856 0.000000 0.000000 0.000000
# 3 0.009306 -0.041856 0.042102 0.000000 0.000000 0.000000
# 4 0.000000 0.000000 0.000000 0.026548 0.000000 0.000000
# 5 0.000000 0.000000 0.000000 0.000000 0.034907 0.000000
# 6 0.000000 0.000000 0.000000 0.000000 0.000000 0.036228
#
#
# Mechanical properties :
#
#
# Convention : Reuss Voigt Hill
#
# Bulk Modulus (GPa) = 125.50071 25.66015 75.58043
# Shear Modulus (GPa) = 277.97148 19.99291 148.98220
#
# Velocity S-wave (km/s) = 12.04400 3.23005 8.81734
# Velocity P-wave (km/s) = 16.09045 5.22509 11.96253
#
# Compressibility (1/GPa) = 0.00796808
#
# Stress axis : x y z
#
# Youngs Moduli (GPa) = -8.88312 30.04879 23.75180
#
# Poissons Ratio (x) = -1.65658 -0.22103
# Poissons Ratio (y) = 0.48972 0.99415
# Poissons Ratio (z) = 0.08266 1.25771
#
# Static dielectric constant tensor:
#      x y z
#    x 1.647370 0.000000 0.000000 
#    y 0.000000 1.666830 0.000000 
#    z 0.000000 0.000000 1.647770 
# 
# From -- ./inp_files/6033.got.cif
#   From: 2010.05.17/outbox.ucp.g08.bks.cvg/sg25_4_cif.got.tgz:6033.got - 2010.06.11 15:23:09.
