data_PCOD9337366
_publ_section_title
;
Structure prediction by ZEFSAII (Michael W. Deem and Ramdas Pophale) SiO2 
 PCOD9337366
Probable space group: P M M 2
;
_chemical_formula_sum "Si O2"
_cell_formula_units_Z 28
_cell_length_a 17.727370
_cell_length_b 13.003881
_cell_length_c 7.303060
_cell_angle_alpha 90.000000
_cell_angle_beta 90.000000
_cell_angle_gamma 90.000000
_cell_volume 1683.535058
_symmetry_space_group_name_H-M "P M M 2"
_symmetry_group_IT_number 25
_symmetry_cell_setting 'orthorhombic'
loop_
_space_group_symop_operation_xyz
x,y,z
-x,-y,z
-x,y,z
x,-y,z
loop_
_atom_site_type_symbol
_atom_site_label
_atom_site_fract_x
_atom_site_fract_y
_atom_site_fract_z
Si Si1 0.136621 0.616806 0.336870
Si Si2 0.082572 0.220694 0.052168
Si Si3 0.757684 0.879786 0.052141
Si Si4 0.298629 0.283321 0.768304
Si Si5 0.298625 0.283352 0.335959
Si Si6 0.412052 0.623083 0.052124
Si Si7 0.863364 0.616807 0.767468
O O1 0.121003 0.500000 0.277855
O O2 0.092873 0.702488 0.223767
O O3 0.225493 0.642689 0.311666
O O4 0.120182 0.624701 0.552172
O O5 0.152668 0.143147 0.052163
O O6 0.000000 0.172904 0.052152
O O7 0.092883 0.297523 0.880588
O O8 0.723631 0.820897 0.228771
O O9 0.742097 0.000000 0.052169
O O10 0.723644 0.820933 0.875456
O O11 0.310941 0.269325 0.552128
O O12 0.225507 0.357295 0.792637
O O13 0.368611 0.332458 0.875348
O O14 0.368600 0.332518 0.228927
O O15 0.500000 0.651460 0.052162
O O16 0.406102 0.500000 0.052062
O O17 0.878968 0.500000 0.826490
#
# Coordination Sequence:
#
# PCOD9337366 Si02
#       7
#     4   4   4   4   4   4   4
#     4   9  17  29  46  67  91 124 165 201 232 275
#     4  10  20  31  44  66  97 127 153 190 245 301
#     4   9  19  35  54  74  92 116 161 216 258 295
#     4   9  18  33  52  72  97 130 167 207 245 282
#     4   9  18  33  52  72  97 130 167 207 245 282
#     4  10  20  31  47  78 115 142 162 186 222 277
#     4   9  17  29  46  67  91 124 165 201 232 275
#
# _framework density 16.63167
#
# number of rings (size 3 to 8) (size 9 to 14) (size 15 to 20)
#    0.000    2.714    0.000    2.143    0.000    4.857 
#    0.000    2.857    0.000    6.857    0.000   16.000 
#    0.000    0.000    0.000    0.000    0.000    0.000 
#
# Total GULP energy -156144.343753 kJ/mol
# GULP energy per Si atom -5576.583705 kJ/mol
# Density = 1.659382 g / cm^3
# Si number density = 16.631670 Si / 1000 Ang^3
#
#
#
# Elastic Constant Matrix: (Units=GPa)
#
#
# Indices 1 2 3 4 5 6 
#
# 1 101.2980 16.6486 42.0358 0.0000 0.0000 0.0000
# 2 16.6486 69.6740 20.8519 0.0000 0.0000 0.0000
# 3 42.0358 20.8519 106.1947 0.0000 0.0000 0.0000
# 4 0.0000 0.0000 0.0000 10.9850 0.0000 0.0000
# 5 0.0000 0.0000 0.0000 0.0000 5.2522 0.0000
# 6 0.0000 0.0000 0.0000 0.0000 0.0000 3.9691
#
#
#
# Elastic Compliance Matrix: (Units=1/GPa)
#
#
# Indices 1 2 3 4 5 6 
#
# 1 0.011964 -0.001531 -0.004435 0.000000 0.000000 0.000000
# 2 -0.001531 0.015445 -0.002426 0.000000 0.000000 0.000000
# 3 -0.004435 -0.002426 0.011649 0.000000 0.000000 0.000000
# 4 0.000000 0.000000 0.000000 0.091034 0.000000 0.000000
# 5 0.000000 0.000000 0.000000 0.000000 0.190396 0.000000
# 6 0.000000 0.000000 0.000000 0.000000 0.000000 0.251948
#
#
# Mechanical properties :
#
#
# Convention : Reuss Voigt Hill
#
# Bulk Modulus (GPa) = 44.90067 48.47103 46.68585
# Shear Modulus (GPa) = 8.38021 17.21661 12.79841
#
# Velocity S-wave (km/s) = 2.24714 3.22090 2.77703
# Velocity P-wave (km/s) = 5.81279 6.56044 6.19790
#
# Compressibility (1/GPa) = 0.02227138
#
# Stress axis : x y z
#
# Youngs Moduli (GPa) = 83.58414 64.74722 85.84660
#
# Poissons Ratio (x) = 0.09916 0.38074
# Poissons Ratio (y) = 0.12801 0.20830
# Poissons Ratio (z) = 0.37070 0.15711
#
# Static dielectric constant tensor:
#      x y z
#    x 1.563320 0.000000 0.000000 
#    y 0.000000 1.521630 0.000000 
#    z 0.000000 0.000000 1.568370 
# 
# From -- ./inp_files/3500.got.cif
#   From: 2010.05.17/outbox.cif.g08.bks.cpg/sg25_2_cif.got.tgz:3500.got - 2010.06.04 01:04:00.
