data_PCOD9337383
_publ_section_title
;
Structure prediction by ZEFSAII (Michael W. Deem and Ramdas Pophale) SiO2 
 PCOD9337383
Probable space group: P M M 2
;
_chemical_formula_sum "Si O2"
_cell_formula_units_Z 32
_cell_length_a 7.462058
_cell_length_b 9.336433
_cell_length_c 22.035791
_cell_angle_alpha 90.000000
_cell_angle_beta 90.000000
_cell_angle_gamma 90.000000
_cell_volume 1535.211624
_symmetry_space_group_name_H-M "P M M 2"
_symmetry_group_IT_number 25
_symmetry_cell_setting 'orthorhombic'
loop_
_space_group_symop_operation_xyz
x,y,z
-x,-y,z
-x,y,z
x,-y,z
loop_
_atom_site_type_symbol
_atom_site_label
_atom_site_fract_x
_atom_site_fract_y
_atom_site_fract_z
Si Si1 0.719442 0.164357 0.393000
Si Si2 0.284766 0.165270 0.025220
Si Si3 0.788971 0.836972 0.158203
Si Si4 0.718897 0.664485 0.512849
Si Si5 0.285264 0.827468 0.764413
Si Si6 0.716104 0.172174 0.895006
Si Si7 0.289393 0.660334 0.277141
Si Si8 0.280907 0.833214 0.632090
O O1 0.500000 0.162880 0.392779
O O2 0.774857 0.248085 0.453454
O O3 0.782998 0.244863 0.332447
O O4 0.777483 0.000000 0.393809
O O5 0.500000 0.160970 0.021424
O O6 0.241824 0.227458 0.091040
O O7 0.219397 0.000000 0.028018
O O8 0.220453 0.228129 0.960691
O O9 0.723629 0.740801 0.213209
O O10 0.000000 0.848704 0.166063
O O11 0.712890 0.000000 0.160277
O O12 0.500000 0.665536 0.513238
O O13 0.775872 0.500000 0.509844
O O14 0.777416 0.740851 0.574849
O O15 0.500000 0.803607 0.764914
O O16 0.215335 0.773882 0.829700
O O17 0.219751 0.778339 0.698461
O O18 0.259471 0.000000 0.764267
O O19 0.500000 0.190317 0.893573
O O20 0.747633 0.000000 0.896356
O O21 0.500000 0.646615 0.290231
O O22 0.213330 0.500000 0.274534
O O23 0.500000 0.831642 0.632985
O O24 0.229086 0.000000 0.625090
#
# Coordination Sequence:
#
# PCOD9337383 Si02
#       8
#     4   4   4   4   4   4   4   4
#     4   9  16  26  41  59  78 102 134 173 214 254
#     4   8  13  22  38  59  82 109 142 180 219 257
#     4  10  20  32  46  66  92 120 148 179 218 265
#     4   9  15  21  29  44  69 100 133 167 201 242
#     4   7   9  13  22  38  61  88 120 160 203 245
#     4   7   9  14  26  46  70  94 124 166 212 250
#     4  10  20  33  49  68  88 112 145 184 224 266
#     4   8  12  17  25  38  59  90 126 161 199 244
#
# _framework density 20.844031999999999
#
# number of rings (size 3 to 8) (size 9 to 14) (size 15 to 20)
#    0.000    3.500    0.000    3.750    0.000    4.500 
#    0.000    0.000    0.000    0.000    0.000    0.875 
#    0.000    5.000    0.000    1.125    0.000   22.500 
#
# Total GULP energy -178236.862186 kJ/mol
# GULP energy per Si atom -5569.901943 kJ/mol
# Density = 2.079659 g / cm^3
# Si number density = 20.844032 Si / 1000 Ang^3
#
#
#
# Elastic Constant Matrix: (Units=GPa)
#
#
# Indices 1 2 3 4 5 6 
#
# 1 57.6062 4.2261 0.3559 0.0000 0.0000 0.0000
# 2 4.2261 97.2749 100.8757 0.0000 0.0000 0.0000
# 3 0.3559 100.8757 261.2255 0.0000 0.0000 0.0000
# 4 0.0000 0.0000 0.0000 -9.1825 0.0000 0.0000
# 5 0.0000 0.0000 0.0000 0.0000 -41.1286 0.0000
# 6 0.0000 0.0000 0.0000 0.0000 0.0000 -9.3366
#
#
#
# Elastic Compliance Matrix: (Units=1/GPa)
#
#
# Indices 1 2 3 4 5 6 
#
# 1 0.017446 -0.001223 0.000449 0.000000 0.000000 0.000000
# 2 -0.001223 0.017232 -0.006653 0.000000 0.000000 0.000000
# 3 0.000449 -0.006653 0.006397 0.000000 0.000000 0.000000
# 4 0.000000 0.000000 0.000000 -0.108903 0.000000 0.000000
# 5 0.000000 0.000000 0.000000 0.000000 -0.024314 0.000000
# 6 0.000000 0.000000 0.000000 0.000000 0.000000 -0.107106
#
#
# Mechanical properties :
#
#
# Convention : Reuss Voigt Hill
#
# Bulk Modulus (GPa) = 38.13827 69.66913 53.90370
# Shear Modulus (GPa) = -28.46537 8.78039 -9.84249
#
# Velocity S-wave (km/s) = -3.69946 2.05465 -2.17537
# Velocity P-wave (km/s) = 0.29780 6.25502 4.42798
#
# Compressibility (1/GPa) = 0.02622038
#
# Stress axis : x y z
#
# Youngs Moduli (GPa) = 57.31903 58.03018 156.33333
#
# Poissons Ratio (x) = 0.07098 -0.07012
# Poissons Ratio (y) = 0.07011 1.04006
# Poissons Ratio (z) = -0.02571 0.38607
#
# Static dielectric constant tensor:
#      x y z
#    x 1.782310 0.000000 0.000000 
#    y 0.000000 1.698700 0.000000 
#    z 0.000000 0.000000 1.791260 
# 
# From -- ./inp_files/6557.got.cif
#   From: 2010.05.17/outbox.cif.g08.bks.cpg/sg25_4_cif.got.tgz:6557.got - 2010.06.04 01:04:00.
