data_PCOD9337513
_publ_section_title
;
Structure prediction by ZEFSAII (Michael W. Deem and Ramdas Pophale) SiO2 
 PCOD9337513
Probable space group: P M M 2
;
_chemical_formula_sum "Si O2"
_cell_formula_units_Z 28
_cell_length_a 8.870707
_cell_length_b 14.597685
_cell_length_c 13.171859
_cell_angle_alpha 90.000000
_cell_angle_beta 90.000000
_cell_angle_gamma 90.000000
_cell_volume 1705.647554
_symmetry_space_group_name_H-M "P M M 2"
_symmetry_group_IT_number 25
_symmetry_cell_setting 'orthorhombic'
loop_
_space_group_symop_operation_xyz
x,y,z
-x,-y,z
-x,y,z
x,-y,z
loop_
_atom_site_type_symbol
_atom_site_label
_atom_site_fract_x
_atom_site_fract_y
_atom_site_fract_z
Si Si1 0.319230 0.785780 0.352660
Si Si2 0.680764 0.106955 0.149541
Si Si3 0.820258 0.604773 0.425719
Si Si4 0.319523 0.793448 0.741395
Si Si5 0.819897 0.892505 0.933527
Si Si6 0.180159 0.891389 0.544733
Si Si7 0.319910 0.603168 0.648312
O O1 0.500000 0.788497 0.362093
O O2 0.275895 0.833125 0.246671
O O3 0.261073 0.682150 0.360610
O O4 0.248132 0.841218 0.446632
O O5 0.500000 0.113629 0.136397
O O6 0.716957 0.000000 0.169592
O O7 0.759999 0.133948 0.044754
O O8 0.783421 0.500000 0.396461
O O9 0.765302 0.616691 0.541916
O O10 0.000000 0.616566 0.421188
O O11 0.500000 0.803276 0.741647
O O12 0.252493 0.833194 0.844597
O O13 0.252194 0.848554 0.645821
O O14 0.282429 0.686371 0.722780
O O15 0.000000 0.885245 0.929915
O O16 0.779404 0.000000 0.918109
O O17 0.000000 0.877875 0.547263
O O18 0.210698 0.000000 0.540225
O O19 0.500000 0.608162 0.627908
O O20 0.286692 0.500000 0.685391
#
# Coordination Sequence:
#
# PCOD9337513 Si02
#       7
#     4   4   4   4   4   4   4
#     4  11  21  34  54  79 106 138 174 216 265 315
#     4   9  19  36  56  77 102 134 175 219 259 307
#     4  10  20  33  51  76 106 140 176 215 260 312
#     4  11  21  33  53  78 104 138 175 215 262 311
#     4  10  21  36  54  76 103 137 176 217 261 310
#     4  11  23  35  48  72 108 144 174 210 259 314
#     4   9  18  33  52  75 103 135 173 215 259 310
#
# _framework density 16.416052000000001
#
# number of rings (size 3 to 8) (size 9 to 14) (size 15 to 20)
#    0.000    1.857    1.429    3.000    0.000    6.857 
#    0.000    1.429    0.000    0.857    0.000    2.000 
#    0.000    0.000    0.000    0.000    0.000    0.000 
#
# Total GULP energy -156330.698699 kJ/mol
# GULP energy per Si atom -5583.239239 kJ/mol
# Density = 1.637869 g / cm^3
# Si number density = 16.416052 Si / 1000 Ang^3
#
#
#
# Elastic Constant Matrix: (Units=GPa)
#
#
# Indices 1 2 3 4 5 6 
#
# 1 50.2246 58.6085 54.8702 0.0000 0.0000 0.0000
# 2 58.6085 128.7373 93.5713 0.0000 0.0000 0.0000
# 3 54.8702 93.5713 140.1615 0.0000 0.0000 0.0000
# 4 0.0000 0.0000 0.0000 20.2555 0.0000 0.0000
# 5 0.0000 0.0000 0.0000 0.0000 261.5645 0.0000
# 6 0.0000 0.0000 0.0000 0.0000 0.0000 26.4804
#
#
#
# Elastic Compliance Matrix: (Units=1/GPa)
#
#
# Indices 1 2 3 4 5 6 
#
# 1 0.046608 -0.015457 -0.007927 0.000000 0.000000 0.000000
# 2 -0.015457 0.020216 -0.007445 0.000000 0.000000 0.000000
# 3 -0.007927 -0.007445 0.015208 0.000000 0.000000 0.000000
# 4 0.000000 0.000000 0.000000 0.049369 0.000000 0.000000
# 5 0.000000 0.000000 0.000000 0.000000 0.003823 0.000000
# 6 0.000000 0.000000 0.000000 0.000000 0.000000 0.037764
#
#
# Mechanical properties :
#
#
# Convention : Reuss Voigt Hill
#
# Bulk Modulus (GPa) = 49.08201 81.46926 65.27563
# Shear Modulus (GPa) = 20.70931 69.13164 44.92048
#
# Velocity S-wave (km/s) = 3.55565 6.49643 5.23671
# Velocity P-wave (km/s) = 6.84256 10.29597 8.74150
#
# Compressibility (1/GPa) = 0.02037407
#
# Stress axis : x y z
#
# Youngs Moduli (GPa) = 21.45565 49.46595 65.75409
#
# Poissons Ratio (x) = 0.76459 0.52123
# Poissons Ratio (y) = 0.33164 0.48954
# Poissons Ratio (z) = 0.17008 0.36828
#
# Static dielectric constant tensor:
#      x y z
#    x 1.547220 0.000000 0.000000 
#    y 0.000000 1.562700 0.000000 
#    z 0.000000 0.000000 1.510220 
# 
# From -- ./inp_files/4064.got.cif
#   From: 2010.05.17/outbox.cif.g08.bks.cpg/sg25_3_cif.got.tgz:4064.got - 2010.06.04 01:04:00.
