data_PCOD9337360
_publ_section_title
;
Structure prediction by ZEFSAII (Michael W. Deem and Ramdas Pophale) SiO2 
 PCOD9337360
Probable space group: P M M 2
;
_chemical_formula_sum "Si O2"
_cell_formula_units_Z 32
_cell_length_a 7.448693
_cell_length_b 9.686398
_cell_length_c 21.695559
_cell_angle_alpha 90.000000
_cell_angle_beta 90.000000
_cell_angle_gamma 90.000000
_cell_volume 1565.356385
_symmetry_space_group_name_H-M "P M M 2"
_symmetry_group_IT_number 25
_symmetry_cell_setting 'orthorhombic'
loop_
_space_group_symop_operation_xyz
x,y,z
-x,-y,z
-x,y,z
x,-y,z
loop_
_atom_site_type_symbol
_atom_site_label
_atom_site_fract_x
_atom_site_fract_y
_atom_site_fract_z
Si Si1 0.716078 0.157838 0.892030
Si Si2 0.282972 0.835650 0.158615
Si Si3 0.214039 0.344548 0.773930
Si Si4 0.780920 0.841610 0.661950
Si Si5 0.215900 0.843631 0.522823
Si Si6 0.287132 0.655300 0.406437
Si Si7 0.712455 0.167564 0.026155
Si Si8 0.280302 0.839504 0.293371
O O1 0.500000 0.150732 0.896782
O O2 0.757978 0.256949 0.835706
O O3 0.779464 0.000000 0.881142
O O4 0.783880 0.209237 0.959065
O O5 0.500000 0.821257 0.157234
O O6 0.214713 0.782462 0.092349
O O7 0.222830 0.785178 0.225729
O O8 0.246193 0.000000 0.159676
O O9 0.285283 0.500000 0.778626
O O10 0.283980 0.260721 0.714806
O O11 0.000000 0.354210 0.765466
O O12 0.723971 0.806969 0.592160
O O13 0.000000 0.839557 0.662389
O O14 0.728077 0.000000 0.674930
O O15 0.264931 0.736587 0.470222
O O16 0.000000 0.848590 0.524673
O O17 0.278935 0.000000 0.508530
O O18 0.500000 0.644707 0.395818
O O19 0.214045 0.500000 0.409003
O O20 0.216120 0.746737 0.349806
O O21 0.500000 0.200305 0.026559
O O22 0.726994 0.000000 0.026375
O O23 0.500000 0.840167 0.293290
O O24 0.226442 0.000000 0.300704
#
# Coordination Sequence:
#
# PCOD9337360 Si02
#       8
#     4   4   4   4   4   4   4   4
#     4   9  17  29  46  68  93 121 151 183 223 269
#     4   7   9  15  31  56  82 107 139 180 223 262
#     4  10  20  32  47  68  92 119 151 184 219 262
#     4   8  15  30  51  71  89 110 141 184 228 266
#     4   9  18  33  53  74  91 110 143 186 228 269
#     4  10  20  31  43  64  96 129 155 180 215 261
#     4   7  10  18  34  58  86 111 138 178 224 264
#     4   8  13  22  38  59  83 114 150 185 222 262
#
# _framework density 20.442630000000001
#
# number of rings (size 3 to 8) (size 9 to 14) (size 15 to 20)
#    0.000    3.500    0.000    3.750    0.000    2.500 
#    0.000    1.875    0.000    1.500    0.000    4.375 
#    0.000    3.000    0.000    0.000    0.000    0.000 
#
# Total GULP energy -178278.804120 kJ/mol
# GULP energy per Si atom -5571.212629 kJ/mol
# Density = 2.039610 g / cm^3
# Si number density = 20.442630 Si / 1000 Ang^3
#
#
#
# Elastic Constant Matrix: (Units=GPa)
#
#
# Indices 1 2 3 4 5 6 
#
# 1 59.7721 5.2090 3.5569 0.0000 0.0000 0.0000
# 2 5.2090 114.0126 126.0285 0.0000 0.0000 0.0000
# 3 3.5569 126.0285 231.9463 0.0000 0.0000 0.0000
# 4 0.0000 0.0000 0.0000 -6.5978 0.0000 0.0000
# 5 0.0000 0.0000 0.0000 0.0000 22.5061 0.0000
# 6 0.0000 0.0000 0.0000 0.0000 0.0000 4.1820
#
#
#
# Elastic Compliance Matrix: (Units=1/GPa)
#
#
# Indices 1 2 3 4 5 6 
#
# 1 0.016812 -0.001210 0.000399 0.000000 0.000000 0.000000
# 2 -0.001210 0.022048 -0.011961 0.000000 0.000000 0.000000
# 3 0.000399 -0.011961 0.010804 0.000000 0.000000 0.000000
# 4 0.000000 0.000000 0.000000 -0.151566 0.000000 0.000000
# 5 0.000000 0.000000 0.000000 0.000000 0.044432 0.000000
# 6 0.000000 0.000000 0.000000 0.000000 0.000000 0.239117
#
#
# Mechanical properties :
#
#
# Convention : Reuss Voigt Hill
#
# Bulk Modulus (GPa) = 41.45696 75.03553 58.24625
# Shear Modulus (GPa) = 23.23069 22.08050 22.65560
#
# Velocity S-wave (km/s) = 3.37469 3.29008 3.33265
# Velocity P-wave (km/s) = 5.95889 7.15667 6.58507
#
# Compressibility (1/GPa) = 0.02412140
#
# Stress axis : x y z
#
# Youngs Moduli (GPa) = 59.48177 45.35494 92.55407
#
# Poissons Ratio (x) = 0.05486 -0.03697
# Poissons Ratio (y) = 0.07195 1.10708
# Poissons Ratio (z) = -0.02376 0.54251
#
# Static dielectric constant tensor:
#      x y z
#    x 1.814910 0.000000 0.000000 
#    y 0.000000 1.685810 0.000000 
#    z 0.000000 0.000000 1.760030 
# 
# From -- ./inp_files/6563.got.cif
#   From: 2010.05.17/outbox.cif.g08.bks.cpg/sg25_4_cif.got.tgz:6563.got - 2010.06.04 01:04:00.
