data_PCOD9337444
_publ_section_title
;
Structure prediction by ZEFSAII (Michael W. Deem and Ramdas Pophale) SiO2 
 PCOD9337444
Probable space group: P M M 2
;
_chemical_formula_sum "Si O2"
_cell_formula_units_Z 32
_cell_length_a 9.256957
_cell_length_b 9.119442
_cell_length_c 21.636153
_cell_angle_alpha 90.000000
_cell_angle_beta 90.000000
_cell_angle_gamma 90.000000
_cell_volume 1826.486875
_symmetry_space_group_name_H-M "P M M 2"
_symmetry_group_IT_number 25
_symmetry_cell_setting 'orthorhombic'
loop_
_space_group_symop_operation_xyz
x,y,z
-x,-y,z
-x,y,z
x,-y,z
loop_
_atom_site_type_symbol
_atom_site_label
_atom_site_fract_x
_atom_site_fract_y
_atom_site_fract_z
Si Si1 0.175741 0.670901 0.832660
Si Si2 0.324063 0.331157 0.208206
Si Si3 0.670910 0.824734 0.334314
Si Si4 0.171797 0.323498 0.968036
Si Si5 0.668645 0.323119 0.574456
Si Si6 0.326220 0.828101 0.082457
Si Si7 0.832122 0.679038 0.698257
Si Si8 0.169389 0.823678 0.460214
O O1 0.219890 0.500000 0.833224
O O2 0.219343 0.731570 0.899579
O O3 0.219857 0.732945 0.765896
O O4 0.000000 0.672369 0.831901
O O5 0.500000 0.327304 0.208384
O O6 0.278714 0.500000 0.205985
O O7 0.278826 0.254780 0.271955
O O8 0.277592 0.246560 0.146562
O O9 0.500000 0.794356 0.343312
O O10 0.757109 0.779941 0.395431
O O11 0.686300 0.000000 0.326134
O O12 0.192038 0.500000 0.970024
O O13 0.000000 0.296764 0.973794
O O14 0.255041 0.248694 0.023701
O O15 0.500000 0.285112 0.572007
O O16 0.681513 0.500000 0.570826
O O17 0.738118 0.275944 0.639738
O O18 0.752401 0.251990 0.517546
O O19 0.500000 0.812419 0.078663
O O20 0.291929 0.000000 0.083500
O O21 0.829587 0.500000 0.700834
O O22 0.000000 0.721077 0.689414
O O23 0.000000 0.788132 0.459989
O O24 0.184762 0.000000 0.465607
#
# Coordination Sequence:
#
# PCOD9337444 Si02
#       8
#     4   4   4   4   4   4   4   4
#     4   7  11  22  42  67  93 122 157 197 242 292
#     4   9  17  30  50  74  97 123 159 202 244 287
#     4   9  17  31  51  72  94 122 156 195 242 295
#     4   9  17  30  49  73  99 126 160 204 250 294
#     4  10  20  32  48  73 103 132 163 201 244 290
#     4  10  20  33  49  70  98 133 170 204 239 284
#     4   8  13  24  44  68  94 125 160 199 244 291
#     4  10  21  36  53  73  98 130 167 203 239 284
#
# _framework density 17.519971999999999
#
# number of rings (size 3 to 8) (size 9 to 14) (size 15 to 20)
#    0.000    3.000    0.000    3.000    0.000    4.500 
#    0.000    2.500    0.000    5.250    0.000    1.750 
#    0.000    0.000    0.000    0.000    0.000    0.000 
#
# Total GULP energy -178272.639025 kJ/mol
# GULP energy per Si atom -5571.019970 kJ/mol
# Density = 1.748010 g / cm^3
# Si number density = 17.519972 Si / 1000 Ang^3
#
#
#
# Elastic Constant Matrix: (Units=GPa)
#
#
# Indices 1 2 3 4 5 6 
#
# 1 55.7756 37.2757 78.1619 0.0000 0.0000 0.0000
# 2 37.2757 35.3158 63.8006 0.0000 0.0000 0.0000
# 3 78.1619 63.8006 228.9216 0.0000 0.0000 0.0000
# 4 0.0000 0.0000 0.0000 -65.6936 0.0000 0.0000
# 5 0.0000 0.0000 0.0000 0.0000 33.6049 0.0000
# 6 0.0000 0.0000 0.0000 0.0000 0.0000 17.8343
#
#
#
# Elastic Compliance Matrix: (Units=1/GPa)
#
#
# Indices 1 2 3 4 5 6 
#
# 1 0.064930 -0.057367 -0.006181 0.000000 0.000000 0.000000
# 2 -0.057367 0.107714 -0.010433 0.000000 0.000000 0.000000
# 3 -0.006181 -0.010433 0.009387 0.000000 0.000000 0.000000
# 4 0.000000 0.000000 0.000000 -0.015222 0.000000 0.000000
# 5 0.000000 0.000000 0.000000 0.000000 0.029758 0.000000
# 6 0.000000 0.000000 0.000000 0.000000 0.000000 0.056072
#
#
# Mechanical properties :
#
#
# Convention : Reuss Voigt Hill
#
# Bulk Modulus (GPa) = 29.35216 75.38771 52.36994
# Shear Modulus (GPa) = 12.13719 6.53411 9.33565
#
# Velocity S-wave (km/s) = 2.63490 1.93329 2.31088
# Velocity P-wave (km/s) = 5.10361 6.93588 6.08906
#
# Compressibility (1/GPa) = 0.03406904
#
# Stress axis : x y z
#
# Youngs Moduli (GPa) = 15.40111 9.28382 106.53543
#
# Poissons Ratio (x) = 0.53258 0.65854
# Poissons Ratio (y) = 0.88351 1.11149
# Poissons Ratio (z) = 0.09520 0.09686
#
# Static dielectric constant tensor:
#      x y z
#    x 1.582390 0.000000 0.000000 
#    y 0.000000 1.587320 0.000000 
#    z 0.000000 0.000000 1.604810 
# 
# From -- ./inp_files/6479.got.cif
#   From: 2010.05.17/outbox.cif.g08.bks.cpg/sg25_4_cif.got.tgz:6479.got - 2010.06.04 01:04:00.
