data_PCOD9337802
_publ_section_title
;
Structure prediction by ZEFSAII (Michael W. Deem and Ramdas Pophale) SiO2 
 PCOD9337802
Probable space group: P M M 2
;
_chemical_formula_sum "Si O2"
_cell_formula_units_Z 20
_cell_length_a 8.556626
_cell_length_b 13.398639
_cell_length_c 10.011394
_cell_angle_alpha 90.000000
_cell_angle_beta 90.000000
_cell_angle_gamma 90.000000
_cell_volume 1147.777718
_symmetry_space_group_name_H-M "P M M 2"
_symmetry_group_IT_number 25
_symmetry_cell_setting 'orthorhombic'
loop_
_space_group_symop_operation_xyz
x,y,z
-x,-y,z
-x,y,z
x,-y,z
loop_
_atom_site_type_symbol
_atom_site_label
_atom_site_fract_x
_atom_site_fract_y
_atom_site_fract_z
Si Si1 0.685350 0.286503 0.965380
Si Si2 0.180230 0.500000 0.652028
Si Si3 0.179455 0.500000 0.976779
Si Si4 0.190362 0.716041 0.665328
Si Si5 0.188844 0.885453 0.156620
Si Si6 0.809663 0.887751 0.464903
O O1 0.500000 0.287553 0.955076
O O2 0.741586 0.395658 0.015788
O O3 0.756157 0.270361 0.817500
O O4 0.740835 0.197889 0.061229
O O5 0.180302 0.500000 0.814164
O O6 0.248690 0.607344 0.614929
O O7 0.000000 0.500000 0.606017
O O8 0.000000 0.500000 0.020950
O O9 0.243164 0.804340 0.568599
O O10 0.000000 0.713087 0.666129
O O11 0.235124 0.868264 0.311279
O O12 0.000000 0.879826 0.149545
O O13 0.232753 0.000000 0.121699
O O14 0.000000 0.887376 0.467140
O O15 0.759234 0.000000 0.501035
#
# Coordination Sequence:
#
# PCOD9337802 Si02
#       6
#     4   2   2   4   4   4
#     4  11  21  32  49  76 107 134 163 203 252 301
#     4   7  12  23  42  67  92 118 148 186 232 283
#     4   9  17  33  54  73  96 130 170 206 246 295
#     4   9  16  29  49  71  96 127 164 203 243 291
#     4   9  18  34  53  71  96 134 176 213 250 294
#     4   8  15  29  50  73  94 121 164 213 251 285
#
# _framework density 17.424977999999999
#
# number of rings (size 3 to 8) (size 9 to 14) (size 15 to 20)
#    0.000    3.000    0.000    4.500    0.000    1.200 
#    0.000    4.000    0.000    4.800    0.000    2.800 
#    0.000    0.000    0.000    0.000    0.000    0.000 
#
# Total GULP energy -111391.664245 kJ/mol
# GULP energy per Si atom -5569.583212 kJ/mol
# Density = 1.738532 g / cm^3
# Si number density = 17.424978 Si / 1000 Ang^3
#
#
#
# Elastic Constant Matrix: (Units=GPa)
#
#
# Indices 1 2 3 4 5 6 
#
# 1 36.7078 37.8898 18.8500 0.0000 0.0000 0.0000
# 2 37.8898 203.7869 101.9266 0.0000 0.0000 0.0000
# 3 18.8500 101.9266 73.6477 0.0000 0.0000 0.0000
# 4 0.0000 0.0000 0.0000 -24.6544 0.0000 0.0000
# 5 0.0000 0.0000 0.0000 0.0000 -3.4569 0.0000
# 6 0.0000 0.0000 0.0000 0.0000 0.0000 9.1467
#
#
#
# Elastic Compliance Matrix: (Units=1/GPa)
#
#
# Indices 1 2 3 4 5 6 
#
# 1 0.033713 -0.006343 0.000150 0.000000 0.000000 0.000000
# 2 -0.006343 0.017137 -0.022093 0.000000 0.000000 0.000000
# 3 0.000150 -0.022093 0.044116 0.000000 0.000000 0.000000
# 4 0.000000 0.000000 0.000000 -0.040561 0.000000 0.000000
# 5 0.000000 0.000000 0.000000 0.000000 -0.289273 0.000000
# 6 0.000000 0.000000 0.000000 0.000000 0.000000 0.109329
#
#
# Mechanical properties :
#
#
# Convention : Reuss Voigt Hill
#
# Bulk Modulus (GPa) = 26.04646 70.16391 48.10519
# Shear Modulus (GPa) = -89.01592 6.57214 -41.22189
#
# Velocity S-wave (km/s) = -7.15515 1.94419 -4.86910
# Velocity P-wave (km/s) = 7.29940 6.73747 1.98592
#
# Compressibility (1/GPa) = 0.03839293
#
# Stress axis : x y z
#
# Youngs Moduli (GPa) = 29.66253 58.35451 22.66751
#
# Poissons Ratio (x) = 0.37016 -0.00341
# Poissons Ratio (y) = 0.18816 0.50080
# Poissons Ratio (z) = -0.00446 1.28923
#
# Static dielectric constant tensor:
#      x y z
#    x 1.581680 0.000000 0.000000 
#    y 0.000000 1.618440 0.000000 
#    z 0.000000 0.000000 1.562260 
# 
# From -- ./inp_files/1891.got.cif
#   From: 2010.05.17/outbox.cif.g08.bks.cpg/sg25_1_cif.got.tgz:1891.got - 2010.06.04 01:04:00.
