data_PCOD9337808
_publ_section_title
;
Structure prediction by ZEFSAII (Michael W. Deem and Ramdas Pophale) SiO2 
 PCOD9337808
Probable space group: P M M 2
;
_chemical_formula_sum "Si O2"
_cell_formula_units_Z 24
_cell_length_a 18.248258
_cell_length_b 7.662882
_cell_length_c 7.871291
_cell_angle_alpha 90.000000
_cell_angle_beta 90.000000
_cell_angle_gamma 90.000000
_cell_volume 1100.676056
_symmetry_space_group_name_H-M "P M M 2"
_symmetry_group_IT_number 25
_symmetry_cell_setting 'orthorhombic'
loop_
_space_group_symop_operation_xyz
x,y,z
-x,-y,z
-x,y,z
x,-y,z
loop_
_atom_site_type_symbol
_atom_site_label
_atom_site_fract_x
_atom_site_fract_y
_atom_site_fract_z
Si Si1 0.415966 0.786417 0.078310
Si Si2 0.309318 0.790114 0.778058
Si Si3 0.844341 0.804837 0.347961
Si Si4 0.845737 0.696876 0.716778
Si Si5 0.000000 0.200138 0.259277
Si Si6 0.000000 0.803206 0.856790
Si Si7 0.314243 0.786157 0.384967
O O1 0.500000 0.729769 0.067189
O O2 0.377509 0.733727 0.254996
O O3 0.415606 0.000000 0.076453
O O4 0.367437 0.728110 0.917261
O O5 0.225902 0.740167 0.826495
O O6 0.322450 0.730458 0.582179
O O7 0.313274 0.000000 0.775539
O O8 0.842451 0.816436 0.551625
O O9 0.922292 0.717336 0.309398
O O10 0.764697 0.727250 0.309990
O O11 0.847257 0.000000 0.269705
O O12 0.837547 0.500000 0.654936
O O13 0.924411 0.716482 0.801163
O O14 0.000000 0.000000 0.331688
O O15 0.000000 0.190079 0.058287
O O16 0.000000 0.000000 0.786968
O O17 0.311411 0.000000 0.387193
#
# Coordination Sequence:
#
# PCOD9337808 Si02
#       7
#     4   4   4   4   2   2   4
#     4   9  17  28  48  80 111 137 171 222 279 328
#     4   9  18  33  54  77 105 142 182 222 271 325
#     4   9  17  33  54  76 100 135 181 223 265 317
#     4  11  22  36  53  76 107 143 181 222 267 313
#     4   9  19  31  52  80 102 131 176 219 260 312
#     4  11  22  35  54  80 108 141 178 219 266 318
#     4   8  15  27  46  72 103 134 169 217 267 317
#
# _framework density 21.804780000000001
#
# number of rings (size 3 to 8) (size 9 to 14) (size 15 to 20)
#    0.000    2.667    0.000    3.250    2.333    1.333 
#    0.000    5.000    0.000    0.500    0.000    0.000 
#    0.000    0.000    0.000    0.000    0.000    0.000 
#
# Total GULP energy -133838.102044 kJ/mol
# GULP energy per Si atom -5576.587585 kJ/mol
# Density = 2.175515 g / cm^3
# Si number density = 21.804780 Si / 1000 Ang^3
#
#
#
# Elastic Constant Matrix: (Units=GPa)
#
#
# Indices 1 2 3 4 5 6 
#
# 1 226.6627 6.3569 82.1131 0.0000 0.0000 0.0000
# 2 6.3569 58.7421 4.6142 0.0000 0.0000 0.0000
# 3 82.1131 4.6142 81.1902 0.0000 0.0000 0.0000
# 4 0.0000 0.0000 0.0000 -18.7961 0.0000 0.0000
# 5 0.0000 0.0000 0.0000 0.0000 42.1984 0.0000
# 6 0.0000 0.0000 0.0000 0.0000 0.0000 32.0526
#
#
#
# Elastic Compliance Matrix: (Units=1/GPa)
#
#
# Indices 1 2 3 4 5 6 
#
# 1 0.006965 -0.000201 -0.007033 0.000000 0.000000 0.000000
# 2 -0.000201 0.017106 -0.000769 0.000000 0.000000 0.000000
# 3 -0.007033 -0.000769 0.019473 0.000000 0.000000 0.000000
# 4 0.000000 0.000000 0.000000 -0.053203 0.000000 0.000000
# 5 0.000000 0.000000 0.000000 0.000000 0.023698 0.000000
# 6 0.000000 0.000000 0.000000 0.000000 0.000000 0.031199
#
#
# Mechanical properties :
#
#
# Convention : Reuss Voigt Hill
#
# Bulk Modulus (GPa) = 36.31258 61.41814 48.86536
# Shear Modulus (GPa) = 70.99876 29.32504 50.16190
#
# Velocity S-wave (km/s) = 5.71242 3.67125 4.80156
# Velocity P-wave (km/s) = 7.75878 6.79700 7.29376
#
# Compressibility (1/GPa) = 0.02753866
#
# Stress axis : x y z
#
# Youngs Moduli (GPa) = 143.56748 58.45993 51.35192
#
# Poissons Ratio (x) = 0.01177 0.36116
# Poissons Ratio (y) = 0.02890 0.03947
# Poissons Ratio (z) = 1.00972 0.04493
#
# Static dielectric constant tensor:
#      x y z
#    x 1.797360 0.000000 0.000000 
#    y 0.000000 1.883990 0.000000 
#    z 0.000000 0.000000 1.757390 
# 
# From -- ./inp_files/3387.got.cif
#   From: 2010.05.17/outbox.cif.g08.bks.cpg/sg25_2_cif.got.tgz:3387.got - 2010.06.04 01:04:00.
