data_PCOD9337081
_publ_section_title
;
Structure prediction by ZEFSAII (Michael W. Deem and Ramdas Pophale) SiO2 
 PCOD9337081
Probable space group: I 21 21 21
;
_chemical_formula_sum "Si O2"
_cell_formula_units_Z 20
_cell_length_a 9.000000
_cell_length_b 24.000000
_cell_length_c 9.000000
_cell_angle_alpha 90.000000
_cell_angle_beta 90.000000
_cell_angle_gamma 90.000000
_cell_volume 1944.000000
_symmetry_space_group_name_H-M "I 21 21 21"
_symmetry_group_IT_number 24
_symmetry_cell_setting 'orthorhombic'
loop_
_space_group_symop_operation_xyz
x,y,z
-x,1/2-y,z
x,-y,1/2-z
1/2-x,y,-z
1/2+x,1/2+y,1/2+z
1/2-x,-y,1/2+z
1/2+x,1/2-y,-z
-x,1/2+y,1/2-z
loop_
_atom_site_type_symbol
_atom_site_label
_atom_site_fract_x
_atom_site_fract_y
_atom_site_fract_z
Si Si1 0.489015 0.621988 0.639412
Si Si2 0.710083 0.845066 0.174625
Si Si3 0.750000 0.695790 0.500000
Si Si4 0.017636 0.436401 0.815340
Si Si5 0.287632 0.060325 0.675579
Si Si6 0.000000 0.250000 0.793328
O O1 0.349641 0.656774 0.707316
O O2 0.625848 0.660398 0.587828
O O3 0.461226 0.581372 0.491993
O O4 0.558947 0.589656 0.780592
O O5 0.639434 0.903743 0.221766
O O6 0.579475 0.799727 0.202941
O O7 0.750000 0.842789 0.000000
O O8 0.640079 0.729560 0.391454
O O9 0.022289 0.500000 0.750000
O O10 0.854852 0.414920 0.763448
O O11 0.250000 0.058087 0.500000
O O12 0.302404 0.000000 0.750000
#
# Coordination Sequence:
#
# PCOD9337081 Si02
#       6
#     8   8   4   8   8   4
#     4  12  23  44  72 106 142 191 243 297 362 432
#     4  12  28  46  71 107 149 191 240 301 364 429
#     4  12  24  44  78 104 136 188 240 312 346 432
#     4  11  23  44  69 105 149 189 239 295 355 435
#     4  11  21  37  64 100 146 197 241 288 353 429
#     4  12  26  48  74 106 142 186 248 298 366 426
#
# _framework density 10.288066000000001
#
# number of rings (size 3 to 8) (size 9 to 14) (size 15 to 20)
#    0.000    0.400    4.000    5.400    0.000    4.000 
#    0.000    1.000    0.000    0.000    0.000    0.000 
#    0.000    0.000    0.000    0.000    0.000    0.000 
#
# Total GULP energy -111497.261450 kJ/mol
# GULP energy per Si atom -5574.863073 kJ/mol
# Density = 1.026465 g / cm^3
# Si number density = 10.288066 Si / 1000 Ang^3
#
#
#
# Elastic Constant Matrix: (Units=GPa)
#
#
# Indices 1 2 3 4 5 6 
#
# 1 129.0620 50.4954 40.5111 -0.0001 0.0002 -0.0001
# 2 50.4954 84.1229 51.7376 0.0000 -0.0001 -0.0001
# 3 40.5111 51.7376 169.1637 -0.0021 -0.0001 -0.0017
# 4 -0.0001 0.0000 -0.0021 24.8877 -0.0001 -0.0001
# 5 0.0002 -0.0001 -0.0001 -0.0001 43.4006 -0.0002
# 6 -0.0001 -0.0001 -0.0017 -0.0001 -0.0002 40.8104
#
#
#
# Elastic Compliance Matrix: (Units=1/GPa)
#
#
# Indices 1 2 3 4 5 6 
#
# 1 0.010194 -0.005687 -0.000702 0.000000 0.000000 0.000000
# 2 -0.005687 0.017814 -0.004086 0.000000 0.000000 0.000000
# 3 -0.000702 -0.004086 0.007329 0.000001 0.000000 0.000000
# 4 0.000000 0.000000 0.000001 0.040180 0.000000 0.000000
# 5 0.000000 0.000000 0.000000 0.000000 0.023041 0.000000
# 6 0.000000 0.000000 0.000000 0.000000 0.000000 0.024504
#
#
# Mechanical properties :
#
#
# Convention : Reuss Voigt Hill
#
# Bulk Modulus (GPa) = 69.50956 74.20407 71.85682
# Shear Modulus (GPa) = 33.60017 37.79339 35.69678
#
# Velocity S-wave (km/s) = 4.04538 4.29039 4.16969
# Velocity P-wave (km/s) = 7.46158 7.79004 7.62758
#
# Compressibility (1/GPa) = 0.01438651
#
# Stress axis : x y z
#
# Youngs Moduli (GPa) = 98.10086 56.13437 136.43859
#
# Poissons Ratio (x) = 0.31925 0.09575
# Poissons Ratio (y) = 0.55792 0.55755
# Poissons Ratio (z) = 0.06884 0.22939
#
# Static dielectric constant tensor:
#      x y z
#    x 1.779570 0.000000 0.000000 
#    y 0.000000 1.827360 0.000000 
#    z 0.000000 0.000000 1.743040 
# 
# From -- ./inp_files/9309.got.cif
#   From: 2010.05.17/outbox.ucp.g08.bks.cvg/sg24_5_cif.got.tgz:9309.got - 2010.06.11 15:20:44.
