data_PCOD9337095
_publ_section_title
;
Structure prediction by ZEFSAII (Michael W. Deem and Ramdas Pophale) SiO2 
 PCOD9337095
Probable space group: P M M 2
;
_chemical_formula_sum "Si O2"
_cell_formula_units_Z 32
_cell_length_a 14.783046
_cell_length_b 7.579355
_cell_length_c 16.296930
_cell_angle_alpha 90.000000
_cell_angle_beta 90.000000
_cell_angle_gamma 90.000000
_cell_volume 1826.005063
_symmetry_space_group_name_H-M "P M M 2"
_symmetry_group_IT_number 25
_symmetry_cell_setting 'orthorhombic'
loop_
_space_group_symop_operation_xyz
x,y,z
-x,-y,z
-x,y,z
x,-y,z
loop_
_atom_site_type_symbol
_atom_site_label
_atom_site_fract_x
_atom_site_fract_y
_atom_site_fract_z
Si Si1 0.100338 0.787757 0.290500
Si Si2 0.604091 0.788358 0.689253
Si Si3 0.395719 0.713545 0.188447
Si Si4 0.394447 0.215786 0.868895
Si Si5 0.715866 0.209270 0.024689
Si Si6 0.706916 0.709693 0.351197
Si Si7 0.396504 0.289285 0.510520
Si Si8 0.898629 0.784383 0.101250
O O1 0.185978 0.736245 0.344160
O O2 0.115560 0.729158 0.196083
O O3 0.000000 0.726427 0.316042
O O4 0.098106 0.000000 0.288817
O O5 0.500000 0.723670 0.686021
O O6 0.639493 0.729351 0.778157
O O7 0.644392 0.741776 0.601017
O O8 0.601897 0.000000 0.692219
O O9 0.500000 0.772192 0.190083
O O10 0.395690 0.500000 0.190190
O O11 0.346014 0.767428 0.105075
O O12 0.341417 0.778885 0.268547
O O13 0.500000 0.267558 0.877956
O O14 0.394278 0.000000 0.870863
O O15 0.334362 0.280741 0.944363
O O16 0.815438 0.279627 0.046581
O O17 0.726331 0.000000 0.011285
O O18 0.691073 0.500000 0.350615
O O19 0.661770 0.779981 0.434381
O O20 0.500000 0.219214 0.507837
O O21 0.402631 0.500000 0.501685
O O22 0.000000 0.730954 0.076414
O O23 0.897073 0.000000 0.101228
#
# Coordination Sequence:
#
# PCOD9337095 Si02
#       8
#     4   4   4   4   4   4   4   4
#     4   9  17  30  46  63  85 111 140 179 222 253
#     4   8  14  26  42  59  81 108 138 176 219 256
#     4  10  20  31  40  55  86 121 144 167 206 250
#     4   8  14  24  39  61  86 108 135 175 217 251
#     4  10  17  27  45  64  82 111 149 179 204 246
#     4  10  19  30  44  62  85 114 146 176 209 252
#     4   9  17  29  44  62  85 113 145 179 213 250
#     4   8  14  25  41  61  84 108 136 175 217 247
#
# _framework density 17.524595999999999
#
# number of rings (size 3 to 8) (size 9 to 14) (size 15 to 20)
#    0.000    3.000    1.250    2.250    0.000    3.000 
#    0.000    0.625    0.000    4.875    0.000    0.875 
#    0.000    3.000    0.000    0.000    0.000    0.000 
#
# Total GULP energy -178296.077348 kJ/mol
# GULP energy per Si atom -5571.752417 kJ/mol
# Density = 1.748471 g / cm^3
# Si number density = 17.524596 Si / 1000 Ang^3
#
#
#
# Elastic Constant Matrix: (Units=GPa)
#
#
# Indices 1 2 3 4 5 6 
#
# 1 117.6826 -1.0625 83.1743 0.0000 0.0000 0.0000
# 2 -1.0625 36.0687 2.7270 0.0000 0.0000 0.0000
# 3 83.1743 2.7270 167.8337 0.0000 0.0000 0.0000
# 4 0.0000 0.0000 0.0000 16.9098 0.0000 0.0000
# 5 0.0000 0.0000 0.0000 0.0000 10.1214 0.0000
# 6 0.0000 0.0000 0.0000 0.0000 0.0000 10.4542
#
#
#
# Elastic Compliance Matrix: (Units=1/GPa)
#
#
# Indices 1 2 3 4 5 6 
#
# 1 0.013106 0.000878 -0.006509 0.000000 0.000000 0.000000
# 2 0.000878 0.027818 -0.000887 0.000000 0.000000 0.000000
# 3 -0.006509 -0.000887 0.009198 0.000000 0.000000 0.000000
# 4 0.000000 0.000000 0.000000 0.059137 0.000000 0.000000
# 5 0.000000 0.000000 0.000000 0.000000 0.098801 0.000000
# 6 0.000000 0.000000 0.000000 0.000000 0.000000 0.095655
#
#
# Mechanical properties :
#
#
# Convention : Reuss Voigt Hill
#
# Bulk Modulus (GPa) = 26.96455 54.58474 40.77465
# Shear Modulus (GPa) = 15.19231 23.28016 19.23624
#
# Velocity S-wave (km/s) = 2.94753 3.64871 3.31671
# Velocity P-wave (km/s) = 5.19654 6.99757 6.16320
#
# Compressibility (1/GPa) = 0.03708573
#
# Stress axis : x y z
#
# Youngs Moduli (GPa) = 76.30174 35.94818 108.71341
#
# Poissons Ratio (x) = -0.03157 0.70764
# Poissons Ratio (y) = -0.06701 0.09645
# Poissons Ratio (z) = 0.49666 0.03189
#
# Static dielectric constant tensor:
#      x y z
#    x 1.593040 0.000000 0.000000 
#    y 0.000000 1.666510 0.000000 
#    z 0.000000 0.000000 1.611850 
# 
# From -- ./inp_files/5702.got.cif
#   From: 2010.05.17/outbox.cif.g08.bks.cpg/sg25_3_cif.got.tgz:5702.got - 2010.06.04 01:04:00.
