data_PCOD9337168
_publ_section_title
;
Structure prediction by ZEFSAII (Michael W. Deem and Ramdas Pophale) SiO2 
 PCOD9337168
Probable space group: P M M 2
;
_chemical_formula_sum "Si O2"
_cell_formula_units_Z 32
_cell_length_a 15.044418
_cell_length_b 8.282476
_cell_length_c 12.813769
_cell_angle_alpha 90.000000
_cell_angle_beta 90.000000
_cell_angle_gamma 90.000000
_cell_volume 1596.660084
_symmetry_space_group_name_H-M "P M M 2"
_symmetry_group_IT_number 25
_symmetry_cell_setting 'orthorhombic'
loop_
_space_group_symop_operation_xyz
x,y,z
-x,-y,z
-x,y,z
x,-y,z
loop_
_atom_site_type_symbol
_atom_site_label
_atom_site_fract_x
_atom_site_fract_y
_atom_site_fract_z
Si Si1 0.897705 0.805620 0.590940
Si Si2 0.096826 0.195448 0.949748
Si Si3 0.845305 0.813885 0.164580
Si Si4 0.403273 0.692650 0.330880
Si Si5 0.339809 0.310478 0.100610
Si Si6 0.226318 0.311642 0.777866
Si Si7 0.791392 0.195326 0.386739
Si Si8 0.599094 0.191946 0.877083
O O1 0.835419 0.763201 0.688485
O O2 0.846175 0.748126 0.487033
O O3 0.000000 0.746175 0.598979
O O4 0.902605 0.000000 0.585305
O O5 0.173438 0.278836 0.884962
O O6 0.000000 0.226824 0.902295
O O7 0.110512 0.000000 0.948506
O O8 0.097778 0.252995 0.069520
O O9 0.746239 0.800267 0.117387
O O10 0.837034 0.741376 0.279728
O O11 0.872743 0.000000 0.177875
O O12 0.500000 0.754814 0.367020
O O13 0.401565 0.500000 0.347074
O O14 0.396486 0.718559 0.205483
O O15 0.312988 0.760137 0.381735
O O16 0.313864 0.500000 0.101970
O O17 0.383957 0.272206 0.990191
O O18 0.234792 0.500000 0.758154
O O19 0.323816 0.239648 0.796637
O O20 0.795196 0.000000 0.384169
O O21 0.500000 0.236037 0.841033
O O22 0.603243 0.000000 0.892724
#
# Coordination Sequence:
#
# PCOD9337168 Si02
#       8
#     4   4   4   4   4   4   4   4
#     4  10  22  42  66  87 111 148 194 244 297 350
#     4  10  20  34  55  83 117 156 191 228 284 349
#     4   9  17  31  52  80 118 156 190 232 284 340
#     4   9  18  32  51  79 118 161 197 229 276 338
#     4  10  18  30  51  80 116 157 197 234 276 331
#     4  12  25  40  60  85 115 149 191 244 292 343
#     4   9  19  35  57  86 114 145 192 243 288 337
#     4  11  23  38  58  84 115 152 192 235 287 347
#
# _framework density 20.041834999999999
#
# number of rings (size 3 to 8) (size 9 to 14) (size 15 to 20)
#    0.000    2.000    1.250    2.625    0.000    5.250 
#    0.000    3.125    0.000    0.750    0.000    5.250 
#    0.000    0.000    0.000    0.000    0.000    0.000 
#
# Total GULP energy -178482.030167 kJ/mol
# GULP energy per Si atom -5577.563443 kJ/mol
# Density = 1.999622 g / cm^3
# Si number density = 20.041835 Si / 1000 Ang^3
#
#
#
# Elastic Constant Matrix: (Units=GPa)
#
#
# Indices 1 2 3 4 5 6 
#
# 1 137.5514 15.6417 66.1559 0.0000 0.0000 0.0000
# 2 15.6417 23.8703 7.6464 0.0000 0.0000 0.0000
# 3 66.1559 7.6464 112.4712 0.0000 0.0000 0.0000
# 4 0.0000 0.0000 0.0000 6.6801 0.0000 0.0000
# 5 0.0000 0.0000 0.0000 0.0000 17.7289 0.0000
# 6 0.0000 0.0000 0.0000 0.0000 0.0000 -84.1760
#
#
#
# Elastic Compliance Matrix: (Units=1/GPa)
#
#
# Indices 1 2 3 4 5 6 
#
# 1 0.010716 -0.005114 -0.005955 0.000000 0.000000 0.000000
# 2 -0.005114 0.045266 -0.000069 0.000000 0.000000 0.000000
# 3 -0.005955 -0.000069 0.012399 0.000000 0.000000 0.000000
# 4 0.000000 0.000000 0.000000 0.149699 0.000000 0.000000
# 5 0.000000 0.000000 0.000000 0.000000 0.056405 0.000000
# 6 0.000000 0.000000 0.000000 0.000000 0.000000 -0.011880
#
#
# Mechanical properties :
#
#
# Convention : Reuss Voigt Hill
#
# Bulk Modulus (GPa) = 21.69037 50.30898 35.99967
# Shear Modulus (GPa) = 16.65272 0.34317 8.49795
#
# Velocity S-wave (km/s) = 2.88566 0.41425 2.06139
# Velocity P-wave (km/s) = 4.68495 5.03838 4.86487
#
# Compressibility (1/GPa) = 0.04610341
#
# Stress axis : x y z
#
# Youngs Moduli (GPa) = 93.31972 22.09145 80.65253
#
# Poissons Ratio (x) = 0.11298 0.48032
# Poissons Ratio (y) = 0.47725 0.00559
# Poissons Ratio (z) = 0.55576 0.00153
#
# Static dielectric constant tensor:
#      x y z
#    x 1.735200 0.000000 0.000000 
#    y 0.000000 1.701230 0.000000 
#    z 0.000000 0.000000 1.721670 
# 
# From -- ./inp_files/4157.got.cif
#   From: 2010.05.17/outbox.cif.g08.bks.cpg/sg25_3_cif.got.tgz:4157.got - 2010.06.04 01:04:00.
