data_PCOD9337803
_publ_section_title
;
Structure prediction by ZEFSAII (Michael W. Deem and Ramdas Pophale) SiO2 
 PCOD9337803
Probable space group: P M M 2
;
_chemical_formula_sum "Si O2"
_cell_formula_units_Z 24
_cell_length_a 11.096304
_cell_length_b 8.920060
_cell_length_c 12.223554
_cell_angle_alpha 90.000000
_cell_angle_beta 90.000000
_cell_angle_gamma 90.000000
_cell_volume 1209.883677
_symmetry_space_group_name_H-M "P M M 2"
_symmetry_group_IT_number 25
_symmetry_cell_setting 'orthorhombic'
loop_
_space_group_symop_operation_xyz
x,y,z
-x,-y,z
-x,y,z
x,-y,z
loop_
_atom_site_type_symbol
_atom_site_label
_atom_site_fract_x
_atom_site_fract_y
_atom_site_fract_z
Si Si1 0.500000 0.173098 0.901310
Si Si2 0.500000 0.172758 0.638398
Si Si3 0.284049 0.321068 0.029681
Si Si4 0.141565 0.828060 0.858091
Si Si5 0.249135 0.321336 0.642768
Si Si6 0.361667 0.682672 0.276049
Si Si7 0.133392 0.318126 0.418911
O O1 0.500000 0.175214 0.770777
O O2 0.500000 0.000000 0.937253
O O3 0.386820 0.259709 0.949720
O O4 0.378223 0.256861 0.605979
O O5 0.500000 0.000000 0.602364
O O6 0.276676 0.500000 0.025743
O O7 0.322087 0.278244 0.152267
O O8 0.166771 0.249327 0.974704
O O9 0.207992 0.747160 0.757708
O O10 0.000000 0.825386 0.835327
O O11 0.184451 0.000000 0.862644
O O12 0.258012 0.500000 0.653391
O O13 0.155216 0.284705 0.546538
O O14 0.500000 0.733539 0.298415
O O15 0.365125 0.500000 0.282703
O O16 0.251899 0.734867 0.353294
O O17 0.132911 0.500000 0.408148
O O18 0.000000 0.265213 0.383454
#
# Coordination Sequence:
#
# PCOD9337803 Si02
#       7
#     2   2   4   4   4   4   4
#     4  11  21  35  56  81 117 157 188 223 285 354
#     4  11  23  37  56  85 121 157 194 233 293 364
#     4  11  21  35  59  88 116 147 192 242 286 337
#     4  11  24  40  57  81 118 161 196 232 290 356
#     4  11  22  36  60  89 117 149 196 248 293 343
#     4   9  18  33  55  84 119 154 190 241 301 351
#     4   9  19  35  56  84 119 155 191 239 299 355
#
# _framework density 19.836617
#
# number of rings (size 3 to 8) (size 9 to 14) (size 15 to 20)
#    0.000    1.667    2.500    2.500    1.167    3.333 
#    0.000    1.667    0.000    5.000    0.000    2.333 
#    0.000    0.000    0.000    0.000    0.000    0.000 
#
# Total GULP energy -133948.593676 kJ/mol
# GULP energy per Si atom -5581.191403 kJ/mol
# Density = 1.979147 g / cm^3
# Si number density = 19.836617 Si / 1000 Ang^3
#
#
#
# Elastic Constant Matrix: (Units=GPa)
#
#
# Indices 1 2 3 4 5 6 
#
# 1 138.2122 27.5786 53.6444 0.0000 0.0000 0.0000
# 2 27.5786 58.5663 23.4944 0.0000 0.0000 0.0000
# 3 53.6444 23.4944 74.9806 0.0000 0.0000 0.0000
# 4 0.0000 0.0000 0.0000 -14.1042 0.0000 0.0000
# 5 0.0000 0.0000 0.0000 0.0000 39.8067 0.0000
# 6 0.0000 0.0000 0.0000 0.0000 0.0000 23.4368
#
#
#
# Elastic Compliance Matrix: (Units=1/GPa)
#
#
# Indices 1 2 3 4 5 6 
#
# 1 0.010249 -0.002156 -0.006657 0.000000 0.000000 0.000000
# 2 -0.002156 0.019983 -0.004719 0.000000 0.000000 0.000000
# 3 -0.006657 -0.004719 0.019578 0.000000 0.000000 0.000000
# 4 0.000000 0.000000 0.000000 -0.070901 0.000000 0.000000
# 5 0.000000 0.000000 0.000000 0.000000 0.025121 0.000000
# 6 0.000000 0.000000 0.000000 0.000000 0.000000 0.042668
#
#
# Mechanical properties :
#
#
# Convention : Reuss Voigt Hill
#
# Bulk Modulus (GPa) = 43.96328 53.46597 48.71463
# Shear Modulus (GPa) = 61.46622 20.96399 41.21511
#
# Velocity S-wave (km/s) = 5.57257 3.25442 4.56316
# Velocity P-wave (km/s) = 7.97593 6.41353 7.23702
#
# Compressibility (1/GPa) = 0.02274626
#
# Stress axis : x y z
#
# Youngs Moduli (GPa) = 97.56755 50.04280 51.07661
#
# Poissons Ratio (x) = 0.10788 0.34003
# Poissons Ratio (y) = 0.21033 0.24104
# Poissons Ratio (z) = 0.64954 0.23616
#
# Static dielectric constant tensor:
#      x y z
#    x 1.721950 0.000000 0.000000 
#    y 0.000000 1.666880 0.000000 
#    z 0.000000 0.000000 1.682610 
# 
# From -- ./inp_files/4545.got.cif
#   From: 2010.05.17/outbox.cif.g08.bks.cpg/sg25_3_cif.got.tgz:4545.got - 2010.06.04 01:04:00.
