data_PCOD9337895
_publ_section_title
;
Structure prediction by ZEFSAII (Michael W. Deem and Ramdas Pophale) SiO2 
 PCOD9337895
Probable space group: P M C 21
;
_chemical_formula_sum "Si O2"
_cell_formula_units_Z 26
_cell_length_a 32.898942
_cell_length_b 6.660026
_cell_length_c 5.182709
_cell_angle_alpha 90.000000
_cell_angle_beta 90.000000
_cell_angle_gamma 90.000000
_cell_volume 1135.572014
_symmetry_space_group_name_H-M "P M C 21"
_symmetry_group_IT_number 26
_symmetry_cell_setting 'orthorhombic'
loop_
_space_group_symop_operation_xyz
x,y,z
-x,-y,1/2+z
-x,y,z
x,-y,1/2+z
loop_
_atom_site_type_symbol
_atom_site_label
_atom_site_fract_x
_atom_site_fract_y
_atom_site_fract_z
Si Si1 0.954712 0.860001 0.204580
Si Si2 0.872794 0.702183 0.362839
Si Si3 0.333020 0.630001 0.674231
Si Si4 0.500000 0.137297 0.173528
Si Si5 0.246813 0.639609 0.782065
Si Si6 0.160199 0.250621 0.365127
Si Si7 0.414481 0.868938 0.791364
O O1 0.918038 0.705069 0.249833
O O2 0.000000 0.769198 0.222033
O O3 0.951561 0.025383 0.432604
O O4 0.871709 0.802052 0.643116
O O5 0.851822 0.487348 0.406963
O O6 0.845197 0.819841 0.156880
O O7 0.332592 0.554131 0.379717
O O8 0.290525 0.742098 0.737109
O O9 0.373827 0.748613 0.733566
O O10 0.542902 0.243586 0.230216
O O11 0.500000 0.954823 0.385728
O O12 0.245345 0.469122 0.559823
O O13 0.205946 0.767647 0.765925
O O14 0.414714 0.051734 0.584088
#
# Coordination Sequence:
#
# PCOD9337895 Si02
#       7
#     4   4   4   2   4   4   4
#     4  10  21  37  53  69  95 135 171 195 236 300
#     4  10  18  30  52  75  98 119 162 201 245 278
#     4  10  21  33  53  81 108 142 188 221 270 332
#     4   8  16  30  52  76  98 140 186 218 268 336
#     4  10  16  30  49  75  98 132 166 202 244 305
#     4  10  17  30  50  80  96 121 154 204 251 292
#     4  10  19  35  56  77 107 143 184 229 274 325
#
# _framework density 22.895949999999999
#
# number of rings (size 3 to 8) (size 9 to 14) (size 15 to 20)
#    0.000    2.154    3.077    1.846    0.000    0.000 
#    0.000    3.846    0.000    5.538    0.000    0.000 
#    0.000    0.000    0.000    0.000    0.000    0.000 
#
# Total GULP energy -144996.885098 kJ/mol
# GULP energy per Si atom -5576.803273 kJ/mol
# Density = 2.284384 g / cm^3
# Si number density = 22.895950 Si / 1000 Ang^3
#
#
#
# Elastic Constant Matrix: (Units=GPa)
#
#
# Indices 1 2 3 4 5 6 
#
# 1 201.8853 1.8278 -7.8056 0.0000 0.0000 0.0000
# 2 1.8278 28.0493 -18.9334 0.0000 0.0000 0.0000
# 3 -7.8056 -18.9334 133.8395 0.0000 0.0000 0.0000
# 4 0.0000 0.0000 0.0000 35.8285 0.0000 0.0000
# 5 0.0000 0.0000 0.0000 0.0000 35.6382 0.0000
# 6 0.0000 0.0000 0.0000 0.0000 0.0000 40.6014
#
#
#
# Elastic Compliance Matrix: (Units=1/GPa)
#
#
# Indices 1 2 3 4 5 6 
#
# 1 0.004965 -0.000142 0.000270 0.000000 0.000000 0.000000
# 2 -0.000142 0.039419 0.005568 0.000000 0.000000 0.000000
# 3 0.000270 0.005568 0.008275 0.000000 0.000000 0.000000
# 4 0.000000 0.000000 0.000000 0.027911 0.000000 0.000000
# 5 0.000000 0.000000 0.000000 0.000000 0.028060 0.000000
# 6 0.000000 0.000000 0.000000 0.000000 0.000000 0.024630
#
#
# Mechanical properties :
#
#
# Convention : Reuss Voigt Hill
#
# Bulk Modulus (GPa) = 15.61247 34.88352 25.24799
# Shear Modulus (GPa) = 34.91184 48.32596 41.61890
#
# Velocity S-wave (km/s) = 3.90911 4.59920 4.26812
# Velocity P-wave (km/s) = 5.21618 6.59335 5.94478
#
# Compressibility (1/GPa) = 0.06405137
#
# Stress axis : x y z
#
# Youngs Moduli (GPa) = 201.40942 25.36834 120.84532
#
# Poissons Ratio (x) = 0.00359 -0.03257
# Poissons Ratio (y) = 0.02852 -0.67288
# Poissons Ratio (z) = -0.05429 -0.14125
#
# Static dielectric constant tensor:
#      x y z
#    x 1.903010 0.000000 0.000000 
#    y 0.000000 0.416780 0.000000 
#    z 0.000000 0.000000 1.896970 
# 
# From -- ./inp_files/1049.got.cif
#   From: 2010.05.17/outbox.cif.g08.bks.cpg/sg26_1_cif.got.tgz:1049.got - 2010.06.04 01:07:29.
