data_PCOD9337492
_publ_section_title
;
Structure prediction by ZEFSAII (Michael W. Deem and Ramdas Pophale) SiO2 
 PCOD9337492
Probable space group: P M M 2
;
_chemical_formula_sum "Si O2"
_cell_formula_units_Z 28
_cell_length_a 7.434057
_cell_length_b 9.390884
_cell_length_c 18.618545
_cell_angle_alpha 90.000000
_cell_angle_beta 90.000000
_cell_angle_gamma 90.000000
_cell_volume 1299.804695
_symmetry_space_group_name_H-M "P M M 2"
_symmetry_group_IT_number 25
_symmetry_cell_setting 'orthorhombic'
loop_
_space_group_symop_operation_xyz
x,y,z
-x,-y,z
-x,y,z
x,-y,z
loop_
_atom_site_type_symbol
_atom_site_label
_atom_site_fract_x
_atom_site_fract_y
_atom_site_fract_z
Si Si1 0.280456 0.664089 0.208770
Si Si2 0.784950 0.662383 0.768334
Si Si3 0.279979 0.836418 0.067601
Si Si4 0.715111 0.337502 0.929894
Si Si5 0.215698 0.160875 0.632884
Si Si6 0.280049 0.164286 0.350410
Si Si7 0.715072 0.338287 0.489361
O O1 0.500000 0.663002 0.208804
O O2 0.222262 0.500000 0.210612
O O3 0.224033 0.744319 0.136383
O O4 0.224308 0.751177 0.279153
O O5 0.714883 0.500000 0.762842
O O6 0.750881 0.714713 0.849172
O O7 0.715459 0.761889 0.704781
O O8 0.000000 0.654481 0.759984
O O9 0.500000 0.836933 0.067487
O O10 0.222549 0.000000 0.072918
O O11 0.219195 0.762119 0.993922
O O12 0.500000 0.345148 0.937709
O O13 0.784725 0.500000 0.935589
O O14 0.251472 0.256322 0.563326
O O15 0.000000 0.151694 0.639659
O O16 0.284667 0.000000 0.624378
O O17 0.500000 0.163330 0.350773
O O18 0.218722 0.247152 0.421571
O O19 0.222568 0.000000 0.349890
O O20 0.500000 0.347451 0.480849
O O21 0.785034 0.500000 0.490823
#
# Coordination Sequence:
#
# PCOD9337492 Si02
#       7
#     4   4   4   4   4   4   4
#     4   9  15  23  37  58  87 123 159 192 228 273
#     4   9  18  33  51  69  91 121 156 193 234 282
#     4   9  16  25  38  59  88 120 153 189 230 275
#     4   9  17  29  45  66  92 120 151 189 232 277
#     4  10  21  36  53  73  97 126 161 200 242 289
#     4   9  16  26  41  63  93 126 158 194 236 280
#     4  10  20  33  50  73 100 129 162 200 242 288
#
# _framework density 21.541698
#
# number of rings (size 3 to 8) (size 9 to 14) (size 15 to 20)
#    0.000    2.714    0.000    2.143    0.000    8.000 
#    0.000    1.429    0.000    0.000    0.000    1.000 
#    0.000    5.714    0.000    0.000    0.000    0.000 
#
# Total GULP energy -156428.014323 kJ/mol
# GULP energy per Si atom -5586.714797 kJ/mol
# Density = 2.149267 g / cm^3
# Si number density = 21.541698 Si / 1000 Ang^3
#
#
#
# Elastic Constant Matrix: (Units=GPa)
#
#
# Indices 1 2 3 4 5 6 
#
# 1 67.8747 6.5261 -0.6889 0.0000 0.0000 0.0000
# 2 6.5261 223.6232 161.5477 0.0000 0.0000 0.0000
# 3 -0.6889 161.5477 243.8684 0.0000 0.0000 0.0000
# 4 0.0000 0.0000 0.0000 57.8001 0.0000 0.0000
# 5 0.0000 0.0000 0.0000 0.0000 37.6116 0.0000
# 6 0.0000 0.0000 0.0000 0.0000 0.0000 10.8583
#
#
#
# Elastic Compliance Matrix: (Units=1/GPa)
#
#
# Indices 1 2 3 4 5 6 
#
# 1 0.014825 -0.000888 0.000630 0.000000 0.000000 0.000000
# 2 -0.000888 0.008629 -0.005719 0.000000 0.000000 0.000000
# 3 0.000630 -0.005719 0.007891 0.000000 0.000000 0.000000
# 4 0.000000 0.000000 0.000000 0.017301 0.000000 0.000000
# 5 0.000000 0.000000 0.000000 0.000000 0.026588 0.000000
# 6 0.000000 0.000000 0.000000 0.000000 0.000000 0.092095
#
#
# Mechanical properties :
#
#
# Convention : Reuss Voigt Hill
#
# Bulk Modulus (GPa) = 51.56906 96.68179 74.12542
# Shear Modulus (GPa) = 26.91867 45.78610 36.35239
#
# Velocity S-wave (km/s) = 3.53881 4.61528 4.11242
# Velocity P-wave (km/s) = 6.37877 8.56620 7.55210
#
# Compressibility (1/GPa) = 0.01939147
#
# Stress axis : x y z
#
# Youngs Moduli (GPa) = 67.45462 115.88944 126.73319
#
# Poissons Ratio (x) = 0.10288 -0.07983
# Poissons Ratio (y) = 0.05988 0.72474
# Poissons Ratio (z) = -0.04249 0.66273
#
# Static dielectric constant tensor:
#      x y z
#    x 1.829680 0.000000 0.000000 
#    y 0.000000 1.750700 0.000000 
#    z 0.000000 0.000000 1.729570 
# 
# From -- ./inp_files/6043.got.cif
#   From: 2010.05.17/outbox.cif.g08.bks.cpg/sg25_4_cif.got.tgz:6043.got - 2010.06.04 01:04:00.
