data_PCOD9337164
_publ_section_title
;
Structure prediction by ZEFSAII (Michael W. Deem and Ramdas Pophale) SiO2 
 PCOD9337164
Probable space group: P M M 2
;
_chemical_formula_sum "Si O2"
_cell_formula_units_Z 20
_cell_length_a 13.323271
_cell_length_b 9.011909
_cell_length_c 9.780795
_cell_angle_alpha 90.000000
_cell_angle_beta 90.000000
_cell_angle_gamma 90.000000
_cell_volume 1174.361529
_symmetry_space_group_name_H-M "P M M 2"
_symmetry_group_IT_number 25
_symmetry_cell_setting 'orthorhombic'
loop_
_space_group_symop_operation_xyz
x,y,z
-x,-y,z
-x,y,z
x,-y,z
loop_
_atom_site_type_symbol
_atom_site_label
_atom_site_fract_x
_atom_site_fract_y
_atom_site_fract_z
Si Si1 0.719844 0.324312 0.219860
Si Si2 0.115899 0.821568 0.723494
Si Si3 0.500000 0.322615 0.197160
Si Si4 0.707572 0.677519 0.896178
Si Si5 0.112700 0.821778 0.404305
Si Si6 0.500000 0.823254 0.900235
O O1 0.736764 0.500000 0.232193
O O2 0.605696 0.293079 0.269352
O O3 0.803054 0.241356 0.305988
O O4 0.721783 0.287862 0.057983
O O5 0.197544 0.738940 0.814213
O O6 0.129799 0.782852 0.563421
O O7 0.000000 0.786052 0.759964
O O8 0.127600 0.000000 0.737054
O O9 0.500000 0.500000 0.159584
O O10 0.500000 0.227004 0.059252
O O11 0.698714 0.500000 0.883899
O O12 0.603912 0.753216 0.846283
O O13 0.000000 0.771115 0.366484
O O14 0.113619 0.000000 0.396981
O O15 0.500000 0.000000 0.886166
#
# Coordination Sequence:
#
# PCOD9337164 Si02
#       6
#     4   4   2   4   4   2
#     4   9  18  32  51  74 100 130 164 202 244 296
#     4   9  19  36  54  72  98 133 172 213 255 298
#     4   8  16  32  49  70 103 134 160 200 252 296
#     4  10  20  34  52  76 105 134 166 206 252 300
#     4   9  19  35  52  71  99 133 167 206 251 295
#     4  10  18  30  51  76 101 132 168 204 248 298
#
# _framework density 17.030529999999999
#
# number of rings (size 3 to 8) (size 9 to 14) (size 15 to 20)
#    0.000    2.800    0.000    3.900    0.000    6.400 
#    0.000    7.000    0.000    4.800    0.000    0.000 
#    0.000    0.000    0.000    0.000    0.000    0.000 
#
# Total GULP energy -111439.533484 kJ/mol
# GULP energy per Si atom -5571.976674 kJ/mol
# Density = 1.699177 g / cm^3
# Si number density = 17.030530 Si / 1000 Ang^3
#
#
#
# Elastic Constant Matrix: (Units=GPa)
#
#
# Indices 1 2 3 4 5 6 
#
# 1 192.8479 73.8056 85.4472 0.0000 0.0000 0.0000
# 2 73.8056 51.6670 39.1990 0.0000 0.0000 0.0000
# 3 85.4472 39.1990 53.8521 0.0000 0.0000 0.0000
# 4 0.0000 0.0000 0.0000 18.0365 0.0000 0.0000
# 5 0.0000 0.0000 0.0000 0.0000 -67.0271 0.0000
# 6 0.0000 0.0000 0.0000 0.0000 0.0000 30.8431
#
#
#
# Elastic Compliance Matrix: (Units=1/GPa)
#
#
# Indices 1 2 3 4 5 6 
#
# 1 0.019439 -0.009754 -0.023743 0.000000 0.000000 0.000000
# 2 -0.009754 0.048121 -0.019550 0.000000 0.000000 0.000000
# 3 -0.023743 -0.019550 0.070473 0.000000 0.000000 0.000000
# 4 0.000000 0.000000 0.000000 0.055443 0.000000 0.000000
# 5 0.000000 0.000000 0.000000 0.000000 -0.014919 0.000000
# 6 0.000000 0.000000 0.000000 0.000000 0.000000 0.032422
#
#
# Mechanical properties :
#
#
# Convention : Reuss Voigt Hill
#
# Bulk Modulus (GPa) = 31.31099 77.25229 54.28164
# Shear Modulus (GPa) = 15.25689 3.03151 9.14420
#
# Velocity S-wave (km/s) = 2.99633 1.33563 2.31969
# Velocity P-wave (km/s) = 5.51324 6.91651 6.25435
#
# Compressibility (1/GPa) = 0.03193767
#
# Stress axis : x y z
#
# Youngs Moduli (GPa) = 51.44370 20.78088 14.18974
#
# Poissons Ratio (x) = 0.20270 0.33691
# Poissons Ratio (y) = 0.50180 0.27741
# Poissons Ratio (z) = 1.22144 0.40627
#
# Static dielectric constant tensor:
#      x y z
#    x 1.591640 0.000000 0.000000 
#    y 0.000000 1.567230 0.000000 
#    z 0.000000 0.000000 1.555870 
# 
# From -- ./inp_files/3009.got.cif
#   From: 2010.05.17/outbox.cif.g08.bks.cpg/sg25_2_cif.got.tgz:3009.got - 2010.06.04 01:04:00.
