data_PCOD9337037
_publ_section_title
;
Structure prediction by ZEFSAII (Michael W. Deem and Ramdas Pophale) SiO2 
 PCOD9337037
Probable space group: I 21 21 21
;
_chemical_formula_sum "Si O2"
_cell_formula_units_Z 18
_cell_length_a 21.000000
_cell_length_b 9.000000
_cell_length_c 9.000000
_cell_angle_alpha 90.000000
_cell_angle_beta 90.000000
_cell_angle_gamma 90.000000
_cell_volume 1701.000000
_symmetry_space_group_name_H-M "I 21 21 21"
_symmetry_group_IT_number 24
_symmetry_cell_setting 'orthorhombic'
loop_
_space_group_symop_operation_xyz
x,y,z
-x,1/2-y,z
x,-y,1/2-z
1/2-x,y,-z
1/2+x,1/2+y,1/2+z
1/2-x,-y,1/2+z
1/2+x,1/2-y,-z
-x,1/2+y,1/2-z
loop_
_atom_site_type_symbol
_atom_site_label
_atom_site_fract_x
_atom_site_fract_y
_atom_site_fract_z
Si Si1 0.350811 0.710902 0.347142
Si Si2 0.825313 0.910237 0.982405
Si Si3 0.750000 0.572748 0.500000
Si Si4 0.953920 0.370735 0.665730
Si Si5 0.865306 0.605347 0.113147
O O1 0.356891 0.573959 0.463310
O O2 0.331234 0.655385 0.183456
O O3 0.296837 0.822122 0.406290
O O4 0.414554 0.796901 0.301081
O O5 0.750000 0.934179 0.000000
O O6 0.853449 0.787124 0.099632
O O7 0.795851 0.464134 0.410420
O O8 0.991516 0.500000 0.750000
O O9 0.907802 0.422070 0.533791
O O10 0.000000 0.250000 0.597600
O O11 0.890711 0.500000 0.250000
#
# Coordination Sequence:
#
# PCOD9337037 Si02
#       5
#     8   8   4   8   8
#     4  10  22  36  61  96 136 178 224 283 348 410
#     4  10  19  35  56  91 137 175 209 265 347 425
#     4  12  20  36  64 102 144 170 226 286 362 428
#     4  11  25  45  69  95 132 187 241 285 336 417
#     4  11  24  39  65  99 136 180 223 291 357 414
#
# _framework density 10.582011
#
# number of rings (size 3 to 8) (size 9 to 14) (size 15 to 20)
#    0.000    1.333    4.444    1.333    9.333    0.000 
#    0.000    1.111    0.000    0.000    0.000    0.000 
#    0.000    0.000    0.000    0.000    0.000    0.000 
#
# Total GULP energy -100216.088635 kJ/mol
# GULP energy per Si atom -5567.560480 kJ/mol
# Density = 1.055793 g / cm^3
# Si number density = 10.582011 Si / 1000 Ang^3
#
#
#
# Elastic Constant Matrix: (Units=GPa)
#
#
# Indices 1 2 3 4 5 6 
#
# 1 39.8446 26.1334 18.6792 0.0000 0.0000 0.0000
# 2 26.1334 109.2673 64.5033 0.0000 0.0000 0.0000
# 3 18.6792 64.5033 48.2558 0.0000 0.0000 0.0000
# 4 0.0000 0.0000 0.0000 36.2409 0.0000 0.0000
# 5 0.0000 0.0000 0.0000 0.0000 8.4407 0.0000
# 6 0.0000 0.0000 0.0000 0.0000 0.0000 29.9056
#
#
#
# Elastic Compliance Matrix: (Units=1/GPa)
#
#
# Indices 1 2 3 4 5 6 
#
# 1 0.030717 -0.001553 -0.009814 0.000000 0.000000 0.000000
# 2 -0.001553 0.043470 -0.057505 0.000000 0.000000 0.000000
# 3 -0.009814 -0.057505 0.101388 0.000000 0.000000 0.000000
# 4 0.000000 0.000000 0.000000 0.027593 0.000000 0.000000
# 5 0.000000 0.000000 0.000000 0.000000 0.118474 0.000000
# 6 0.000000 0.000000 0.000000 0.000000 0.000000 0.033439
#
#
# Mechanical properties :
#
#
# Convention : Reuss Voigt Hill
#
# Bulk Modulus (GPa) = 26.43336 46.22217 36.32776
# Shear Modulus (GPa) = 9.89246 20.78755 15.34001
#
# Velocity S-wave (km/s) = 2.16433 3.13743 2.69516
# Velocity P-wave (km/s) = 4.33159 5.91709 5.18530
#
# Compressibility (1/GPa) = 0.03783099
#
# Stress axis : x y z
#
# Youngs Moduli (GPa) = 32.55525 23.00443 9.86306
#
# Poissons Ratio (x) = 0.03572 0.09680
# Poissons Ratio (y) = 0.05055 0.56717
# Poissons Ratio (z) = 0.31951 1.32287
#
# Static dielectric constant tensor:
#      x y z
#    x 1.750720 0.000000 0.000000 
#    y 0.000000 1.911080 0.000000 
#    z 0.000000 0.000000 1.751910 
# 
# From -- ./inp_files/14812.got.cif
#   From: 2010.05.17/outbox.ucp.g08.bks.cvg/sg24_8_cif.got.tgz:14812.got - 2010.06.11 15:20:44.
