data_PCOD9337372
_publ_section_title
;
Structure prediction by ZEFSAII (Michael W. Deem and Ramdas Pophale) SiO2 
 PCOD9337372
Probable space group: P M M 2
;
_chemical_formula_sum "Si O2"
_cell_formula_units_Z 32
_cell_length_a 7.419320
_cell_length_b 9.605305
_cell_length_c 21.168001
_cell_angle_alpha 90.000000
_cell_angle_beta 90.000000
_cell_angle_gamma 90.000000
_cell_volume 1508.534024
_symmetry_space_group_name_H-M "P M M 2"
_symmetry_group_IT_number 25
_symmetry_cell_setting 'orthorhombic'
loop_
_space_group_symop_operation_xyz
x,y,z
-x,-y,z
-x,y,z
x,-y,z
loop_
_atom_site_type_symbol
_atom_site_label
_atom_site_fract_x
_atom_site_fract_y
_atom_site_fract_z
Si Si1 0.719729 0.339525 0.914050
Si Si2 0.784774 0.658504 0.155086
Si Si3 0.220546 0.839643 0.274239
Si Si4 0.280126 0.659772 0.771556
Si Si5 0.219523 0.660332 0.393319
Si Si6 0.713808 0.844374 0.656010
Si Si7 0.783397 0.342528 0.535422
Si Si8 0.283929 0.158085 0.031358
O O1 0.500000 0.338843 0.914856
O O2 0.773948 0.500000 0.926244
O O3 0.774791 0.300914 0.842763
O O4 0.782924 0.235723 0.968365
O O5 0.714860 0.500000 0.151799
O O6 0.718282 0.746689 0.215061
O O7 0.752557 0.745670 0.091692
O O8 0.000000 0.648319 0.162813
O O9 0.278311 0.765476 0.339070
O O10 0.000000 0.840225 0.273781
O O11 0.277844 0.000000 0.269456
O O12 0.500000 0.661038 0.771148
O O13 0.225800 0.500000 0.760227
O O14 0.214287 0.757924 0.715628
O O15 0.272531 0.500000 0.380177
O O16 0.277853 0.696233 0.464650
O O17 0.000000 0.661773 0.392914
O O18 0.500000 0.854939 0.666565
O O19 0.735957 0.761399 0.591018
O O20 0.787785 0.000000 0.651902
O O21 0.719666 0.500000 0.549235
O O22 0.000000 0.347479 0.532869
O O23 0.500000 0.149404 0.025586
O O24 0.215866 0.000000 0.038791
#
# Coordination Sequence:
#
# PCOD9337372 Si02
#       8
#     4   4   4   4   4   4   4   4
#     4   8  14  26  45  68  92 119 154 194 232 272
#     4  10  20  33  50  71  95 126 162 197 233 274
#     4   9  16  26  43  68  95 121 151 190 235 279
#     4   8  14  26  45  67  90 119 156 195 232 271
#     4   8  14  26  44  66  91 117 149 191 234 276
#     4  10  20  31  45  69  99 128 157 191 234 282
#     4   9  18  32  50  71  94 123 159 196 234 277
#     4  10  20  32  48  72 100 128 156 189 234 284
#
# _framework density 21.212648999999999
#
# number of rings (size 3 to 8) (size 9 to 14) (size 15 to 20)
#    0.000    3.000    0.000    3.000    0.000    5.000 
#    0.000    3.750    0.000    1.500    0.000    8.750 
#    0.000    0.000    0.000    0.000    0.000    0.000 
#
# Total GULP energy -178654.294144 kJ/mol
# GULP energy per Si atom -5582.946692 kJ/mol
# Density = 2.116437 g / cm^3
# Si number density = 21.212649 Si / 1000 Ang^3
#
#
#
# Elastic Constant Matrix: (Units=GPa)
#
#
# Indices 1 2 3 4 5 6 
#
# 1 68.1770 6.8727 2.1718 0.0000 0.0000 0.0000
# 2 6.8727 210.6035 165.8178 0.0000 0.0000 0.0000
# 3 2.1718 165.8178 212.7130 0.0000 0.0000 0.0000
# 4 0.0000 0.0000 0.0000 101.5271 0.0000 0.0000
# 5 0.0000 0.0000 0.0000 0.0000 17.5458 0.0000
# 6 0.0000 0.0000 0.0000 0.0000 0.0000 6.8173
#
#
#
# Elastic Compliance Matrix: (Units=1/GPa)
#
#
# Indices 1 2 3 4 5 6 
#
# 1 0.014744 -0.000939 0.000581 0.000000 0.000000 0.000000
# 2 -0.000939 0.012354 -0.009620 0.000000 0.000000 0.000000
# 3 0.000581 -0.009620 0.012195 0.000000 0.000000 0.000000
# 4 0.000000 0.000000 0.000000 0.009850 0.000000 0.000000
# 5 0.000000 0.000000 0.000000 0.000000 0.056994 0.000000
# 6 0.000000 0.000000 0.000000 0.000000 0.000000 0.146686
#
#
# Mechanical properties :
#
#
# Convention : Reuss Voigt Hill
#
# Bulk Modulus (GPa) = 51.71661 93.46868 72.59264
# Shear Modulus (GPa) = 17.90686 46.28679 32.09682
#
# Velocity S-wave (km/s) = 2.90859 4.67630 3.89408
# Velocity P-wave (km/s) = 5.97603 8.56244 7.38337
#
# Compressibility (1/GPa) = 0.01933615
#
# Stress axis : x y z
#
# Youngs Moduli (GPa) = 67.82500 80.94866 82.00268
#
# Poissons Ratio (x) = 0.07600 -0.04767
# Poissons Ratio (y) = 0.06368 0.78890
# Poissons Ratio (z) = -0.03943 0.77876
#
# Static dielectric constant tensor:
#      x y z
#    x 1.854960 0.000000 0.000000 
#    y 0.000000 1.719700 0.000000 
#    z 0.000000 0.000000 1.728860 
# 
# From -- ./inp_files/6284.got.cif
#   From: 2010.05.17/outbox.cif.g08.bks.cpg/sg25_4_cif.got.tgz:6284.got - 2010.06.04 01:04:00.
