data_PCOD9337598
_publ_section_title
;
Structure prediction by ZEFSAII (Michael W. Deem and Ramdas Pophale) SiO2 
 PCOD9337598
Probable space group: P M M 2
;
_chemical_formula_sum "Si O2"
_cell_formula_units_Z 28
_cell_length_a 7.627049
_cell_length_b 19.787267
_cell_length_c 8.336910
_cell_angle_alpha 90.000000
_cell_angle_beta 90.000000
_cell_angle_gamma 90.000000
_cell_volume 1258.193577
_symmetry_space_group_name_H-M "P M M 2"
_symmetry_group_IT_number 25
_symmetry_cell_setting 'orthorhombic'
loop_
_space_group_symop_operation_xyz
x,y,z
-x,-y,z
-x,y,z
x,-y,z
loop_
_atom_site_type_symbol
_atom_site_label
_atom_site_fract_x
_atom_site_fract_y
_atom_site_fract_z
Si Si1 0.788088 0.426483 0.235010
Si Si2 0.297346 0.146497 0.883760
Si Si3 0.286030 0.078811 0.557423
Si Si4 0.203863 0.720519 0.738329
Si Si5 0.292859 0.425802 0.857383
Si Si6 0.291439 0.850977 0.232395
Si Si7 0.212234 0.287299 0.381590
O O1 0.727087 0.500000 0.294905
O O2 0.724087 0.361035 0.328962
O O3 0.000000 0.426015 0.242520
O O4 0.737966 0.421184 0.048400
O O5 0.500000 0.124353 0.888443
O O6 0.221938 0.114564 0.720677
O O7 0.292972 0.227514 0.859207
O O8 0.218910 0.129317 0.057586
O O9 0.500000 0.084902 0.555729
O O10 0.221347 0.112592 0.392132
O O11 0.242500 0.000000 0.560411
O O12 0.217048 0.641541 0.779613
O O13 0.276391 0.730784 0.559394
O O14 0.000000 0.738959 0.740866
O O15 0.500000 0.424998 0.827218
O O16 0.223628 0.500000 0.805552
O O17 0.500000 0.864003 0.227992
O O18 0.264490 0.771324 0.260527
O O19 0.000000 0.289598 0.387850
#
# Coordination Sequence:
#
# PCOD9337598 Si02
#       7
#     4   4   4   4   4   4   4
#     4   9  18  34  54  75 102 138 181 229 278 328
#     4  10  20  35  57  84 113 147 186 228 275 328
#     4   9  18  34  56  84 117 147 178 223 275 327
#     4  11  22  35  54  79 108 145 187 231 278 329
#     4  10  21  36  53  76 107 142 182 229 280 333
#     4  10  20  34  56  83 110 145 184 224 273 327
#     4  10  21  35  53  78 107 142 184 230 276 325
#
# _framework density 22.254124999999998
#
# number of rings (size 3 to 8) (size 9 to 14) (size 15 to 20)
#    0.000    2.143    1.429    1.714    0.000    6.000 
#    0.000    4.286    0.000    3.429    0.000    2.000 
#    0.000    0.000    0.000    0.000    0.000    0.000 
#
# Total GULP energy -156365.000274 kJ/mol
# GULP energy per Si atom -5584.464295 kJ/mol
# Density = 2.220347 g / cm^3
# Si number density = 22.254125 Si / 1000 Ang^3
#
#
#
# Elastic Constant Matrix: (Units=GPa)
#
#
# Indices 1 2 3 4 5 6 
#
# 1 50.9999 -1.4917 5.8284 0.0000 0.0000 0.0000
# 2 -1.4917 115.1409 68.1411 0.0000 0.0000 0.0000
# 3 5.8284 68.1411 168.2857 0.0000 0.0000 0.0000
# 4 0.0000 0.0000 0.0000 20.2185 0.0000 0.0000
# 5 0.0000 0.0000 0.0000 0.0000 8.7228 0.0000
# 6 0.0000 0.0000 0.0000 0.0000 0.0000 29.6874
#
#
#
# Elastic Compliance Matrix: (Units=1/GPa)
#
#
# Indices 1 2 3 4 5 6 
#
# 1 0.019752 0.000869 -0.001036 0.000000 0.000000 0.000000
# 2 0.000869 0.011460 -0.004671 0.000000 0.000000 0.000000
# 3 -0.001036 -0.004671 0.007869 0.000000 0.000000 0.000000
# 4 0.000000 0.000000 0.000000 0.049460 0.000000 0.000000
# 5 0.000000 0.000000 0.000000 0.000000 0.114642 0.000000
# 6 0.000000 0.000000 0.000000 0.000000 0.000000 0.033684
#
#
# Mechanical properties :
#
#
# Convention : Reuss Voigt Hill
#
# Bulk Modulus (GPa) = 34.00628 53.26467 43.63548
# Shear Modulus (GPa) = 19.50500 29.18897 24.34698
#
# Velocity S-wave (km/s) = 2.96373 3.62556 3.31122
# Velocity P-wave (km/s) = 5.19862 6.44305 5.85400
#
# Compressibility (1/GPa) = 0.02940633
#
# Stress axis : x y z
#
# Youngs Moduli (GPa) = 50.62854 87.25761 127.07588
#
# Poissons Ratio (x) = -0.07582 0.13164
# Poissons Ratio (y) = -0.04399 0.59351
# Poissons Ratio (z) = 0.05245 0.40754
#
# Static dielectric constant tensor:
#      x y z
#    x 1.822560 0.000000 0.000000 
#    y 0.000000 1.798320 0.000000 
#    z 0.000000 0.000000 1.822010 
# 
# From -- ./inp_files/2310.got.cif
#   From: 2010.05.17/outbox.cif.g08.bks.cpg/sg25_2_cif.got.tgz:2310.got - 2010.06.04 01:04:00.
