data_PCOD9337442
_publ_section_title
;
Structure prediction by ZEFSAII (Michael W. Deem and Ramdas Pophale) SiO2 
 PCOD9337442
Probable space group: P M M 2
;
_chemical_formula_sum "Si O2"
_cell_formula_units_Z 24
_cell_length_a 7.529933
_cell_length_b 9.920826
_cell_length_c 15.571220
_cell_angle_alpha 90.000000
_cell_angle_beta 90.000000
_cell_angle_gamma 90.000000
_cell_volume 1163.219263
_symmetry_space_group_name_H-M "P M M 2"
_symmetry_group_IT_number 25
_symmetry_cell_setting 'orthorhombic'
loop_
_space_group_symop_operation_xyz
x,y,z
-x,-y,z
-x,y,z
x,-y,z
loop_
_atom_site_type_symbol
_atom_site_label
_atom_site_fract_x
_atom_site_fract_y
_atom_site_fract_z
Si Si1 0.786199 0.151694 0.630500
Si Si2 0.716915 0.153220 0.326252
Si Si3 0.710973 0.348221 0.475158
Si Si4 0.210973 0.651779 0.975159
Si Si5 0.286199 0.848307 0.130500
Si Si6 0.216915 0.846780 0.826251
O O1 0.734730 0.262864 0.561710
O O2 0.727637 0.180942 0.728138
O O3 0.000000 0.147641 0.632074
O O4 0.724170 0.000000 0.607087
O O5 0.500000 0.154620 0.327058
O O6 0.781963 0.260388 0.395568
O O7 0.772363 0.180939 0.228138
O O8 0.770302 0.000000 0.348446
O O9 0.500000 0.359012 0.461235
O O10 0.782930 0.500000 0.480644
O O11 0.282929 0.500000 0.980643
O O12 0.281962 0.739613 0.895568
O O13 0.000000 0.640990 0.961237
O O14 0.234734 0.737134 0.061711
O O15 0.500000 0.852364 0.132075
O O16 0.224167 0.000000 0.107085
O O17 0.000000 0.845381 0.827057
O O18 0.270303 0.000000 0.848444
#
# Coordination Sequence:
#
# PCOD9337442 Si02
#       6
#     4   4   4   4   4   4
#     4   9  18  33  53  75  96 122 161 204 242 283
#     4   8  15  30  51  71  92 123 163 202 238 280
#     4  10  20  32  48  73 102 130 160 194 236 288
#     4  10  20  32  48  73 102 130 160 194 236 288
#     4   9  18  33  53  75  96 122 161 204 242 283
#     4   8  15  30  51  71  92 123 163 202 238 280
#
# _framework density 20.632394000000001
#
# number of rings (size 3 to 8) (size 9 to 14) (size 15 to 20)
#    0.000    3.000    0.000    3.000    0.000    4.000 
#    0.000    5.000    0.000    2.000    0.000    0.000 
#    0.000    0.000    0.000    0.000    0.000    0.000 
#
# Total GULP energy -133934.992767 kJ/mol
# GULP energy per Si atom -5580.624699 kJ/mol
# Density = 2.058543 g / cm^3
# Si number density = 20.632394 Si / 1000 Ang^3
#
#
#
# Elastic Constant Matrix: (Units=GPa)
#
#
# Indices 1 2 3 4 5 6 
#
# 1 50.5947 7.4599 0.9227 0.0000 0.0000 0.0000
# 2 7.4599 225.0201 156.2416 0.0000 0.0000 0.0000
# 3 0.9227 156.2416 156.1394 0.0000 0.0000 0.0000
# 4 0.0000 0.0000 0.0000 -14.5726 0.0000 0.0000
# 5 0.0000 0.0000 0.0000 0.0000 22.1885 0.0000
# 6 0.0000 0.0000 0.0000 0.0000 0.0000 15.0584
#
#
#
# Elastic Compliance Matrix: (Units=1/GPa)
#
#
# Indices 1 2 3 4 5 6 
#
# 1 0.020013 -0.001905 0.001788 0.000000 0.000000 0.000000
# 2 -0.001905 0.014742 -0.014741 0.000000 0.000000 0.000000
# 3 0.001788 -0.014741 0.021144 0.000000 0.000000 0.000000
# 4 0.000000 0.000000 0.000000 -0.068622 0.000000 0.000000
# 5 0.000000 0.000000 0.000000 0.000000 0.045068 0.000000
# 6 0.000000 0.000000 0.000000 0.000000 0.000000 0.066408
#
#
# Mechanical properties :
#
#
# Convention : Reuss Voigt Hill
#
# Bulk Modulus (GPa) = 38.19072 84.55583 61.37328
# Shear Modulus (GPa) = 36.44353 22.34351 29.39352
#
# Velocity S-wave (km/s) = 4.20733 3.29437 3.77852
# Velocity P-wave (km/s) = 6.49249 7.45262 6.98906
#
# Compressibility (1/GPa) = 0.02618437
#
# Stress axis : x y z
#
# Youngs Moduli (GPa) = 49.96708 67.83157 47.29380
#
# Poissons Ratio (x) = 0.12921 -0.08455
# Poissons Ratio (y) = 0.09518 0.69715
# Poissons Ratio (z) = -0.08933 0.99989
#
# Static dielectric constant tensor:
#      x y z
#    x 1.799390 0.000000 0.000000 
#    y 0.000000 1.725460 0.000000 
#    z 0.000000 0.000000 1.709180 
# 
# From -- ./inp_files/3919.got.cif
#   From: 2010.05.17/outbox.cif.g08.bks.cpg/sg25_2_cif.got.tgz:3919.got - 2010.06.04 01:04:00.
