data_PCOD9337860
_publ_section_title
;
Structure prediction by ZEFSAII (Michael W. Deem and Ramdas Pophale) SiO2 
 PCOD9337860
Probable space group: P M M 2
;
_chemical_formula_sum "Si O2"
_cell_formula_units_Z 32
_cell_length_a 7.370879
_cell_length_b 24.762418
_cell_length_c 8.025495
_cell_angle_alpha 90.000000
_cell_angle_beta 90.000000
_cell_angle_gamma 90.000000
_cell_volume 1464.819662
_symmetry_space_group_name_H-M "P M M 2"
_symmetry_group_IT_number 25
_symmetry_cell_setting 'orthorhombic'
loop_
_space_group_symop_operation_xyz
x,y,z
-x,-y,z
-x,y,z
x,-y,z
loop_
_atom_site_type_symbol
_atom_site_label
_atom_site_fract_x
_atom_site_fract_y
_atom_site_fract_z
Si Si1 0.212636 0.367852 0.588220
Si Si2 0.222331 0.562539 0.898485
Si Si3 0.278577 0.131066 0.080595
Si Si4 0.718395 0.245907 0.590592
Si Si5 0.212637 0.367850 0.208748
Si Si6 0.721423 0.868932 0.716376
Si Si7 0.278292 0.062102 0.398487
Si Si8 0.718395 0.754094 0.206383
O O1 0.285802 0.406818 0.731471
O O2 0.227206 0.305570 0.646239
O O3 0.288242 0.371479 0.398484
O O4 0.000000 0.380394 0.574061
O O5 0.273695 0.500000 0.898487
O O6 0.000000 0.564970 0.898485
O O7 0.285801 0.593183 0.065497
O O8 0.500000 0.131068 0.084021
O O9 0.219667 0.094235 0.233959
O O10 0.220809 0.193154 0.107867
O O11 0.222233 0.111720 0.898485
O O12 0.500000 0.245217 0.592075
O O13 0.779191 0.193156 0.689108
O O14 0.777981 0.239998 0.398487
O O15 0.227211 0.305568 0.150731
O O16 0.000000 0.380391 0.222905
O O17 0.500000 0.868930 0.712949
O O18 0.780333 0.905763 0.563011
O O19 0.500000 0.062609 0.398487
O O20 0.221260 0.000000 0.398490
O O21 0.500000 0.754786 0.204901
#
# Coordination Sequence:
#
# PCOD9337860 Si02
#       8
#     4   4   4   4   4   4   4   4
#     4   9  18  31  47  69  94 118 147 187 227 264
#     4   9  18  32  49  69  93 121 152 185 224 270
#     4   9  16  25  38  58  83 113 148 183 221 266
#     4   9  16  28  46  66  91 121 151 183 223 273
#     4   9  18  31  47  69  94 118 147 187 227 264
#     4   9  16  25  38  58  83 113 148 183 221 266
#     4   9  16  26  38  54  83 119 152 187 222 260
#     4   9  16  28  46  66  91 121 151 183 223 273
#
# _framework density 21.845693000000001
#
# number of rings (size 3 to 8) (size 9 to 14) (size 15 to 20)
#    0.000    3.000    1.250    0.000    1.750    1.000 
#    0.000    5.000    0.000    1.500    0.000    3.500 
#    0.000    2.000    0.000    2.250    0.000    2.500 
#
# Total GULP energy -178623.142897 kJ/mol
# GULP energy per Si atom -5581.973216 kJ/mol
# Density = 2.179597 g / cm^3
# Si number density = 21.845693 Si / 1000 Ang^3
#
#
#
# Elastic Constant Matrix: (Units=GPa)
#
#
# Indices 1 2 3 4 5 6 
#
# 1 76.1691 -0.6679 6.8185 0.0000 0.0000 0.0000
# 2 -0.6679 178.8737 133.8300 0.0000 0.0000 0.0000
# 3 6.8185 133.8300 190.0149 0.0000 0.0000 0.0000
# 4 0.0000 0.0000 0.0000 -34.1752 0.0000 0.0000
# 5 0.0000 0.0000 0.0000 0.0000 15.7414 0.0000
# 6 0.0000 0.0000 0.0000 0.0000 0.0000 14.8347
#
#
#
# Elastic Compliance Matrix: (Units=1/GPa)
#
#
# Indices 1 2 3 4 5 6 
#
# 1 0.013233 0.000855 -0.001077 0.000000 0.000000 0.000000
# 2 0.000855 0.011873 -0.008393 0.000000 0.000000 0.000000
# 3 -0.001077 -0.008393 0.011213 0.000000 0.000000 0.000000
# 4 0.000000 0.000000 0.000000 -0.029261 0.000000 0.000000
# 5 0.000000 0.000000 0.000000 0.000000 0.063527 0.000000
# 6 0.000000 0.000000 0.000000 0.000000 0.000000 0.067410
#
#
# Mechanical properties :
#
#
# Convention : Reuss Voigt Hill
#
# Bulk Modulus (GPa) = 52.38731 80.55764 66.47248
# Shear Modulus (GPa) = 30.94297 19.61866 25.28081
#
# Velocity S-wave (km/s) = 3.76764 3.00001 3.40552
# Velocity P-wave (km/s) = 6.55435 6.99685 6.77921
#
# Compressibility (1/GPa) = 0.01908859
#
# Stress axis : x y z
#
# Youngs Moduli (GPa) = 75.57075 84.22139 89.18269
#
# Poissons Ratio (x) = -0.07205 0.09608
# Poissons Ratio (y) = -0.06465 0.74854
# Poissons Ratio (z) = 0.08142 0.70690
#
# Static dielectric constant tensor:
#      x y z
#    x 1.856890 0.000000 0.000000 
#    y 0.000000 1.741800 0.000000 
#    z 0.000000 0.000000 1.792830 
# 
# From -- ./inp_files/2923.got.cif
#   From: 2010.05.17/outbox.cif.g08.bks.cpg/sg25_2_cif.got.tgz:2923.got - 2010.06.04 01:04:00.
