data_PCOD9337974
_publ_section_title
;
Structure prediction by ZEFSAII (Michael W. Deem and Ramdas Pophale) SiO2 
 PCOD9337974
Probable space group: P M C 21
;
_chemical_formula_sum "Si O2"
_cell_formula_units_Z 32
_cell_length_a 7.799214
_cell_length_b 11.918361
_cell_length_c 16.556612
_cell_angle_alpha 90.000000
_cell_angle_beta 90.000000
_cell_angle_gamma 90.000000
_cell_volume 1539.000795
_symmetry_space_group_name_H-M "P M C 21"
_symmetry_group_IT_number 26
_symmetry_cell_setting 'orthorhombic'
loop_
_space_group_symop_operation_xyz
x,y,z
-x,-y,1/2+z
-x,y,z
x,-y,1/2+z
loop_
_atom_site_type_symbol
_atom_site_label
_atom_site_fract_x
_atom_site_fract_y
_atom_site_fract_z
Si Si1 0.197076 0.551103 0.144930
Si Si2 0.199585 0.414346 0.899555
Si Si3 0.710107 0.923968 0.381301
Si Si4 0.307691 0.738361 0.262020
Si Si5 0.207132 0.634914 0.975163
Si Si6 0.295850 0.177205 0.360447
Si Si7 0.704478 0.694038 0.701685
Si Si8 0.708275 0.761279 0.526370
O O1 0.209161 0.664538 0.197241
O O2 0.266646 0.439652 0.188854
O O3 0.000000 0.522897 0.130310
O O4 0.277368 0.587726 0.059510
O O5 0.312552 0.345705 0.838008
O O6 0.254053 0.541742 0.908842
O O7 0.000000 0.409303 0.874422
O O8 0.219205 0.350905 0.984604
O O9 0.500000 0.921099 0.380374
O O10 0.766332 0.849491 0.304062
O O11 0.760526 0.861989 0.465269
O O12 0.770474 0.050864 0.371001
O O13 0.500000 0.761073 0.231984
O O14 0.266207 0.753204 0.942115
O O15 0.000000 0.637052 0.980414
O O16 0.500000 0.166964 0.349016
O O17 0.226229 0.247742 0.283364
O O18 0.500000 0.707376 0.704204
O O19 0.764164 0.757660 0.619665
O O20 0.500000 0.756523 0.525078
#
# Coordination Sequence:
#
# PCOD9337974 Si02
#       8
#     4   4   4   4   4   4   4   4
#     4  11  22  37  55  80 114 145 180 225 277 337
#     4  10  18  32  54  80 108 143 178 216 275 330
#     4   8  17  36  56  78 109 142 182 226 271 323
#     4  10  20  35  56  83 109 139 179 226 272 321
#     4  10  22  37  52  75 111 147 178 221 274 329
#     4  10  21  37  56  81 111 146 186 229 276 328
#     4  10  20  34  56  85 112 141 184 234 281 329
#     4   9  17  32  55  80 108 143 183 231 274 319
#
# _framework density 20.792711000000001
#
# number of rings (size 3 to 8) (size 9 to 14) (size 15 to 20)
#    0.000    2.250    1.250    2.625    0.000    4.500 
#    2.250    3.125    0.000    0.000    0.000    0.000 
#    0.000    0.000    0.000    0.000    0.000    0.000 
#
# Total GULP energy -178405.817576 kJ/mol
# GULP energy per Si atom -5575.181799 kJ/mol
# Density = 2.074539 g / cm^3
# Si number density = 20.792711 Si / 1000 Ang^3
#
#
#
# Elastic Constant Matrix: (Units=GPa)
#
#
# Indices 1 2 3 4 5 6 
#
# 1 27.3820 1.3564 -3.7047 0.0000 0.0000 0.0000
# 2 1.3564 168.0953 52.5763 0.0000 0.0000 0.0000
# 3 -3.7047 52.5763 74.7703 0.0000 0.0000 0.0000
# 4 0.0000 0.0000 0.0000 26.1441 0.0000 0.0000
# 5 0.0000 0.0000 0.0000 0.0000 13.0704 0.0000
# 6 0.0000 0.0000 0.0000 0.0000 0.0000 27.0170
#
#
#
# Elastic Compliance Matrix: (Units=1/GPa)
#
#
# Indices 1 2 3 4 5 6 
#
# 1 0.036929 -0.001116 0.002614 0.000000 0.000000 0.000000
# 2 -0.001116 0.007660 -0.005442 0.000000 0.000000 0.000000
# 3 0.002614 -0.005442 0.017330 0.000000 0.000000 0.000000
# 4 0.000000 0.000000 0.000000 0.038250 0.000000 0.000000
# 5 0.000000 0.000000 0.000000 0.000000 0.076509 0.000000
# 6 0.000000 0.000000 0.000000 0.000000 0.000000 0.037014
#
#
# Mechanical properties :
#
#
# Convention : Reuss Voigt Hill
#
# Bulk Modulus (GPa) = 18.50699 41.18928 29.84813
# Shear Modulus (GPa) = 20.86909 27.91427 24.39168
#
# Velocity S-wave (km/s) = 3.17152 3.66799 3.42875
# Velocity P-wave (km/s) = 4.72561 6.14747 5.48283
#
# Compressibility (1/GPa) = 0.05403364
#
# Stress axis : x y z
#
# Youngs Moduli (GPa) = 27.07871 130.54814 57.70280
#
# Poissons Ratio (x) = 0.14565 -0.15085
# Poissons Ratio (y) = 0.03021 0.31399
# Poissons Ratio (z) = -0.07079 0.71039
#
# Static dielectric constant tensor:
#      x y z
#    x 1.756740 0.000000 0.000000 
#    y 0.000000 1.732820 0.000000 
#    z 0.000000 0.000000 1.825660 
# 
# From -- ./inp_files/4251.got.cif
#   From: 2010.05.17/outbox.cif.g08.bks.cpg/sg26_3_cif.got.tgz:4251.got - 2010.06.04 01:07:29.
