data_PCOD9337138
_publ_section_title
;
Structure prediction by ZEFSAII (Michael W. Deem and Ramdas Pophale) SiO2 
 PCOD9337138
Probable space group: P M M 2
;
_chemical_formula_sum "Si O2"
_cell_formula_units_Z 28
_cell_length_a 14.857249
_cell_length_b 7.882581
_cell_length_c 13.293012
_cell_angle_alpha 90.000000
_cell_angle_beta 90.000000
_cell_angle_gamma 90.000000
_cell_volume 1556.790745
_symmetry_space_group_name_H-M "P M M 2"
_symmetry_group_IT_number 25
_symmetry_cell_setting 'orthorhombic'
loop_
_space_group_symop_operation_xyz
x,y,z
-x,-y,z
-x,y,z
x,-y,z
loop_
_atom_site_type_symbol
_atom_site_label
_atom_site_fract_x
_atom_site_fract_y
_atom_site_fract_z
Si Si1 0.292664 0.300065 0.714240
Si Si2 0.282100 0.299787 0.106049
Si Si3 0.899938 0.202196 0.779889
Si Si4 0.396179 0.292360 0.292734
Si Si5 0.604078 0.293204 0.518813
Si Si6 0.900118 0.294444 0.014248
Si Si7 0.602926 0.199781 0.914731
O O1 0.311034 0.500000 0.718649
O O2 0.185960 0.273265 0.722238
O O3 0.334322 0.232785 0.610255
O O4 0.342193 0.224651 0.811704
O O5 0.269715 0.500000 0.124747
O O6 0.332142 0.229178 0.203982
O O7 0.183918 0.228765 0.078332
O O8 0.344812 0.282084 0.007895
O O9 0.000000 0.265686 0.751078
O O10 0.899204 0.000000 0.768502
O O11 0.887682 0.243417 0.898000
O O12 0.500000 0.242247 0.274724
O O13 0.395391 0.500000 0.291282
O O14 0.370373 0.238948 0.405856
O O15 0.500000 0.244893 0.536411
O O16 0.606823 0.500000 0.518192
O O17 0.898875 0.500000 0.016863
O O18 0.000000 0.237655 0.046007
O O19 0.500000 0.262829 0.904966
O O20 0.599840 0.000000 0.935854
#
# Coordination Sequence:
#
# PCOD9337138 Si02
#       7
#     4   4   4   4   4   4   4
#     4  11  20  31  50  73  96 125 162 204 245 288
#     4  10  18  29  49  73  95 125 161 198 240 288
#     4  10  20  33  49  69  95 128 162 196 239 293
#     4   8  14  26  45  69  95 123 160 202 239 281
#     4   8  15  28  46  69  96 126 161 201 241 281
#     4   9  17  29  45  68  97 126 158 196 236 280
#     4  11  23  34  44  65 100 134 159 192 242 295
#
# _framework density 17.985720000000001
#
# number of rings (size 3 to 8) (size 9 to 14) (size 15 to 20)
#    0.000    2.429    1.429    3.000    0.000    3.143 
#    0.000    0.000    0.000    2.571    0.000   10.000 
#    0.000    2.286    0.000    0.000    0.000    0.000 
#
# Total GULP energy -156164.022711 kJ/mol
# GULP energy per Si atom -5577.286525 kJ/mol
# Density = 1.794478 g / cm^3
# Si number density = 17.985720 Si / 1000 Ang^3
#
#
#
# Elastic Constant Matrix: (Units=GPa)
#
#
# Indices 1 2 3 4 5 6 
#
# 1 125.3046 -9.3327 73.6645 0.0000 0.0000 0.0000
# 2 -9.3327 16.1838 -10.0619 0.0000 0.0000 0.0000
# 3 73.6645 -10.0619 118.9473 0.0000 0.0000 0.0000
# 4 0.0000 0.0000 0.0000 -33.1712 0.0000 0.0000
# 5 0.0000 0.0000 0.0000 0.0000 22.6566 0.0000
# 6 0.0000 0.0000 0.0000 0.0000 0.0000 14.1440
#
#
#
# Elastic Compliance Matrix: (Units=1/GPa)
#
#
# Indices 1 2 3 4 5 6 
#
# 1 0.012649 0.002559 -0.007617 0.000000 0.000000 0.000000
# 2 0.002559 0.065738 0.003976 0.000000 0.000000 0.000000
# 3 -0.007617 0.003976 0.013461 0.000000 0.000000 0.000000
# 4 0.000000 0.000000 0.000000 -0.030147 0.000000 0.000000
# 5 0.000000 0.000000 0.000000 0.000000 0.044137 0.000000
# 6 0.000000 0.000000 0.000000 0.000000 0.000000 0.070701
#
#
# Mechanical properties :
#
#
# Convention : Reuss Voigt Hill
#
# Bulk Modulus (GPa) = 11.15040 40.99729 26.07385
# Shear Modulus (GPa) = 23.96947 14.47028 19.21987
#
# Velocity S-wave (km/s) = 3.65457 2.83952 3.27252
# Velocity P-wave (km/s) = 4.90111 5.79606 5.36727
#
# Compressibility (1/GPa) = 0.08968285
#
# Stress axis : x y z
#
# Youngs Moduli (GPa) = 79.05662 15.21198 74.28967
#
# Poissons Ratio (x) = -0.03892 0.56588
# Poissons Ratio (y) = -0.20227 -0.29540
# Poissons Ratio (z) = 0.60219 -0.06049
#
# Static dielectric constant tensor:
#      x y z
#    x 1.636190 0.000000 0.000000 
#    y 0.000000 1.644700 0.000000 
#    z 0.000000 0.000000 1.596980 
# 
# From -- ./inp_files/4803.got.cif
#   From: 2010.05.17/outbox.cif.g08.bks.cpg/sg25_3_cif.got.tgz:4803.got - 2010.06.04 01:04:00.
