data_PCOD9337176
_publ_section_title
;
Structure prediction by ZEFSAII (Michael W. Deem and Ramdas Pophale) SiO2 
 PCOD9337176
Probable space group: P M M 2
;
_chemical_formula_sum "Si O2"
_cell_formula_units_Z 32
_cell_length_a 7.610860
_cell_length_b 19.653247
_cell_length_c 10.863862
_cell_angle_alpha 90.000000
_cell_angle_beta 90.000000
_cell_angle_gamma 90.000000
_cell_volume 1624.995961
_symmetry_space_group_name_H-M "P M M 2"
_symmetry_group_IT_number 25
_symmetry_cell_setting 'orthorhombic'
loop_
_space_group_symop_operation_xyz
x,y,z
-x,-y,z
-x,y,z
x,-y,z
loop_
_atom_site_type_symbol
_atom_site_label
_atom_site_fract_x
_atom_site_fract_y
_atom_site_fract_z
Si Si1 0.288111 0.076702 0.271260
Si Si2 0.783902 0.283763 0.915845
Si Si3 0.287746 0.923180 0.553671
Si Si4 0.794081 0.784958 0.666287
Si Si5 0.206152 0.716865 0.419788
Si Si6 0.709739 0.423466 0.523465
Si Si7 0.791660 0.219096 0.169145
Si Si8 0.210223 0.424074 0.810036
O O1 0.500000 0.075765 0.272782
O O2 0.230081 0.091069 0.412468
O O3 0.231985 0.138283 0.184867
O O4 0.229201 0.000000 0.238859
O O5 0.723863 0.241775 0.795656
O O6 0.727269 0.361700 0.893174
O O7 0.000000 0.282880 0.917280
O O8 0.721655 0.250362 0.042585
O O9 0.500000 0.921672 0.554001
O O10 0.222808 0.865115 0.644193
O O11 0.232451 0.000000 0.584355
O O12 0.715380 0.750066 0.543801
O O13 0.000000 0.766302 0.667861
O O14 0.220390 0.636114 0.437222
O O15 0.282288 0.745759 0.292997
O O16 0.000000 0.735523 0.418609
O O17 0.500000 0.423715 0.513285
O O18 0.775034 0.500000 0.496982
O O19 0.755326 0.408313 0.666119
O O20 0.000000 0.232803 0.167460
O O21 0.280994 0.500000 0.835081
O O22 0.000000 0.426941 0.824163
#
# Coordination Sequence:
#
# PCOD9337176 Si02
#       8
#     4   4   4   4   4   4   4   4
#     4   9  18  33  52  74 101 132 167 207 251 301
#     4   9  18  33  50  73 105 133 161 204 252 297
#     4   9  18  32  50  74 102 130 164 208 253 294
#     4  10  18  31  51  75 101 128 162 203 247 295
#     4  10  19  32  51  76 101 128 166 207 248 293
#     4  10  20  32  49  76 105 132 167 210 253 296
#     4  10  20  34  52  75 103 133 168 210 249 294
#     4   9  16  30  53  75  98 132 169 204 248 300
#
# _framework density 19.692356
#
# number of rings (size 3 to 8) (size 9 to 14) (size 15 to 20)
#    0.000    2.500    2.500    1.125    0.000    2.250 
#    0.000    3.750    0.000    6.000    0.000    1.750 
#    0.000    0.000    0.000    0.000    0.000    0.000 
#
# Total GULP energy -178506.646590 kJ/mol
# GULP energy per Si atom -5578.332706 kJ/mol
# Density = 1.964754 g / cm^3
# Si number density = 19.692356 Si / 1000 Ang^3
#
#
#
# Elastic Constant Matrix: (Units=GPa)
#
#
# Indices 1 2 3 4 5 6 
#
# 1 38.8969 -9.4131 11.1803 0.0000 0.0000 0.0000
# 2 -9.4131 145.3696 98.2966 0.0000 0.0000 0.0000
# 3 11.1803 98.2966 147.4605 0.0000 0.0000 0.0000
# 4 0.0000 0.0000 0.0000 34.2634 0.0000 0.0000
# 5 0.0000 0.0000 0.0000 0.0000 -6.3188 0.0000
# 6 0.0000 0.0000 0.0000 0.0000 0.0000 41.2961
#
#
#
# Elastic Compliance Matrix: (Units=1/GPa)
#
#
# Indices 1 2 3 4 5 6 
#
# 1 0.028997 0.006125 -0.006281 0.000000 0.000000 0.000000
# 2 0.006125 0.013818 -0.009675 0.000000 0.000000 0.000000
# 3 -0.006281 -0.009675 0.013707 0.000000 0.000000 0.000000
# 4 0.000000 0.000000 0.000000 0.029186 0.000000 0.000000
# 5 0.000000 0.000000 0.000000 0.000000 -0.158259 0.000000
# 6 0.000000 0.000000 0.000000 0.000000 0.000000 0.024215
#
#
# Mechanical properties :
#
#
# Convention : Reuss Voigt Hill
#
# Bulk Modulus (GPa) = 27.13085 59.09494 43.11289
# Shear Modulus (GPa) = -305.13380 29.29235 -137.92072
#
# Velocity S-wave (km/s) = -12.46141 3.86099 -8.37793
# Velocity P-wave (km/s) = 13.90114 7.06757 8.46437
#
# Compressibility (1/GPa) = 0.03685841
#
# Stress axis : x y z
#
# Youngs Moduli (GPa) = 34.48667 72.36951 72.95383
#
# Poissons Ratio (x) = -0.44326 0.45825
# Poissons Ratio (y) = -0.21123 0.70586
# Poissons Ratio (z) = 0.21662 0.70020
#
# Static dielectric constant tensor:
#      x y z
#    x 1.730900 0.000000 0.000000 
#    y 0.000000 1.682710 0.000000 
#    z 0.000000 0.000000 1.673770 
# 
# From -- ./inp_files/4453.got.cif
#   From: 2010.05.17/outbox.cif.g08.bks.cpg/sg25_3_cif.got.tgz:4453.got - 2010.06.04 01:04:00.
