data_PCOD9337731
_publ_section_title
;
Structure prediction by ZEFSAII (Michael W. Deem and Ramdas Pophale) SiO2 
 PCOD9337731
Probable space group: P M M 2
;
_chemical_formula_sum "Si O2"
_cell_formula_units_Z 32
_cell_length_a 9.020838
_cell_length_b 14.071993
_cell_length_c 13.289894
_cell_angle_alpha 90.000000
_cell_angle_beta 90.000000
_cell_angle_gamma 90.000000
_cell_volume 1687.034683
_symmetry_space_group_name_H-M "P M M 2"
_symmetry_group_IT_number 25
_symmetry_cell_setting 'orthorhombic'
loop_
_space_group_symop_operation_xyz
x,y,z
-x,-y,z
-x,y,z
x,-y,z
loop_
_atom_site_type_symbol
_atom_site_label
_atom_site_fract_x
_atom_site_fract_y
_atom_site_fract_z
Si Si1 0.172960 0.115002 0.696270
Si Si2 0.331552 0.384697 0.792332
Si Si3 0.822876 0.797400 0.099960
Si Si4 0.823919 0.611689 0.584510
Si Si5 0.822499 0.112818 0.312207
Si Si6 0.676570 0.788844 0.503603
Si Si7 0.671684 0.114688 0.904202
Si Si8 0.823506 0.390702 0.999471
O O1 0.259041 0.157882 0.601798
O O2 0.244087 0.145106 0.802544
O O3 0.000000 0.142023 0.692009
O O4 0.181428 0.000000 0.691011
O O5 0.500000 0.350451 0.779011
O O6 0.335822 0.500000 0.794503
O O7 0.231019 0.361007 0.696702
O O8 0.262294 0.358013 0.899319
O O9 0.776297 0.840012 0.206574
O O10 0.794139 0.684969 0.086867
O O11 0.000000 0.812549 0.091275
O O12 0.746130 0.847359 0.005412
O O13 0.790027 0.500000 0.569216
O O14 0.739370 0.681820 0.510020
O O15 0.000000 0.624216 0.576779
O O16 0.738122 0.159005 0.405277
O O17 0.000000 0.127651 0.324919
O O18 0.796584 0.000000 0.308395
O O19 0.500000 0.789290 0.506054
O O20 0.500000 0.143318 0.899407
O O21 0.677980 0.000000 0.906615
O O22 0.783609 0.500000 0.022601
O O23 0.000000 0.388701 0.977820
#
# Coordination Sequence:
#
# PCOD9337731 Si02
#       8
#     4   4   4   4   4   4   4   4
#     4  10  21  38  60  85 116 154 195 241 295 358
#     4   9  17  30  50  78 114 155 195 237 286 339
#     4  10  21  37  60  86 114 153 201 249 296 348
#     4  10  21  38  60  85 116 156 201 245 289 346
#     4  10  22  42  65  87 114 151 199 253 305 361
#     4  12  25  39  60  88 119 154 194 244 303 361
#     4  10  21  36  55  83 119 153 187 236 300 364
#     4   9  18  33  53  80 116 156 197 240 287 343
#
# _framework density 18.968191999999998
#
# number of rings (size 3 to 8) (size 9 to 14) (size 15 to 20)
#    0.000    2.000    0.000    3.375    1.750    7.000 
#    0.000    0.625    0.000    2.250    0.000    0.000 
#    0.000    0.000    0.000    0.000    0.000    0.000 
#
# Total GULP energy -178831.873253 kJ/mol
# GULP energy per Si atom -5588.496039 kJ/mol
# Density = 1.892502 g / cm^3
# Si number density = 18.968192 Si / 1000 Ang^3
#
#
#
# Elastic Constant Matrix: (Units=GPa)
#
#
# Indices 1 2 3 4 5 6 
#
# 1 104.9950 64.6158 83.5381 0.0000 0.0000 0.0000
# 2 64.6158 96.3651 77.2658 0.0000 0.0000 0.0000
# 3 83.5381 77.2658 159.6952 0.0000 0.0000 0.0000
# 4 0.0000 0.0000 0.0000 36.6070 0.0000 0.0000
# 5 0.0000 0.0000 0.0000 0.0000 -28.3012 0.0000
# 6 0.0000 0.0000 0.0000 0.0000 0.0000 22.6636
#
#
#
# Elastic Compliance Matrix: (Units=1/GPa)
#
#
# Indices 1 2 3 4 5 6 
#
# 1 0.019467 -0.007987 -0.006319 0.000000 0.000000 0.000000
# 2 -0.007987 0.020231 -0.005611 0.000000 0.000000 0.000000
# 3 -0.006319 -0.005611 0.012282 0.000000 0.000000 0.000000
# 4 0.000000 0.000000 0.000000 0.027317 0.000000 0.000000
# 5 0.000000 0.000000 0.000000 0.000000 -0.035334 0.000000
# 6 0.000000 0.000000 0.000000 0.000000 0.000000 0.044124
#
#
# Mechanical properties :
#
#
# Convention : Reuss Voigt Hill
#
# Bulk Modulus (GPa) = 82.32126 90.21052 86.26589
# Shear Modulus (GPa) = 37.88759 15.23624 26.56192
#
# Velocity S-wave (km/s) = 4.47411 2.83725 3.74617
# Velocity P-wave (km/s) = 8.37759 7.64169 8.01809
#
# Compressibility (1/GPa) = 0.01214753
#
# Stress axis : x y z
#
# Youngs Moduli (GPa) = 51.36833 49.42909 81.41835
#
# Poissons Ratio (x) = 0.39477 0.51451
# Poissons Ratio (y) = 0.41025 0.45681
# Poissons Ratio (z) = 0.32462 0.27733
#
# Static dielectric constant tensor:
#      x y z
#    x 1.636140 0.000000 0.000000 
#    y 0.000000 1.707760 0.000000 
#    z 0.000000 0.000000 1.609860 
# 
# From -- ./inp_files/4199.got.cif
#   From: 2010.05.17/outbox.cif.g08.bks.cpg/sg25_3_cif.got.tgz:4199.got - 2010.06.04 01:04:00.
