data_PCOD9337843
_publ_section_title
;
Structure prediction by ZEFSAII (Michael W. Deem and Ramdas Pophale) SiO2 
 PCOD9337843
Probable space group: P M M 2
;
_chemical_formula_sum "Si O2"
_cell_formula_units_Z 32
_cell_length_a 7.447239
_cell_length_b 9.474320
_cell_length_c 21.950604
_cell_angle_alpha 90.000000
_cell_angle_beta 90.000000
_cell_angle_gamma 90.000000
_cell_volume 1548.780299
_symmetry_space_group_name_H-M "P M M 2"
_symmetry_group_IT_number 25
_symmetry_cell_setting 'orthorhombic'
loop_
_space_group_symop_operation_xyz
x,y,z
-x,-y,z
-x,y,z
x,-y,z
loop_
_atom_site_type_symbol
_atom_site_label
_atom_site_fract_x
_atom_site_fract_y
_atom_site_fract_z
Si Si1 0.280508 0.337476 0.159350
Si Si2 0.285729 0.661236 0.924730
Si Si3 0.785675 0.837895 0.541319
Si Si4 0.714334 0.838162 0.410101
Si Si5 0.281114 0.834950 0.277168
Si Si6 0.784701 0.339357 0.788947
Si Si7 0.719669 0.837734 0.040524
Si Si8 0.218974 0.835351 0.673519
O O1 0.500000 0.337375 0.159669
O O2 0.223491 0.500000 0.156803
O O3 0.220486 0.259031 0.220805
O O4 0.224907 0.250247 0.099855
O O5 0.500000 0.652362 0.932190
O O6 0.215105 0.500000 0.928247
O O7 0.252770 0.717260 0.856617
O O8 0.219249 0.759412 0.979119
O O9 0.750074 0.768929 0.475678
O O10 0.723802 0.779179 0.606643
O O11 0.000000 0.846013 0.545539
O O12 0.715804 0.000000 0.538358
O O13 0.500000 0.845825 0.405900
O O14 0.776321 0.782073 0.344470
O O15 0.784205 0.000000 0.413393
O O16 0.500000 0.833045 0.275815
O O17 0.229558 0.000000 0.270753
O O18 0.715821 0.500000 0.786836
O O19 0.716251 0.249645 0.732077
O O20 0.000000 0.345144 0.783342
O O21 0.500000 0.838551 0.040271
O O22 0.777371 0.000000 0.043290
O O23 0.000000 0.830982 0.674879
O O24 0.269139 0.000000 0.677330
#
# Coordination Sequence:
#
# PCOD9337843 Si02
#       8
#     4   4   4   4   4   4   4   4
#     4   9  15  22  34  53  77 105 135 165 198 237
#     4   9  17  29  43  59  82 110 135 161 198 242
#     4   8  13  22  37  56  76  99 129 163 197 234
#     4   8  13  21  34  53  77 103 129 159 197 238
#     4   8  13  21  33  50  73 100 129 162 199 236
#     4   9  17  29  45  63  81 104 136 169 198 234
#     4   9  16  25  38  57  81 107 134 166 202 237
#     4   8  14  25  41  60  81 104 131 166 205 239
#
# _framework density 20.661421000000001
#
# number of rings (size 3 to 8) (size 9 to 14) (size 15 to 20)
#    0.000    3.500    0.000    2.250    0.000    3.500 
#    0.000    0.625    0.000    1.500    0.000    0.875 
#    0.000    3.000    0.000    0.000    0.000    0.000 
#
# Total GULP energy -178272.073339 kJ/mol
# GULP energy per Si atom -5571.002292 kJ/mol
# Density = 2.061439 g / cm^3
# Si number density = 20.661421 Si / 1000 Ang^3
#
#
#
# Elastic Constant Matrix: (Units=GPa)
#
#
# Indices 1 2 3 4 5 6 
#
# 1 60.8397 3.4718 4.7133 0.0000 0.0000 0.0000
# 2 3.4718 86.7754 107.3472 0.0000 0.0000 0.0000
# 3 4.7133 107.3472 278.8220 0.0000 0.0000 0.0000
# 4 0.0000 0.0000 0.0000 -30.9622 0.0000 0.0000
# 5 0.0000 0.0000 0.0000 0.0000 20.8282 0.0000
# 6 0.0000 0.0000 0.0000 0.0000 0.0000 -10.1562
#
#
#
# Elastic Compliance Matrix: (Units=1/GPa)
#
#
# Indices 1 2 3 4 5 6 
#
# 1 0.016475 -0.000601 -0.000047 0.000000 0.000000 0.000000
# 2 -0.000601 0.022026 -0.008470 0.000000 0.000000 0.000000
# 3 -0.000047 -0.008470 0.006848 0.000000 0.000000 0.000000
# 4 0.000000 0.000000 0.000000 -0.032297 0.000000 0.000000
# 5 0.000000 0.000000 0.000000 0.000000 0.048012 0.000000
# 6 0.000000 0.000000 0.000000 0.000000 0.000000 -0.098462
#
#
# Mechanical properties :
#
#
# Convention : Reuss Voigt Hill
#
# Bulk Modulus (GPa) = 36.88258 73.05574 54.96916
# Shear Modulus (GPa) = -493.77492 16.66894 -238.55299
#
# Velocity S-wave (km/s) = -15.47588 2.84344 -10.75680
# Velocity P-wave (km/s) = 17.36224 6.79820 11.29672
#
# Compressibility (1/GPa) = 0.02711307
#
# Stress axis : x y z
#
# Youngs Moduli (GPa) = 60.69957 45.40123 146.02320
#
# Poissons Ratio (x) = 0.02727 0.00689
# Poissons Ratio (y) = 0.03646 1.23679
# Poissons Ratio (z) = 0.00287 0.38454
#
# Static dielectric constant tensor:
#      x y z
#    x 1.802580 0.000000 0.000000 
#    y 0.000000 1.695480 0.000000 
#    z 0.000000 0.000000 1.771900 
# 
# From -- ./inp_files/6290.got.cif
#   From: 2010.05.17/outbox.cif.g08.bks.cpg/sg25_4_cif.got.tgz:6290.got - 2010.06.04 01:04:00.
