data_PCOD9337257
_publ_section_title
;
Structure prediction by ZEFSAII (Michael W. Deem and Ramdas Pophale) SiO2 
 PCOD9337257
Probable space group: P M M 2
;
_chemical_formula_sum "Si O2"
_cell_formula_units_Z 28
_cell_length_a 7.614736
_cell_length_b 20.567964
_cell_length_c 8.064042
_cell_angle_alpha 90.000000
_cell_angle_beta 90.000000
_cell_angle_gamma 90.000000
_cell_volume 1262.987161
_symmetry_space_group_name_H-M "P M M 2"
_symmetry_group_IT_number 25
_symmetry_cell_setting 'orthorhombic'
loop_
_space_group_symop_operation_xyz
x,y,z
-x,-y,z
-x,y,z
x,-y,z
loop_
_atom_site_type_symbol
_atom_site_label
_atom_site_fract_x
_atom_site_fract_y
_atom_site_fract_z
Si Si1 0.289795 0.429943 0.685320
Si Si2 0.795171 0.430234 0.295533
Si Si3 0.295477 0.848184 0.834369
Si Si4 0.284644 0.075139 0.515171
Si Si5 0.207229 0.711342 0.707663
Si Si6 0.709320 0.849421 0.192904
Si Si7 0.787348 0.291290 0.324648
O O1 0.500000 0.429572 0.671121
O O2 0.236231 0.500000 0.759849
O O3 0.214479 0.428696 0.497514
O O4 0.236960 0.362318 0.769028
O O5 0.716062 0.500000 0.244044
O O6 0.721391 0.359643 0.248545
O O7 0.000000 0.431387 0.247776
O O8 0.500000 0.866963 0.839436
O O9 0.221047 0.883951 0.673474
O O10 0.287056 0.770627 0.808292
O O11 0.216489 0.865524 0.012182
O O12 0.500000 0.077875 0.513109
O O13 0.221593 0.109135 0.346737
O O14 0.234794 0.000000 0.525241
O O15 0.273463 0.714309 0.516590
O O16 0.000000 0.722768 0.704886
O O17 0.500000 0.860483 0.187344
O O18 0.736480 0.773424 0.230203
O O19 0.000000 0.295124 0.328767
#
# Coordination Sequence:
#
# PCOD9337257 Si02
#       7
#     4   4   4   4   4   4   4
#     4   9  16  25  41  69 103 138 177 223 273 320
#     4   8  14  25  41  65  98 135 178 224 266 312
#     4  10  20  34  54  80 108 139 177 219 263 314
#     4   9  18  34  56  82 111 139 168 211 265 317
#     4  10  19  31  50  74 102 141 184 224 268 317
#     4  10  20  33  53  80 107 139 175 213 261 315
#     4   9  17  29  48  73 101 137 177 218 264 311
#
# _framework density 22.169664999999998
#
# number of rings (size 3 to 8) (size 9 to 14) (size 15 to 20)
#    0.000    2.714    1.429    1.714    0.000    4.286 
#    0.000    2.857    0.000    2.571    0.000    6.000 
#    0.000    0.000    0.000    0.000    0.000    0.000 
#
# Total GULP energy -156190.565387 kJ/mol
# GULP energy per Si atom -5578.234478 kJ/mol
# Density = 2.211921 g / cm^3
# Si number density = 22.169665 Si / 1000 Ang^3
#
#
#
# Elastic Constant Matrix: (Units=GPa)
#
#
# Indices 1 2 3 4 5 6 
#
# 1 51.4093 -8.1897 5.4207 0.0000 0.0000 0.0000
# 2 -8.1897 157.0588 75.7399 0.0000 0.0000 0.0000
# 3 5.4207 75.7399 123.4304 0.0000 0.0000 0.0000
# 4 0.0000 0.0000 0.0000 -12.7931 0.0000 0.0000
# 5 0.0000 0.0000 0.0000 0.0000 78.6573 0.0000
# 6 0.0000 0.0000 0.0000 0.0000 0.0000 41.4265
#
#
#
# Elastic Compliance Matrix: (Units=1/GPa)
#
#
# Indices 1 2 3 4 5 6 
#
# 1 0.020011 0.002084 -0.002158 0.000000 0.000000 0.000000
# 2 0.002084 0.009260 -0.005774 0.000000 0.000000 0.000000
# 3 -0.002158 -0.005774 0.011739 0.000000 0.000000 0.000000
# 4 0.000000 0.000000 0.000000 -0.078167 0.000000 0.000000
# 5 0.000000 0.000000 0.000000 0.000000 0.012713 0.000000
# 6 0.000000 0.000000 0.000000 0.000000 0.000000 0.024139
#
#
# Mechanical properties :
#
#
# Convention : Reuss Voigt Hill
#
# Bulk Modulus (GPa) = 34.11116 53.09337 43.60226
# Shear Modulus (GPa) = 236.26636 38.71999 137.49318
#
# Velocity S-wave (km/s) = 10.33457 4.18368 7.88373
# Velocity P-wave (km/s) = 12.56281 6.88028 10.12824
#
# Compressibility (1/GPa) = 0.02931592
#
# Stress axis : x y z
#
# Youngs Moduli (GPa) = 49.97194 107.99135 85.18355
#
# Poissons Ratio (x) = -0.22505 0.18379
# Poissons Ratio (y) = -0.10414 0.49182
# Poissons Ratio (z) = 0.10782 0.62351
#
# Static dielectric constant tensor:
#      x y z
#    x 1.588370 0.000000 0.000000 
#    y 0.000000 1.826940 0.000000 
#    z 0.000000 0.000000 1.825500 
# 
# From -- ./inp_files/2297.got.cif
#   From: 2010.05.17/outbox.cif.g08.bks.cpg/sg25_2_cif.got.tgz:2297.got - 2010.06.04 01:04:00.
