data_PCOD9337143
_publ_section_title
;
Structure prediction by ZEFSAII (Michael W. Deem and Ramdas Pophale) SiO2 
 PCOD9337143
Probable space group: P M M 2
;
_chemical_formula_sum "Si O2"
_cell_formula_units_Z 24
_cell_length_a 7.788538
_cell_length_b 13.169456
_cell_length_c 12.193964
_cell_angle_alpha 90.000000
_cell_angle_beta 90.000000
_cell_angle_gamma 90.000000
_cell_volume 1250.744746
_symmetry_space_group_name_H-M "P M M 2"
_symmetry_group_IT_number 25
_symmetry_cell_setting 'orthorhombic'
loop_
_space_group_symop_operation_xyz
x,y,z
-x,-y,z
-x,y,z
x,-y,z
loop_
_atom_site_type_symbol
_atom_site_label
_atom_site_fract_x
_atom_site_fract_y
_atom_site_fract_z
Si Si1 0.290347 0.384391 0.897670
Si Si2 0.705909 0.000000 0.899529
Si Si3 0.796534 0.192449 0.506979
Si Si4 0.792921 0.000000 0.644509
Si Si5 0.706627 0.614630 0.648194
Si Si6 0.295117 0.884079 0.271275
Si Si7 0.710632 0.805209 0.038024
O O1 0.500000 0.383619 0.897961
O O2 0.237045 0.500000 0.922030
O O3 0.236276 0.359517 0.772594
O O4 0.232030 0.300002 0.983551
O O5 0.748303 0.000000 0.771921
O O6 0.500000 0.000000 0.909627
O O7 0.766535 0.101007 0.961548
O O8 0.726817 0.100484 0.582528
O O9 0.755804 0.299734 0.562108
O O10 0.736368 0.175923 0.383084
O O11 0.000000 0.181720 0.504976
O O12 0.000000 0.000000 0.637468
O O13 0.500000 0.611468 0.651121
O O14 0.767172 0.500000 0.622587
O O15 0.500000 0.892423 0.258156
O O16 0.231221 0.828433 0.161654
O O17 0.227112 0.000000 0.279784
O O18 0.500000 0.803469 0.037946
#
# Coordination Sequence:
#
# PCOD9337143 Si02
#       7
#     4   2   4   2   4   4   4
#     4   8  14  26  47  75 105 132 157 197 255 311
#     4  10  18  29  50  76  98 125 163 212 263 310
#     4  11  22  36  52  72 104 141 180 218 260 311
#     4  10  22  35  46  70 106 137 167 214 265 312
#     4   9  18  34  56  82 108 134 171 216 261 312
#     4  10  19  33  52  73 100 136 177 219 261 305
#     4   9  16  28  47  73 101 127 165 211 256 305
#
# _framework density 19.188568
#
# number of rings (size 3 to 8) (size 9 to 14) (size 15 to 20)
#    0.000    2.500    1.667    2.500    0.000    3.000 
#    0.000    1.667    0.000    4.000    0.000    0.000 
#    0.000    0.000    0.000    0.000    0.000    0.000 
#
# Total GULP energy -133923.088046 kJ/mol
# GULP energy per Si atom -5580.128669 kJ/mol
# Density = 1.914489 g / cm^3
# Si number density = 19.188568 Si / 1000 Ang^3
#
#
#
# Elastic Constant Matrix: (Units=GPa)
#
#
# Indices 1 2 3 4 5 6 
#
# 1 21.4489 4.8103 3.7857 0.0000 0.0000 0.0000
# 2 4.8103 160.3177 124.5769 0.0000 0.0000 0.0000
# 3 3.7857 124.5769 201.2908 0.0000 0.0000 0.0000
# 4 0.0000 0.0000 0.0000 -0.2216 0.0000 0.0000
# 5 0.0000 0.0000 0.0000 0.0000 17.8799 0.0000
# 6 0.0000 0.0000 0.0000 0.0000 0.0000 6.4149
#
#
#
# Elastic Compliance Matrix: (Units=1/GPa)
#
#
# Indices 1 2 3 4 5 6 
#
# 1 0.046938 -0.001392 -0.000021 0.000000 0.000000 0.000000
# 2 -0.001392 0.012058 -0.007436 0.000000 0.000000 0.000000
# 3 -0.000021 -0.007436 0.009571 0.000000 0.000000 0.000000
# 4 0.000000 0.000000 0.000000 -4.513099 0.000000 0.000000
# 5 0.000000 0.000000 0.000000 0.000000 0.055929 0.000000
# 6 0.000000 0.000000 0.000000 0.000000 0.000000 0.155886
#
#
# Mechanical properties :
#
#
# Convention : Reuss Voigt Hill
#
# Bulk Modulus (GPa) = 19.65877 72.15591 45.90734
# Shear Modulus (GPa) = -1.19103 21.47362 10.14130
#
# Velocity S-wave (km/s) = -0.78870 3.34890 2.30142
# Velocity P-wave (km/s) = 3.07212 7.25526 5.57120
#
# Compressibility (1/GPa) = 0.05086789
#
# Stress axis : x y z
#
# Youngs Moduli (GPa) = 21.30452 82.93355 104.48672
#
# Poissons Ratio (x) = 0.11542 0.00224
# Poissons Ratio (y) = 0.02965 0.77700
# Poissons Ratio (z) = 0.00046 0.61672
#
# Static dielectric constant tensor:
#      x y z
#    x 1.695750 0.000000 0.000000 
#    y 0.000000 1.678810 0.000000 
#    z 0.000000 0.000000 1.648260 
# 
# From -- ./inp_files/3951.got.cif
#   From: 2010.05.17/outbox.cif.g08.bks.cpg/sg25_2_cif.got.tgz:3951.got - 2010.06.04 01:04:00.
