data_PCOD9337206
_publ_section_title
;
Structure prediction by ZEFSAII (Michael W. Deem and Ramdas Pophale) SiO2 
 PCOD9337206
Probable space group: P M M 2
;
_chemical_formula_sum "Si O2"
_cell_formula_units_Z 32
_cell_length_a 22.836364
_cell_length_b 7.403178
_cell_length_c 7.350512
_cell_angle_alpha 90.000000
_cell_angle_beta 90.000000
_cell_angle_gamma 90.000000
_cell_volume 1242.689816
_symmetry_space_group_name_H-M "P M M 2"
_symmetry_group_IT_number 25
_symmetry_cell_setting 'orthorhombic'
loop_
_space_group_symop_operation_xyz
x,y,z
-x,-y,z
-x,y,z
x,-y,z
loop_
_atom_site_type_symbol
_atom_site_label
_atom_site_fract_x
_atom_site_fract_y
_atom_site_fract_z
Si Si1 0.189543 0.799330 0.992870
Si Si2 0.062699 0.790144 0.046609
Si Si3 0.563237 0.280984 0.530075
Si Si4 0.312700 0.778992 0.936572
Si Si5 0.937466 0.207521 0.481112
Si Si6 0.437697 0.212288 0.965026
Si Si7 0.311690 0.292548 0.502073
Si Si8 0.192375 0.709766 0.587613
O O1 0.253156 0.718097 0.036252
O O2 0.194172 0.814100 0.775624
O O3 0.184967 0.000000 0.077423
O O4 0.126423 0.706403 0.012920
O O5 0.059147 0.792478 0.263750
O O6 0.000000 0.714873 0.980458
O O7 0.065067 0.000000 0.982835
O O8 0.500000 0.220372 0.454646
O O9 0.564535 0.500000 0.521831
O O10 0.562647 0.230059 0.744378
O O11 0.625007 0.211428 0.450107
O O12 0.374138 0.715784 0.021295
O O13 0.312721 0.717821 0.725129
O O14 0.311718 0.000000 0.936409
O O15 0.874233 0.285646 0.522923
O O16 0.000000 0.285830 0.546532
O O17 0.935685 0.000000 0.543982
O O18 0.500000 0.291715 0.027159
O O19 0.438239 0.000000 0.008431
O O20 0.313152 0.500000 0.442326
O O21 0.246040 0.221122 0.462074
O O22 0.205581 0.500000 0.624537
#
# Coordination Sequence:
#
# PCOD9337206 Si02
#       8
#     4   4   4   4   4   4   4   4
#     4   9  16  27  44  64  85 109 137 169 204 243
#     4   8  15  29  48  66  81 100 131 171 209 241
#     4   8  12  18  29  44  63  92 130 164 190 221
#     4   8  13  20  31  49  72  98 128 160 193 230
#     4   9  18  33  50  64  79 103 137 175 211 246
#     4   8  12  17  25  39  63  95 126 154 186 225
#     4   8  14  23  33  48  74 105 131 158 195 234
#     4  10  19  29  42  63  91 117 138 164 202 249
#
# _framework density 25.750594
#
# number of rings (size 3 to 8) (size 9 to 14) (size 15 to 20)
#    0.000    3.500    0.000    1.125    0.000    1.250 
#    0.000    1.875    0.000    0.750    0.000    0.000 
#    0.000    1.000    0.000    3.500    0.000   47.125 
#
# Total GULP energy -178215.745779 kJ/mol
# GULP energy per Si atom -5569.242056 kJ/mol
# Density = 2.569198 g / cm^3
# Si number density = 25.750594 Si / 1000 Ang^3
#
#
#
# Elastic Constant Matrix: (Units=GPa)
#
#
# Indices 1 2 3 4 5 6 
#
# 1 361.7683 24.8630 5.9463 0.0000 0.0000 0.0000
# 2 24.8630 105.9731 -5.1101 0.0000 0.0000 0.0000
# 3 5.9463 -5.1101 66.9586 0.0000 0.0000 0.0000
# 4 0.0000 0.0000 0.0000 4.2904 0.0000 0.0000
# 5 0.0000 0.0000 0.0000 0.0000 40.8149 0.0000
# 6 0.0000 0.0000 0.0000 0.0000 0.0000 72.1970
#
#
#
# Elastic Compliance Matrix: (Units=1/GPa)
#
#
# Indices 1 2 3 4 5 6 
#
# 1 0.002816 -0.000675 -0.000302 0.000000 0.000000 0.000000
# 2 -0.000675 0.009633 0.000795 0.000000 0.000000 0.000000
# 3 -0.000302 0.000795 0.015022 0.000000 0.000000 0.000000
# 4 0.000000 0.000000 0.000000 0.233078 0.000000 0.000000
# 5 0.000000 0.000000 0.000000 0.000000 0.024501 0.000000
# 6 0.000000 0.000000 0.000000 0.000000 0.000000 0.013851
#
#
# Mechanical properties :
#
#
# Convention : Reuss Voigt Hill
#
# Bulk Modulus (GPa) = 36.89001 65.12205 51.00603
# Shear Modulus (GPa) = 16.21798 57.39384 36.80591
#
# Velocity S-wave (km/s) = 2.51232 4.72618 3.78474
# Velocity P-wave (km/s) = 4.77207 7.42474 6.24097
#
# Compressibility (1/GPa) = 0.02710761
#
# Stress axis : x y z
#
# Youngs Moduli (GPa) = 355.16970 103.80887 66.56875
#
# Poissons Ratio (x) = 0.07008 0.02007
# Poissons Ratio (y) = 0.23978 -0.05293
# Poissons Ratio (z) = 0.10711 -0.08254
#
# Static dielectric constant tensor:
#      x y z
#    x 2.219100 0.000000 0.000000 
#    y 0.000000 1.906270 0.000000 
#    z 0.000000 0.000000 1.993190 
# 
# From -- ./inp_files/3622.got.cif
#   From: 2010.05.17/outbox.cif.g08.bks.cpg/sg25_2_cif.got.tgz:3622.got - 2010.06.04 01:04:00.
