data_PCOD9337541
_publ_section_title
;
Structure prediction by ZEFSAII (Michael W. Deem and Ramdas Pophale) SiO2 
 PCOD9337541
Probable space group: P M M 2
;
_chemical_formula_sum "Si O2"
_cell_formula_units_Z 24
_cell_length_a 7.994886
_cell_length_b 7.728853
_cell_length_c 18.207112
_cell_angle_alpha 90.000000
_cell_angle_beta 90.000000
_cell_angle_gamma 90.000000
_cell_volume 1125.041095
_symmetry_space_group_name_H-M "P M M 2"
_symmetry_group_IT_number 25
_symmetry_cell_setting 'orthorhombic'
loop_
_space_group_symop_operation_xyz
x,y,z
-x,-y,z
-x,y,z
x,-y,z
loop_
_atom_site_type_symbol
_atom_site_label
_atom_site_fract_x
_atom_site_fract_y
_atom_site_fract_z
Si Si1 0.500000 0.792172 0.965641
Si Si2 0.182759 0.711665 0.702373
Si Si3 0.500000 0.707900 0.794610
Si Si4 0.304194 0.288096 0.544510
Si Si5 0.701775 0.304866 0.387418
Si Si6 0.193226 0.786962 0.065408
Si Si7 0.798625 0.807884 0.225102
O O1 0.500000 0.747846 0.880273
O O2 0.500000 0.000000 0.972129
O O3 0.331543 0.731174 0.006833
O O4 0.186531 0.500000 0.702258
O O5 0.334497 0.772391 0.752975
O O6 0.210201 0.765977 0.617866
O O7 0.000000 0.765973 0.728557
O O8 0.500000 0.500000 0.786580
O O9 0.500000 0.242781 0.553286
O O10 0.297990 0.500000 0.541960
O O11 0.242948 0.221521 0.464829
O O12 0.500000 0.303069 0.391336
O O13 0.764789 0.500000 0.390991
O O14 0.748679 0.248059 0.306169
O O15 0.245055 0.722015 0.147221
O O16 0.000000 0.735793 0.050489
O O17 0.191591 0.000000 0.067510
O O18 0.000000 0.811611 0.224042
O O19 0.728093 0.000000 0.219192
#
# Coordination Sequence:
#
# PCOD9337541 Si02
#       7
#     2   4   2   4   4   4   4
#     4  10  20  34  56  77  92 124 162 191 240 300
#     4   9  16  27  47  72  96 128 164 194 235 287
#     4  10  20  34  50  73 104 124 146 199 248 284
#     4   8  13  25  43  64  95 129 161 201 238 271
#     4   9  18  29  44  71 103 131 161 201 246 287
#     4   8  16  32  52  74  97 122 162 208 237 275
#     4   9  18  32  49  69  95 128 166 207 244 281
#
# _framework density 21.332553999999998
#
# number of rings (size 3 to 8) (size 9 to 14) (size 15 to 20)
#    0.000    3.167    0.833    2.000    1.167    2.000 
#    0.000    2.500    0.000    2.000    0.000    0.000 
#    0.000    0.000    0.000    0.000    0.000    0.000 
#
# Total GULP energy -133675.850563 kJ/mol
# GULP energy per Si atom -5569.827107 kJ/mol
# Density = 2.128400 g / cm^3
# Si number density = 21.332554 Si / 1000 Ang^3
#
#
#
# Elastic Constant Matrix: (Units=GPa)
#
#
# Indices 1 2 3 4 5 6 
#
# 1 123.3491 7.3981 102.9051 0.0000 0.0000 0.0000
# 2 7.3981 21.6396 8.0103 0.0000 0.0000 0.0000
# 3 102.9051 8.0103 210.6766 0.0000 0.0000 0.0000
# 4 0.0000 0.0000 0.0000 24.6077 0.0000 0.0000
# 5 0.0000 0.0000 0.0000 0.0000 -24.9768 0.0000
# 6 0.0000 0.0000 0.0000 0.0000 0.0000 3.7482
#
#
#
# Elastic Compliance Matrix: (Units=1/GPa)
#
#
# Indices 1 2 3 4 5 6 
#
# 1 0.013790 -0.002253 -0.006650 0.000000 0.000000 0.000000
# 2 -0.002253 0.047239 -0.000696 0.000000 0.000000 0.000000
# 3 -0.006650 -0.000696 0.008021 0.000000 0.000000 0.000000
# 4 0.000000 0.000000 0.000000 0.040638 0.000000 0.000000
# 5 0.000000 0.000000 0.000000 0.000000 -0.040037 0.000000
# 6 0.000000 0.000000 0.000000 0.000000 0.000000 0.266796
#
#
# Mechanical properties :
#
#
# Convention : Reuss Voigt Hill
#
# Bulk Modulus (GPa) = 20.05887 65.81026 42.93457
# Shear Modulus (GPa) = 13.43137 16.49926 14.96531
#
# Velocity S-wave (km/s) = 2.51194 2.78408 2.65150
# Velocity P-wave (km/s) = 4.22333 6.42273 5.43544
#
# Compressibility (1/GPa) = 0.04985326
#
# Stress axis : x y z
#
# Youngs Moduli (GPa) = 72.51562 21.16884 124.66762
#
# Poissons Ratio (x) = 0.04769 0.82906
# Poissons Ratio (y) = 0.16337 0.08673
# Poissons Ratio (z) = 0.48224 0.01473
#
# Static dielectric constant tensor:
#      x y z
#    x 1.761010 0.000000 0.000000 
#    y 0.000000 1.831440 0.000000 
#    z 0.000000 0.000000 1.798370 
# 
# From -- ./inp_files/6011.got.cif
#   From: 2010.05.17/outbox.cif.g08.bks.cpg/sg25_4_cif.got.tgz:6011.got - 2010.06.04 01:04:00.
