data_PCOD9337359
_publ_section_title
;
Structure prediction by ZEFSAII (Michael W. Deem and Ramdas Pophale) SiO2 
 PCOD9337359
Probable space group: P M M 2
;
_chemical_formula_sum "Si O2"
_cell_formula_units_Z 32
_cell_length_a 9.884186
_cell_length_b 7.469014
_cell_length_c 21.535482
_cell_angle_alpha 90.000000
_cell_angle_beta 90.000000
_cell_angle_gamma 90.000000
_cell_volume 1589.859621
_symmetry_space_group_name_H-M "P M M 2"
_symmetry_group_IT_number 25
_symmetry_cell_setting 'orthorhombic'
loop_
_space_group_symop_operation_xyz
x,y,z
-x,-y,z
-x,y,z
x,-y,z
loop_
_atom_site_type_symbol
_atom_site_label
_atom_site_fract_x
_atom_site_fract_y
_atom_site_fract_z
Si Si1 0.655366 0.718268 0.439010
Si Si2 0.156735 0.281702 0.550648
Si Si3 0.846551 0.714660 0.688474
Si Si4 0.347048 0.785910 0.803263
Si Si5 0.655680 0.281438 0.298744
Si Si6 0.335324 0.206250 0.936997
Si Si7 0.153405 0.713471 0.188420
Si Si8 0.345599 0.215786 0.072639
O O1 0.500000 0.770968 0.449854
O O2 0.658668 0.500000 0.439268
O O3 0.751523 0.781523 0.494048
O O4 0.692797 0.773147 0.368939
O O5 0.161459 0.500000 0.549774
O O6 0.199765 0.223573 0.619958
O O7 0.000000 0.231156 0.542594
O O8 0.853691 0.500000 0.684723
O O9 0.748735 0.755666 0.745111
O O10 0.000000 0.780506 0.699031
O O11 0.500000 0.718954 0.791913
O O12 0.295331 0.714908 0.870183
O O13 0.356515 0.000000 0.811292
O O14 0.500000 0.226905 0.286225
O O15 0.655607 0.500000 0.297777
O O16 0.759291 0.217153 0.246646
O O17 0.500000 0.204390 0.935574
O O18 0.287354 0.000000 0.938112
O O19 0.301657 0.284837 0.004388
O O20 0.143526 0.500000 0.197060
O O21 0.240656 0.741765 0.126433
O O22 0.000000 0.783653 0.184633
O O23 0.500000 0.277672 0.086287
O O24 0.352754 0.000000 0.067846
#
# Coordination Sequence:
#
# PCOD9337359 Si02
#       8
#     4   4   4   4   4   4   4   4
#     4   8  13  21  35  57  82 107 140 182 222 257
#     4   8  14  24  37  54  80 114 147 178 214 257
#     4   9  18  31  44  62  92 126 155 182 216 262
#     4   9  17  30  49  71  91 112 144 187 229 267
#     4   8  14  25  40  58  83 115 148 182 220 261
#     4   7  12  26  47  68  88 109 139 183 227 264
#     4  10  20  31  43  64  95 126 152 180 218 263
#     4   9  17  31  52  72  87 111 149 187 224 268
#
# _framework density 20.127562000000001
#
# number of rings (size 3 to 8) (size 9 to 14) (size 15 to 20)
#    0.000    3.500    0.000    3.375    0.000    2.500 
#    0.000    5.000    0.000    6.000    0.000    0.875 
#    0.000    5.000    0.000    0.000    0.000    0.000 
#
# Total GULP energy -178305.990832 kJ/mol
# GULP energy per Si atom -5572.062214 kJ/mol
# Density = 2.008175 g / cm^3
# Si number density = 20.127562 Si / 1000 Ang^3
#
#
#
# Elastic Constant Matrix: (Units=GPa)
#
#
# Indices 1 2 3 4 5 6 
#
# 1 117.0717 4.6272 136.9657 0.0000 0.0000 0.0000
# 2 4.6272 57.0875 5.1692 0.0000 0.0000 0.0000
# 3 136.9657 5.1692 245.4320 0.0000 0.0000 0.0000
# 4 0.0000 0.0000 0.0000 19.3723 0.0000 0.0000
# 5 0.0000 0.0000 0.0000 0.0000 -30.1644 0.0000
# 6 0.0000 0.0000 0.0000 0.0000 0.0000 11.2613
#
#
#
# Elastic Compliance Matrix: (Units=1/GPa)
#
#
# Indices 1 2 3 4 5 6 
#
# 1 0.024641 -0.000754 -0.013735 0.000000 0.000000 0.000000
# 2 -0.000754 0.017573 0.000050 0.000000 0.000000 0.000000
# 3 -0.013735 0.000050 0.011738 0.000000 0.000000 0.000000
# 4 0.000000 0.000000 0.000000 0.051620 0.000000 0.000000
# 5 0.000000 0.000000 0.000000 0.000000 -0.033152 0.000000
# 6 0.000000 0.000000 0.000000 0.000000 0.000000 0.088800
#
#
# Mechanical properties :
#
#
# Convention : Reuss Voigt Hill
#
# Bulk Modulus (GPa) = 39.87868 79.23503 59.55685
# Shear Modulus (GPa) = 25.19452 18.28244 21.73848
#
# Velocity S-wave (km/s) = 3.54184 3.01712 3.28995
# Velocity P-wave (km/s) = 6.04831 7.18256 6.63970
#
# Compressibility (1/GPa) = 0.02507606
#
# Stress axis : x y z
#
# Youngs Moduli (GPa) = 40.58343 56.90392 85.19078
#
# Poissons Ratio (x) = 0.04288 1.17010
# Poissons Ratio (y) = 0.03058 -0.00429
# Poissons Ratio (z) = 0.55742 -0.00287
#
# Static dielectric constant tensor:
#      x y z
#    x 1.677740 0.000000 0.000000 
#    y 0.000000 1.803410 0.000000 
#    z 0.000000 0.000000 1.732170 
# 
# From -- ./inp_files/6285.got.cif
#   From: 2010.05.17/outbox.cif.g08.bks.cpg/sg25_4_cif.got.tgz:6285.got - 2010.06.04 01:04:00.
