data_PCOD9337725
_publ_section_title
;
Structure prediction by ZEFSAII (Michael W. Deem and Ramdas Pophale) SiO2 
 PCOD9337725
Probable space group: P M M 2
;
_chemical_formula_sum "Si O2"
_cell_formula_units_Z 28
_cell_length_a 7.912642
_cell_length_b 9.379023
_cell_length_c 18.546211
_cell_angle_alpha 90.000000
_cell_angle_beta 90.000000
_cell_angle_gamma 90.000000
_cell_volume 1376.367199
_symmetry_space_group_name_H-M "P M M 2"
_symmetry_group_IT_number 25
_symmetry_cell_setting 'orthorhombic'
loop_
_space_group_symop_operation_xyz
x,y,z
-x,-y,z
-x,y,z
x,-y,z
loop_
_atom_site_type_symbol
_atom_site_label
_atom_site_fract_x
_atom_site_fract_y
_atom_site_fract_z
Si Si1 0.703787 0.837111 0.298150
Si Si2 0.701462 0.162841 0.738876
Si Si3 0.795894 0.662224 0.440256
Si Si4 0.202308 0.661303 0.878314
Si Si5 0.203979 0.162625 0.016044
Si Si6 0.296014 0.663124 0.158576
Si Si7 0.203586 0.836684 0.578336
O O1 0.500000 0.842404 0.293553
O O2 0.749012 0.756124 0.371343
O O3 0.765795 0.748387 0.228947
O O4 0.766712 0.000000 0.297943
O O5 0.500000 0.157633 0.743160
O O6 0.764387 0.262963 0.802473
O O7 0.749622 0.212233 0.658602
O O8 0.767610 0.000000 0.747520
O O9 0.733706 0.500000 0.433277
O O10 0.734467 0.737435 0.513638
O O11 0.000000 0.657390 0.443796
O O12 0.269787 0.500000 0.880424
O O13 0.000000 0.653010 0.887102
O O14 0.267685 0.757091 0.944437
O O15 0.249288 0.252281 0.086603
O O16 0.000000 0.156560 0.011797
O O17 0.266883 0.000000 0.020364
O O18 0.500000 0.658157 0.162581
O O19 0.233845 0.500000 0.157132
O O20 0.000000 0.840377 0.574334
O O21 0.265553 0.000000 0.569738
#
# Coordination Sequence:
#
# PCOD9337725 Si02
#       7
#     4   4   4   4   4   4   4
#     4  10  21  37  57  80 107 142 183 224 267 317
#     4  10  21  36  55  81 111 142 178 220 266 318
#     4  10  21  36  55  81 111 142 178 221 269 320
#     4  10  21  37  57  80 107 141 180 222 269 319
#     4  10  21  37  58  83 109 140 180 223 267 317
#     4  10  21  37  57  81 110 144 180 219 267 321
#     4   9  18  34  55  77 105 143 183 222 265 315
#
# _framework density 20.343408
#
# number of rings (size 3 to 8) (size 9 to 14) (size 15 to 20)
#    0.000    2.143    0.000    2.571    0.000    7.429 
#    0.000    2.857    0.000    0.000    0.000    0.000 
#    0.000    0.000    0.000    0.000    0.000    0.000 
#
# Total GULP energy -156429.398484 kJ/mol
# GULP energy per Si atom -5586.764232 kJ/mol
# Density = 2.029711 g / cm^3
# Si number density = 20.343408 Si / 1000 Ang^3
#
#
#
# Elastic Constant Matrix: (Units=GPa)
#
#
# Indices 1 2 3 4 5 6 
#
# 1 16.8845 11.2122 0.5041 0.0000 0.0000 0.0000
# 2 11.2122 208.3168 142.4615 0.0000 0.0000 0.0000
# 3 0.5041 142.4615 207.5471 0.0000 0.0000 0.0000
# 4 0.0000 0.0000 0.0000 77.2184 0.0000 0.0000
# 5 0.0000 0.0000 0.0000 0.0000 38.6899 0.0000
# 6 0.0000 0.0000 0.0000 0.0000 0.0000 1.0784
#
#
#
# Elastic Compliance Matrix: (Units=1/GPa)
#
#
# Indices 1 2 3 4 5 6 
#
# 1 0.063231 -0.006216 0.004113 0.000000 0.000000 0.000000
# 2 -0.006216 0.009658 -0.006614 0.000000 0.000000 0.000000
# 3 0.004113 -0.006614 0.009348 0.000000 0.000000 0.000000
# 4 0.000000 0.000000 0.000000 0.012950 0.000000 0.000000
# 5 0.000000 0.000000 0.000000 0.000000 0.025847 0.000000
# 6 0.000000 0.000000 0.000000 0.000000 0.000000 0.927304
#
#
# Mechanical properties :
#
#
# Convention : Reuss Voigt Hill
#
# Bulk Modulus (GPa) = 15.43142 82.34489 48.88815
# Shear Modulus (GPa) = 4.59823 41.96871 23.28347
#
# Velocity S-wave (km/s) = 1.50506 4.54697 3.38675
# Velocity P-wave (km/s) = 3.25917 8.25420 6.27511
#
# Compressibility (1/GPa) = 0.06480286
#
# Stress axis : x y z
#
# Youngs Moduli (GPa) = 15.81505 103.53692 106.97014
#
# Poissons Ratio (x) = 0.64360 -0.43999
# Poissons Ratio (y) = 0.09831 0.70755
# Poissons Ratio (z) = -0.06505 0.68484
#
# Static dielectric constant tensor:
#      x y z
#    x 1.742490 0.000000 0.000000 
#    y 0.000000 1.718710 0.000000 
#    z 0.000000 0.000000 1.673920 
# 
# From -- ./inp_files/6029.got.cif
#   From: 2010.05.17/outbox.cif.g08.bks.cpg/sg25_4_cif.got.tgz:6029.got - 2010.06.04 01:04:00.
