data_PCOD9337236
_publ_section_title
;
Structure prediction by ZEFSAII (Michael W. Deem and Ramdas Pophale) SiO2 
 PCOD9337236
Probable space group: P M M 2
;
_chemical_formula_sum "Si O2"
_cell_formula_units_Z 32
_cell_length_a 15.717709
_cell_length_b 8.921132
_cell_length_c 15.534653
_cell_angle_alpha 90.000000
_cell_angle_beta 90.000000
_cell_angle_gamma 90.000000
_cell_volume 2178.265264
_symmetry_space_group_name_H-M "P M M 2"
_symmetry_group_IT_number 25
_symmetry_cell_setting 'orthorhombic'
loop_
_space_group_symop_operation_xyz
x,y,z
-x,-y,z
-x,y,z
x,-y,z
loop_
_atom_site_type_symbol
_atom_site_label
_atom_site_fract_x
_atom_site_fract_y
_atom_site_fract_z
Si Si1 0.101487 0.677420 0.813130
Si Si2 0.896475 0.172824 0.633203
Si Si3 0.405602 0.824365 0.147049
Si Si4 0.899216 0.821277 0.275940
Si Si5 0.770847 0.678673 0.140695
Si Si6 0.103354 0.327729 0.456664
Si Si7 0.409146 0.176117 0.938345
Si Si8 0.775846 0.818835 0.950856
O O1 0.117309 0.500000 0.818236
O O2 0.128129 0.740058 0.719676
O O3 0.150995 0.762808 0.888015
O O4 0.000000 0.826082 0.631133
O O5 0.867298 0.251290 0.545193
O O6 0.000000 0.298376 0.821516
O O7 0.869295 0.000000 0.636857
O O8 0.500000 0.776148 0.177289
O O9 0.322843 0.731162 0.172646
O O10 0.394190 0.000000 0.169251
O O11 0.408220 0.817086 0.042628
O O12 0.842177 0.739818 0.205188
O O13 0.874236 0.763266 0.370908
O O14 0.000000 0.788571 0.263857
O O15 0.888068 0.000000 0.270370
O O16 0.773934 0.500000 0.134166
O O17 0.784757 0.751451 0.046428
O O18 0.131543 0.500000 0.450805
O O19 0.000000 0.328609 0.459845
O O20 0.500000 0.243208 0.909555
O O21 0.316244 0.234291 0.913535
O O22 0.410707 0.000000 0.915151
O O23 0.774819 0.000000 0.957038
#
# Coordination Sequence:
#
# PCOD9337236 Si02
#       8
#     4   4   4   4   4   4   4   4
#     4  10  20  32  44  60  85 116 148 183 221 256
#     4   9  16  27  44  64  84 108 140 176 214 258
#     4   8  14  27  46  64  83 109 141 177 217 260
#     4  10  20  33  47  62  83 115 154 189 218 255
#     4  11  21  31  44  63  89 118 148 184 223 262
#     4   9  16  27  44  65  87 109 135 173 222 266
#     4   7  11  22  41  62  80 100 130 169 212 254
#     4  10  19  31  46  62  83 114 150 183 215 256
#
# _framework density 14.690588999999999
#
# number of rings (size 3 to 8) (size 9 to 14) (size 15 to 20)
#    0.000    2.750    0.000    4.500    0.000    5.250 
#    0.000    0.000    0.000    1.125    0.000    0.000 
#    0.000    1.000    0.000    6.000    0.000    5.125 
#
# Total GULP energy -178142.184453 kJ/mol
# GULP energy per Si atom -5566.943264 kJ/mol
# Density = 1.465715 g / cm^3
# Si number density = 14.690589 Si / 1000 Ang^3
#
#
#
# Elastic Constant Matrix: (Units=GPa)
#
#
# Indices 1 2 3 4 5 6 
#
# 1 65.8127 52.2561 48.9749 0.0000 0.0000 0.0000
# 2 52.2561 92.6279 48.8670 0.0000 0.0000 0.0000
# 3 48.9749 48.8670 84.7371 0.0000 0.0000 0.0000
# 4 0.0000 0.0000 0.0000 24.3304 0.0000 0.0000
# 5 0.0000 0.0000 0.0000 0.0000 -1.3637 0.0000
# 6 0.0000 0.0000 0.0000 0.0000 0.0000 14.4072
#
#
#
# Elastic Compliance Matrix: (Units=1/GPa)
#
#
# Indices 1 2 3 4 5 6 
#
# 1 0.035014 -0.013046 -0.012713 0.000000 0.000000 0.000000
# 2 -0.013046 0.020378 -0.004211 0.000000 0.000000 0.000000
# 3 -0.012713 -0.004211 0.021578 0.000000 0.000000 0.000000
# 4 0.000000 0.000000 0.000000 0.041101 0.000000 0.000000
# 5 0.000000 0.000000 0.000000 0.000000 -0.733318 0.000000
# 6 0.000000 0.000000 0.000000 0.000000 0.000000 0.069410
#
#
# Mechanical properties :
#
#
# Convention : Reuss Voigt Hill
#
# Bulk Modulus (GPa) = 58.72753 60.37485 59.55119
# Shear Modulus (GPa) = -10.41189 13.68009 1.63410
#
# Velocity S-wave (km/s) = -2.66512 3.05489 1.05582
# Velocity P-wave (km/s) = 5.53106 7.32325 6.48932
#
# Compressibility (1/GPa) = 0.01702779
#
# Stress axis : x y z
#
# Youngs Moduli (GPa) = 28.55988 49.07328 46.34422
#
# Poissons Ratio (x) = 0.64022 0.58919
# Poissons Ratio (y) = 0.37260 0.19517
# Poissons Ratio (z) = 0.36309 0.20667
#
# Static dielectric constant tensor:
#      x y z
#    x 1.507090 0.000000 0.000000 
#    y 0.000000 1.491950 0.000000 
#    z 0.000000 0.000000 1.461270 
# 
# From -- ./inp_files/5757.got.cif
#   From: 2010.05.17/outbox.cif.g08.bks.cpg/sg25_3_cif.got.tgz:5757.got - 2010.06.04 01:04:00.
