data_PCOD9337333
_publ_section_title
;
Structure prediction by ZEFSAII (Michael W. Deem and Ramdas Pophale) SiO2 
 PCOD9337333
Probable space group: P M M 2
;
_chemical_formula_sum "Si O2"
_cell_formula_units_Z 24
_cell_length_a 12.029358
_cell_length_b 8.758049
_cell_length_c 12.974995
_cell_angle_alpha 90.000000
_cell_angle_beta 90.000000
_cell_angle_gamma 90.000000
_cell_volume 1366.963819
_symmetry_space_group_name_H-M "P M M 2"
_symmetry_group_IT_number 25
_symmetry_cell_setting 'orthorhombic'
loop_
_space_group_symop_operation_xyz
x,y,z
-x,-y,z
-x,y,z
x,-y,z
loop_
_atom_site_type_symbol
_atom_site_label
_atom_site_fract_x
_atom_site_fract_y
_atom_site_fract_z
Si Si1 0.129727 0.816122 0.895030
Si Si2 0.500000 0.181944 0.636464
Si Si3 0.726097 0.816480 0.322185
Si Si4 0.126434 0.185862 0.131841
Si Si5 0.500000 0.681467 0.405625
Si Si6 0.130181 0.182246 0.525880
Si Si7 0.728988 0.680806 0.711388
O O1 0.210775 0.737337 0.814713
O O2 0.000000 0.780252 0.872381
O O3 0.141047 0.000000 0.887047
O O4 0.151630 0.771402 0.013874
O O5 0.500000 0.246340 0.519973
O O6 0.389452 0.239992 0.692855
O O7 0.500000 0.000000 0.631093
O O8 0.785610 0.764190 0.217168
O O9 0.609980 0.737469 0.346994
O O10 0.809389 0.787738 0.417569
O O11 0.708897 0.000000 0.317013
O O12 0.000000 0.235128 0.156551
O O13 0.125241 0.000000 0.134515
O O14 0.500000 0.500000 0.415678
O O15 0.192637 0.270478 0.616163
O O16 0.000000 0.219914 0.521335
O O17 0.139954 0.000000 0.546427
O O18 0.714337 0.500000 0.712467
#
# Coordination Sequence:
#
# PCOD9337333 Si02
#       7
#     4   2   4   4   2   4   4
#     4   9  18  35  59  85 115 152 193 235 278 327
#     4  12  24  42  63  80 103 144 193 237 283 337
#     4  10  19  34  58  84 111 146 190 234 278 328
#     4   8  15  31  58  89 115 143 187 239 280 319
#     4  12  24  38  55  80 115 152 187 227 279 339
#     4  10  20  33  53  82 114 147 184 227 276 333
#     4  12  24  37  55  82 115 148 185 231 284 341
#
# _framework density 17.557158000000001
#
# number of rings (size 3 to 8) (size 9 to 14) (size 15 to 20)
#    0.000    1.833    1.667    5.000    0.000    4.667 
#    0.000    1.667    0.000    4.500    0.000    0.000 
#    0.000    0.000    0.000    0.000    0.000    0.000 
#
# Total GULP energy -134048.944549 kJ/mol
# GULP energy per Si atom -5585.372690 kJ/mol
# Density = 1.751720 g / cm^3
# Si number density = 17.557158 Si / 1000 Ang^3
#
#
#
# Elastic Constant Matrix: (Units=GPa)
#
#
# Indices 1 2 3 4 5 6 
#
# 1 167.9714 77.5930 101.4332 0.0000 0.0000 0.0000
# 2 77.5930 74.0517 64.5766 0.0000 0.0000 0.0000
# 3 101.4332 64.5766 135.6026 0.0000 0.0000 0.0000
# 4 0.0000 0.0000 0.0000 -14.2642 0.0000 0.0000
# 5 0.0000 0.0000 0.0000 0.0000 6.2701 0.0000
# 6 0.0000 0.0000 0.0000 0.0000 0.0000 -23.9550
#
#
#
# Elastic Compliance Matrix: (Units=1/GPa)
#
#
# Indices 1 2 3 4 5 6 
#
# 1 0.013834 -0.009358 -0.005892 0.000000 0.000000 0.000000
# 2 -0.009358 0.029425 -0.007013 0.000000 0.000000 0.000000
# 3 -0.005892 -0.007013 0.015121 0.000000 0.000000 0.000000
# 4 0.000000 0.000000 0.000000 -0.070106 0.000000 0.000000
# 5 0.000000 0.000000 0.000000 0.000000 0.159487 0.000000
# 6 0.000000 0.000000 0.000000 0.000000 0.000000 -0.041745
#
#
# Mechanical properties :
#
#
# Convention : Reuss Voigt Hill
#
# Bulk Modulus (GPa) = 72.17412 96.09237 84.13324
# Shear Modulus (GPa) = 32.22473 2.54505 17.38489
#
# Velocity S-wave (km/s) = 4.28883 1.20529 3.15014
# Velocity P-wave (km/s) = 8.10695 7.53571 7.82655
#
# Compressibility (1/GPa) = 0.01385538
#
# Stress axis : x y z
#
# Youngs Moduli (GPa) = 72.28608 33.98486 66.13160
#
# Poissons Ratio (x) = 0.31802 0.38963
# Poissons Ratio (y) = 0.67642 0.46378
# Poissons Ratio (z) = 0.42589 0.23834
#
# Static dielectric constant tensor:
#      x y z
#    x 1.574180 0.000000 0.000000 
#    y 0.000000 1.585810 0.000000 
#    z 0.000000 0.000000 1.584220 
# 
# From -- ./inp_files/3936.got.cif
#   From: 2010.05.17/outbox.cif.g08.bks.cpg/sg25_2_cif.got.tgz:3936.got - 2010.06.04 01:04:00.
