data_PCOD9337076
_publ_section_title
;
Structure prediction by ZEFSAII (Michael W. Deem and Ramdas Pophale) SiO2 
 PCOD9337076
Probable space group: I 21 21 21
;
_chemical_formula_sum "Si O2"
_cell_formula_units_Z 30
_cell_length_a 6.000000
_cell_length_b 27.000000
_cell_length_c 18.000000
_cell_angle_alpha 90.000000
_cell_angle_beta 90.000000
_cell_angle_gamma 90.000000
_cell_volume 2916.000000
_symmetry_space_group_name_H-M "I 21 21 21"
_symmetry_group_IT_number 24
_symmetry_cell_setting 'orthorhombic'
loop_
_space_group_symop_operation_xyz
x,y,z
-x,1/2-y,z
x,-y,1/2-z
1/2-x,y,-z
1/2+x,1/2+y,1/2+z
1/2-x,-y,1/2+z
1/2+x,1/2-y,-z
-x,1/2+y,1/2-z
loop_
_atom_site_type_symbol
_atom_site_label
_atom_site_fract_x
_atom_site_fract_y
_atom_site_fract_z
Si Si1 0.342985 0.977193 0.675842
Si Si2 0.853706 0.088303 0.080321
Si Si3 0.811634 0.677102 0.420630
Si Si4 0.000000 0.750000 0.306168
Si Si5 0.972016 0.385520 0.815004
Si Si6 0.241346 0.622651 0.088276
Si Si7 0.737611 0.573012 0.089198
Si Si8 0.139897 0.300847 0.707231
O O1 0.481961 0.954313 0.607885
O O2 0.190195 0.931147 0.703359
O O3 0.456775 0.000000 0.750000
O O4 0.222150 0.022914 0.636522
O O5 0.699074 0.092851 0.153065
O O6 0.975496 0.141299 0.072231
O O7 0.750000 0.076267 0.000000
O O8 0.750000 0.698310 0.500000
O O9 0.623854 0.641375 0.388287
O O10 0.844725 0.718706 0.360086
O O11 0.149863 0.714104 0.257446
O O12 0.005205 0.343685 0.752398
O O13 0.489592 0.597603 0.103879
O O14 0.264495 0.673654 0.133595
O O15 0.990634 0.598076 0.106380
O O16 0.250000 0.629540 0.000000
O O17 0.750000 0.565384 0.000000
O O18 0.000000 0.250000 0.695891
#
# Coordination Sequence:
#
# PCOD9337076 Si02
#       8
#     8   8   8   4   8   8   8   8
#     4  11  27  41  67 104 138 182 239 293 358 441
#     4  11  24  40  67  93 134 181 227 288 351 422
#     4  11  23  41  62  93 132 174 233 288 345 417
#     4  12  26  40  64 102 130 184 236 288 364 432
#     4  11  24  42  66  95 139 184 233 286 359 425
#     4  10  25  49  75 107 145 191 244 309 374 441
#     4  10  24  46  74 104 147 191 239 299 370 444
#     4  12  26  45  74  99 143 190 241 305 367 438
#
# _framework density 10.288066000000001
#
# number of rings (size 3 to 8) (size 9 to 14) (size 15 to 20)
#    0.000    1.067    4.000    0.800    7.467    2.667 
#    1.200    0.000    0.000    0.000    0.000    0.000 
#    0.000    0.000    0.000    0.000    0.000    0.000 
#
# Total GULP energy -167167.125542 kJ/mol
# GULP energy per Si atom -5572.237518 kJ/mol
# Density = 1.026465 g / cm^3
# Si number density = 10.288066 Si / 1000 Ang^3
#
#
#
# Elastic Constant Matrix: (Units=GPa)
#
#
# Indices 1 2 3 4 5 6 
#
# 1 75.1559 33.9890 22.4389 0.0000 0.0000 0.0000
# 2 33.9890 108.3765 62.0066 0.0000 0.0000 0.0000
# 3 22.4389 62.0066 61.8888 0.0000 0.0000 0.0000
# 4 0.0000 0.0000 0.0000 47.2024 0.0000 0.0000
# 5 0.0000 0.0000 0.0000 0.0000 21.0053 0.0000
# 6 0.0000 0.0000 0.0000 0.0000 0.0000 -1.7420
#
#
#
# Elastic Compliance Matrix: (Units=1/GPa)
#
#
# Indices 1 2 3 4 5 6 
#
# 1 0.015587 -0.003878 -0.001766 0.000000 0.000000 0.000000
# 2 -0.003878 0.022586 -0.021223 0.000000 0.000000 0.000000
# 3 -0.001766 -0.021223 0.038061 0.000000 0.000000 0.000000
# 4 0.000000 0.000000 0.000000 0.021185 0.000000 0.000000
# 5 0.000000 0.000000 0.000000 0.000000 0.047607 0.000000
# 6 0.000000 0.000000 0.000000 0.000000 0.000000 -0.574048
#
#
# Mechanical properties :
#
#
# Convention : Reuss Voigt Hill
#
# Bulk Modulus (GPa) = 44.44308 53.58781 49.01545
# Shear Modulus (GPa) = -13.59477 21.75891 4.08207
#
# Velocity S-wave (km/s) = -2.57321 3.25542 1.41003
# Velocity P-wave (km/s) = 3.58018 6.34276 5.15016
#
# Compressibility (1/GPa) = 0.02250069
#
# Stress axis : x y z
#
# Youngs Moduli (GPa) = 64.15723 44.27600 26.27341
#
# Poissons Ratio (x) = 0.17170 0.04640
# Poissons Ratio (y) = 0.24880 0.55759
# Poissons Ratio (z) = 0.11330 0.93965
#
# Static dielectric constant tensor:
#      x y z
#    x 1.537810 0.000000 0.000000 
#    y 0.000000 1.735810 0.000000 
#    z 0.000000 0.000000 1.730490 
# 
# From -- ./inp_files/28916.got.cif
#   From: 2010.05.17/outbox.ucp.g08.bks.cvg/sg24_15_cif.got.tgz:28916.got - 2010.06.11 15:20:44.
