data_PCOD9337144
_publ_section_title
;
Structure prediction by ZEFSAII (Michael W. Deem and Ramdas Pophale) SiO2 
 PCOD9337144
Probable space group: P M M 2
;
_chemical_formula_sum "Si O2"
_cell_formula_units_Z 21
_cell_length_a 16.502584
_cell_length_b 7.590787
_cell_length_c 6.993306
_cell_angle_alpha 90.000000
_cell_angle_beta 90.000000
_cell_angle_gamma 90.000000
_cell_volume 876.034659
_symmetry_space_group_name_H-M "P M M 2"
_symmetry_group_IT_number 25
_symmetry_cell_setting 'orthorhombic'
loop_
_space_group_symop_operation_xyz
x,y,z
-x,-y,z
-x,y,z
x,-y,z
loop_
_atom_site_type_symbol
_atom_site_label
_atom_site_fract_x
_atom_site_fract_y
_atom_site_fract_z
Si Si1 0.379355 0.296501 0.061250
Si Si2 0.760911 0.199138 0.615355
Si Si3 0.589923 0.215590 0.510214
Si Si4 0.203032 0.711241 0.187648
Si Si5 0.910949 0.291600 0.872989
Si Si6 0.500000 0.000000 0.928179
O O1 0.395962 0.500000 0.014072
O O2 0.401782 0.267528 0.286861
O O3 0.282920 0.263774 0.057456
O O4 0.429940 0.153801 0.947489
O O5 0.670534 0.282739 0.617245
O O6 0.781961 0.201682 0.390195
O O7 0.839278 0.273385 0.719982
O O8 0.752453 0.000000 0.683774
O O9 0.500000 0.271631 0.572698
O O10 0.590079 0.000000 0.518024
O O11 0.197231 0.500000 0.221360
O O12 0.125742 0.777997 0.071746
O O13 0.918926 0.500000 0.900959
O O14 0.000000 0.221055 0.822374
#
# Coordination Sequence:
#
# PCOD9337144 Si02
#       6
#     4   4   4   4   4   1
#     4  10  18  29  50  81 117 158 202 249 299 356
#     4  10  21  35  59  92 125 157 193 244 302 366
#     4   9  15  29  51  78 116 158 197 240 290 351
#     4   9  20  38  61  88 117 157 204 250 305 364
#     4  10  22  42  65  86 115 156 202 256 312 368
#     4  12  18  28  48  82 120 156 206 250 296 358
#
# _framework density 23.971654999999998
#
# number of rings (size 3 to 8) (size 9 to 14) (size 15 to 20)
#    0.000    2.286    1.905    0.857    1.333    2.667 
#    0.000    1.905    2.095    0.000    0.000    0.000 
#    0.000    0.000    0.000    0.000    0.000    0.000 
#
# Total GULP energy -117168.564493 kJ/mol
# GULP energy per Si atom -5579.455452 kJ/mol
# Density = 2.391709 g / cm^3
# Si number density = 23.971655 Si / 1000 Ang^3
#
#
#
# Elastic Constant Matrix: (Units=GPa)
#
#
# Indices 1 2 3 4 5 6 
#
# 1 230.5697 40.9789 59.0104 0.0000 0.0000 0.0000
# 2 40.9789 107.6530 16.3660 0.0000 0.0000 0.0000
# 3 59.0104 16.3660 72.3965 0.0000 0.0000 0.0000
# 4 0.0000 0.0000 0.0000 29.1259 0.0000 0.0000
# 5 0.0000 0.0000 0.0000 0.0000 19.0477 0.0000
# 6 0.0000 0.0000 0.0000 0.0000 0.0000 12.8012
#
#
#
# Elastic Compliance Matrix: (Units=1/GPa)
#
#
# Indices 1 2 3 4 5 6 
#
# 1 0.005710 -0.001518 -0.004311 0.000000 0.000000 0.000000
# 2 -0.001518 0.010023 -0.001028 0.000000 0.000000 0.000000
# 3 -0.004311 -0.001028 0.017559 0.000000 0.000000 0.000000
# 4 0.000000 0.000000 0.000000 0.034334 0.000000 0.000000
# 5 0.000000 0.000000 0.000000 0.000000 0.052500 0.000000
# 6 0.000000 0.000000 0.000000 0.000000 0.000000 0.078118
#
#
# Mechanical properties :
#
#
# Convention : Reuss Voigt Hill
#
# Bulk Modulus (GPa) = 51.07950 71.48110 61.28030
# Shear Modulus (GPa) = 22.88480 31.81256 27.34868
#
# Velocity S-wave (km/s) = 3.09311 3.64688 3.38135
# Velocity P-wave (km/s) = 5.84046 6.90049 6.39248
#
# Compressibility (1/GPa) = 0.01957733
#
# Stress axis : x y z
#
# Youngs Moduli (GPa) = 175.12179 99.76682 56.94956
#
# Poissons Ratio (x) = 0.15147 0.24552
# Poissons Ratio (y) = 0.26588 0.05857
# Poissons Ratio (z) = 0.75500 0.10260
#
# Static dielectric constant tensor:
#      x y z
#    x 1.953030 0.000000 0.000000 
#    y 0.000000 1.875390 0.000000 
#    z 0.000000 0.000000 1.971230 
# 
# From -- ./inp_files/3068.got.cif
#   From: 2010.05.17/outbox.cif.g08.bks.cpg/sg25_2_cif.got.tgz:3068.got - 2010.06.04 01:04:00.
