data_PCOD9337877
_publ_section_title
;
Structure prediction by ZEFSAII (Michael W. Deem and Ramdas Pophale) SiO2 
 PCOD9337877
Probable space group: P M C 21
;
_chemical_formula_sum "Si O2"
_cell_formula_units_Z 24
_cell_length_a 27.723807
_cell_length_b 7.058398
_cell_length_c 5.410063
_cell_angle_alpha 90.000000
_cell_angle_beta 90.000000
_cell_angle_gamma 90.000000
_cell_volume 1058.671770
_symmetry_space_group_name_H-M "P M C 21"
_symmetry_group_IT_number 26
_symmetry_cell_setting 'orthorhombic'
loop_
_space_group_symop_operation_xyz
x,y,z
-x,-y,1/2+z
-x,y,z
x,-y,1/2+z
loop_
_atom_site_type_symbol
_atom_site_label
_atom_site_fract_x
_atom_site_fract_y
_atom_site_fract_z
Si Si1 0.697969 0.125781 0.073410
Si Si2 0.404870 0.235173 0.030559
Si Si3 0.943646 0.717443 0.992407
Si Si4 0.443711 0.805681 0.031068
Si Si5 0.904855 0.711991 0.492750
Si Si6 0.805651 0.124601 0.103581
O O1 0.651744 0.261233 0.076728
O O2 0.694330 0.991659 0.316192
O O3 0.751802 0.209949 0.084431
O O4 0.435606 0.291460 0.268249
O O5 0.416165 0.007443 0.012422
O O6 0.421411 0.302375 0.763045
O O7 0.914268 0.799333 0.223316
O O8 0.923995 0.502227 0.965047
O O9 0.000000 0.715952 0.053186
O O10 0.934877 0.798965 0.719966
O O11 0.500000 0.842050 0.076414
O O12 0.849234 0.729782 0.567262
O O13 0.809662 0.021963 0.371080
#
# Coordination Sequence:
#
# PCOD9337877 Si02
#       6
#     4   4   4   4   4   4
#     4  10  16  27  38  51  69 104 147 172 204 238
#     4  10  14  22  31  42  62  89 125 172 209 238
#     4  10  19  33  58  76  90 115 145 190 225 259
#     4  10  16  20  29  45  64  87 122 179 226 238
#     4  10  18  32  51  75  96 114 150 186 223 262
#     4  10  21  32  47  65  93 127 151 183 221 259
#
# _framework density 22.669917000000002
#
# number of rings (size 3 to 8) (size 9 to 14) (size 15 to 20)
#    0.000    2.000    3.333    6.000    0.000    0.000 
#    0.000    0.000    0.000   17.000    0.000    0.000 
#    0.000    0.000    0.000    0.000    0.000    0.000 
#
# Total GULP energy -133926.036618 kJ/mol
# GULP energy per Si atom -5580.251526 kJ/mol
# Density = 2.261832 g / cm^3
# Si number density = 22.669917 Si / 1000 Ang^3
#
#
#
# Elastic Constant Matrix: (Units=GPa)
#
#
# Indices 1 2 3 4 5 6 
#
# 1 143.7790 -22.8655 -22.3723 0.0000 0.0000 0.0000
# 2 -22.8655 52.6540 -26.1356 0.0000 0.0000 0.0000
# 3 -22.3723 -26.1356 155.6650 0.0000 0.0000 0.0000
# 4 0.0000 0.0000 0.0000 -15.4367 0.0000 0.0000
# 5 0.0000 0.0000 0.0000 0.0000 40.5864 0.0000
# 6 0.0000 0.0000 0.0000 0.0000 0.0000 120.7936
#
#
#
# Elastic Compliance Matrix: (Units=1/GPa)
#
#
# Indices 1 2 3 4 5 6 
#
# 1 0.007944 0.004382 0.001877 0.000000 0.000000 0.000000
# 2 0.004382 0.023135 0.004514 0.000000 0.000000 0.000000
# 3 0.001877 0.004514 0.007452 0.000000 0.000000 0.000000
# 4 0.000000 0.000000 0.000000 -0.064781 0.000000 0.000000
# 5 0.000000 0.000000 0.000000 0.000000 0.024639 0.000000
# 6 0.000000 0.000000 0.000000 0.000000 0.000000 0.008279
#
#
# Mechanical properties :
#
#
# Convention : Reuss Voigt Hill
#
# Bulk Modulus (GPa) = 16.64517 23.26122 19.95319
# Shear Modulus (GPa) = 971.36770 57.42009 514.39389
#
# Velocity S-wave (km/s) = 20.72229 5.03823 15.07974
# Velocity P-wave (km/s) = 24.08131 6.64290 17.66405
#
# Compressibility (1/GPa) = 0.06007749
#
# Stress axis : x y z
#
# Youngs Moduli (GPa) = 125.87996 43.22394 134.19625
#
# Poissons Ratio (x) = -0.18939 -0.25194
# Poissons Ratio (y) = -0.55156 -0.60577
# Poissons Ratio (z) = -0.23633 -0.19512
#
# Static dielectric constant tensor:
#      x y z
#    x 1.804410 0.000000 0.000000 
#    y 0.000000 1.777860 0.000000 
#    z 0.000000 0.000000 1.930160 
# 
# From -- ./inp_files/1025.got.cif
#   From: 2010.05.17/outbox.cif.g08.bks.cpg/sg26_1_cif.got.tgz:1025.got - 2010.06.04 01:07:29.
