data_PCOD9337449
_publ_section_title
;
Structure prediction by ZEFSAII (Michael W. Deem and Ramdas Pophale) SiO2 
 PCOD9337449
Probable space group: P M M 2
;
_chemical_formula_sum "Si O2"
_cell_formula_units_Z 22
_cell_length_a 7.350901
_cell_length_b 14.548806
_cell_length_c 12.538710
_cell_angle_alpha 90.000000
_cell_angle_beta 90.000000
_cell_angle_gamma 90.000000
_cell_volume 1340.975319
_symmetry_space_group_name_H-M "P M M 2"
_symmetry_group_IT_number 25
_symmetry_cell_setting 'orthorhombic'
loop_
_space_group_symop_operation_xyz
x,y,z
-x,-y,z
-x,y,z
x,-y,z
loop_
_atom_site_type_symbol
_atom_site_label
_atom_site_fract_x
_atom_site_fract_y
_atom_site_fract_z
Si Si1 0.215584 0.108362 0.195070
Si Si2 0.782371 0.108832 0.627772
Si Si3 0.500000 0.603862 0.697276
Si Si4 0.783366 0.396822 0.508374
Si Si5 0.500000 0.798999 0.784645
Si Si6 0.500000 0.109413 0.013486
Si Si7 0.220190 0.208338 0.408727
O O1 0.326911 0.129581 0.088624
O O2 0.280874 0.165876 0.297239
O O3 0.000000 0.123001 0.179832
O O4 0.242932 0.000000 0.218765
O O5 0.672295 0.160948 0.719356
O O6 0.726014 0.149641 0.512709
O O7 0.000000 0.122248 0.638942
O O8 0.745501 0.000000 0.631936
O O9 0.500000 0.500000 0.741580
O O10 0.327271 0.613110 0.617940
O O11 0.500000 0.688821 0.776848
O O12 0.746225 0.500000 0.467407
O O13 0.728663 0.313749 0.431179
O O14 0.000000 0.389088 0.527426
O O15 0.500000 0.835726 0.904204
O O16 0.500000 0.000000 0.989755
O O17 0.000000 0.203932 0.405584
#
# Coordination Sequence:
#
# PCOD9337449 Si02
#       7
#     4   4   2   4   2   2   4
#     4   9  18  33  51  70  96 130 166 204 241 285
#     4  10  20  32  48  75 107 133 158 196 251 309
#     4  10  20  33  51  72  96 131 169 204 247 300
#     4   9  17  30  48  73 104 131 159 198 246 303
#     4  12  22  35  52  71  99 133 170 211 250 296
#     4  10  22  36  49  69  93 126 175 211 239 286
#     4   9  16  29  50  75 101 129 160 196 245 299
#
# _framework density 16.40597
#
# number of rings (size 3 to 8) (size 9 to 14) (size 15 to 20)
#    0.000    2.364    1.818    1.364    0.000    4.364 
#    0.000    3.636    0.000    1.091    0.000    0.000 
#    0.000    0.000    0.000    0.000    0.000    0.000 
#
# Total GULP energy -122714.574936 kJ/mol
# GULP energy per Si atom -5577.935224 kJ/mol
# Density = 1.636863 g / cm^3
# Si number density = 16.405970 Si / 1000 Ang^3
#
#
#
# Elastic Constant Matrix: (Units=GPa)
#
#
# Indices 1 2 3 4 5 6 
#
# 1 69.7715 41.4032 39.0897 0.0000 0.0000 0.0000
# 2 41.4032 135.8165 88.8714 0.0000 0.0000 0.0000
# 3 39.0897 88.8714 137.7797 0.0000 0.0000 0.0000
# 4 0.0000 0.0000 0.0000 26.3417 0.0000 0.0000
# 5 0.0000 0.0000 0.0000 0.0000 15.1631 0.0000
# 6 0.0000 0.0000 0.0000 0.0000 0.0000 15.1752
#
#
#
# Elastic Compliance Matrix: (Units=1/GPa)
#
#
# Indices 1 2 3 4 5 6 
#
# 1 0.018069 -0.003727 -0.002723 0.000000 0.000000 0.000000
# 2 -0.003727 0.013509 -0.007656 0.000000 0.000000 0.000000
# 3 -0.002723 -0.007656 0.012969 0.000000 0.000000 0.000000
# 4 0.000000 0.000000 0.000000 0.037963 0.000000 0.000000
# 5 0.000000 0.000000 0.000000 0.000000 0.065950 0.000000
# 6 0.000000 0.000000 0.000000 0.000000 0.000000 0.065897
#
#
# Mechanical properties :
#
#
# Convention : Reuss Voigt Hill
#
# Bulk Modulus (GPa) = 61.21530 75.78847 68.50189
# Shear Modulus (GPa) = 20.16026 22.93622 21.54824
#
# Velocity S-wave (km/s) = 3.50928 3.74310 3.62807
# Velocity P-wave (km/s) = 7.33579 8.06083 7.70684
#
# Compressibility (1/GPa) = 0.01633578
#
# Stress axis : x y z
#
# Youngs Moduli (GPa) = 55.34220 74.02575 77.10811
#
# Poissons Ratio (x) = 0.27589 0.20993
# Poissons Ratio (y) = 0.20625 0.59035
# Poissons Ratio (z) = 0.15067 0.56675
#
# Static dielectric constant tensor:
#      x y z
#    x 1.593620 0.000000 0.000000 
#    y 0.000000 1.562820 0.000000 
#    z 0.000000 0.000000 1.502680 
# 
# From -- ./inp_files/2043.got.cif
#   From: 2010.05.17/outbox.cif.g08.bks.cpg/sg25_2_cif.got.tgz:2043.got - 2010.06.04 01:04:00.
