data_PCOD9337278
_publ_section_title
;
Structure prediction by ZEFSAII (Michael W. Deem and Ramdas Pophale) SiO2 
 PCOD9337278
Probable space group: P M M 2
;
_chemical_formula_sum "Si O2"
_cell_formula_units_Z 26
_cell_length_a 7.740473
_cell_length_b 7.296871
_cell_length_c 19.954289
_cell_angle_alpha 90.000000
_cell_angle_beta 90.000000
_cell_angle_gamma 90.000000
_cell_volume 1127.042846
_symmetry_space_group_name_H-M "P M M 2"
_symmetry_group_IT_number 25
_symmetry_cell_setting 'orthorhombic'
loop_
_space_group_symop_operation_xyz
x,y,z
-x,-y,z
-x,y,z
x,-y,z
loop_
_atom_site_type_symbol
_atom_site_label
_atom_site_fract_x
_atom_site_fract_y
_atom_site_fract_z
Si Si1 0.500000 0.219504 0.421991
Si Si2 0.000000 0.247867 0.916122
Si Si3 0.189261 0.223661 0.513831
Si Si4 0.197009 0.276597 0.169791
Si Si5 0.707336 0.786088 0.658903
Si Si6 0.299776 0.223832 0.808661
Si Si7 0.694370 0.722771 0.019757
Si Si8 0.500000 0.717034 0.264400
O O1 0.334052 0.286839 0.462643
O O2 0.500000 0.257891 0.343590
O O3 0.500000 0.000000 0.427910
O O4 0.846356 0.282294 0.860207
O O5 0.847727 0.213239 0.972359
O O6 0.216674 0.288923 0.590152
O O7 0.000000 0.273780 0.490202
O O8 0.199796 0.000000 0.516751
O O9 0.193773 0.500000 0.170286
O O10 0.268522 0.225196 0.096567
O O11 0.328593 0.213358 0.227033
O O12 0.000000 0.215744 0.178497
O O13 0.500000 0.778422 0.651573
O O14 0.744838 0.713687 0.733008
O O15 0.759083 0.000000 0.661381
O O16 0.500000 0.276629 0.823489
O O17 0.296347 0.000000 0.809243
O O18 0.500000 0.779016 0.000249
O O19 0.701799 0.500000 0.016314
O O20 0.500000 0.500000 0.252169
#
# Coordination Sequence:
#
# PCOD9337278 Si02
#       8
#     2   2   4   4   4   4   4   2
#     4  10  20  34  50  76 113 142 164 208 267 314
#     4  12  20  28  46  74 102 128 158 200 264 320
#     4   9  16  26  45  72 100 131 168 205 249 303
#     4   9  16  30  53  80 101 120 156 208 260 305
#     4   8  13  25  44  65  93 127 166 212 253 293
#     4   9  19  32  44  64  99 137 172 213 258 305
#     4  10  19  32  51  75  99 124 160 212 267 311
#     4  10  20  34  56  82 107 134 170 214 259 312
#
# _framework density 23.069220999999999
#
# number of rings (size 3 to 8) (size 9 to 14) (size 15 to 20)
#    0.000    2.615    2.308    1.846    1.077    0.615 
#    0.000    0.000    0.000    1.846    0.000    2.154 
#    0.000    0.000    0.000    0.000    0.000    0.000 
#
# Total GULP energy -144760.002440 kJ/mol
# GULP energy per Si atom -5567.692402 kJ/mol
# Density = 2.301671 g / cm^3
# Si number density = 23.069221 Si / 1000 Ang^3
#
#
#
# Elastic Constant Matrix: (Units=GPa)
#
#
# Indices 1 2 3 4 5 6 
#
# 1 246.5883 11.2338 145.2780 0.0000 0.0000 0.0000
# 2 11.2338 92.5458 -0.0160 0.0000 0.0000 0.0000
# 3 145.2780 -0.0160 205.4463 0.0000 0.0000 0.0000
# 4 0.0000 0.0000 0.0000 66.0205 0.0000 0.0000
# 5 0.0000 0.0000 0.0000 0.0000 -435.5047 0.0000
# 6 0.0000 0.0000 0.0000 0.0000 0.0000 -17.0950
#
#
#
# Elastic Compliance Matrix: (Units=1/GPa)
#
#
# Indices 1 2 3 4 5 6 
#
# 1 0.007018 -0.000853 -0.004963 0.000000 0.000000 0.000000
# 2 -0.000853 0.010909 0.000604 0.000000 0.000000 0.000000
# 3 -0.004963 0.000604 0.008377 0.000000 0.000000 0.000000
# 4 0.000000 0.000000 0.000000 0.015147 0.000000 0.000000
# 5 0.000000 0.000000 0.000000 0.000000 -0.002296 0.000000
# 6 0.000000 0.000000 0.000000 0.000000 0.000000 -0.058497
#
#
# Mechanical properties :
#
#
# Convention : Reuss Voigt Hill
#
# Bulk Modulus (GPa) = 62.96973 95.28577 79.12775
# Shear Modulus (GPa) = -1379.19653 -51.44352 -715.32003
#
# Velocity S-wave (km/s) = -24.47753 -4.72737 -17.62806
# Velocity P-wave (km/s) = 27.77608 3.40537 19.49248
#
# Compressibility (1/GPa) = 0.01588065
#
# Stress axis : x y z
#
# Youngs Moduli (GPa) = 142.49099 91.66679 119.37727
#
# Poissons Ratio (x) = 0.07817 0.59244
# Poissons Ratio (y) = 0.12151 -0.07209
# Poissons Ratio (z) = 0.70714 -0.05535
#
# Static dielectric constant tensor:
#      x y z
#    x 2.056300 0.000000 0.000000 
#    y 0.000000 1.970150 0.000000 
#    z 0.000000 0.000000 1.805110 
# 
# From -- ./inp_files/6171.got.cif
#   From: 2010.05.17/outbox.cif.g08.bks.cpg/sg25_4_cif.got.tgz:6171.got - 2010.06.04 01:04:00.
