data_PCOD9337615
_publ_section_title
;
Structure prediction by ZEFSAII (Michael W. Deem and Ramdas Pophale) SiO2 
 PCOD9337615
Probable space group: P M M 2
;
_chemical_formula_sum "Si O2"
_cell_formula_units_Z 32
_cell_length_a 15.418546
_cell_length_b 7.758441
_cell_length_c 12.689211
_cell_angle_alpha 90.000000
_cell_angle_beta 90.000000
_cell_angle_gamma 90.000000
_cell_volume 1517.932647
_symmetry_space_group_name_H-M "P M M 2"
_symmetry_group_IT_number 25
_symmetry_cell_setting 'orthorhombic'
loop_
_space_group_symop_operation_xyz
x,y,z
-x,-y,z
-x,y,z
x,-y,z
loop_
_atom_site_type_symbol
_atom_site_label
_atom_site_fract_x
_atom_site_fract_y
_atom_site_fract_z
Si Si1 0.866041 0.200050 0.162350
Si Si2 0.713249 0.708680 0.454517
Si Si3 0.673991 0.708756 0.223993
Si Si4 0.599954 0.796168 0.658244
Si Si5 0.724672 0.294062 0.851212
Si Si6 0.905804 0.296520 0.399567
Si Si7 0.906163 0.704374 0.923400
Si Si8 0.591723 0.710464 0.019438
O O1 0.763404 0.225041 0.174918
O O2 0.900610 0.278198 0.272196
O O3 0.889662 0.000000 0.161815
O O4 0.893228 0.276026 0.049819
O O5 0.717187 0.500000 0.455357
O O6 0.670016 0.765768 0.344285
O O7 0.652574 0.761425 0.550624
O O8 0.814442 0.770541 0.448117
O O9 0.678552 0.500000 0.225361
O O10 0.601358 0.759646 0.141044
O O11 0.500000 0.726363 0.659602
O O12 0.664233 0.732691 0.750221
O O13 0.592872 0.000000 0.671304
O O14 0.732401 0.500000 0.864240
O O15 0.822615 0.225112 0.860753
O O16 0.670427 0.224691 0.950063
O O17 0.906777 0.500000 0.423322
O O18 0.000000 0.223841 0.433228
O O19 0.909842 0.500000 0.902186
O O20 0.000000 0.779890 0.895521
O O21 0.500000 0.767336 0.974347
O O22 0.593586 0.500000 0.015713
#
# Coordination Sequence:
#
# PCOD9337615 Si02
#       8
#     4   4   4   4   4   4   4   4
#     4  11  20  29  47  78 117 157 194 227 264 319
#     4   9  19  35  59  86 110 142 189 237 279 326
#     4   9  17  33  54  79 114 149 183 227 281 332
#     4  11  25  43  61  81 109 147 188 232 285 342
#     4  10  20  37  61  84 109 142 187 238 282 329
#     4   9  18  34  56  82 114 151 189 230 276 327
#     4  10  20  35  56  81 111 149 189 229 277 332
#     4   9  16  28  52  84 111 136 173 226 284 337
#
# _framework density 21.081306999999999
#
# number of rings (size 3 to 8) (size 9 to 14) (size 15 to 20)
#    0.000    2.250    1.250    3.000    0.000    6.500 
#    0.000    1.875    0.000    4.125    0.000    0.000 
#    0.000    0.000    0.000    0.000    0.000    0.000 
#
# Total GULP energy -178384.519637 kJ/mol
# GULP energy per Si atom -5574.516239 kJ/mol
# Density = 2.103332 g / cm^3
# Si number density = 21.081307 Si / 1000 Ang^3
#
#
#
# Elastic Constant Matrix: (Units=GPa)
#
#
# Indices 1 2 3 4 5 6 
#
# 1 199.2555 5.3343 81.5896 0.0000 0.0000 0.0000
# 2 5.3343 25.0756 -2.7481 0.0000 0.0000 0.0000
# 3 81.5896 -2.7481 90.8995 0.0000 0.0000 0.0000
# 4 0.0000 0.0000 0.000050848.9002 0.0000 0.0000
# 5 0.0000 0.0000 0.0000 0.0000 827.7473 0.0000
# 6 0.0000 0.0000 0.0000 0.0000 0.0000 31.2912
#
#
#
# Elastic Compliance Matrix: (Units=1/GPa)
#
#
# Indices 1 2 3 4 5 6 
#
# 1 0.008091 -0.002526 -0.007339 0.000000 0.000000 0.000000
# 2 -0.002526 0.040800 0.003500 0.000000 0.000000 0.000000
# 3 -0.007339 0.003500 0.017694 0.000000 0.000000 0.000000
# 4 0.000000 0.000000 0.000000 0.000020 0.000000 0.000000
# 5 0.000000 0.000000 0.000000 0.000000 0.001208 0.000000
# 6 0.000000 0.000000 0.000000 0.000000 0.000000 0.031958
#
#
# Mechanical properties :
#
#
# Convention : Reuss Voigt Hill
#
# Bulk Modulus (GPa) = 18.56746 53.73134 36.14940
# Shear Modulus (GPa) = 38.32804 10356.99140 5197.65972
#
# Velocity S-wave (km/s) = 4.26855 70.16797 49.70797
# Velocity P-wave (km/s) = 5.75506 81.18047 57.54733
#
# Compressibility (1/GPa) = 0.05385765
#
# Stress axis : x y z
#
# Youngs Moduli (GPa) = 123.58743 24.50960 56.51512
#
# Poissons Ratio (x) = 0.06190 0.41477
# Poissons Ratio (y) = 0.31213 -0.19783
# Poissons Ratio (z) = 0.90702 -0.08579
#
# Static dielectric constant tensor:
#      x y z
#    x 1.817320 0.000000 0.000000 
#    y 0.000000 0.462040 0.000000 
#    z 0.000000 0.000000 1.743300 
# 
# From -- ./inp_files/4209.got.cif
#   From: 2010.05.17/outbox.cif.g08.bks.cpg/sg25_3_cif.got.tgz:4209.got - 2010.06.04 01:04:00.
