data_PCOD9337355
_publ_section_title
;
Structure prediction by ZEFSAII (Michael W. Deem and Ramdas Pophale) SiO2 
 PCOD9337355
Probable space group: P M M 2
;
_chemical_formula_sum "Si O2"
_cell_formula_units_Z 32
_cell_length_a 9.391679
_cell_length_b 15.504452
_cell_length_c 15.251457
_cell_angle_alpha 90.000000
_cell_angle_beta 90.000000
_cell_angle_gamma 90.000000
_cell_volume 2220.807911
_symmetry_space_group_name_H-M "P M M 2"
_symmetry_group_IT_number 25
_symmetry_cell_setting 'orthorhombic'
loop_
_space_group_symop_operation_xyz
x,y,z
-x,-y,z
-x,y,z
x,-y,z
loop_
_atom_site_type_symbol
_atom_site_label
_atom_site_fract_x
_atom_site_fract_y
_atom_site_fract_z
Si Si1 0.335243 0.596912 0.491250
Si Si2 0.162948 0.104826 0.789330
Si Si3 0.335529 0.596440 0.278421
Si Si4 0.331018 0.102999 0.612924
Si Si5 0.663777 0.104913 0.958209
Si Si6 0.168341 0.767530 0.488840
Si Si7 0.670865 0.101511 0.157047
Si Si8 0.832240 0.766019 0.278620
O O1 0.500000 0.612689 0.516995
O O2 0.294352 0.500000 0.520352
O O3 0.333123 0.595376 0.384829
O O4 0.233979 0.675315 0.517600
O O5 0.259190 0.127334 0.705727
O O6 0.234430 0.134401 0.880114
O O7 0.000000 0.134096 0.779646
O O8 0.160612 0.000000 0.792263
O O9 0.500000 0.611904 0.252619
O O10 0.293707 0.500000 0.249314
O O11 0.235287 0.674398 0.250876
O O12 0.500000 0.119578 0.613943
O O13 0.252875 0.157385 0.538178
O O14 0.310545 0.000000 0.600316
O O15 0.500000 0.131735 0.942733
O O16 0.663300 0.000000 0.957341
O O17 0.706716 0.128892 0.057078
O O18 0.188175 0.775133 0.383679
O O19 0.000000 0.771811 0.507125
O O20 0.500000 0.110403 0.166597
O O21 0.752188 0.158903 0.226960
O O22 0.704686 0.000000 0.166790
O O23 0.000000 0.768004 0.261252
#
# Coordination Sequence:
#
# PCOD9337355 Si02
#       8
#     4   4   4   4   4   4   4   4
#     4   8  14  26  44  63  81 103 134 172 212 253
#     4   9  16  26  42  63  84 105 130 166 214 260
#     4   8  14  26  44  62  79 103 136 173 212 253
#     4  10  20  32  45  60  80 111 149 183 212 246
#     4   8  14  26  43  61  80 103 134 172 212 251
#     4  10  20  31  42  59  85 115 145 178 215 253
#     4   9  18  31  45  60  81 113 150 183 211 243
#     4  10  20  30  41  60  86 115 144 177 216 254
#
# _framework density 14.40917
#
# number of rings (size 3 to 8) (size 9 to 14) (size 15 to 20)
#    0.000    3.000    0.000    3.000    0.000    5.500 
#    0.000    6.250    0.000    0.000    0.000    0.000 
#    0.000    1.000    0.000    8.750    0.000    5.625 
#
# Total GULP energy -178152.073880 kJ/mol
# GULP energy per Si atom -5567.252309 kJ/mol
# Density = 1.437637 g / cm^3
# Si number density = 14.409170 Si / 1000 Ang^3
#
#
#
# Elastic Constant Matrix: (Units=GPa)
#
#
# Indices 1 2 3 4 5 6 
#
# 1 100.0788 64.0502 56.8339 0.0000 0.0000 0.0000
# 2 64.0502 75.4446 44.0208 0.0000 0.0000 0.0000
# 3 56.8339 44.0208 53.9310 0.0000 0.0000 0.0000
# 4 0.0000 0.0000 0.0000 -1.5172 0.0000 0.0000
# 5 0.0000 0.0000 0.0000 0.0000 22.5178 0.0000
# 6 0.0000 0.0000 0.0000 0.0000 0.0000 17.5336
#
#
#
# Elastic Compliance Matrix: (Units=1/GPa)
#
#
# Indices 1 2 3 4 5 6 
#
# 1 0.030967 -0.013840 -0.021337 0.000000 0.000000 0.000000
# 2 -0.013840 0.031494 -0.011122 0.000000 0.000000 0.000000
# 3 -0.021337 -0.011122 0.050105 0.000000 0.000000 0.000000
# 4 0.000000 0.000000 0.000000 -0.659116 0.000000 0.000000
# 5 0.000000 0.000000 0.000000 0.000000 0.044409 0.000000
# 6 0.000000 0.000000 0.000000 0.000000 0.000000 0.057033
#
#
# Mechanical properties :
#
#
# Convention : Reuss Voigt Hill
#
# Bulk Modulus (GPa) = 50.07721 62.14046 56.10883
# Shear Modulus (GPa) = -14.45692 12.01015 -1.22338
#
# Velocity S-wave (km/s) = -3.17095 2.89019 -0.92243
# Velocity P-wave (km/s) = 4.62846 7.37271 6.15546
#
# Compressibility (1/GPa) = 0.01996916
#
# Stress axis : x y z
#
# Youngs Moduli (GPa) = 32.29277 31.75214 19.95806
#
# Poissons Ratio (x) = 0.43946 0.42584
# Poissons Ratio (y) = 0.44694 0.22196
# Poissons Ratio (z) = 0.68902 0.35313
#
# Static dielectric constant tensor:
#      x y z
#    x 1.478550 0.000000 0.000000 
#    y 0.000000 1.468350 0.000000 
#    z 0.000000 0.000000 1.465530 
# 
# From -- ./inp_files/5700.got.cif
#   From: 2010.05.17/outbox.cif.g08.bks.cpg/sg25_3_cif.got.tgz:5700.got - 2010.06.04 01:04:00.
