data_PCOD9337623
_publ_section_title
;
Structure prediction by ZEFSAII (Michael W. Deem and Ramdas Pophale) SiO2 
 PCOD9337623
Probable space group: P M M 2
;
_chemical_formula_sum "Si O2"
_cell_formula_units_Z 28
_cell_length_a 8.100983
_cell_length_b 9.341016
_cell_length_c 18.621145
_cell_angle_alpha 90.000000
_cell_angle_beta 90.000000
_cell_angle_gamma 90.000000
_cell_volume 1409.088332
_symmetry_space_group_name_H-M "P M M 2"
_symmetry_group_IT_number 25
_symmetry_cell_setting 'orthorhombic'
loop_
_space_group_symop_operation_xyz
x,y,z
-x,-y,z
-x,y,z
x,-y,z
loop_
_atom_site_type_symbol
_atom_site_label
_atom_site_fract_x
_atom_site_fract_y
_atom_site_fract_z
Si Si1 0.198985 0.664623 0.350100
Si Si2 0.802703 0.163515 0.929611
Si Si3 0.199441 0.163211 0.211233
Si Si4 0.702154 0.164631 0.648226
Si Si5 0.697432 0.663546 0.070565
Si Si6 0.699027 0.663425 0.788869
Si Si7 0.699014 0.335284 0.508119
O O1 0.257914 0.500000 0.342044
O O2 0.258807 0.761637 0.284489
O O3 0.249262 0.715928 0.429204
O O4 0.000000 0.662015 0.347328
O O5 0.743859 0.248045 0.859491
O O6 0.000000 0.157715 0.927728
O O7 0.738791 0.000000 0.930350
O O8 0.752062 0.247994 0.000999
O O9 0.246686 0.256558 0.142498
O O10 0.000000 0.158922 0.214226
O O11 0.259359 0.000000 0.204708
O O12 0.500000 0.165550 0.648308
O O13 0.757070 0.255437 0.717208
O O14 0.756551 0.238758 0.574231
O O15 0.754799 0.000000 0.653143
O O16 0.500000 0.658216 0.070368
O O17 0.760856 0.500000 0.068303
O O18 0.500000 0.657544 0.784936
O O19 0.760338 0.500000 0.792500
O O20 0.500000 0.337632 0.510356
O O21 0.757171 0.500000 0.516262
#
# Coordination Sequence:
#
# PCOD9337623 Si02
#       7
#     4   4   4   4   4   4   4
#     4   9  18  33  52  74 103 140 178 216 264 320
#     4  11  24  40  58  82 112 144 178 217 264 318
#     4  10  21  37  57  81 109 142 180 221 268 321
#     4   9  17  30  50  76 105 138 176 219 269 320
#     4  11  24  40  59  84 111 140 178 221 264 314
#     4  10  20  35  57  83 109 140 181 225 268 317
#     4   9  17  30  49  73 101 134 175 222 267 314
#
# _framework density 19.871005
#
# number of rings (size 3 to 8) (size 9 to 14) (size 15 to 20)
#    0.000    2.143    0.000    3.000    0.000   10.286 
#    0.000    2.143    0.000    2.571    0.000    0.000 
#    0.000    0.000    0.000    0.000    0.000    0.000 
#
# Total GULP energy -156409.184607 kJ/mol
# GULP energy per Si atom -5586.042307 kJ/mol
# Density = 1.982578 g / cm^3
# Si number density = 19.871005 Si / 1000 Ang^3
#
#
#
# Elastic Constant Matrix: (Units=GPa)
#
#
# Indices 1 2 3 4 5 6 
#
# 1 12.3792 14.9191 9.6582 0.0000 0.0000 0.0000
# 2 14.9191 196.9695 139.3852 0.0000 0.0000 0.0000
# 3 9.6582 139.3852 223.5861 0.0000 0.0000 0.0000
# 4 0.0000 0.0000 0.0000 -106.2348 0.0000 0.0000
# 5 0.0000 0.0000 0.0000 0.0000 37.8642 0.0000
# 6 0.0000 0.0000 0.0000 0.0000 0.0000 19.6562
#
#
#
# Elastic Compliance Matrix: (Units=1/GPa)
#
#
# Indices 1 2 3 4 5 6 
#
# 1 0.088947 -0.007190 0.000640 0.000000 0.000000 0.000000
# 2 -0.007190 0.009666 -0.005715 0.000000 0.000000 0.000000
# 3 0.000640 -0.005715 0.008008 0.000000 0.000000 0.000000
# 4 0.000000 0.000000 0.000000 -0.009413 0.000000 0.000000
# 5 0.000000 0.000000 0.000000 0.000000 0.026410 0.000000
# 6 0.000000 0.000000 0.000000 0.000000 0.000000 0.050874
#
#
# Mechanical properties :
#
#
# Convention : Reuss Voigt Hill
#
# Bulk Modulus (GPa) = 12.18175 84.53998 48.36087
# Shear Modulus (GPa) = 22.08623 8.18861 15.13742
#
# Velocity S-wave (km/s) = 3.33750 2.03220 2.76304
# Velocity P-wave (km/s) = 4.58210 6.93853 5.87958
#
# Compressibility (1/GPa) = 0.08208998
#
# Stress axis : x y z
#
# Youngs Moduli (GPa) = 11.24270 103.45670 124.87845
#
# Poissons Ratio (x) = 0.74387 -0.07995
# Poissons Ratio (y) = 0.08084 0.71370
# Poissons Ratio (z) = -0.00720 0.59127
#
# Static dielectric constant tensor:
#      x y z
#    x 1.709490 0.000000 0.000000 
#    y 0.000000 1.695320 0.000000 
#    z 0.000000 0.000000 1.659270 
# 
# From -- ./inp_files/6413.got.cif
#   From: 2010.05.17/outbox.cif.g08.bks.cpg/sg25_4_cif.got.tgz:6413.got - 2010.06.04 01:04:00.
