data_PCOD9337119
_publ_section_title
;
Structure prediction by ZEFSAII (Michael W. Deem and Ramdas Pophale) SiO2 
 PCOD9337119
Probable space group: P M M 2
;
_chemical_formula_sum "Si O2"
_cell_formula_units_Z 28
_cell_length_a 7.388803
_cell_length_b 20.853331
_cell_length_c 7.972487
_cell_angle_alpha 90.000000
_cell_angle_beta 90.000000
_cell_angle_gamma 90.000000
_cell_volume 1228.410002
_symmetry_space_group_name_H-M "P M M 2"
_symmetry_group_IT_number 25
_symmetry_cell_setting 'orthorhombic'
loop_
_space_group_symop_operation_xyz
x,y,z
-x,-y,z
-x,y,z
x,-y,z
loop_
_atom_site_type_symbol
_atom_site_label
_atom_site_fract_x
_atom_site_fract_y
_atom_site_fract_z
Si Si1 0.214936 0.430924 0.169030
Si Si2 0.277583 0.842692 0.707109
Si Si3 0.282372 0.431532 0.571423
Si Si4 0.709004 0.849316 0.071218
Si Si5 0.721368 0.073772 0.391248
Si Si6 0.784249 0.291800 0.182052
Si Si7 0.715298 0.293769 0.581936
O O1 0.287844 0.500000 0.107299
O O2 0.241802 0.431108 0.371479
O O3 0.285347 0.360877 0.115191
O O4 0.000000 0.431140 0.137471
O O5 0.500000 0.841370 0.707961
O O6 0.221863 0.889738 0.559108
O O7 0.215293 0.770287 0.668196
O O8 0.213225 0.863686 0.889455
O O9 0.500000 0.431474 0.588538
O O10 0.214834 0.500000 0.639109
O O11 0.212858 0.363429 0.638141
O O12 0.500000 0.869463 0.064651
O O13 0.786470 0.885810 0.231077
O O14 0.713113 0.772742 0.099020
O O15 0.500000 0.075002 0.392015
O O16 0.776843 0.000000 0.384968
O O17 0.743623 0.288122 0.381277
O O18 0.000000 0.291481 0.162895
O O19 0.500000 0.294873 0.609487
#
# Coordination Sequence:
#
# PCOD9337119 Si02
#       7
#     4   4   4   4   4   4   4
#     4   8  14  24  38  59  88 121 158 200 243 283
#     4   9  17  29  48  73  98 127 160 194 236 285
#     4   8  13  20  34  59  87 116 152 194 239 285
#     4  10  19  32  51  73 100 132 161 195 242 288
#     4   9  17  30  50  77 103 124 155 200 242 283
#     4  10  18  28  46  71  97 128 166 204 243 288
#     4   9  15  27  46  66  93 126 161 200 243 290
#
# _framework density 22.793693999999999
#
# number of rings (size 3 to 8) (size 9 to 14) (size 15 to 20)
#    0.000    3.000    1.429    0.429    0.000    1.143 
#    0.000    3.571    0.000    1.286    0.000    2.000 
#    0.000    4.571    0.000    0.000    0.000    0.000 
#
# Total GULP energy -156206.899114 kJ/mol
# GULP energy per Si atom -5578.817826 kJ/mol
# Density = 2.274181 g / cm^3
# Si number density = 22.793694 Si / 1000 Ang^3
#
#
#
# Elastic Constant Matrix: (Units=GPa)
#
#
# Indices 1 2 3 4 5 6 
#
# 1 88.0105 -1.2934 1.7065 0.0000 0.0000 0.0000
# 2 -1.2934 203.3251 88.3812 0.0000 0.0000 0.0000
# 3 1.7065 88.3812 126.5619 0.0000 0.0000 0.0000
# 4 0.0000 0.0000 0.0000 -12.1612 0.0000 0.0000
# 5 0.0000 0.0000 0.0000 0.0000 15.1417 0.0000
# 6 0.0000 0.0000 0.0000 0.0000 0.0000 -1.6077
#
#
#
# Elastic Compliance Matrix: (Units=1/GPa)
#
#
# Indices 1 2 3 4 5 6 
#
# 1 0.011371 0.000200 -0.000293 0.000000 0.000000 0.000000
# 2 0.000200 0.007065 -0.004937 0.000000 0.000000 0.000000
# 3 -0.000293 -0.004937 0.011353 0.000000 0.000000 0.000000
# 4 0.000000 0.000000 0.000000 -0.082229 0.000000 0.000000
# 5 0.000000 0.000000 0.000000 0.000000 0.066043 0.000000
# 6 0.000000 0.000000 0.000000 0.000000 0.000000 -0.622017
#
#
# Mechanical properties :
#
#
# Convention : Reuss Voigt Hill
#
# Bulk Modulus (GPa) = 50.68586 66.16512 58.42549
# Shear Modulus (GPa) = -8.44910 22.21478 6.88284
#
# Velocity S-wave (km/s) = -1.92739 3.12525 1.73959
# Velocity P-wave (km/s) = 4.16317 6.48951 5.45187
#
# Compressibility (1/GPa) = 0.01972937
#
# Stress axis : x y z
#
# Youngs Moduli (GPa) = 87.94393 141.53625 88.08595
#
# Poissons Ratio (x) = -0.02824 0.02578
# Poissons Ratio (y) = -0.01755 0.43484
# Poissons Ratio (z) = 0.02574 0.69870
#
# Static dielectric constant tensor:
#      x y z
#    x 1.899320 0.000000 0.000000 
#    y 0.000000 1.867870 0.000000 
#    z 0.000000 0.000000 1.818700 
# 
# From -- ./inp_files/2296.got.cif
#   From: 2010.05.17/outbox.cif.g08.bks.cpg/sg25_2_cif.got.tgz:2296.got - 2010.06.04 01:04:00.
