data_PCOD9337140
_publ_section_title
;
Structure prediction by ZEFSAII (Michael W. Deem and Ramdas Pophale) SiO2 
 PCOD9337140
Probable space group: P M M 2
;
_chemical_formula_sum "Si O2"
_cell_formula_units_Z 32
_cell_length_a 17.293523
_cell_length_b 7.509224
_cell_length_c 11.783776
_cell_angle_alpha 90.000000
_cell_angle_beta 90.000000
_cell_angle_gamma 90.000000
_cell_volume 1530.252204
_symmetry_space_group_name_H-M "P M M 2"
_symmetry_group_IT_number 25
_symmetry_cell_setting 'orthorhombic'
loop_
_space_group_symop_operation_xyz
x,y,z
-x,-y,z
-x,y,z
x,-y,z
loop_
_atom_site_type_symbol
_atom_site_label
_atom_site_fract_x
_atom_site_fract_y
_atom_site_fract_z
Si Si1 0.766221 0.283224 0.426100
Si Si2 0.587140 0.203723 0.097172
Si Si3 0.411762 0.707504 0.839395
Si Si4 0.754935 0.206089 0.164271
Si Si5 0.918629 0.714632 0.553446
Si Si6 0.148309 0.204520 0.783472
Si Si7 0.697666 0.295588 0.654030
Si Si8 0.910089 0.217409 0.031044
O O1 0.763470 0.500000 0.422213
O O2 0.757255 0.215204 0.300001
O O3 0.848819 0.226649 0.475638
O O4 0.709523 0.222398 0.527708
O O5 0.500000 0.279681 0.123241
O O6 0.670011 0.285781 0.133649
O O7 0.585870 0.000000 0.140428
O O8 0.592816 0.202680 0.961067
O O9 0.500000 0.707939 0.802687
O O10 0.388102 0.500000 0.858013
O O11 0.361444 0.790421 0.740372
O O12 0.836596 0.275022 0.110409
O O13 0.751616 0.000000 0.125323
O O14 0.914171 0.500000 0.562022
O O15 0.912144 0.785908 0.680874
O O16 0.000000 0.765331 0.501704
O O17 0.222000 0.296449 0.724584
O O18 0.171273 0.000000 0.803333
O O19 0.114432 0.271437 0.902410
O O20 0.672881 0.500000 0.637251
O O21 0.000000 0.274493 0.055526
O O22 0.912523 0.000000 0.035017
#
# Coordination Sequence:
#
# PCOD9337140 Si02
#       8
#     4   4   4   4   4   4   4   4
#     4   9  19  34  49  67  93 126 162 198 237 280
#     4   9  18  33  52  74 101 130 159 196 245 296
#     4   9  17  30  51  78 102 123 153 194 239 294
#     4  10  20  34  51  69  92 128 169 203 238 281
#     4   9  18  33  51  70  96 128 158 195 248 301
#     4  10  18  29  49  74  97 123 160 201 239 288
#     4   9  18  33  50  69  98 131 157 191 247 300
#     4   9  18  31  46  68  99 128 153 191 243 289
#
# _framework density 20.911586
#
# number of rings (size 3 to 8) (size 9 to 14) (size 15 to 20)
#    0.000    2.750    0.000    2.250    0.000    5.250 
#    0.000    1.875    0.000    2.250    0.000    0.000 
#    0.000    0.000    0.000    0.000    0.000    0.000 
#
# Total GULP energy -178136.992394 kJ/mol
# GULP energy per Si atom -5566.781012 kJ/mol
# Density = 2.086399 g / cm^3
# Si number density = 20.911586 Si / 1000 Ang^3
#
#
#
# Elastic Constant Matrix: (Units=GPa)
#
#
# Indices 1 2 3 4 5 6 
#
# 1 133.0980 -0.0808 86.6636 0.0000 0.0000 0.0000
# 2 -0.0808 55.2332 -4.0106 0.0000 0.0000 0.0000
# 3 86.6636 -4.0106 108.5688 0.0000 0.0000 0.0000
# 4 0.0000 0.0000 0.0000 14.8741 0.0000 0.0000
# 5 0.0000 0.0000 0.0000 0.0000 13.9337 0.0000
# 6 0.0000 0.0000 0.0000 0.0000 0.0000 -1.6783
#
#
#
# Elastic Compliance Matrix: (Units=1/GPa)
#
#
# Indices 1 2 3 4 5 6 
#
# 1 0.015688 -0.000889 -0.012556 0.000000 0.000000 0.000000
# 2 -0.000889 0.018204 0.001382 0.000000 0.000000 0.000000
# 3 -0.012556 0.001382 0.019284 0.000000 0.000000 0.000000
# 4 0.000000 0.000000 0.000000 0.067231 0.000000 0.000000
# 5 0.000000 0.000000 0.000000 0.000000 0.071769 0.000000
# 6 0.000000 0.000000 0.000000 0.000000 0.000000 -0.595845
#
#
# Mechanical properties :
#
#
# Convention : Reuss Voigt Hill
#
# Bulk Modulus (GPa) = 34.42179 51.33827 42.88003
# Shear Modulus (GPa) = -13.51860 19.71442 3.09791
#
# Velocity S-wave (km/s) = -2.54533 3.07376 1.21846
# Velocity P-wave (km/s) = 2.80323 6.09924 4.74652
#
# Compressibility (1/GPa) = 0.02905137
#
# Stress axis : x y z
#
# Youngs Moduli (GPa) = 63.74320 54.93273 51.85626
#
# Poissons Ratio (x) = 0.04882 0.65108
# Poissons Ratio (y) = 0.05665 -0.07166
# Poissons Ratio (z) = 0.80033 -0.07591
#
# Static dielectric constant tensor:
#      x y z
#    x 1.817590 0.000000 0.000000 
#    y 0.000000 1.808720 0.000000 
#    z 0.000000 0.000000 1.706580 
# 
# From -- ./inp_files/5035.got.cif
#   From: 2010.05.17/outbox.cif.g08.bks.cpg/sg25_3_cif.got.tgz:5035.got - 2010.06.04 01:04:00.
