data_PCOD9337469
_publ_section_title
;
Structure prediction by ZEFSAII (Michael W. Deem and Ramdas Pophale) SiO2 
 PCOD9337469
Probable space group: P M M 2
;
_chemical_formula_sum "Si O2"
_cell_formula_units_Z 32
_cell_length_a 7.429085
_cell_length_b 9.326284
_cell_length_c 22.051512
_cell_angle_alpha 90.000000
_cell_angle_beta 90.000000
_cell_angle_gamma 90.000000
_cell_volume 1527.855692
_symmetry_space_group_name_H-M "P M M 2"
_symmetry_group_IT_number 25
_symmetry_cell_setting 'orthorhombic'
loop_
_space_group_symop_operation_xyz
x,y,z
-x,-y,z
-x,y,z
x,-y,z
loop_
_atom_site_type_symbol
_atom_site_label
_atom_site_fract_x
_atom_site_fract_y
_atom_site_fract_z
Si Si1 0.286031 0.163503 0.337270
Si Si2 0.217106 0.172254 0.074361
Si Si3 0.220182 0.335198 0.692163
Si Si4 0.284387 0.338248 0.452395
Si Si5 0.784489 0.837733 0.574313
Si Si6 0.780082 0.833075 0.811632
Si Si7 0.216166 0.165635 0.204530
Si Si8 0.215829 0.827422 0.943853
O O1 0.500000 0.152310 0.345706
O O2 0.214325 0.257240 0.392632
O O3 0.259555 0.228811 0.270160
O O4 0.213115 0.000000 0.338333
O O5 0.280527 0.228368 0.139988
O O6 0.000000 0.189835 0.072953
O O7 0.249541 0.000000 0.075594
O O8 0.285464 0.226602 0.009085
O O9 0.276611 0.500000 0.689086
O O10 0.281512 0.247521 0.633275
O O11 0.277856 0.259390 0.754363
O O12 0.000000 0.333865 0.692092
O O13 0.500000 0.347604 0.445869
O O14 0.214479 0.500000 0.458077
O O15 0.250623 0.247500 0.512706
O O16 0.000000 0.846279 0.580777
O O17 0.714657 0.000000 0.571327
O O18 0.718814 0.777959 0.877923
O O19 0.000000 0.831750 0.812506
O O20 0.727737 0.000000 0.804590
O O21 0.000000 0.161314 0.200855
O O22 0.281393 0.000000 0.207277
O O23 0.000000 0.804433 0.944310
O O24 0.242903 0.000000 0.943659
#
# Coordination Sequence:
#
# PCOD9337469 Si02
#       8
#     4   4   4   4   4   4   4   4
#     4   9  17  29  44  62  85 111 138 172 215 259
#     4   7   9  14  25  44  71  99 127 164 209 249
#     4   9  16  25  37  55  82 114 144 175 213 256
#     4  10  21  36  52  69  90 117 148 182 221 265
#     4  10  20  33  50  71  93 118 148 182 221 265
#     4   8  12  18  29  46  70 101 136 172 209 250
#     4   8  13  21  35  56  81 108 138 172 209 251
#     4   7   9  13  23  41  66  96 129 166 207 247
#
# _framework density 20.944386000000002
#
# number of rings (size 3 to 8) (size 9 to 14) (size 15 to 20)
#    0.000    3.500    0.000    3.375    0.000    3.500 
#    0.000    1.250    0.000    0.000    0.000    0.875 
#    0.000    4.000    0.000    7.000    0.000    6.875 
#
# Total GULP energy -178256.952950 kJ/mol
# GULP energy per Si atom -5570.529780 kJ/mol
# Density = 2.089672 g / cm^3
# Si number density = 20.944386 Si / 1000 Ang^3
#
#
#
# Elastic Constant Matrix: (Units=GPa)
#
#
# Indices 1 2 3 4 5 6 
#
# 1 64.0094 4.9834 4.2836 0.0000 0.0000 0.0000
# 2 4.9834 97.5527 101.7192 0.0000 0.0000 0.0000
# 3 4.2836 101.7192 282.2282 0.0000 0.0000 0.0000
# 4 0.0000 0.0000 0.0000 -33.5293 0.0000 0.0000
# 5 0.0000 0.0000 0.0000 0.0000 46.4173 0.0000
# 6 0.0000 0.0000 0.0000 0.0000 0.0000 -5.7499
#
#
#
# Elastic Compliance Matrix: (Units=1/GPa)
#
#
# Indices 1 2 3 4 5 6 
#
# 1 0.015686 -0.000886 0.000081 0.000000 0.000000 0.000000
# 2 -0.000886 0.016473 -0.005924 0.000000 0.000000 0.000000
# 3 0.000081 -0.005924 0.005677 0.000000 0.000000 0.000000
# 4 0.000000 0.000000 0.000000 -0.029825 0.000000 0.000000
# 5 0.000000 0.000000 0.000000 0.000000 0.021544 0.000000
# 6 0.000000 0.000000 0.000000 0.000000 0.000000 -0.173917
#
#
# Mechanical properties :
#
#
# Convention : Reuss Voigt Hill
#
# Bulk Modulus (GPa) = 41.01857 73.97364 57.49611
# Shear Modulus (GPa) = -40.72367 23.61457 -8.55455
#
# Velocity S-wave (km/s) = -4.41429 3.36145 -2.02319
# Velocity P-wave (km/s) = 2.52075 7.10363 4.69614
#
# Compressibility (1/GPa) = 0.02437920
#
# Stress axis : x y z
#
# Youngs Moduli (GPa) = 63.75010 60.70657 176.15144
#
# Poissons Ratio (x) = 0.05379 -0.01431
# Poissons Ratio (y) = 0.05649 1.04344
# Poissons Ratio (z) = -0.00518 0.35960
#
# Static dielectric constant tensor:
#      x y z
#    x 1.810470 0.000000 0.000000 
#    y 0.000000 1.715930 0.000000 
#    z 0.000000 0.000000 1.795760 
# 
# From -- ./inp_files/6542.got.cif
#   From: 2010.05.17/outbox.cif.g08.bks.cpg/sg25_4_cif.got.tgz:6542.got - 2010.06.04 01:04:00.
