data_PCOD9337606
_publ_section_title
;
Structure prediction by ZEFSAII (Michael W. Deem and Ramdas Pophale) SiO2 
 PCOD9337606
Probable space group: P M M 2
;
_chemical_formula_sum "Si O2"
_cell_formula_units_Z 32
_cell_length_a 14.325261
_cell_length_b 19.054171
_cell_length_c 6.383752
_cell_angle_alpha 90.000000
_cell_angle_beta 90.000000
_cell_angle_gamma 90.000000
_cell_volume 1742.483237
_symmetry_space_group_name_H-M "P M M 2"
_symmetry_group_IT_number 25
_symmetry_cell_setting 'orthorhombic'
loop_
_space_group_symop_operation_xyz
x,y,z
-x,-y,z
-x,y,z
x,-y,z
loop_
_atom_site_type_symbol
_atom_site_label
_atom_site_fract_x
_atom_site_fract_y
_atom_site_fract_z
Si Si1 0.727729 0.805837 0.742510
Si Si2 0.888885 0.708285 0.741892
Si Si3 0.889186 0.575697 0.434252
Si Si4 0.399974 0.184999 0.128472
Si Si5 0.355005 0.693916 0.434340
Si Si6 0.228376 0.370310 0.081415
Si Si7 0.396390 0.417153 0.772711
Si Si8 0.392277 0.083002 0.503390
O O1 0.834972 0.782417 0.708793
O O2 0.677693 0.741050 0.627712
O O3 0.685686 0.875390 0.635523
O O4 0.687765 0.806690 0.976881
O O5 0.869335 0.644945 0.574828
O O6 0.000000 0.716699 0.754328
O O7 0.841733 0.678297 0.951627
O O8 0.866672 0.500000 0.540738
O O9 0.835579 0.576881 0.213817
O O10 0.000000 0.577507 0.397564
O O11 0.500000 0.181809 0.012627
O O12 0.406934 0.249896 0.288848
O O13 0.388675 0.116114 0.271064
O O14 0.278287 0.669285 0.270791
O O15 0.392935 0.625638 0.554148
O O16 0.310624 0.397047 0.926493
O O17 0.500000 0.402221 0.867855
O O18 0.390345 0.500000 0.732037
O O19 0.500000 0.096050 0.576289
O O20 0.377157 0.000000 0.505010
#
# Coordination Sequence:
#
# PCOD9337606 Si02
#       8
#     4   4   4   4   4   4   4   4
#     4  11  20  38  59  88 120 153 192 234 287 345
#     4  11  23  40  60  86 118 151 197 253 306 360
#     4  10  22  39  60  85 112 147 193 251 315 368
#     4  10  20  34  59  86 117 156 194 233 280 343
#     4  11  21  37  56  79 113 149 195 243 290 348
#     4  12  21  39  58  83 109 150 196 250 302 356
#     4  11  25  40  54  77 112 155 200 244 293 352
#     4   9  20  37  60  94 130 160 190 226 274 337
#
# _framework density 18.364595999999999
#
# number of rings (size 3 to 8) (size 9 to 14) (size 15 to 20)
#    0.000    1.375    3.750    1.500    0.000    7.000 
#    0.000    3.750    0.000    0.375    0.000    0.000 
#    0.000    0.000    0.000    0.000    0.000    0.000 
#
# Total GULP energy -178164.077099 kJ/mol
# GULP energy per Si atom -5567.627409 kJ/mol
# Density = 1.832280 g / cm^3
# Si number density = 18.364596 Si / 1000 Ang^3
#
#
#
# Elastic Constant Matrix: (Units=GPa)
#
#
# Indices 1 2 3 4 5 6 
#
# 1 121.9571 64.5990 48.4160 0.0000 0.0000 0.0000
# 2 64.5990 119.9843 46.2093 0.0000 0.0000 0.0000
# 3 48.4160 46.2093 75.9541 0.0000 0.0000 0.0000
# 4 0.0000 0.0000 0.0000 11.5696 0.0000 0.0000
# 5 0.0000 0.0000 0.0000 0.0000 27.2054 0.0000
# 6 0.0000 0.0000 0.0000 0.0000 0.0000 -161.0068
#
#
#
# Elastic Compliance Matrix: (Units=1/GPa)
#
#
# Indices 1 2 3 4 5 6 
#
# 1 0.012878 -0.004926 -0.005212 0.000000 0.000000 0.000000
# 2 -0.004926 0.012769 -0.004628 0.000000 0.000000 0.000000
# 3 -0.005212 -0.004628 0.019304 0.000000 0.000000 0.000000
# 4 0.000000 0.000000 0.000000 0.086433 0.000000 0.000000
# 5 0.000000 0.000000 0.000000 0.000000 0.036757 0.000000
# 6 0.000000 0.000000 0.000000 0.000000 0.000000 -0.006211
#
#
# Mechanical properties :
#
#
# Convention : Reuss Voigt Hill
#
# Bulk Modulus (GPa) = 64.85882 70.70490 67.78186
# Shear Modulus (GPa) = 25.43190 -13.86828 5.78181
#
# Velocity S-wave (km/s) = 3.72537 -2.75101 1.77628
# Velocity P-wave (km/s) = 7.34156 5.33793 6.41841
#
# Compressibility (1/GPa) = 0.01541810
#
# Stress axis : x y z
#
# Youngs Moduli (GPa) = 77.65147 78.31331 51.80281
#
# Poissons Ratio (x) = 0.38579 0.26999
# Poissons Ratio (y) = 0.38253 0.23977
# Poissons Ratio (z) = 0.40471 0.36247
#
# Static dielectric constant tensor:
#      x y z
#    x 1.680410 0.000000 0.000000 
#    y 0.000000 1.644320 0.000000 
#    z 0.000000 0.000000 1.639500 
# 
# From -- ./inp_files/968.got.cif
#   From: 2010.05.17/outbox.cif.g08.bks.cpg/sg25_1_cif.got.tgz:968.got - 2010.06.04 01:04:00.
