data_PCOD9337322
_publ_section_title
;
Structure prediction by ZEFSAII (Michael W. Deem and Ramdas Pophale) SiO2 
 PCOD9337322
Probable space group: P M M 2
;
_chemical_formula_sum "Si O2"
_cell_formula_units_Z 24
_cell_length_a 15.743595
_cell_length_b 8.923628
_cell_length_c 9.507905
_cell_angle_alpha 90.000000
_cell_angle_beta 90.000000
_cell_angle_gamma 90.000000
_cell_volume 1335.765432
_symmetry_space_group_name_H-M "P M M 2"
_symmetry_group_IT_number 25
_symmetry_cell_setting 'orthorhombic'
loop_
_space_group_symop_operation_xyz
x,y,z
-x,-y,z
-x,y,z
x,-y,z
loop_
_atom_site_type_symbol
_atom_site_label
_atom_site_fract_x
_atom_site_fract_y
_atom_site_fract_z
Si Si1 0.652348 0.667711 0.554270
Si Si2 0.313758 0.680365 0.037278
Si Si3 0.500000 0.824211 0.062457
Si Si4 0.096993 0.180213 0.534590
Si Si5 0.791863 0.667997 0.312109
Si Si6 0.500000 0.825572 0.399693
Si Si7 0.235636 0.822120 0.768566
O O1 0.632285 0.500000 0.607219
O O2 0.727865 0.655314 0.442688
O O3 0.578409 0.740975 0.466525
O O4 0.682566 0.777519 0.676077
O O5 0.322464 0.500000 0.039321
O O6 0.251861 0.734571 0.912553
O O7 0.409058 0.749617 0.020388
O O8 0.264979 0.726563 0.181947
O O9 0.500000 0.814251 0.232023
O O10 0.500000 0.000000 0.021097
O O11 0.133538 0.237460 0.384958
O O12 0.155991 0.224083 0.668847
O O13 0.000000 0.229853 0.553906
O O14 0.099949 0.000000 0.531417
O O15 0.821689 0.500000 0.273991
O O16 0.500000 0.000000 0.437301
O O17 0.230928 0.000000 0.793258
#
# Coordination Sequence:
#
# PCOD9337322 Si02
#       7
#     4   4   2   4   4   2   4
#     4  10  19  34  54  76 104 142 185 226 274 326
#     4  11  22  38  57  81 115 153 191 229 278 334
#     4  11  23  36  55  82 113 150 192 234 279 326
#     4   9  19  37  61  86 111 142 182 229 282 339
#     4   9  19  34  55  81 109 141 179 225 273 328
#     4  11  21  32  51  80 109 140 184 236 279 324
#     4  10  21  37  56  81 113 147 184 231 281 331
#
# _framework density 17.967227999999999
#
# number of rings (size 3 to 8) (size 9 to 14) (size 15 to 20)
#    0.000    2.000    1.667    2.000    0.000    4.333 
#    0.000    4.167    0.000    3.000    0.000    0.000 
#    0.000    0.000    0.000    0.000    0.000    0.000 
#
# Total GULP energy -133649.792444 kJ/mol
# GULP energy per Si atom -5568.741352 kJ/mol
# Density = 1.792633 g / cm^3
# Si number density = 17.967228 Si / 1000 Ang^3
#
#
#
# Elastic Constant Matrix: (Units=GPa)
#
#
# Indices 1 2 3 4 5 6 
#
# 1 103.9496 49.1764 33.0549 0.0000 0.0000 0.0000
# 2 49.1764 50.0191 20.2484 0.0000 0.0000 0.0000
# 3 33.0549 20.2484 81.8499 0.0000 0.0000 0.0000
# 4 0.0000 0.0000 0.0000 27.5207 0.0000 0.0000
# 5 0.0000 0.0000 0.0000 0.0000 43.5020 0.0000
# 6 0.0000 0.0000 0.0000 0.0000 0.0000 30.7232
#
#
#
# Elastic Compliance Matrix: (Units=1/GPa)
#
#
# Indices 1 2 3 4 5 6 
#
# 1 0.018778 -0.017104 -0.003352 0.000000 0.000000 0.000000
# 2 -0.017104 0.037797 -0.002443 0.000000 0.000000 0.000000
# 3 -0.003352 -0.002443 0.014176 0.000000 0.000000 0.000000
# 4 0.000000 0.000000 0.000000 0.036336 0.000000 0.000000
# 5 0.000000 0.000000 0.000000 0.000000 0.022987 0.000000
# 6 0.000000 0.000000 0.000000 0.000000 0.000000 0.032549
#
#
# Mechanical properties :
#
#
# Convention : Reuss Voigt Hill
#
# Bulk Modulus (GPa) = 40.07678 48.97533 44.52605
# Shear Modulus (GPa) = 23.06922 29.23845 26.15384
#
# Velocity S-wave (km/s) = 3.58713 4.03838 3.81943
# Velocity P-wave (km/s) = 6.28574 7.00443 6.65480
#
# Compressibility (1/GPa) = 0.02495210
#
# Stress axis : x y z
#
# Youngs Moduli (GPa) = 53.25484 26.45678 70.54423
#
# Poissons Ratio (x) = 0.45253 0.23646
# Poissons Ratio (y) = 0.91089 0.17234
# Poissons Ratio (z) = 0.17851 0.06463
#
# Static dielectric constant tensor:
#      x y z
#    x 1.582990 0.000000 0.000000 
#    y 0.000000 1.637630 0.000000 
#    z 0.000000 0.000000 1.615800 
# 
# From -- ./inp_files/3372.got.cif
#   From: 2010.05.17/outbox.cif.g08.bks.cpg/sg25_2_cif.got.tgz:3372.got - 2010.06.04 01:04:00.
