data_PCOD9337283
_publ_section_title
;
Structure prediction by ZEFSAII (Michael W. Deem and Ramdas Pophale) SiO2 
 PCOD9337283
Probable space group: P M M 2
;
_chemical_formula_sum "Si O2"
_cell_formula_units_Z 32
_cell_length_a 14.356129
_cell_length_b 9.794554
_cell_length_c 13.018311
_cell_angle_alpha 90.000000
_cell_angle_beta 90.000000
_cell_angle_gamma 90.000000
_cell_volume 1830.529194
_symmetry_space_group_name_H-M "P M M 2"
_symmetry_group_IT_number 25
_symmetry_cell_setting 'orthorhombic'
loop_
_space_group_symop_operation_xyz
x,y,z
-x,-y,z
-x,y,z
x,-y,z
loop_
_atom_site_type_symbol
_atom_site_label
_atom_site_fract_x
_atom_site_fract_y
_atom_site_fract_z
Si Si1 0.393356 0.165748 0.904950
Si Si2 0.699924 0.836816 0.689383
Si Si3 0.312580 0.149915 0.332628
Si Si4 0.896322 0.838418 0.599097
Si Si5 0.611716 0.341236 0.507871
Si Si6 0.105548 0.654756 0.158977
Si Si7 0.105009 0.779382 0.372381
Si Si8 0.277211 0.161954 0.102991
O O1 0.500000 0.214580 0.901985
O O2 0.338658 0.201373 0.801035
O O3 0.396385 0.000000 0.908159
O O4 0.338833 0.208925 0.007117
O O5 0.810475 0.814463 0.674306
O O6 0.650001 0.747314 0.602735
O O7 0.682601 0.000000 0.673358
O O8 0.350747 0.266810 0.405910
O O9 0.200408 0.142719 0.347096
O O10 0.328833 0.178470 0.212549
O O11 0.351081 0.000000 0.359957
O O12 0.887114 0.751868 0.494007
O O13 0.000000 0.816465 0.641922
O O14 0.890866 0.000000 0.568023
O O15 0.500000 0.337136 0.508268
O O16 0.641124 0.500000 0.513062
O O17 0.125087 0.500000 0.128495
O O18 0.108022 0.665196 0.283790
O O19 0.181389 0.755965 0.113052
O O20 0.000000 0.691118 0.128738
O O21 0.000000 0.841053 0.361179
O O22 0.258350 0.000000 0.092180
#
# Coordination Sequence:
#
# PCOD9337283 Si02
#       8
#     4   4   4   4   4   4   4   4
#     4   9  18  34  57  82 105 133 175 229 278 316
#     4  10  19  35  59  82 104 135 178 219 261 318
#     4  10  19  32  52  78 105 137 176 216 259 316
#     4   9  16  27  46  76 111 140 168 207 255 306
#     4  11  24  38  51  72 105 140 172 215 272 324
#     4   9  18  32  50  75 108 146 184 217 256 312
#     4   9  16  27  46  74 108 141 172 209 252 302
#     4   9  19  34  53  79 108 137 176 224 271 315
#
# _framework density 17.481283000000001
#
# number of rings (size 3 to 8) (size 9 to 14) (size 15 to 20)
#    0.000    2.500    1.250    1.125    0.000    5.500 
#    0.000    6.250    0.000    3.750    0.000    0.000 
#    0.000    0.000    0.000    0.000    0.000    0.000 
#
# Total GULP energy -178143.085892 kJ/mol
# GULP energy per Si atom -5566.971434 kJ/mol
# Density = 1.744150 g / cm^3
# Si number density = 17.481283 Si / 1000 Ang^3
#
#
#
# Elastic Constant Matrix: (Units=GPa)
#
#
# Indices 1 2 3 4 5 6 
#
# 1 115.1132 45.5728 79.3024 0.0000 0.0000 0.0000
# 2 45.5728 60.2879 52.2214 0.0000 0.0000 0.0000
# 3 79.3024 52.2214 127.9056 0.0000 0.0000 0.0000
# 4 0.0000 0.0000 0.0000 5.3058 0.0000 0.0000
# 5 0.0000 0.0000 0.0000 0.0000 23.6638 0.0000
# 6 0.0000 0.0000 0.0000 0.0000 0.0000 14.3508
#
#
#
# Elastic Compliance Matrix: (Units=1/GPa)
#
#
# Indices 1 2 3 4 5 6 
#
# 1 0.016266 -0.005508 -0.007836 0.000000 0.000000 0.000000
# 2 -0.005508 0.027528 -0.007824 0.000000 0.000000 0.000000
# 3 -0.007836 -0.007824 0.015871 0.000000 0.000000 0.000000
# 4 0.000000 0.000000 0.000000 0.188471 0.000000 0.000000
# 5 0.000000 0.000000 0.000000 0.000000 0.042259 0.000000
# 6 0.000000 0.000000 0.000000 0.000000 0.000000 0.069682
#
#
# Mechanical properties :
#
#
# Convention : Reuss Voigt Hill
#
# Bulk Modulus (GPa) = 57.70862 73.05555 65.38209
# Shear Modulus (GPa) = 12.24917 17.07810 14.66364
#
# Velocity S-wave (km/s) = 2.64995 3.12899 2.89938
# Velocity P-wave (km/s) = 6.51508 7.41185 6.97789
#
# Compressibility (1/GPa) = 0.01732843
#
# Stress axis : x y z
#
# Youngs Moduli (GPa) = 61.47696 36.32668 63.00702
#
# Poissons Ratio (x) = 0.20009 0.49374
# Poissons Ratio (y) = 0.33862 0.49297
# Poissons Ratio (z) = 0.48175 0.28422
#
# Static dielectric constant tensor:
#      x y z
#    x 1.607390 0.000000 0.000000 
#    y 0.000000 1.586170 0.000000 
#    z 0.000000 0.000000 1.589130 
# 
# From -- ./inp_files/4950.got.cif
#   From: 2010.05.17/outbox.cif.g08.bks.cpg/sg25_3_cif.got.tgz:4950.got - 2010.06.04 01:04:00.
