data_PCOD9337539
_publ_section_title
;
Structure prediction by ZEFSAII (Michael W. Deem and Ramdas Pophale) SiO2 
 PCOD9337539
Probable space group: P M M 2
;
_chemical_formula_sum "Si O2"
_cell_formula_units_Z 32
_cell_length_a 7.576268
_cell_length_b 14.509356
_cell_length_c 13.513779
_cell_angle_alpha 90.000000
_cell_angle_beta 90.000000
_cell_angle_gamma 90.000000
_cell_volume 1485.526070
_symmetry_space_group_name_H-M "P M M 2"
_symmetry_group_IT_number 25
_symmetry_cell_setting 'orthorhombic'
loop_
_space_group_symop_operation_xyz
x,y,z
-x,-y,z
-x,y,z
x,-y,z
loop_
_atom_site_type_symbol
_atom_site_label
_atom_site_fract_x
_atom_site_fract_y
_atom_site_fract_z
Si Si1 0.710704 0.104359 0.998500
Si Si2 0.216506 0.395504 0.285474
Si Si3 0.288437 0.893973 0.610911
Si Si4 0.212621 0.788608 0.199225
Si Si5 0.201852 0.612418 0.503432
Si Si6 0.711411 0.210056 0.805453
Si Si7 0.212249 0.604088 0.717911
Si Si8 0.211588 0.105356 0.393673
O O1 0.500000 0.097421 0.985646
O O2 0.780282 0.160085 0.903535
O O3 0.781057 0.000000 0.003800
O O4 0.739470 0.158865 0.099868
O O5 0.273408 0.500000 0.265144
O O6 0.270553 0.317529 0.208389
O O7 0.278191 0.365982 0.395859
O O8 0.000000 0.397390 0.289894
O O9 0.500000 0.897708 0.619032
O O10 0.219666 0.837715 0.704850
O O11 0.249244 0.854061 0.502197
O O12 0.222312 0.000000 0.613509
O O13 0.277692 0.840830 0.297851
O O14 0.000000 0.788285 0.203819
O O15 0.194698 0.500000 0.504974
O O16 0.283316 0.636042 0.609678
O O17 0.000000 0.647489 0.502487
O O18 0.500000 0.199181 0.805014
O O19 0.747297 0.318500 0.797630
O O20 0.274256 0.500000 0.738975
O O21 0.000000 0.599413 0.707663
O O22 0.000000 0.101721 0.385350
O O23 0.279340 0.000000 0.392992
#
# Coordination Sequence:
#
# PCOD9337539 Si02
#       8
#     4   4   4   4   4   4   4   4
#     4  10  22  41  61  77  98 135 182 227 270 321
#     4   8  14  26  46  74 107 141 175 208 249 305
#     4   9  18  33  52  74 102 136 174 217 265 321
#     4  10  20  33  54  82 108 136 175 222 268 311
#     4   7  11  22  42  69 101 136 171 204 239 288
#     4  10  21  36  55  78 103 136 180 225 270 315
#     4   9  18  32  52  80 111 142 178 217 256 308
#     4   9  18  31  47  73 108 138 166 210 270 328
#
# _framework density 21.541188999999999
#
# number of rings (size 3 to 8) (size 9 to 14) (size 15 to 20)
#    0.000    3.000    0.000    2.250    1.750    4.000 
#    0.000    1.875    0.000    4.875    0.000    0.000 
#    0.000    0.000    0.000    0.000    0.000    0.000 
#
# Total GULP energy -178554.085393 kJ/mol
# GULP energy per Si atom -5579.815169 kJ/mol
# Density = 2.149216 g / cm^3
# Si number density = 21.541189 Si / 1000 Ang^3
#
#
#
# Elastic Constant Matrix: (Units=GPa)
#
#
# Indices 1 2 3 4 5 6 
#
# 1 48.9956 4.5479 3.6882 0.0000 0.0000 0.0000
# 2 4.5479 154.1284 113.0049 0.0000 0.0000 0.0000
# 3 3.6882 113.0049 172.1618 0.0000 0.0000 0.0000
# 4 0.0000 0.0000 0.0000 38.5709 0.0000 0.0000
# 5 0.0000 0.0000 0.0000 0.0000 14.8263 0.0000
# 6 0.0000 0.0000 0.0000 0.0000 0.0000 14.5736
#
#
#
# Elastic Compliance Matrix: (Units=1/GPa)
#
#
# Indices 1 2 3 4 5 6 
#
# 1 0.020467 -0.000544 -0.000081 0.000000 0.000000 0.000000
# 2 -0.000544 0.012522 -0.008207 0.000000 0.000000 0.000000
# 3 -0.000081 -0.008207 0.011198 0.000000 0.000000 0.000000
# 4 0.000000 0.000000 0.000000 0.025926 0.000000 0.000000
# 5 0.000000 0.000000 0.000000 0.000000 0.067448 0.000000
# 6 0.000000 0.000000 0.000000 0.000000 0.000000 0.068617
#
#
# Mechanical properties :
#
#
# Convention : Reuss Voigt Hill
#
# Bulk Modulus (GPa) = 37.70754 68.64087 53.17420
# Shear Modulus (GPa) = 21.48845 30.53049 26.00947
#
# Velocity S-wave (km/s) = 3.16183 3.76880 3.47858
# Velocity P-wave (km/s) = 5.55630 7.13250 6.39316
#
# Compressibility (1/GPa) = 0.02651990
#
# Stress axis : x y z
#
# Youngs Moduli (GPa) = 48.85998 79.86092 89.30555
#
# Poissons Ratio (x) = 0.04348 0.00724
# Poissons Ratio (y) = 0.02660 0.73297
# Poissons Ratio (z) = 0.00396 0.65546
#
# Static dielectric constant tensor:
#      x y z
#    x 1.822230 0.000000 0.000000 
#    y 0.000000 1.807770 0.000000 
#    z 0.000000 0.000000 1.768880 
# 
# From -- ./inp_files/4212.got.cif
#   From: 2010.05.17/outbox.cif.g08.bks.cpg/sg25_3_cif.got.tgz:4212.got - 2010.06.04 01:04:00.
