data_PCOD9337625
_publ_section_title
;
Structure prediction by ZEFSAII (Michael W. Deem and Ramdas Pophale) SiO2 
 PCOD9337625
Probable space group: P M M 2
;
_chemical_formula_sum "Si O2"
_cell_formula_units_Z 24
_cell_length_a 14.336337
_cell_length_b 8.915888
_cell_length_c 10.487976
_cell_angle_alpha 90.000000
_cell_angle_beta 90.000000
_cell_angle_gamma 90.000000
_cell_volume 1340.585416
_symmetry_space_group_name_H-M "P M M 2"
_symmetry_group_IT_number 25
_symmetry_cell_setting 'orthorhombic'
loop_
_space_group_symop_operation_xyz
x,y,z
-x,-y,z
-x,y,z
x,-y,z
loop_
_atom_site_type_symbol
_atom_site_label
_atom_site_fract_x
_atom_site_fract_y
_atom_site_fract_z
Si Si1 0.892546 0.678799 0.447060
Si Si2 0.714918 0.820785 0.340793
Si Si3 0.715819 0.679461 0.842089
Si Si4 0.608942 0.819087 0.080716
Si Si5 0.892095 0.178813 0.727047
Si Si6 0.609791 0.320924 0.579546
O O1 0.880471 0.500000 0.456514
O O2 0.816736 0.747317 0.352482
O O3 0.876718 0.749782 0.587056
O O4 0.000000 0.710340 0.411305
O O5 0.659919 0.778188 0.212700
O O6 0.657516 0.764587 0.463283
O O7 0.723457 0.000000 0.344633
O O8 0.722015 0.500000 0.851073
O O9 0.817849 0.749940 0.822626
O O10 0.658447 0.717329 0.713322
O O11 0.661965 0.744927 0.962842
O O12 0.500000 0.775364 0.083485
O O13 0.613006 0.000000 0.068388
O O14 0.000000 0.208595 0.761924
O O15 0.878978 0.000000 0.719066
O O16 0.500000 0.288279 0.585437
O O17 0.621676 0.500000 0.559831
#
# Coordination Sequence:
#
# PCOD9337625 Si02
#       6
#     4   4   4   4   4   4
#     4  10  20  35  57  86 119 153 190 235 289 346
#     4  11  22  37  59  86 115 151 196 241 290 346
#     4  11  22  37  59  87 117 152 195 239 289 346
#     4  10  23  42  60  81 115 158 200 241 289 346
#     4  10  20  35  58  88 119 152 191 235 287 344
#     4  10  21  36  55  82 115 148 188 239 290 344
#
# _framework density 17.902626000000001
#
# number of rings (size 3 to 8) (size 9 to 14) (size 15 to 20)
#    0.000    1.667    1.667    3.000    0.000    6.000 
#    0.000    0.833    0.000    1.000    0.000    0.000 
#    0.000    0.000    0.000    0.000    0.000    0.000 
#
# Total GULP energy -134100.528243 kJ/mol
# GULP energy per Si atom -5587.522010 kJ/mol
# Density = 1.786188 g / cm^3
# Si number density = 17.902626 Si / 1000 Ang^3
#
#
#
# Elastic Constant Matrix: (Units=GPa)
#
#
# Indices 1 2 3 4 5 6 
#
# 1 172.0940 71.0797 96.5585 0.0000 0.0000 0.0000
# 2 71.0797 57.5447 65.3431 0.0000 0.0000 0.0000
# 3 96.5585 65.3431 143.0043 0.0000 0.0000 0.0000
# 4 0.0000 0.0000 0.0000 47.5952 0.0000 0.0000
# 5 0.0000 0.0000 0.0000 0.0000 35.0027 0.0000
# 6 0.0000 0.0000 0.0000 0.0000 0.0000 32.6871
#
#
#
# Elastic Compliance Matrix: (Units=1/GPa)
#
#
# Indices 1 2 3 4 5 6 
#
# 1 0.012400 -0.012074 -0.002856 0.000000 0.000000 0.000000
# 2 -0.012074 0.047874 -0.013723 0.000000 0.000000 0.000000
# 3 -0.002856 -0.013723 0.015191 0.000000 0.000000 0.000000
# 4 0.000000 0.000000 0.000000 0.021011 0.000000 0.000000
# 5 0.000000 0.000000 0.000000 0.000000 0.028569 0.000000
# 6 0.000000 0.000000 0.000000 0.000000 0.000000 0.030593
#
#
# Mechanical properties :
#
#
# Convention : Reuss Voigt Hill
#
# Bulk Modulus (GPa) = 55.06382 93.17840 74.12111
# Shear Modulus (GPa) = 22.83155 32.36777 27.59966
#
# Velocity S-wave (km/s) = 3.57503 4.25666 3.93065
# Velocity P-wave (km/s) = 6.91848 8.73609 7.87986
#
# Compressibility (1/GPa) = 0.01816075
#
# Stress axis : x y z
#
# Youngs Moduli (GPa) = 80.64634 20.88833 65.82716
#
# Poissons Ratio (x) = 0.25220 0.18798
# Poissons Ratio (y) = 0.97370 0.90332
# Poissons Ratio (z) = 0.23030 0.28664
#
# Static dielectric constant tensor:
#      x y z
#    x 1.620460 0.000000 0.000000 
#    y 0.000000 1.595290 0.000000 
#    z 0.000000 0.000000 1.572060 
# 
# From -- ./inp_files/3079.got.cif
#   From: 2010.05.17/outbox.cif.g08.bks.cpg/sg25_2_cif.got.tgz:3079.got - 2010.06.04 01:04:00.
