data_PCOD9337147
_publ_section_title
;
Structure prediction by ZEFSAII (Michael W. Deem and Ramdas Pophale) SiO2 
 PCOD9337147
Probable space group: P M M 2
;
_chemical_formula_sum "Si O2"
_cell_formula_units_Z 32
_cell_length_a 14.955895
_cell_length_b 7.875028
_cell_length_c 16.054286
_cell_angle_alpha 90.000000
_cell_angle_beta 90.000000
_cell_angle_gamma 90.000000
_cell_volume 1890.843172
_symmetry_space_group_name_H-M "P M M 2"
_symmetry_group_IT_number 25
_symmetry_cell_setting 'orthorhombic'
loop_
_space_group_symop_operation_xyz
x,y,z
-x,-y,z
-x,y,z
x,-y,z
loop_
_atom_site_type_symbol
_atom_site_label
_atom_site_fract_x
_atom_site_fract_y
_atom_site_fract_z
Si Si1 0.608220 0.801826 0.276380
Si Si2 0.710209 0.702574 0.621687
Si Si3 0.601431 0.701356 0.094358
Si Si4 0.099004 0.707363 0.871559
Si Si5 0.397498 0.799061 0.786489
Si Si6 0.281431 0.299548 0.944129
Si Si7 0.901074 0.293118 0.676946
Si Si8 0.602898 0.794614 0.457590
O O1 0.500000 0.788931 0.278958
O O2 0.635810 0.722993 0.188675
O O3 0.636574 0.732776 0.366786
O O4 0.631834 0.000000 0.272222
O O5 0.712115 0.500000 0.630991
O O6 0.651916 0.769929 0.698911
O O7 0.812597 0.765586 0.629167
O O8 0.663865 0.745676 0.534756
O O9 0.500000 0.772436 0.088914
O O10 0.594113 0.500000 0.079261
O O11 0.665851 0.773601 0.023288
O O12 0.100281 0.500000 0.873164
O O13 0.183444 0.771750 0.923330
O O14 0.109809 0.753884 0.774288
O O15 0.000000 0.761469 0.899159
O O16 0.500000 0.736380 0.783417
O O17 0.341947 0.717837 0.861691
O O18 0.399579 0.000000 0.802264
O O19 0.268553 0.500000 0.960094
O O20 0.902309 0.500000 0.673768
O O21 0.000000 0.235347 0.649217
O O22 0.500000 0.736866 0.470764
O O23 0.600027 0.000000 0.452844
#
# Coordination Sequence:
#
# PCOD9337147 Si02
#       8
#     4   4   4   4   4   4   4   4
#     4   8  15  29  47  63  82 114 151 180 211 258
#     4  11  20  30  47  69  88 114 150 185 221 263
#     4   9  17  27  41  64  92 116 140 180 227 259
#     4   8  13  24  44  66  86 111 145 184 223 261
#     4  11  23  34  42  57  88 127 157 180 211 255
#     4  10  18  30  47  67  89 116 150 186 222 261
#     4   8  14  26  44  65  87 111 143 183 223 261
#     4   9  18  32  47  64  90 121 149 181 221 262
#
# _framework density 16.923667999999999
#
# number of rings (size 3 to 8) (size 9 to 14) (size 15 to 20)
#    0.000    2.750    1.250    3.000    0.000    4.250 
#    0.000    2.500    0.000    2.625    0.000    0.875 
#    0.000    5.000    0.000    0.000    0.000    0.000 
#
# Total GULP energy -178285.951406 kJ/mol
# GULP energy per Si atom -5571.435981 kJ/mol
# Density = 1.688515 g / cm^3
# Si number density = 16.923668 Si / 1000 Ang^3
#
#
#
# Elastic Constant Matrix: (Units=GPa)
#
#
# Indices 1 2 3 4 5 6 
#
# 1 136.5443 0.2454 72.1307 0.0000 0.0000 0.0000
# 2 0.2454 13.2174 -8.0311 0.0000 0.0000 0.0000
# 3 72.1307 -8.0311 112.4647 0.0000 0.0000 0.0000
# 4 0.0000 0.0000 0.0000 22.7331 0.0000 0.0000
# 5 0.0000 0.0000 0.0000 0.0000 6.5035 0.0000
# 6 0.0000 0.0000 0.0000 0.0000 0.0000 -15.2990
#
#
#
# Elastic Compliance Matrix: (Units=1/GPa)
#
#
# Indices 1 2 3 4 5 6 
#
# 1 0.011366 -0.004851 -0.007636 0.000000 0.000000 0.000000
# 2 -0.004851 0.081160 0.008907 0.000000 0.000000 0.000000
# 3 -0.007636 0.008907 0.014425 0.000000 0.000000 0.000000
# 4 0.000000 0.000000 0.000000 0.043989 0.000000 0.000000
# 5 0.000000 0.000000 0.000000 0.000000 0.153763 0.000000
# 6 0.000000 0.000000 0.000000 0.000000 0.000000 -0.065364
#
#
# Mechanical properties :
#
#
# Convention : Reuss Voigt Hill
#
# Bulk Modulus (GPa) = 10.02098 43.43517 26.72807
# Shear Modulus (GPa) = 17.87221 15.97962 16.92591
#
# Velocity S-wave (km/s) = 3.25322 3.07615 3.16592
# Velocity P-wave (km/s) = 4.47720 6.19176 5.40293
#
# Compressibility (1/GPa) = 0.09979062
#
# Stress axis : x y z
#
# Youngs Moduli (GPa) = 87.97931 12.32136 69.32225
#
# Poissons Ratio (x) = 0.05977 0.52937
# Poissons Ratio (y) = 0.42679 -0.61744
# Poissons Ratio (z) = 0.67184 -0.10974
#
# Static dielectric constant tensor:
#      x y z
#    x 1.590610 0.000000 0.000000 
#    y 0.000000 1.620280 0.000000 
#    z 0.000000 0.000000 1.569640 
# 
# From -- ./inp_files/5681.got.cif
#   From: 2010.05.17/outbox.cif.g08.bks.cpg/sg25_3_cif.got.tgz:5681.got - 2010.06.04 01:04:00.
