data_PCOD9337787
_publ_section_title
;
Structure prediction by ZEFSAII (Michael W. Deem and Ramdas Pophale) SiO2 
 PCOD9337787
Probable space group: P M M 2
;
_chemical_formula_sum "Si O2"
_cell_formula_units_Z 25
_cell_length_a 13.481805
_cell_length_b 11.575807
_cell_length_c 9.627902
_cell_angle_alpha 90.000000
_cell_angle_beta 90.000000
_cell_angle_gamma 90.000000
_cell_volume 1502.557081
_symmetry_space_group_name_H-M "P M M 2"
_symmetry_group_IT_number 25
_symmetry_cell_setting 'orthorhombic'
loop_
_space_group_symop_operation_xyz
x,y,z
-x,-y,z
-x,y,z
x,-y,z
loop_
_atom_site_type_symbol
_atom_site_label
_atom_site_fract_x
_atom_site_fract_y
_atom_site_fract_z
Si Si1 0.116344 0.000000 0.864710
Si Si2 0.766172 0.225647 0.301120
Si Si3 0.117958 0.365011 0.532015
Si Si4 0.233829 0.225647 0.762909
Si Si5 0.116344 0.000000 0.199315
Si Si6 0.295091 0.628720 0.032014
Si Si7 0.500000 0.500000 0.032015
Si Si8 0.616194 0.139015 0.532014
O O1 0.172658 0.112602 0.808125
O O2 0.121135 0.000000 0.032013
O O3 0.000000 0.000000 0.824216
O O4 0.835378 0.303846 0.398363
O O5 0.733547 0.298549 0.167518
O O6 0.673253 0.187584 0.396947
O O7 0.827342 0.112602 0.255901
O O8 0.143602 0.500000 0.532013
O O9 0.164625 0.303848 0.665667
O O10 0.000000 0.352609 0.532018
O O11 0.326748 0.187584 0.667081
O O12 0.266454 0.298547 0.896512
O O13 0.000000 0.000000 0.239809
O O14 0.246045 0.500000 0.032013
O O15 0.411571 0.598706 0.032015
O O16 0.500000 0.170076 0.532013
O O17 0.624475 0.000000 0.532014
#
# Coordination Sequence:
#
# PCOD9337787 Si02
#       8
#     2   4   4   4   2   4   1   4
#     4  11  22  37  59  90 120 152 197 243 295 355
#     4  11  21  39  61  86 118 159 193 245 297 348
#     4  10  22  39  58  84 119 159 203 244 290 347
#     4  11  21  39  61  86 118 159 193 245 297 348
#     4  11  22  37  59  90 120 152 197 243 295 355
#     4  10  22  39  61  86 117 147 203 241 295 340
#     4   8  24  40  60  88 114 156 200 246 286 356
#     4  10  22  36  55  85 120 151 188 233 287 352
#
# _framework density 16.638303000000001
#
# number of rings (size 3 to 8) (size 9 to 14) (size 15 to 20)
#    0.480    1.120    3.200    1.920    2.240    0.000 
#    0.000    2.400    0.000   12.480    0.000    0.000 
#    0.000    0.000    0.000    0.000    0.000    0.000 
#
# Total GULP energy -139211.831085 kJ/mol
# GULP energy per Si atom -5568.473243 kJ/mol
# Density = 1.660043 g / cm^3
# Si number density = 16.638303 Si / 1000 Ang^3
#
#
#
# Elastic Constant Matrix: (Units=GPa)
#
#
# Indices 1 2 3 4 5 6 
#
# 1 129.2916 101.1603 78.3282 0.0000 0.0000 0.0000
# 2 101.1603 169.3819 95.9217 0.0000 0.0000 0.0000
# 3 78.3282 95.9217 153.0457 0.0000 0.0000 0.0000
# 4 0.0000 0.0000 0.0000 26.0387 0.0000 0.0000
# 5 0.0000 0.0000 0.0000 0.0000 12.2462 0.0000
# 6 0.0000 0.0000 0.0000 0.0000 0.0000 28.3205
#
#
#
# Elastic Compliance Matrix: (Units=1/GPa)
#
#
# Indices 1 2 3 4 5 6 
#
# 1 0.015530 -0.007401 -0.003310 0.000000 0.000000 0.000000
# 2 -0.007401 0.012679 -0.004159 0.000000 0.000000 0.000000
# 3 -0.003310 -0.004159 0.010835 0.000000 0.000000 0.000000
# 4 0.000000 0.000000 0.000000 0.038404 0.000000 0.000000
# 5 0.000000 0.000000 0.000000 0.000000 0.081658 0.000000
# 6 0.000000 0.000000 0.000000 0.000000 0.000000 0.035310
#
#
# Mechanical properties :
#
#
# Convention : Reuss Voigt Hill
#
# Bulk Modulus (GPa) = 107.47238 111.39329 109.43283
# Shear Modulus (GPa) = 22.00158 25.07502 23.53830
#
# Velocity S-wave (km/s) = 3.64035 3.88631 3.76534
# Velocity P-wave (km/s) = 9.07762 9.33987 9.20967
#
# Compressibility (1/GPa) = 0.00930472
#
# Stress axis : x y z
#
# Youngs Moduli (GPa) = 64.39121 78.87086 92.29710
#
# Poissons Ratio (x) = 0.58370 0.30549
# Poissons Ratio (y) = 0.47654 0.38386
# Poissons Ratio (z) = 0.21313 0.32802
#
# Static dielectric constant tensor:
#      x y z
#    x 1.531660 0.000000 0.000000 
#    y 0.000000 1.543580 0.000000 
#    z 0.000000 0.000000 1.536120 
# 
# From -- ./inp_files/2676.got.cif
#   From: 2010.05.17/outbox.cif.g08.bks.cpg/sg25_2_cif.got.tgz:2676.got - 2010.06.04 01:04:00.
