data_PCOD9337440
_publ_section_title
;
Structure prediction by ZEFSAII (Michael W. Deem and Ramdas Pophale) SiO2 
 PCOD9337440
Probable space group: P M M 2
;
_chemical_formula_sum "Si O2"
_cell_formula_units_Z 24
_cell_length_a 9.699933
_cell_length_b 7.592962
_cell_length_c 15.973984
_cell_angle_alpha 90.000000
_cell_angle_beta 90.000000
_cell_angle_gamma 90.000000
_cell_volume 1176.503453
_symmetry_space_group_name_H-M "P M M 2"
_symmetry_group_IT_number 25
_symmetry_cell_setting 'orthorhombic'
loop_
_space_group_symop_operation_xyz
x,y,z
-x,-y,z
-x,y,z
x,-y,z
loop_
_atom_site_type_symbol
_atom_site_label
_atom_site_fract_x
_atom_site_fract_y
_atom_site_fract_z
Si Si1 0.656148 0.708961 0.146590
Si Si2 0.344805 0.710895 0.644600
Si Si3 0.340014 0.714725 0.458435
Si Si4 0.155135 0.788979 0.801645
Si Si5 0.841366 0.212510 0.988213
Si Si6 0.841021 0.284069 0.301341
O O1 0.500000 0.780606 0.145761
O O2 0.644714 0.500000 0.161111
O O3 0.752297 0.777315 0.221617
O O4 0.735700 0.732544 0.059434
O O5 0.500000 0.777873 0.658574
O O6 0.352016 0.500000 0.638325
O O7 0.298720 0.772574 0.552260
O O8 0.250628 0.749349 0.723495
O O9 0.500000 0.766475 0.444004
O O10 0.338798 0.500000 0.456922
O O11 0.237792 0.772647 0.385539
O O12 0.198956 0.727094 0.894387
O O13 0.000000 0.722688 0.786781
O O14 0.148540 0.000000 0.807497
O O15 0.000000 0.270836 0.004496
O O16 0.843519 0.000000 0.988417
O O17 0.842392 0.500000 0.300717
O O18 0.000000 0.227428 0.297760
#
# Coordination Sequence:
#
# PCOD9337440 Si02
#       6
#     4   4   4   4   4   4
#     4  10  20  32  48  73 102 129 158 195 239 285
#     4   9  18  31  48  73 102 129 159 197 240 284
#     4   8  14  26  43  64  94 128 157 190 235 283
#     4   9  19  35  52  70  94 126 163 200 240 288
#     4   9  19  36  54  70  92 125 163 201 242 288
#     4   9  16  26  43  68  96 126 160 196 234 279
#
# _framework density 20.399429999999999
#
# number of rings (size 3 to 8) (size 9 to 14) (size 15 to 20)
#    0.000    3.000    0.000    3.000    0.000    6.000 
#    0.000    6.667    0.000    1.000    0.000    4.667 
#    0.000    0.000    0.000    0.000    0.000    0.000 
#
# Total GULP energy -133864.185672 kJ/mol
# GULP energy per Si atom -5577.674403 kJ/mol
# Density = 2.035300 g / cm^3
# Si number density = 20.399430 Si / 1000 Ang^3
#
#
#
# Elastic Constant Matrix: (Units=GPa)
#
#
# Indices 1 2 3 4 5 6 
#
# 1 170.4943 5.7874 154.4572 0.0000 0.0000 0.0000
# 2 5.7874 39.9022 2.0464 0.0000 0.0000 0.0000
# 3 154.4572 2.0464 227.3961 0.0000 0.0000 0.0000
# 4 0.0000 0.0000 0.0000 45.6676 0.0000 0.0000
# 5 0.0000 0.0000 0.0000 0.0000 42.6828 0.0000
# 6 0.0000 0.0000 0.0000 0.0000 0.0000 26.5985
#
#
#
# Elastic Compliance Matrix: (Units=1/GPa)
#
#
# Indices 1 2 3 4 5 6 
#
# 1 0.015362 -0.001694 -0.010419 0.000000 0.000000 0.000000
# 2 -0.001694 0.025260 0.000923 0.000000 0.000000 0.000000
# 3 -0.010419 0.000923 0.011467 0.000000 0.000000 0.000000
# 4 0.000000 0.000000 0.000000 0.021897 0.000000 0.000000
# 5 0.000000 0.000000 0.000000 0.000000 0.023429 0.000000
# 6 0.000000 0.000000 0.000000 0.000000 0.000000 0.037596
#
#
# Mechanical properties :
#
#
# Convention : Reuss Voigt Hill
#
# Bulk Modulus (GPa) = 33.66056 84.70827 59.18441
# Shear Modulus (GPa) = 29.88769 41.35655 35.62212
#
# Velocity S-wave (km/s) = 3.83185 4.50748 4.18333
# Velocity P-wave (km/s) = 6.00949 8.28884 7.23943
#
# Compressibility (1/GPa) = 0.02970836
#
# Stress axis : x y z
#
# Youngs Moduli (GPa) = 65.09548 39.58893 87.21013
#
# Poissons Ratio (x) = 0.06705 0.90867
# Poissons Ratio (y) = 0.11025 -0.08051
# Poissons Ratio (z) = 0.67825 -0.03655
#
# Static dielectric constant tensor:
#      x y z
#    x 1.703810 0.000000 0.000000 
#    y 0.000000 1.777490 0.000000 
#    z 0.000000 0.000000 1.717350 
# 
# From -- ./inp_files/3916.got.cif
#   From: 2010.05.17/outbox.cif.g08.bks.cpg/sg25_2_cif.got.tgz:3916.got - 2010.06.04 01:04:00.
