data_PCOD9337391
_publ_section_title
;
Structure prediction by ZEFSAII (Michael W. Deem and Ramdas Pophale) SiO2 
 PCOD9337391
Probable space group: P M M 2
;
_chemical_formula_sum "Si O2"
_cell_formula_units_Z 32
_cell_length_a 9.489617
_cell_length_b 7.447671
_cell_length_c 21.910291
_cell_angle_alpha 90.000000
_cell_angle_beta 90.000000
_cell_angle_gamma 90.000000
_cell_volume 1548.521765
_symmetry_space_group_name_H-M "P M M 2"
_symmetry_group_IT_number 25
_symmetry_cell_setting 'orthorhombic'
loop_
_space_group_symop_operation_xyz
x,y,z
-x,-y,z
-x,y,z
x,-y,z
loop_
_atom_site_type_symbol
_atom_site_label
_atom_site_fract_x
_atom_site_fract_y
_atom_site_fract_z
Si Si1 0.328629 0.290222 0.561290
Si Si2 0.840117 0.286688 0.809033
Si Si3 0.659626 0.784975 0.191158
Si Si4 0.336702 0.720219 0.693977
Si Si5 0.336421 0.279950 0.427838
Si Si6 0.162458 0.215200 0.941825
Si Si7 0.835463 0.780827 0.075224
Si Si8 0.840458 0.715091 0.311825
O O1 0.500000 0.283211 0.561841
O O2 0.287986 0.500000 0.560949
O O3 0.283620 0.217447 0.627218
O O4 0.287341 0.216985 0.495034
O O5 0.850150 0.500000 0.800555
O O6 0.752082 0.217373 0.751860
O O7 0.773508 0.261136 0.876243
O O8 0.000000 0.213307 0.809676
O O9 0.500000 0.715965 0.196280
O O10 0.741786 0.716904 0.131413
O O11 0.749484 0.750731 0.251695
O O12 0.651064 0.000000 0.184578
O O13 0.500000 0.771777 0.700658
O O14 0.334280 0.500000 0.692662
O O15 0.500000 0.228171 0.418605
O O16 0.335311 0.500000 0.429085
O O17 0.240165 0.218852 0.372125
O O18 0.000000 0.280612 0.939493
O O19 0.159090 0.000000 0.944142
O O20 0.218035 0.275416 0.007831
O O21 0.000000 0.728440 0.081760
O O22 0.834521 0.000000 0.076317
O O23 0.848595 0.500000 0.317955
O O24 0.000000 0.783961 0.306227
#
# Coordination Sequence:
#
# PCOD9337391 Si02
#       8
#     4   4   4   4   4   4   4   4
#     4   7  10  18  34  55  77 105 142 176 206 247
#     4   9  16  25  38  59  85 108 133 171 214 248
#     4  10  20  33  50  71  92 116 148 184 222 265
#     4   8  13  22  36  54  79 111 142 170 205 252
#     4   8  13  23  40  60  83 112 144 179 218 256
#     4   8  14  26  44  62  80 108 143 171 201 250
#     4   8  14  27  47  66  83 107 141 179 215 252
#     4  10  20  32  46  67  95 124 151 180 219 266
#
# _framework density 20.664868999999999
#
# number of rings (size 3 to 8) (size 9 to 14) (size 15 to 20)
#    0.000    3.500    0.000    3.000    0.000    1.500 
#    0.000    1.875    0.000    7.125    0.000    0.875 
#    0.000    5.000    0.000    0.000    0.000    0.000 
#
# Total GULP energy -178277.901637 kJ/mol
# GULP energy per Si atom -5571.184426 kJ/mol
# Density = 2.061784 g / cm^3
# Si number density = 20.664869 Si / 1000 Ang^3
#
#
#
# Elastic Constant Matrix: (Units=GPa)
#
#
# Indices 1 2 3 4 5 6 
#
# 1 97.5373 4.1714 107.8364 0.0000 0.0000 0.0000
# 2 4.1714 61.4927 5.3383 0.0000 0.0000 0.0000
# 3 107.8364 5.3383 269.8820 0.0000 0.0000 0.0000
# 4 0.0000 0.0000 0.0000 21.4668 0.0000 0.0000
# 5 0.0000 0.0000 0.0000 0.0000 37.5722 0.0000
# 6 0.0000 0.0000 0.0000 0.0000 0.0000 1.1540
#
#
#
# Elastic Compliance Matrix: (Units=1/GPa)
#
#
# Indices 1 2 3 4 5 6 
#
# 1 0.018389 -0.000611 -0.007335 0.000000 0.000000 0.000000
# 2 -0.000611 0.016310 -0.000079 0.000000 0.000000 0.000000
# 3 -0.007335 -0.000079 0.006638 0.000000 0.000000 0.000000
# 4 0.000000 0.000000 0.000000 0.046583 0.000000 0.000000
# 5 0.000000 0.000000 0.000000 0.000000 0.026615 0.000000
# 6 0.000000 0.000000 0.000000 0.000000 0.000000 0.866578
#
#
# Mechanical properties :
#
#
# Convention : Reuss Voigt Hill
#
# Bulk Modulus (GPa) = 39.54527 73.73380 56.63954
# Shear Modulus (GPa) = 4.97220 32.80967 18.89093
#
# Velocity S-wave (km/s) = 1.55285 3.98892 3.02678
# Velocity P-wave (km/s) = 4.73214 7.54808 6.29947
#
# Compressibility (1/GPa) = 0.02528747
#
# Stress axis : x y z
#
# Youngs Moduli (GPa) = 54.38159 61.31080 150.65041
#
# Poissons Ratio (x) = 0.03744 1.10508
# Poissons Ratio (y) = 0.03321 0.01185
# Poissons Ratio (z) = 0.39891 0.00482
#
# Static dielectric constant tensor:
#      x y z
#    x 1.709630 0.000000 0.000000 
#    y 0.000000 1.817200 0.000000 
#    z 0.000000 0.000000 1.767810 
# 
# From -- ./inp_files/6503.got.cif
#   From: 2010.05.17/outbox.cif.g08.bks.cpg/sg25_4_cif.got.tgz:6503.got - 2010.06.04 01:04:00.
