data_PCOD9337920
_publ_section_title
;
Structure prediction by ZEFSAII (Michael W. Deem and Ramdas Pophale) SiO2 
 PCOD9337920
Probable space group: P M C 21
;
_chemical_formula_sum "Si O2"
_cell_formula_units_Z 32
_cell_length_a 14.264752
_cell_length_b 16.922200
_cell_length_c 5.395010
_cell_angle_alpha 90.000000
_cell_angle_beta 90.000000
_cell_angle_gamma 90.000000
_cell_volume 1302.306785
_symmetry_space_group_name_H-M "P M C 21"
_symmetry_group_IT_number 26
_symmetry_cell_setting 'orthorhombic'
loop_
_space_group_symop_operation_xyz
x,y,z
-x,-y,1/2+z
-x,y,z
x,-y,1/2+z
loop_
_atom_site_type_symbol
_atom_site_label
_atom_site_fract_x
_atom_site_fract_y
_atom_site_fract_z
Si Si1 0.849899 0.224063 0.535670
Si Si2 0.137695 0.286291 0.032102
Si Si3 0.613697 0.953666 0.687193
Si Si4 0.137616 0.462393 0.839862
Si Si5 0.637616 0.462393 0.784818
Si Si6 0.886303 0.046334 0.437479
Si Si7 0.349899 0.224062 0.089009
Si Si8 0.637695 0.286291 0.592577
O O1 0.898509 0.266687 0.304430
O O2 0.842570 0.132587 0.469116
O O3 0.749006 0.266965 0.564529
O O4 0.895209 0.231786 0.805905
O O5 0.249006 0.266966 0.060151
O O6 0.120238 0.374827 0.941920
O O7 0.500000 0.944134 0.684690
O O8 0.657431 0.867413 0.655561
O O9 0.639011 0.006705 0.448894
O O10 0.104114 0.480184 0.561214
O O11 0.250000 0.471340 0.812340
O O12 0.604114 0.519816 0.563466
O O13 0.620238 0.374827 0.682759
O O14 0.000000 0.055866 0.439983
O O15 0.860988 0.006706 0.175777
O O16 0.398509 0.266686 0.320250
O O17 0.395209 0.231786 0.818775
#
# Coordination Sequence:
#
# PCOD9337920 Si02
#       8
#     4   4   4   4   4   4   4   4
#     4  10  19  32  49  69  99 130 152 196 248 286
#     4  10  19  32  45  73 108 129 156 193 239 292
#     4  10  21  38  56  72  91 120 164 209 243 283
#     4  10  18  26  43  66 100 137 163 189 222 274
#     4  10  18  26  43  66 100 137 163 189 222 274
#     4  10  21  38  56  72  91 120 164 209 243 283
#     4  10  19  32  49  69  99 130 152 196 248 286
#     4  10  19  32  45  73 108 129 156 193 239 292
#
# _framework density 24.571785999999999
#
# number of rings (size 3 to 8) (size 9 to 14) (size 15 to 20)
#    0.000    2.000    2.500    3.000    7.000    0.000 
#    0.000   15.000    0.000    0.000    0.000    0.000 
#    0.000   34.000    0.000    0.000    0.000    0.000 
#
# Total GULP energy -178914.581601 kJ/mol
# GULP energy per Si atom -5591.080675 kJ/mol
# Density = 2.451586 g / cm^3
# Si number density = 24.571786 Si / 1000 Ang^3
#
#
#
# Elastic Constant Matrix: (Units=GPa)
#
#
# Indices 1 2 3 4 5 6 
#
# 1 103.0599 6.0090 10.6529 0.0000 0.0000 0.0000
# 2 6.0090 153.0832 58.1049 0.0000 0.0000 0.0000
# 3 10.6529 58.1049 226.4739 0.0000 0.0000 0.0000
# 4 0.0000 0.0000 0.0000 56.4572 0.0000 0.0000
# 5 0.0000 0.0000 0.0000 0.0000 -30.8869 0.0000
# 6 0.0000 0.0000 0.0000 0.0000 0.0000 -45.6766
#
#
#
# Elastic Compliance Matrix: (Units=1/GPa)
#
#
# Indices 1 2 3 4 5 6 
#
# 1 0.009758 -0.000231 -0.000400 0.000000 0.000000 0.000000
# 2 -0.000231 0.007243 -0.001847 0.000000 0.000000 0.000000
# 3 -0.000400 -0.001847 0.004908 0.000000 0.000000 0.000000
# 4 0.000000 0.000000 0.000000 0.017713 0.000000 0.000000
# 5 0.000000 0.000000 0.000000 0.000000 -0.032376 0.000000
# 6 0.000000 0.000000 0.000000 0.000000 0.000000 -0.021893
#
#
# Mechanical properties :
#
#
# Convention : Reuss Voigt Hill
#
# Bulk Modulus (GPa) = 58.98932 70.23897 64.61414
# Shear Modulus (GPa) = -1237.45131 23.16876 -607.14128
#
# Velocity S-wave (km/s) = -22.46553 3.07400 -15.73611
# Velocity P-wave (km/s) = 25.47301 6.42235 17.43025
#
# Compressibility (1/GPa) = 0.01695222
#
# Stress axis : x y z
#
# Youngs Moduli (GPa) = 102.48113 138.07097 203.73764
#
# Poissons Ratio (x) = 0.03194 0.08142
# Poissons Ratio (y) = 0.02371 0.37637
# Poissons Ratio (z) = 0.04096 0.25506
#
# Static dielectric constant tensor:
#      x y z
#    x 1.974670 0.000000 0.000000 
#    y 0.000000 1.875000 0.000000 
#    z 0.000000 0.000000 1.983930 
# 
# From -- ./inp_files/792.got.cif
#   From: 2010.05.17/outbox.cif.g08.bks.cpg/sg26_1_cif.got.tgz:792.got - 2010.06.04 01:07:29.
