data_PCOD9337604
_publ_section_title
;
Structure prediction by ZEFSAII (Michael W. Deem and Ramdas Pophale) SiO2 
 PCOD9337604
Probable space group: P M M 2
;
_chemical_formula_sum "Si O2"
_cell_formula_units_Z 32
_cell_length_a 14.496109
_cell_length_b 8.358257
_cell_length_c 13.393256
_cell_angle_alpha 90.000000
_cell_angle_beta 90.000000
_cell_angle_gamma 90.000000
_cell_volume 1622.756423
_symmetry_space_group_name_H-M "P M M 2"
_symmetry_group_IT_number 25
_symmetry_cell_setting 'orthorhombic'
loop_
_space_group_symop_operation_xyz
x,y,z
-x,-y,z
-x,y,z
x,-y,z
loop_
_atom_site_type_symbol
_atom_site_label
_atom_site_fract_x
_atom_site_fract_y
_atom_site_fract_z
Si Si1 0.387789 0.182274 0.474540
Si Si2 0.212868 0.310713 0.172192
Si Si3 0.892241 0.191354 0.368320
Si Si4 0.892092 0.308699 0.583339
Si Si5 0.894405 0.193247 0.978321
Si Si6 0.604905 0.803822 0.693174
Si Si7 0.394450 0.193887 0.255835
Si Si8 0.210325 0.807209 0.781195
O O1 0.500000 0.172094 0.474845
O O2 0.365667 0.254960 0.582127
O O3 0.366037 0.255418 0.366982
O O4 0.351109 0.000000 0.474257
O O5 0.212009 0.500000 0.165936
O O6 0.162552 0.257347 0.274102
O O7 0.317831 0.249544 0.179052
O O8 0.159129 0.240755 0.077846
O O9 0.855993 0.246949 0.476425
O O10 0.000000 0.242287 0.361444
O O11 0.888829 0.000000 0.364864
O O12 0.887585 0.500000 0.583714
O O13 0.840477 0.242098 0.679589
O O14 0.000000 0.259421 0.589440
O O15 0.842115 0.252806 0.879163
O O16 0.000000 0.250825 0.980585
O O17 0.896764 0.000000 0.973790
O O18 0.500000 0.753495 0.714193
O O19 0.683196 0.755262 0.770686
O O20 0.603649 0.000000 0.687854
O O21 0.500000 0.243015 0.235199
O O22 0.393969 0.000000 0.261085
O O23 0.209938 0.000000 0.785522
#
# Coordination Sequence:
#
# PCOD9337604 Si02
#       8
#     4   4   4   4   4   4   4   4
#     4   7  11  22  43  73 108 144 181 220 261 312
#     4  12  25  38  57  85 116 149 190 242 303 363
#     4  10  21  38  60  84 112 148 190 237 291 353
#     4  10  21  36  54  81 119 154 183 226 290 360
#     4  10  22  41  61  81 110 149 198 253 298 347
#     4   8  14  26  47  80 118 149 182 227 277 327
#     4   9  18  34  57  84 115 154 198 237 276 335
#     4  10  20  34  58  88 114 147 195 245 289 334
#
# _framework density 19.719535
#
# number of rings (size 3 to 8) (size 9 to 14) (size 15 to 20)
#    0.000    2.500    0.000    4.125    1.750    4.500 
#    0.000    0.625    0.000    2.625    0.000    0.000 
#    0.000    0.000    0.000    0.000    0.000    0.000 
#
# Total GULP energy -178591.378918 kJ/mol
# GULP energy per Si atom -5580.980591 kJ/mol
# Density = 1.967465 g / cm^3
# Si number density = 19.719535 Si / 1000 Ang^3
#
#
#
# Elastic Constant Matrix: (Units=GPa)
#
#
# Indices 1 2 3 4 5 6 
#
# 1 143.4693 17.1337 95.6891 0.0000 0.0000 0.0000
# 2 17.1337 9.1742 12.3285 0.0000 0.0000 0.0000
# 3 95.6891 12.3285 144.4771 0.0000 0.0000 0.0000
# 4 0.0000 0.0000 0.0000 -142.9900 0.0000 0.0000
# 5 0.0000 0.0000 0.0000 0.0000 37.1364 0.0000
# 6 0.0000 0.0000 0.0000 0.0000 0.0000 4.5723
#
#
#
# Elastic Compliance Matrix: (Units=1/GPa)
#
#
# Indices 1 2 3 4 5 6 
#
# 1 0.014247 -0.015731 -0.008094 0.000000 0.000000 0.000000
# 2 -0.015731 0.140490 -0.001569 0.000000 0.000000 0.000000
# 3 -0.008094 -0.001569 0.012416 0.000000 0.000000 0.000000
# 4 0.000000 0.000000 0.000000 -0.006993 0.000000 0.000000
# 5 0.000000 0.000000 0.000000 0.000000 0.026928 0.000000
# 6 0.000000 0.000000 0.000000 0.000000 0.000000 0.218710
#
#
# Mechanical properties :
#
#
# Convention : Reuss Voigt Hill
#
# Bulk Modulus (GPa) = 8.59365 60.82479 34.70922
# Shear Modulus (GPa) = 10.09338 -8.79166 0.65086
#
# Velocity S-wave (km/s) = 2.26486 -2.11377 0.57513
# Velocity P-wave (km/s) = 3.34766 4.99545 4.25214
#
# Compressibility (1/GPa) = 0.11636503
#
# Stress axis : x y z
#
# Youngs Moduli (GPa) = 70.19044 7.11792 80.54180
#
# Poissons Ratio (x) = 0.11197 0.65187
# Poissons Ratio (y) = 1.10418 0.12640
# Poissons Ratio (z) = 0.56809 0.01117
#
# Static dielectric constant tensor:
#      x y z
#    x 1.730170 0.000000 0.000000 
#    y 0.000000 1.675530 0.000000 
#    z 0.000000 0.000000 1.682080 
# 
# From -- ./inp_files/4936.got.cif
#   From: 2010.05.17/outbox.cif.g08.bks.cpg/sg25_3_cif.got.tgz:4936.got - 2010.06.04 01:04:00.
