data_PCOD9337281
_publ_section_title
;
Structure prediction by ZEFSAII (Michael W. Deem and Ramdas Pophale) SiO2 
 PCOD9337281
Probable space group: P M M 2
;
_chemical_formula_sum "Si O2"
_cell_formula_units_Z 28
_cell_length_a 20.986650
_cell_length_b 7.630290
_cell_length_c 8.002499
_cell_angle_alpha 90.000000
_cell_angle_beta 90.000000
_cell_angle_gamma 90.000000
_cell_volume 1281.473980
_symmetry_space_group_name_H-M "P M M 2"
_symmetry_group_IT_number 25
_symmetry_cell_setting 'orthorhombic'
loop_
_space_group_symop_operation_xyz
x,y,z
-x,-y,z
-x,y,z
x,-y,z
loop_
_atom_site_type_symbol
_atom_site_label
_atom_site_fract_x
_atom_site_fract_y
_atom_site_fract_z
Si Si1 0.845456 0.705309 0.306040
Si Si2 0.161198 0.287488 0.689518
Si Si3 0.704051 0.195038 0.267344
Si Si4 0.431504 0.795666 0.774007
Si Si5 0.431424 0.793890 0.174507
Si Si6 0.073641 0.284802 0.994089
Si Si7 0.701655 0.299665 0.632643
O O1 0.859851 0.500000 0.321616
O O2 0.849054 0.775163 0.497245
O O3 0.773065 0.722426 0.237578
O O4 0.892715 0.777057 0.165207
O O5 0.155083 0.500000 0.687113
O O6 0.235187 0.248451 0.734748
O O7 0.112990 0.224775 0.831124
O O8 0.637073 0.284580 0.220367
O O9 0.699919 0.186464 0.467029
O O10 0.704648 0.000000 0.191474
O O11 0.500000 0.725023 0.712257
O O12 0.366221 0.709416 0.718986
O O13 0.428228 0.000000 0.724038
O O14 0.433500 0.789608 0.974284
O O15 0.500000 0.721929 0.235468
O O16 0.429901 0.000000 0.226978
O O17 0.075918 0.500000 0.994978
O O18 0.000000 0.233716 0.986131
O O19 0.712962 0.500000 0.576525
#
# Coordination Sequence:
#
# PCOD9337281 Si02
#       7
#     4   4   4   4   4   4   4
#     4   9  18  32  50  74 106 135 167 214 263 306
#     4   8  16  30  45  68 102 134 163 205 256 305
#     4  10  19  32  52  75  98 131 174 212 256 309
#     4   9  18  33  51  71  97 130 169 213 258 306
#     4   8  16  31  49  70  96 126 166 214 256 298
#     4   9  17  29  49  77 103 132 170 207 254 315
#     4  10  20  33  49  72 102 134 169 212 262 307
#
# _framework density 21.849837999999998
#
# number of rings (size 3 to 8) (size 9 to 14) (size 15 to 20)
#    0.000    3.000    0.000    2.571    2.000    1.429 
#    0.000    5.000    0.000    3.429    0.000    0.000 
#    0.000    0.000    0.000    0.000    0.000    0.000 
#
# Total GULP energy -155989.551644 kJ/mol
# GULP energy per Si atom -5571.055416 kJ/mol
# Density = 2.180011 g / cm^3
# Si number density = 21.849838 Si / 1000 Ang^3
#
#
#
# Elastic Constant Matrix: (Units=GPa)
#
#
# Indices 1 2 3 4 5 6 
#
# 1 215.8573 6.6144 86.9377 0.0000 0.0000 0.0000
# 2 6.6144 44.8740 5.3826 0.0000 0.0000 0.0000
# 3 86.9377 5.3826 72.3904 0.0000 0.0000 0.0000
# 4 0.0000 0.0000 0.0000 2.8855 0.0000 0.0000
# 5 0.0000 0.0000 0.0000 0.0000 78.0476 0.0000
# 6 0.0000 0.0000 0.0000 0.0000 0.0000 30.3462
#
#
#
# Elastic Compliance Matrix: (Units=1/GPa)
#
#
# Indices 1 2 3 4 5 6 
#
# 1 0.008973 -0.000030 -0.010774 0.000000 0.000000 0.000000
# 2 -0.000030 0.022485 -0.001636 0.000000 0.000000 0.000000
# 3 -0.010774 -0.001636 0.026874 0.000000 0.000000 0.000000
# 4 0.000000 0.000000 0.000000 0.346557 0.000000 0.000000
# 5 0.000000 0.000000 0.000000 0.000000 0.012813 0.000000
# 6 0.000000 0.000000 0.000000 0.000000 0.000000 0.032953
#
#
# Mechanical properties :
#
#
# Convention : Reuss Voigt Hill
#
# Bulk Modulus (GPa) = 29.89234 58.99901 44.44568
# Shear Modulus (GPa) = 10.27358 37.86833 24.07096
#
# Velocity S-wave (km/s) = 2.17074 4.16759 3.32272
# Velocity P-wave (km/s) = 4.47139 7.08654 5.92505
#
# Compressibility (1/GPa) = 0.03345338
#
# Stress axis : x y z
#
# Youngs Moduli (GPa) = 111.44845 44.47361 37.21031
#
# Poissons Ratio (x) = 0.00135 0.40089
# Poissons Ratio (y) = 0.00338 0.06086
# Poissons Ratio (z) = 1.20071 0.07274
#
# Static dielectric constant tensor:
#      x y z
#    x 1.823090 0.000000 0.000000 
#    y 0.000000 1.889380 0.000000 
#    z 0.000000 0.000000 1.777970 
# 
# From -- ./inp_files/3549.got.cif
#   From: 2010.05.17/outbox.cif.g08.bks.cpg/sg25_2_cif.got.tgz:3549.got - 2010.06.04 01:04:00.
