data_PCOD9337798
_publ_section_title
;
Structure prediction by ZEFSAII (Michael W. Deem and Ramdas Pophale) SiO2 
 PCOD9337798
Probable space group: P M M 2
;
_chemical_formula_sum "Si O2"
_cell_formula_units_Z 16
_cell_length_a 12.180581
_cell_length_b 8.626675
_cell_length_c 7.928095
_cell_angle_alpha 90.000000
_cell_angle_beta 90.000000
_cell_angle_gamma 90.000000
_cell_volume 833.067681
_symmetry_space_group_name_H-M "P M M 2"
_symmetry_group_IT_number 25
_symmetry_cell_setting 'orthorhombic'
loop_
_space_group_symop_operation_xyz
x,y,z
-x,-y,z
-x,y,z
x,-y,z
loop_
_atom_site_type_symbol
_atom_site_label
_atom_site_fract_x
_atom_site_fract_y
_atom_site_fract_z
Si Si1 0.731476 0.814373 0.994180
Si Si2 0.500000 0.688175 0.481982
Si Si3 0.262629 0.314086 0.353481
Si Si4 0.500000 0.313800 0.875923
Si Si5 0.872481 0.187274 0.668356
O O1 0.609827 0.749244 0.961172
O O2 0.807800 0.765239 0.837527
O O3 0.728079 0.000000 0.997470
O O4 0.772259 0.752646 0.173565
O O5 0.500000 0.500000 0.478346
O O6 0.612393 0.739660 0.394140
O O7 0.500000 0.733806 0.678653
O O8 0.262676 0.500000 0.346808
O O9 0.186656 0.258170 0.505936
O O10 0.500000 0.500000 0.885272
O O11 0.000000 0.231731 0.676396
O O12 0.866487 0.000000 0.656899
#
# Coordination Sequence:
#
# PCOD9337798 Si02
#       5
#     4   2   4   2   4
#     4  11  23  39  61  92 124 159 201 246 300 365
#     4   9  19  35  58  87 121 156 189 236 302 359
#     4  11  22  39  63  92 123 158 198 246 304 363
#     4  11  20  37  62  89 123 160 197 246 304 359
#     4  10  23  43  63  84 117 161 206 253 302 354
#
# _framework density 19.206123000000002
#
# number of rings (size 3 to 8) (size 9 to 14) (size 15 to 20)
#    0.000    1.500    2.500    2.625    0.000    3.500 
#    0.000    4.375    0.000    0.000    0.000    0.000 
#    0.000    0.000    0.000    0.000    0.000    0.000 
#
# Total GULP energy -89449.924967 kJ/mol
# GULP energy per Si atom -5590.620310 kJ/mol
# Density = 1.916241 g / cm^3
# Si number density = 19.206123 Si / 1000 Ang^3
#
#
#
# Elastic Constant Matrix: (Units=GPa)
#
#
# Indices 1 2 3 4 5 6 
#
# 1 146.0283 41.8641 84.8213 0.0000 0.0000 0.0000
# 2 41.8641 42.1009 50.6747 0.0000 0.0000 0.0000
# 3 84.8213 50.6747 201.2202 0.0000 0.0000 0.0000
# 4 0.0000 0.0000 0.0000 34.2820 0.0000 0.0000
# 5 0.0000 0.0000 0.0000 0.0000 -2.8651 0.0000
# 6 0.0000 0.0000 0.0000 0.0000 0.0000 21.8083
#
#
#
# Elastic Compliance Matrix: (Units=1/GPa)
#
#
# Indices 1 2 3 4 5 6 
#
# 1 0.010423 -0.007284 -0.002559 0.000000 0.000000 0.000000
# 2 -0.007284 0.039174 -0.006795 0.000000 0.000000 0.000000
# 3 -0.002559 -0.006795 0.007760 0.000000 0.000000 0.000000
# 4 0.000000 0.000000 0.000000 0.029170 0.000000 0.000000
# 5 0.000000 0.000000 0.000000 0.000000 -0.349025 0.000000
# 6 0.000000 0.000000 0.000000 0.000000 0.000000 0.045854
#
#
# Mechanical properties :
#
#
# Convention : Reuss Voigt Hill
#
# Bulk Modulus (GPa) = 41.52744 82.67442 62.10093
# Shear Modulus (GPa) = -28.51586 24.77763 -1.86911
#
# Velocity S-wave (km/s) = -3.85740 3.59568 -0.98757
# Velocity P-wave (km/s) = 1.35262 7.77032 5.57707
#
# Compressibility (1/GPa) = 0.02408046
#
# Stress axis : x y z
#
# Youngs Moduli (GPa) = 95.94508 25.52703 128.86983
#
# Poissons Ratio (x) = 0.18593 0.32981
# Poissons Ratio (y) = 0.69883 0.87570
# Poissons Ratio (z) = 0.24554 0.17346
#
# Static dielectric constant tensor:
#      x y z
#    x 1.649750 0.000000 0.000000 
#    y 0.000000 1.650650 0.000000 
#    z 0.000000 0.000000 1.656520 
# 
# From -- ./inp_files/2482.got.cif
#   From: 2010.05.17/outbox.cif.g08.bks.cpg/sg25_2_cif.got.tgz:2482.got - 2010.06.04 01:04:00.
