data_PCOD9337170
_publ_section_title
;
Structure prediction by ZEFSAII (Michael W. Deem and Ramdas Pophale) SiO2 
 PCOD9337170
Probable space group: P M M 2
;
_chemical_formula_sum "Si O2"
_cell_formula_units_Z 32
_cell_length_a 7.724948
_cell_length_b 25.549542
_cell_length_c 7.350181
_cell_angle_alpha 90.000000
_cell_angle_beta 90.000000
_cell_angle_gamma 90.000000
_cell_volume 1450.697017
_symmetry_space_group_name_H-M "P M M 2"
_symmetry_group_IT_number 25
_symmetry_cell_setting 'orthorhombic'
loop_
_space_group_symop_operation_xyz
x,y,z
-x,-y,z
-x,y,z
x,-y,z
loop_
_atom_site_type_symbol
_atom_site_label
_atom_site_fract_x
_atom_site_fract_y
_atom_site_fract_z
Si Si1 0.298927 0.441727 0.847100
Si Si2 0.794775 0.626833 0.525143
Si Si3 0.703102 0.259036 0.549422
Si Si4 0.211896 0.869393 0.230901
Si Si5 0.795396 0.648326 0.120615
Si Si6 0.791049 0.148518 0.643999
Si Si7 0.802702 0.759462 0.136660
Si Si8 0.211577 0.058702 0.919721
O O1 0.500000 0.444437 0.894947
O O2 0.223550 0.500000 0.864132
O O3 0.283060 0.419330 0.643927
O O4 0.221490 0.397721 0.977551
O O5 0.759490 0.683702 0.614640
O O6 0.726778 0.631118 0.318615
O O7 0.000000 0.618503 0.521059
O O8 0.500000 0.260670 0.509090
O O9 0.738324 0.208891 0.675320
O O10 0.801513 0.249387 0.357482
O O11 0.268195 0.865849 0.439276
O O12 0.274629 0.817355 0.123998
O O13 0.000000 0.866744 0.232593
O O14 0.260479 0.920666 0.119732
O O15 0.721416 0.705379 0.065685
O O16 0.000000 0.658127 0.147196
O O17 0.730536 0.103609 0.780213
O O18 0.000000 0.148027 0.647496
O O19 0.000000 0.763525 0.067698
O O20 0.000000 0.057912 0.912205
O O21 0.271580 0.000000 0.881250
#
# Coordination Sequence:
#
# PCOD9337170 Si02
#       8
#     4   4   4   4   4   4   4   4
#     4  11  25  41  56  80 115 152 189 228 271 321
#     4  10  21  39  62  85 111 145 185 229 275 325
#     4  10  18  30  52  81 109 135 168 213 267 326
#     4   8  14  26  44  66  95 127 159 202 254 304
#     4   9  19  36  59  84 108 139 182 230 277 326
#     4   9  17  30  48  70  99 134 167 205 257 313
#     4   8  15  30  51  77 106 136 172 212 262 323
#     4   9  17  27  42  69  99 128 170 218 259 301
#
# _framework density 22.058361999999999
#
# number of rings (size 3 to 8) (size 9 to 14) (size 15 to 20)
#    0.000    2.750    0.000    3.375    0.000    5.500 
#    0.000    7.500    0.000    3.375    0.000    0.000 
#    0.000    0.000    0.000    0.000    0.000    0.000 
#
# Total GULP energy -178556.761000 kJ/mol
# GULP energy per Si atom -5579.898781 kJ/mol
# Density = 2.200816 g / cm^3
# Si number density = 22.058362 Si / 1000 Ang^3
#
#
#
# Elastic Constant Matrix: (Units=GPa)
#
#
# Indices 1 2 3 4 5 6 
#
# 1 43.6723 -8.1383 -6.8703 0.0000 0.0000 0.0000
# 2 -8.1383 130.3553 24.6473 0.0000 0.0000 0.0000
# 3 -6.8703 24.6473 50.9837 0.0000 0.0000 0.0000
# 4 0.0000 0.0000 0.0000 30.4737 0.0000 0.0000
# 5 0.0000 0.0000 0.0000 0.0000 36.7948 0.0000
# 6 0.0000 0.0000 0.0000 0.0000 0.0000 243.2546
#
#
#
# Elastic Compliance Matrix: (Units=1/GPa)
#
#
# Indices 1 2 3 4 5 6 
#
# 1 0.023501 0.000956 0.002705 0.000000 0.000000 0.000000
# 2 0.000956 0.008482 -0.003972 0.000000 0.000000 0.000000
# 3 0.002705 -0.003972 0.021899 0.000000 0.000000 0.000000
# 4 0.000000 0.000000 0.000000 0.032815 0.000000 0.000000
# 5 0.000000 0.000000 0.000000 0.000000 0.027178 0.000000
# 6 0.000000 0.000000 0.000000 0.000000 0.000000 0.004111
#
#
# Mechanical properties :
#
#
# Convention : Reuss Voigt Hill
#
# Bulk Modulus (GPa) = 18.77579 27.14319 22.95949
# Shear Modulus (GPa) = 36.66729 76.46280 56.56505
#
# Velocity S-wave (km/s) = 4.08154 5.89399 5.06942
# Velocity P-wave (km/s) = 5.54457 7.65837 6.68554
#
# Compressibility (1/GPa) = 0.05326007
#
# Stress axis : x y z
#
# Youngs Moduli (GPa) = 42.55056 117.89716 45.66487
#
# Poissons Ratio (x) = -0.11269 -0.12352
# Poissons Ratio (y) = -0.04067 0.18137
# Poissons Ratio (z) = -0.11509 0.46825
#
# Static dielectric constant tensor:
#      x y z
#    x 1.810370 0.000000 0.000000 
#    y 0.000000 1.832290 0.000000 
#    z 0.000000 0.000000 1.821650 
# 
# From -- ./inp_files/2413.got.cif
#   From: 2010.05.17/outbox.cif.g08.bks.cpg/sg25_2_cif.got.tgz:2413.got - 2010.06.04 01:04:00.
