data_PCOD9337600
_publ_section_title
;
Structure prediction by ZEFSAII (Michael W. Deem and Ramdas Pophale) SiO2 
 PCOD9337600
Probable space group: P M M 2
;
_chemical_formula_sum "Si O2"
_cell_formula_units_Z 32
_cell_length_a 15.111067
_cell_length_b 8.739900
_cell_length_c 12.643582
_cell_angle_alpha 90.000000
_cell_angle_beta 90.000000
_cell_angle_gamma 90.000000
_cell_volume 1669.827943
_symmetry_space_group_name_H-M "P M M 2"
_symmetry_group_IT_number 25
_symmetry_cell_setting 'orthorhombic'
loop_
_space_group_symop_operation_xyz
x,y,z
-x,-y,z
-x,y,z
x,-y,z
loop_
_atom_site_type_symbol
_atom_site_label
_atom_site_fract_x
_atom_site_fract_y
_atom_site_fract_z
Si Si1 0.636731 0.179128 0.986370
Si Si2 0.598796 0.317668 0.756372
Si Si3 0.772885 0.181717 0.668979
Si Si4 0.818125 0.321308 0.041038
Si Si5 0.596066 0.315559 0.212862
Si Si6 0.903591 0.680604 0.830235
Si Si7 0.102450 0.815374 0.475782
Si Si8 0.791384 0.317319 0.279991
O O1 0.608290 0.250829 0.874995
O O2 0.616814 0.000000 0.986211
O O3 0.740577 0.212345 0.000807
O O4 0.598333 0.256753 0.092064
O O5 0.500000 0.280456 0.717553
O O6 0.607934 0.500000 0.763901
O O7 0.676471 0.254558 0.682309
O O8 0.827342 0.226850 0.773324
O O9 0.834583 0.236924 0.572343
O O10 0.763177 0.000000 0.661417
O O11 0.786953 0.500000 0.034657
O O12 0.833817 0.291088 0.163968
O O13 0.895677 0.305727 0.956721
O O14 0.500000 0.269944 0.259227
O O15 0.599535 0.500000 0.210683
O O16 0.687909 0.265830 0.269126
O O17 0.892728 0.500000 0.805817
O O18 0.000000 0.731748 0.793245
O O19 0.151367 0.763032 0.369349
O O20 0.000000 0.761501 0.482749
O O21 0.099963 0.000000 0.479426
O O22 0.791184 0.500000 0.299566
#
# Coordination Sequence:
#
# PCOD9337600 Si02
#       8
#     4   4   4   4   4   4   4   4
#     4  11  20  30  50  82 118 155 195 235 275 329
#     4  11  23  38  57  82 115 154 192 233 285 345
#     4  11  23  40  61  84 113 148 191 245 294 342
#     4   9  18  34  54  79 118 157 188 232 288 338
#     4   9  18  34  55  80 115 157 194 231 281 337
#     4  10  20  34  56  85 116 152 190 230 285 351
#     4  10  23  43  63  83 111 149 190 236 293 349
#     4   9  19  35  58  87 114 145 192 242 283 331
#
# _framework density 19.163651000000002
#
# number of rings (size 3 to 8) (size 9 to 14) (size 15 to 20)
#    0.000    2.000    1.250    3.375    0.000    7.250 
#    0.000    1.875    0.000    2.250    0.000    0.000 
#    0.000    0.000    0.000    0.000    0.000    0.000 
#
# Total GULP energy -178490.237719 kJ/mol
# GULP energy per Si atom -5577.819929 kJ/mol
# Density = 1.912003 g / cm^3
# Si number density = 19.163651 Si / 1000 Ang^3
#
#
#
# Elastic Constant Matrix: (Units=GPa)
#
#
# Indices 1 2 3 4 5 6 
#
# 1 144.2021 36.3443 62.3055 0.0000 0.0000 0.0000
# 2 36.3443 26.4899 21.4496 0.0000 0.0000 0.0000
# 3 62.3055 21.4496 95.1219 0.0000 0.0000 0.0000
# 4 0.0000 0.0000 0.0000 29.2348 0.0000 0.0000
# 5 0.0000 0.0000 0.0000 0.0000 10.4476 0.0000
# 6 0.0000 0.0000 0.0000 0.0000 0.0000 74.3895
#
#
#
# Elastic Compliance Matrix: (Units=1/GPa)
#
#
# Indices 1 2 3 4 5 6 
#
# 1 0.012432 -0.012801 -0.005257 0.000000 0.000000 0.000000
# 2 -0.012801 0.059363 -0.005002 0.000000 0.000000 0.000000
# 3 -0.005257 -0.005002 0.015084 0.000000 0.000000 0.000000
# 4 0.000000 0.000000 0.000000 0.034206 0.000000 0.000000
# 5 0.000000 0.000000 0.000000 0.000000 0.095716 0.000000
# 6 0.000000 0.000000 0.000000 0.000000 0.000000 0.013443
#
#
# Mechanical properties :
#
#
# Convention : Reuss Voigt Hill
#
# Bulk Modulus (GPa) = 24.53331 56.22367 40.37849
# Shear Modulus (GPa) = 17.24448 32.52869 24.88659
#
# Velocity S-wave (km/s) = 3.00301 4.12444 3.60757
# Velocity P-wave (km/s) = 4.98537 7.21691 6.20232
#
# Compressibility (1/GPa) = 0.04076091
#
# Stress axis : x y z
#
# Youngs Moduli (GPa) = 80.43630 16.84563 66.29614
#
# Poissons Ratio (x) = 0.21563 0.34850
# Poissons Ratio (y) = 1.02963 0.33159
# Poissons Ratio (z) = 0.42283 0.08425
#
# Static dielectric constant tensor:
#      x y z
#    x 1.716750 0.000000 0.000000 
#    y 0.000000 1.653570 0.000000 
#    z 0.000000 0.000000 1.656420 
# 
# From -- ./inp_files/4905.got.cif
#   From: 2010.05.17/outbox.cif.g08.bks.cpg/sg25_3_cif.got.tgz:4905.got - 2010.06.04 01:04:00.
