data_PCOD9337270
_publ_section_title
;
Structure prediction by ZEFSAII (Michael W. Deem and Ramdas Pophale) SiO2 
 PCOD9337270
Probable space group: P M M 2
;
_chemical_formula_sum "Si O2"
_cell_formula_units_Z 32
_cell_length_a 14.410693
_cell_length_b 13.950353
_cell_length_c 9.737651
_cell_angle_alpha 90.000000
_cell_angle_beta 90.000000
_cell_angle_gamma 90.000000
_cell_volume 1957.601408
_symmetry_space_group_name_H-M "P M M 2"
_symmetry_group_IT_number 25
_symmetry_cell_setting 'orthorhombic'
loop_
_space_group_symop_operation_xyz
x,y,z
-x,-y,z
-x,y,z
x,-y,z
loop_
_atom_site_type_symbol
_atom_site_label
_atom_site_fract_x
_atom_site_fract_y
_atom_site_fract_z
Si Si1 0.230309 0.792863 0.888690
Si Si2 0.111562 0.800246 0.392301
Si Si3 0.394945 0.115991 0.373071
Si Si4 0.110509 0.891058 0.109786
Si Si5 0.611063 0.886054 0.056256
Si Si6 0.108557 0.388395 0.847644
Si Si7 0.110279 0.603802 0.517399
Si Si8 0.756801 0.111913 0.594631
O O1 0.183643 0.687644 0.902255
O O2 0.235938 0.825092 0.730850
O O3 0.160034 0.861356 0.971163
O O4 0.328711 0.817279 0.959499
O O5 0.139301 0.825917 0.237994
O O6 0.146923 0.696083 0.439073
O O7 0.152242 0.874911 0.501167
O O8 0.000000 0.802452 0.398340
O O9 0.500000 0.150015 0.397026
O O10 0.368218 0.138289 0.215895
O O11 0.325251 0.145724 0.492508
O O12 0.396271 0.000000 0.377144
O O13 0.000000 0.883899 0.093466
O O14 0.134030 0.000000 0.146759
O O15 0.500000 0.876652 0.036624
O O16 0.633292 0.000000 0.033720
O O17 0.122916 0.500000 0.888232
O O18 0.116949 0.384582 0.681662
O O19 0.000000 0.363489 0.881316
O O20 0.150261 0.500000 0.479247
O O21 0.000000 0.600810 0.487976
O O22 0.742899 0.000000 0.630464
#
# Coordination Sequence:
#
# PCOD9337270 Si02
#       8
#     4   4   4   4   4   4   4   4
#     4  12  21  32  50  75 104 133 172 211 260 311
#     4  10  19  32  47  66  94 131 172 207 248 300
#     4   8  16  33  53  70  93 129 170 209 249 294
#     4  10  21  34  46  64  99 144 176 203 247 306
#     4   9  18  33  52  73 102 142 179 209 251 311
#     4   9  18  34  54  74 100 135 173 218 271 318
#     4   8  14  28  50  71  90 118 162 215 263 297
#     4  11  21  29  44  72 100 127 164 210 253 297
#
# _framework density 16.346533999999998
#
# number of rings (size 3 to 8) (size 9 to 14) (size 15 to 20)
#    0.000    2.375    1.250    4.125    0.000    2.750 
#    0.000    1.875    0.000    2.625    0.000    0.000 
#    0.000    2.500    0.000    0.000    0.000    0.000 
#
# Total GULP energy -178268.179839 kJ/mol
# GULP energy per Si atom -5570.880620 kJ/mol
# Density = 1.630933 g / cm^3
# Si number density = 16.346534 Si / 1000 Ang^3
#
#
#
# Elastic Constant Matrix: (Units=GPa)
#
#
# Indices 1 2 3 4 5 6 
#
# 1 71.7366 40.5326 37.5899 0.0000 0.0000 0.0000
# 2 40.5326 68.6156 22.1549 0.0000 0.0000 0.0000
# 3 37.5899 22.1549 76.8571 0.0000 0.0000 0.0000
# 4 0.0000 0.0000 0.0000 19.2806 0.0000 0.0000
# 5 0.0000 0.0000 0.0000 0.0000 24.8568 0.0000
# 6 0.0000 0.0000 0.0000 0.0000 0.0000 17.6546
#
#
#
# Elastic Compliance Matrix: (Units=1/GPa)
#
#
# Indices 1 2 3 4 5 6 
#
# 1 0.025523 -0.012180 -0.008972 0.000000 0.000000 0.000000
# 2 -0.012180 0.021882 -0.000351 0.000000 0.000000 0.000000
# 3 -0.008972 -0.000351 0.017500 0.000000 0.000000 0.000000
# 4 0.000000 0.000000 0.000000 0.051866 0.000000 0.000000
# 5 0.000000 0.000000 0.000000 0.000000 0.040230 0.000000
# 6 0.000000 0.000000 0.000000 0.000000 0.000000 0.056642
#
#
# Mechanical properties :
#
#
# Convention : Reuss Voigt Hill
#
# Bulk Modulus (GPa) = 45.66177 46.41824 46.04000
# Shear Modulus (GPa) = 18.94297 20.15386 19.54842
#
# Velocity S-wave (km/s) = 3.40786 3.51510 3.46189
# Velocity P-wave (km/s) = 6.59386 6.70318 6.64874
#
# Compressibility (1/GPa) = 0.02190016
#
# Stress axis : x y z
#
# Youngs Moduli (GPa) = 39.17992 45.69926 57.14165
#
# Poissons Ratio (x) = 0.55662 0.51268
# Poissons Ratio (y) = 0.47722 0.02003
# Poissons Ratio (z) = 0.35153 0.01602
#
# Static dielectric constant tensor:
#      x y z
#    x 1.573580 0.000000 0.000000 
#    y 0.000000 1.569970 0.000000 
#    z 0.000000 0.000000 1.541120 
# 
# From -- ./inp_files/3291.got.cif
#   From: 2010.05.17/outbox.cif.g08.bks.cpg/sg25_2_cif.got.tgz:3291.got - 2010.06.04 01:04:00.
