data_PCOD9337382
_publ_section_title
;
Structure prediction by ZEFSAII (Michael W. Deem and Ramdas Pophale) SiO2 
 PCOD9337382
Probable space group: P M M 2
;
_chemical_formula_sum "Si O2"
_cell_formula_units_Z 32
_cell_length_a 7.483253
_cell_length_b 9.550422
_cell_length_c 21.841096
_cell_angle_alpha 90.000000
_cell_angle_beta 90.000000
_cell_angle_gamma 90.000000
_cell_volume 1560.944343
_symmetry_space_group_name_H-M "P M M 2"
_symmetry_group_IT_number 25
_symmetry_cell_setting 'orthorhombic'
loop_
_space_group_symop_operation_xyz
x,y,z
-x,-y,z
-x,y,z
x,-y,z
loop_
_atom_site_type_symbol
_atom_site_label
_atom_site_fract_x
_atom_site_fract_y
_atom_site_fract_z
Si Si1 0.709650 0.840640 0.114360
Si Si2 0.219433 0.837817 0.884312
Si Si3 0.781965 0.163407 0.382186
Si Si4 0.781400 0.661040 0.499554
Si Si5 0.210091 0.343523 0.997770
Si Si6 0.792221 0.829673 0.750662
Si Si7 0.214510 0.161849 0.248507
Si Si8 0.218827 0.162306 0.617050
O O1 0.500000 0.852841 0.104693
O O2 0.777163 0.743510 0.060264
O O3 0.735880 0.778339 0.182512
O O4 0.786224 0.000000 0.112474
O O5 0.281536 0.788191 0.816933
O O6 0.000000 0.837443 0.882895
O O7 0.271342 0.000000 0.893211
O O8 0.283356 0.744069 0.940444
O O9 0.722094 0.256011 0.439026
O O10 0.725483 0.217236 0.314709
O O11 0.000000 0.164357 0.382911
O O12 0.729739 0.000000 0.388560
O O13 0.725206 0.500000 0.499082
O O14 0.724671 0.741983 0.560775
O O15 0.000000 0.662695 0.499301
O O16 0.285015 0.500000 0.003650
O O17 0.000000 0.356759 0.984873
O O18 0.717654 0.788897 0.684347
O O19 0.000000 0.786132 0.750477
O O20 0.788804 0.000000 0.750707
O O21 0.000000 0.160969 0.250108
O O22 0.277004 0.000000 0.246761
O O23 0.000000 0.163212 0.618675
O O24 0.270738 0.000000 0.607608
#
# Coordination Sequence:
#
# PCOD9337382 Si02
#       8
#     4   4   4   4   4   4   4   4
#     4  10  20  33  50  71  92 115 144 179 222 270
#     4   8  13  23  40  59  78 103 138 180 220 254
#     4   8  13  22  36  51  67  93 130 167 202 242
#     4   9  15  20  26  41  67  96 127 165 205 241
#     4  10  20  32  46  66  91 119 151 184 219 262
#     4   7  10  17  30  48  68  93 130 172 208 243
#     4   8  14  26  45  66  85 107 139 178 215 253
#     4   8  12  18  28  41  61  94 133 166 197 241
#
# _framework density 20.500411
#
# number of rings (size 3 to 8) (size 9 to 14) (size 15 to 20)
#    0.000    3.500    0.000    3.375    0.000    3.000 
#    0.000    1.250    0.000    6.000    0.000    0.000 
#    0.000    0.000    0.000    1.125    0.000   23.750 
#
# Total GULP energy -178268.538280 kJ/mol
# GULP energy per Si atom -5570.891821 kJ/mol
# Density = 2.045375 g / cm^3
# Si number density = 20.500411 Si / 1000 Ang^3
#
#
#
# Elastic Constant Matrix: (Units=GPa)
#
#
# Indices 1 2 3 4 5 6 
#
# 1 54.5799 3.7805 2.5847 0.0000 0.0000 0.0000
# 2 3.7805 98.2386 107.6785 0.0000 0.0000 0.0000
# 3 2.5847 107.6785 246.3026 0.0000 0.0000 0.0000
# 4 0.0000 0.0000 0.0000 -6.0489 0.0000 0.0000
# 5 0.0000 0.0000 0.0000 0.0000 -38.6333 0.0000
# 6 0.0000 0.0000 0.0000 0.0000 0.0000 -6.0828
#
#
#
# Elastic Compliance Matrix: (Units=1/GPa)
#
#
# Indices 1 2 3 4 5 6 
#
# 1 0.018377 -0.000952 0.000223 0.000000 0.000000 0.000000
# 2 -0.000952 0.019594 -0.008556 0.000000 0.000000 0.000000
# 3 0.000223 -0.008556 0.007798 0.000000 0.000000 0.000000
# 4 0.000000 0.000000 0.000000 -0.165319 0.000000 0.000000
# 5 0.000000 0.000000 0.000000 0.000000 -0.025884 0.000000
# 6 0.000000 0.000000 0.000000 0.000000 0.000000 -0.164399
#
#
# Mechanical properties :
#
#
# Convention : Reuss Voigt Hill
#
# Bulk Modulus (GPa) = 36.76472 69.68983 53.22727
# Shear Modulus (GPa) = -17.71819 8.85216 -4.43301
#
# Velocity S-wave (km/s) = -2.94306 2.08024 -1.47211
# Velocity P-wave (km/s) = 2.53452 6.31174 4.80946
#
# Compressibility (1/GPa) = 0.02719999
#
# Stress axis : x y z
#
# Youngs Moduli (GPa) = 54.41542 51.03497 128.23249
#
# Poissons Ratio (x) = 0.04859 -0.02864
# Poissons Ratio (y) = 0.05180 1.09719
# Poissons Ratio (z) = -0.01215 0.43667
#
# Static dielectric constant tensor:
#      x y z
#    x 1.770720 0.000000 0.000000 
#    y 0.000000 1.690040 0.000000 
#    z 0.000000 0.000000 1.756600 
# 
# From -- ./inp_files/6537.got.cif
#   From: 2010.05.17/outbox.cif.g08.bks.cpg/sg25_4_cif.got.tgz:6537.got - 2010.06.04 01:04:00.
