data_PCOD9337305
_publ_section_title
;
Structure prediction by ZEFSAII (Michael W. Deem and Ramdas Pophale) SiO2 
 PCOD9337305
Probable space group: P M M 2
;
_chemical_formula_sum "Si O2"
_cell_formula_units_Z 32
_cell_length_a 13.655478
_cell_length_b 18.283971
_cell_length_c 6.752659
_cell_angle_alpha 90.000000
_cell_angle_beta 90.000000
_cell_angle_gamma 90.000000
_cell_volume 1685.979345
_symmetry_space_group_name_H-M "P M M 2"
_symmetry_group_IT_number 25
_symmetry_cell_setting 'orthorhombic'
loop_
_space_group_symop_operation_xyz
x,y,z
-x,-y,z
-x,y,z
x,-y,z
loop_
_atom_site_type_symbol
_atom_site_label
_atom_site_fract_x
_atom_site_fract_y
_atom_site_fract_z
Si Si1 0.892202 0.415837 0.487030
Si Si2 0.213039 0.917230 0.811389
Si Si3 0.724841 0.581957 0.809793
Si Si4 0.113338 0.199153 0.094532
Si Si5 0.386850 0.860931 0.054116
Si Si6 0.385298 0.270680 0.749369
Si Si7 0.729295 0.174623 0.435339
Si Si8 0.889599 0.362335 0.066576
O O1 0.890661 0.500000 0.413138
O O2 0.801519 0.407503 0.630441
O O3 0.885796 0.362427 0.303138
O O4 0.000000 0.405468 0.580903
O O5 0.232999 0.884901 0.593573
O O6 0.176407 0.000000 0.804309
O O7 0.144765 0.862713 0.938248
O O8 0.315424 0.913580 0.932096
O O9 0.683264 0.500000 0.802408
O O10 0.648520 0.647742 0.803043
O O11 0.799671 0.590096 0.992320
O O12 0.182968 0.195904 0.286537
O O13 0.124228 0.279233 0.995120
O O14 0.000000 0.191241 0.150452
O O15 0.500000 0.881162 0.040271
O O16 0.352085 0.854474 0.280532
O O17 0.373239 0.782876 0.939662
O O18 0.500000 0.268715 0.694029
O O19 0.318997 0.237744 0.571952
O O20 0.000000 0.388330 0.017540
#
# Coordination Sequence:
#
# PCOD9337305 Si02
#       8
#     4   4   4   4   4   4   4   4
#     4   9  18  31  48  75 109 140 174 223 281 332
#     4  10  22  38  55  81 118 150 176 215 270 331
#     4  11  21  32  50  76 107 144 183 222 270 330
#     4  10  22  38  58  84 111 143 186 230 269 318
#     4   9  19  37  61  86 109 138 182 234 282 326
#     4  10  21  37  56  79 109 145 185 233 285 331
#     4  10  19  36  62  84 107 142 188 230 273 324
#     4  10  19  33  54  77 102 135 177 226 276 322
#
# _framework density 18.980066000000001
#
# number of rings (size 3 to 8) (size 9 to 14) (size 15 to 20)
#    0.000    2.125    0.000    4.125    0.000    5.000 
#    0.000    3.125    0.000    0.000    0.000    3.500 
#    0.000    0.000    0.000    0.000    0.000    0.000 
#
# Total GULP energy -178466.941523 kJ/mol
# GULP energy per Si atom -5577.091923 kJ/mol
# Density = 1.893687 g / cm^3
# Si number density = 18.980066 Si / 1000 Ang^3
#
#
#
# Elastic Constant Matrix: (Units=GPa)
#
#
# Indices 1 2 3 4 5 6 
#
# 1 65.6649 10.7523 7.6585 0.0000 0.0000 0.0000
# 2 10.7523 77.1480 10.0834 0.0000 0.0000 0.0000
# 3 7.6585 10.0834 75.6644 0.0000 0.0000 0.0000
# 4 0.0000 0.0000 0.0000 10.0023 0.0000 0.0000
# 5 0.0000 0.0000 0.0000 0.0000 18.8926 0.0000
# 6 0.0000 0.0000 0.0000 0.0000 0.0000 20.7670
#
#
#
# Elastic Compliance Matrix: (Units=1/GPa)
#
#
# Indices 1 2 3 4 5 6 
#
# 1 0.015713 -0.002017 -0.001322 0.000000 0.000000 0.000000
# 2 -0.002017 0.013451 -0.001588 0.000000 0.000000 0.000000
# 3 -0.001322 -0.001588 0.013562 0.000000 0.000000 0.000000
# 4 0.000000 0.000000 0.000000 0.099977 0.000000 0.000000
# 5 0.000000 0.000000 0.000000 0.000000 0.052931 0.000000
# 6 0.000000 0.000000 0.000000 0.000000 0.000000 0.048153
#
#
# Mechanical properties :
#
#
# Convention : Reuss Voigt Hill
#
# Bulk Modulus (GPa) = 30.42158 30.60730 30.51444
# Shear Modulus (GPa) = 18.89653 22.59792 20.74723
#
# Velocity S-wave (km/s) = 3.15873 3.45427 3.30980
# Velocity P-wave (km/s) = 5.41908 5.66307 5.54242
#
# Compressibility (1/GPa) = 0.03287140
#
# Stress axis : x y z
#
# Youngs Moduli (GPa) = 63.64034 74.34469 73.73714
#
# Poissons Ratio (x) = 0.14997 0.09745
# Poissons Ratio (y) = 0.12838 0.11712
# Poissons Ratio (z) = 0.08411 0.11809
#
# Static dielectric constant tensor:
#      x y z
#    x 1.649860 0.000000 0.000000 
#    y 0.000000 1.689900 0.000000 
#    z 0.000000 0.000000 1.662190 
# 
# From -- ./inp_files/969.got.cif
#   From: 2010.05.17/outbox.cif.g08.bks.cpg/sg25_1_cif.got.tgz:969.got - 2010.06.04 01:04:00.
