data_PCOD9337710
_publ_section_title
;
Structure prediction by ZEFSAII (Michael W. Deem and Ramdas Pophale) SiO2 
 PCOD9337710
Probable space group: P M M 2
;
_chemical_formula_sum "Si O2"
_cell_formula_units_Z 32
_cell_length_a 14.591524
_cell_length_b 7.877448
_cell_length_c 13.365836
_cell_angle_alpha 90.000000
_cell_angle_beta 90.000000
_cell_angle_gamma 90.000000
_cell_volume 1536.322273
_symmetry_space_group_name_H-M "P M M 2"
_symmetry_group_IT_number 25
_symmetry_cell_setting 'orthorhombic'
loop_
_space_group_symop_operation_xyz
x,y,z
-x,-y,z
-x,y,z
x,-y,z
loop_
_atom_site_type_symbol
_atom_site_label
_atom_site_fract_x
_atom_site_fract_y
_atom_site_fract_z
Si Si1 0.221212 0.197874 0.048750
Si Si2 0.396971 0.702459 0.942816
Si Si3 0.397661 0.199141 0.506662
Si Si4 0.791059 0.791595 0.438022
Si Si5 0.106049 0.701980 0.857009
Si Si6 0.894503 0.791775 0.236852
Si Si7 0.388624 0.305801 0.726658
Si Si8 0.894227 0.204680 0.637805
O O1 0.321959 0.267849 0.026814
O O2 0.164624 0.269400 0.142297
O O3 0.232880 0.000000 0.068187
O O4 0.162636 0.221904 0.947879
O O5 0.500000 0.765940 0.963985
O O6 0.403285 0.500000 0.927808
O O7 0.362370 0.769877 0.834450
O O8 0.500000 0.274695 0.496229
O O9 0.314192 0.268563 0.441427
O O10 0.367840 0.213552 0.623204
O O11 0.405039 0.000000 0.483841
O O12 0.847118 0.739772 0.340478
O O13 0.839839 0.736048 0.540574
O O14 0.790401 0.000000 0.438865
O O15 0.106812 0.500000 0.869857
O O16 0.142982 0.741073 0.745982
O O17 0.000000 0.762497 0.860219
O O18 0.000000 0.736784 0.230693
O O19 0.895581 0.000000 0.235242
O O20 0.500000 0.309818 0.732165
O O21 0.355546 0.500000 0.717567
O O22 0.000000 0.263486 0.631842
O O23 0.894551 0.000000 0.636099
#
# Coordination Sequence:
#
# PCOD9337710 Si02
#       8
#     4   4   4   4   4   4   4   4
#     4  11  22  34  54  82 109 138 181 231 277 324
#     4   9  19  36  55  76 107 147 186 221 264 322
#     4   9  17  28  44  71 106 137 167 208 257 309
#     4   9  17  30  50  75 102 134 175 216 267 327
#     4  10  21  36  53  75 107 145 180 218 273 338
#     4   9  18  34  55  78 104 136 177 227 278 327
#     4   8  15  29  48  69  96 134 175 210 247 297
#     4   9  17  30  50  76 103 130 166 217 271 323
#
# _framework density 20.828963000000002
#
# number of rings (size 3 to 8) (size 9 to 14) (size 15 to 20)
#    0.000    2.750    0.000    2.250    1.750    3.500 
#    0.000    1.875    0.000    5.250    0.000    3.500 
#    0.000    0.000    0.000    0.000    0.000    0.000 
#
# Total GULP energy -178555.478378 kJ/mol
# GULP energy per Si atom -5579.858699 kJ/mol
# Density = 2.078156 g / cm^3
# Si number density = 20.828963 Si / 1000 Ang^3
#
#
#
# Elastic Constant Matrix: (Units=GPa)
#
#
# Indices 1 2 3 4 5 6 
#
# 1 134.5299 0.6920 71.8165 0.0000 0.0000 0.0000
# 2 0.6920 16.7480 -9.8327 0.0000 0.0000 0.0000
# 3 71.8165 -9.8327 100.6964 0.0000 0.0000 0.0000
# 4 0.0000 0.0000 0.0000 106.3590 0.0000 0.0000
# 5 0.0000 0.0000 0.0000 0.0000 37.8152 0.0000
# 6 0.0000 0.0000 0.0000 0.0000 0.0000 14.6720
#
#
#
# Elastic Compliance Matrix: (Units=1/GPa)
#
#
# Indices 1 2 3 4 5 6 
#
# 1 0.012571 -0.006135 -0.009564 0.000000 0.000000 0.000000
# 2 -0.006135 0.066334 0.010852 0.000000 0.000000 0.000000
# 3 -0.009564 0.010852 0.017812 0.000000 0.000000 0.000000
# 4 0.000000 0.000000 0.000000 0.009402 0.000000 0.000000
# 5 0.000000 0.000000 0.000000 0.000000 0.026444 0.000000
# 6 0.000000 0.000000 0.000000 0.000000 0.000000 0.068157
#
#
# Mechanical properties :
#
#
# Convention : Reuss Voigt Hill
#
# Bulk Modulus (GPa) = 11.49120 41.92510 26.70815
# Shear Modulus (GPa) = 20.88377 44.38914 32.63645
#
# Velocity S-wave (km/s) = 3.16987 4.62142 3.96268
# Velocity P-wave (km/s) = 4.35044 6.97486 5.81270
#
# Compressibility (1/GPa) = 0.08702315
#
# Stress axis : x y z
#
# Youngs Moduli (GPa) = 79.55049 15.07530 56.14234
#
# Poissons Ratio (x) = 0.09248 0.53697
# Poissons Ratio (y) = 0.48801 -0.60928
# Poissons Ratio (z) = 0.76085 -0.16360
#
# Static dielectric constant tensor:
#      x y z
#    x 1.785260 0.000000 0.000000 
#    y 0.000000 1.745890 0.000000 
#    z 0.000000 0.000000 1.732650 
# 
# From -- ./inp_files/4152.got.cif
#   From: 2010.05.17/outbox.cif.g08.bks.cpg/sg25_3_cif.got.tgz:4152.got - 2010.06.04 01:04:00.
