data_PCOD9337404
_publ_section_title
;
Structure prediction by ZEFSAII (Michael W. Deem and Ramdas Pophale) SiO2 
 PCOD9337404
Probable space group: P M M 2
;
_chemical_formula_sum "Si O2"
_cell_formula_units_Z 32
_cell_length_a 9.548844
_cell_length_b 7.453608
_cell_length_c 21.849130
_cell_angle_alpha 90.000000
_cell_angle_beta 90.000000
_cell_angle_gamma 90.000000
_cell_volume 1555.075559
_symmetry_space_group_name_H-M "P M M 2"
_symmetry_group_IT_number 25
_symmetry_cell_setting 'orthorhombic'
loop_
_space_group_symop_operation_xyz
x,y,z
-x,-y,z
-x,y,z
x,-y,z
loop_
_atom_site_type_symbol
_atom_site_label
_atom_site_fract_x
_atom_site_fract_y
_atom_site_fract_z
Si Si1 0.662136 0.718575 0.952590
Si Si2 0.662042 0.718530 0.089006
Si Si3 0.159953 0.211069 0.604356
Si Si4 0.342594 0.710486 0.721467
Si Si5 0.169942 0.713179 0.338499
Si Si6 0.160944 0.719884 0.835614
Si Si7 0.162746 0.280421 0.205343
Si Si8 0.838574 0.284195 0.469681
O O1 0.500000 0.772655 0.943146
O O2 0.662387 0.500000 0.952347
O O3 0.761236 0.776856 0.897659
O O4 0.707508 0.775029 0.020856
O O5 0.500000 0.769551 0.096283
O O6 0.667172 0.500000 0.089395
O O7 0.751936 0.780892 0.146467
O O8 0.259454 0.277567 0.657922
O O9 0.221045 0.240728 0.536184
O O10 0.000000 0.286599 0.607350
O O11 0.148445 0.000000 0.613125
O O12 0.500000 0.785828 0.717996
O O13 0.356829 0.500000 0.735123
O O14 0.248484 0.783427 0.776805
O O15 0.198878 0.500000 0.337827
O O16 0.216467 0.782264 0.272161
O O17 0.221528 0.782054 0.404599
O O18 0.000000 0.732502 0.339353
O O19 0.159782 0.500000 0.835345
O O20 0.000000 0.777386 0.832952
O O21 0.167110 0.500000 0.206256
O O22 0.000000 0.230365 0.199790
O O23 0.842037 0.500000 0.465724
O O24 0.000000 0.219393 0.472546
#
# Coordination Sequence:
#
# PCOD9337404 Si02
#       8
#     4   4   4   4   4   4   4   4
#     4   8  13  21  31  44  67 100 135 167 200 245
#     4   8  13  19  26  38  61  96 132 161 194 241
#     4  10  20  32  47  69  94 117 143 179 223 268
#     4  10  20  33  49  67  87 115 150 184 219 263
#     4   7  10  17  30  49  70  93 127 169 207 243
#     4   9  16  25  39  59  80 102 133 176 219 254
#     4   8  12  17  26  41  61  86 121 165 204 238
#     4   8  13  23  41  62  83 110 143 177 214 257
#
# _framework density 20.577776
#
# number of rings (size 3 to 8) (size 9 to 14) (size 15 to 20)
#    0.000    3.500    0.000    3.375    0.000    3.500 
#    0.000    2.500    0.000    0.750    0.000    3.500 
#    0.000    0.000    0.000    1.125    0.000   20.250 
#
# Total GULP energy -178268.292493 kJ/mol
# GULP energy per Si atom -5570.884140 kJ/mol
# Density = 2.053094 g / cm^3
# Si number density = 20.577776 Si / 1000 Ang^3
#
#
#
# Elastic Constant Matrix: (Units=GPa)
#
#
# Indices 1 2 3 4 5 6 
#
# 1 94.2316 4.7219 109.7083 0.0000 0.0000 0.0000
# 2 4.7219 59.2499 -0.3936 0.0000 0.0000 0.0000
# 3 109.7083 -0.3936 249.1504 0.0000 0.0000 0.0000
# 4 0.0000 0.0000 0.0000 -40.1796 0.0000 0.0000
# 5 0.0000 0.0000 0.0000 0.0000 -36.3681 0.0000
# 6 0.0000 0.0000 0.0000 0.0000 0.0000 -6.9438
#
#
#
# Elastic Compliance Matrix: (Units=1/GPa)
#
#
# Indices 1 2 3 4 5 6 
#
# 1 0.021969 -0.001815 -0.009676 0.000000 0.000000 0.000000
# 2 -0.001815 0.017028 0.000826 0.000000 0.000000 0.000000
# 3 -0.009676 0.000826 0.008276 0.000000 0.000000 0.000000
# 4 0.000000 0.000000 0.000000 -0.024888 0.000000 0.000000
# 5 0.000000 0.000000 0.000000 0.000000 -0.027497 0.000000
# 6 0.000000 0.000000 0.000000 0.000000 0.000000 -0.144013
#
#
# Mechanical properties :
#
#
# Convention : Reuss Voigt Hill
#
# Bulk Modulus (GPa) = 38.54803 70.07833 54.31318
# Shear Modulus (GPa) = -41.96476 2.54137 -19.71169
#
# Velocity S-wave (km/s) = -4.52079 1.11252 -3.09837
# Velocity P-wave (km/s) = 2.91144 5.98160 3.69480
#
# Compressibility (1/GPa) = 0.02594167
#
# Stress axis : x y z
#
# Youngs Moduli (GPa) = 45.51928 58.72751 120.83529
#
# Poissons Ratio (x) = 0.10659 1.16924
# Poissons Ratio (y) = 0.08262 -0.09983
# Poissons Ratio (z) = 0.44046 -0.04852
#
# Static dielectric constant tensor:
#      x y z
#    x 1.698560 0.000000 0.000000 
#    y 0.000000 1.776420 0.000000 
#    z 0.000000 0.000000 1.762830 
# 
# From -- ./inp_files/6572.got.cif
#   From: 2010.05.17/outbox.cif.g08.bks.cpg/sg25_4_cif.got.tgz:6572.got - 2010.06.04 01:04:00.
