data_PCOD9337698
_publ_section_title
;
Structure prediction by ZEFSAII (Michael W. Deem and Ramdas Pophale) SiO2 
 PCOD9337698
Probable space group: P M M 2
;
_chemical_formula_sum "Si O2"
_cell_formula_units_Z 24
_cell_length_a 9.019956
_cell_length_b 9.581168
_cell_length_c 15.626173
_cell_angle_alpha 90.000000
_cell_angle_beta 90.000000
_cell_angle_gamma 90.000000
_cell_volume 1350.440651
_symmetry_space_group_name_H-M "P M M 2"
_symmetry_group_IT_number 25
_symmetry_cell_setting 'orthorhombic'
loop_
_space_group_symop_operation_xyz
x,y,z
-x,-y,z
-x,y,z
x,-y,z
loop_
_atom_site_type_symbol
_atom_site_label
_atom_site_fract_x
_atom_site_fract_y
_atom_site_fract_z
Si Si1 0.821735 0.338390 0.378490
Si Si2 0.322828 0.663623 0.695066
Si Si3 0.321235 0.161917 0.528379
Si Si4 0.322655 0.836209 0.029668
Si Si5 0.176967 0.664212 0.876712
Si Si6 0.822192 0.336183 0.180691
O O1 0.779839 0.500000 0.395069
O O2 0.746702 0.238119 0.446489
O O3 0.783551 0.306216 0.279681
O O4 0.000000 0.329285 0.385457
O O5 0.500000 0.680415 0.708004
O O6 0.295304 0.500000 0.675822
O O7 0.276498 0.757422 0.614901
O O8 0.239636 0.698799 0.782788
O O9 0.500000 0.169598 0.523329
O O10 0.277968 0.000000 0.531736
O O11 0.500000 0.823141 0.026259
O O12 0.260918 0.761373 0.114315
O O13 0.284303 0.000000 0.029523
O O14 0.251634 0.758489 0.948611
O O15 0.210979 0.500000 0.892688
O O16 0.000000 0.680392 0.878826
O O17 0.789369 0.500000 0.164296
O O18 0.000000 0.319410 0.171254
#
# Coordination Sequence:
#
# PCOD9337698 Si02
#       6
#     4   4   4   4   4   4
#     4   9  19  36  57  80 106 138 178 223 267 312
#     4   9  18  34  55  77 104 141 182 221 262 310
#     4  10  21  35  52  78 112 146 178 216 263 314
#     4  11  24  38  53  78 111 144 177 215 261 314
#     4  10  21  37  58  83 108 136 174 220 267 315
#     4   9  19  37  59  81 105 136 177 223 268 314
#
# _framework density 17.771977
#
# number of rings (size 3 to 8) (size 9 to 14) (size 15 to 20)
#    0.000    2.333    0.000    3.000    0.000    8.667 
#    0.000    8.333    0.000    0.000    0.000    0.000 
#    0.000    0.000    0.000    0.000    0.000    0.000 
#
# Total GULP energy -134004.664575 kJ/mol
# GULP energy per Si atom -5583.527691 kJ/mol
# Density = 1.773153 g / cm^3
# Si number density = 17.771977 Si / 1000 Ang^3
#
#
#
# Elastic Constant Matrix: (Units=GPa)
#
#
# Indices 1 2 3 4 5 6 
#
# 1 40.7936 66.4238 67.7920 0.0000 0.0000 0.0000
# 2 66.4238 140.9196 136.2935 0.0000 0.0000 0.0000
# 3 67.7920 136.2935 174.8985 0.0000 0.0000 0.0000
# 4 0.0000 0.0000 0.0000 -17.3080 0.0000 0.0000
# 5 0.0000 0.0000 0.0000 0.0000 39.7331 0.0000
# 6 0.0000 0.0000 0.0000 0.0000 0.0000 28.2795
#
#
#
# Elastic Compliance Matrix: (Units=1/GPa)
#
#
# Indices 1 2 3 4 5 6 
#
# 1 0.108793 -0.042613 -0.008962 0.000000 0.000000 0.000000
# 2 -0.042613 0.045501 -0.018941 0.000000 0.000000 0.000000
# 3 -0.008962 -0.018941 0.023951 0.000000 0.000000 0.000000
# 4 0.000000 0.000000 0.000000 -0.057777 0.000000 0.000000
# 5 0.000000 0.000000 0.000000 0.000000 0.025168 0.000000
# 6 0.000000 0.000000 0.000000 0.000000 0.000000 0.035361
#
#
# Mechanical properties :
#
#
# Convention : Reuss Voigt Hill
#
# Bulk Modulus (GPa) = 26.87136 99.73671 63.30404
# Shear Modulus (GPa) = 14.95067 15.88109 15.41588
#
# Velocity S-wave (km/s) = 2.90358 2.99256 2.94841
# Velocity P-wave (km/s) = 5.13750 8.25728 6.87665
#
# Compressibility (1/GPa) = 0.03721434
#
# Stress axis : x y z
#
# Youngs Moduli (GPa) = 9.19177 21.97756 41.75147
#
# Poissons Ratio (x) = 0.93652 0.37418
# Poissons Ratio (y) = 0.39169 0.79080
# Poissons Ratio (z) = 0.08238 0.41627
#
# Static dielectric constant tensor:
#      x y z
#    x 1.592230 0.000000 0.000000 
#    y 0.000000 1.588800 0.000000 
#    z 0.000000 0.000000 1.578490 
# 
# From -- ./inp_files/5216.got.cif
#   From: 2010.05.17/outbox.cif.g08.bks.cpg/sg25_3_cif.got.tgz:5216.got - 2010.06.04 01:04:00.
