data_PCOD9337524
_publ_section_title
;
Structure prediction by ZEFSAII (Michael W. Deem and Ramdas Pophale) SiO2 
 PCOD9337524
Probable space group: P M M 2
;
_chemical_formula_sum "Si O2"
_cell_formula_units_Z 28
_cell_length_a 9.750713
_cell_length_b 8.873318
_cell_length_c 18.448490
_cell_angle_alpha 90.000000
_cell_angle_beta 90.000000
_cell_angle_gamma 90.000000
_cell_volume 1596.185072
_symmetry_space_group_name_H-M "P M M 2"
_symmetry_group_IT_number 25
_symmetry_cell_setting 'orthorhombic'
loop_
_space_group_symop_operation_xyz
x,y,z
-x,-y,z
-x,y,z
x,-y,z
loop_
_atom_site_type_symbol
_atom_site_label
_atom_site_fract_x
_atom_site_fract_y
_atom_site_fract_z
Si Si1 0.660705 0.178906 0.331130
Si Si2 0.158692 0.318423 0.040252
Si Si3 0.162943 0.319694 0.203651
Si Si4 0.338920 0.180700 0.913756
Si Si5 0.840320 0.817515 0.614501
Si Si6 0.342191 0.816535 0.750294
Si Si7 0.659904 0.319577 0.486685
O O1 0.500000 0.210599 0.316386
O O2 0.751948 0.237643 0.265337
O O3 0.696080 0.259905 0.406687
O O4 0.676911 0.000000 0.340143
O O5 0.162928 0.500000 0.038632
O O6 0.202347 0.272580 0.121696
O O7 0.000000 0.272561 0.030592
O O8 0.250526 0.253840 0.976601
O O9 0.183812 0.500000 0.209622
O O10 0.000000 0.292168 0.211557
O O11 0.500000 0.214167 0.923657
O O12 0.302208 0.230617 0.831782
O O13 0.322684 0.000000 0.916783
O O14 0.761219 0.768409 0.687601
O O15 0.758421 0.751526 0.546514
O O16 0.000000 0.773196 0.614840
O O17 0.834658 0.000000 0.611345
O O18 0.500000 0.769219 0.736013
O O19 0.343211 0.000000 0.750717
O O20 0.500000 0.276900 0.500577
O O21 0.669195 0.500000 0.488329
#
# Coordination Sequence:
#
# PCOD9337524 Si02
#       7
#     4   4   4   4   4   4   4
#     4  10  21  36  55  80 106 131 164 208 255 301
#     4   9  19  35  52  72 101 137 175 211 250 300
#     4   9  19  36  55  74 100 136 174 210 251 300
#     4   9  18  32  51  77 105 132 168 213 257 302
#     4  10  20  33  52  79 106 132 167 210 254 301
#     4   8  15  30  51  73 100 135 171 208 252 300
#     4  10  21  37  56  76 100 134 173 208 247 299
#
# _framework density 17.541827000000001
#
# number of rings (size 3 to 8) (size 9 to 14) (size 15 to 20)
#    0.000    2.714    0.000    3.000    0.000    5.714 
#    0.000    6.429    0.000    0.857    0.000    0.000 
#    0.000    0.000    0.000    0.000    0.000    0.000 
#
# Total GULP energy -156171.277169 kJ/mol
# GULP energy per Si atom -5577.545613 kJ/mol
# Density = 1.750190 g / cm^3
# Si number density = 17.541827 Si / 1000 Ang^3
#
#
#
# Elastic Constant Matrix: (Units=GPa)
#
#
# Indices 1 2 3 4 5 6 
#
# 1 93.6018 38.5538 110.9506 0.0000 0.0000 0.0000
# 2 38.5538 19.8161 45.3661 0.0000 0.0000 0.0000
# 3 110.9506 45.3661 183.4890 0.0000 0.0000 0.0000
# 4 0.0000 0.0000 0.0000 56.6187 0.0000 0.0000
# 5 0.0000 0.0000 0.0000 0.0000 116.5218 0.0000
# 6 0.0000 0.0000 0.0000 0.0000 0.0000 28.1996
#
#
#
# Elastic Compliance Matrix: (Units=1/GPa)
#
#
# Indices 1 2 3 4 5 6 
#
# 1 0.082451 -0.106635 -0.023491 0.000000 0.000000 0.000000
# 2 -0.106635 0.254198 0.001631 0.000000 0.000000 0.000000
# 3 -0.023491 0.001631 0.019251 0.000000 0.000000 0.000000
# 4 0.000000 0.000000 0.000000 0.017662 0.000000 0.000000
# 5 0.000000 0.000000 0.000000 0.000000 0.008582 0.000000
# 6 0.000000 0.000000 0.000000 0.000000 0.000000 0.035461
#
#
# Mechanical properties :
#
#
# Convention : Reuss Voigt Hill
#
# Bulk Modulus (GPa) = 10.11031 76.29419 43.20225
# Shear Modulus (GPa) = 7.06650 47.07045 27.06848
#
# Velocity S-wave (km/s) = 2.00926 5.18570 3.93247
# Velocity P-wave (km/s) = 3.34049 8.91305 6.73058
#
# Compressibility (1/GPa) = 0.09890897
#
# Stress axis : x y z
#
# Youngs Moduli (GPa) = 12.12848 3.93395 51.94575
#
# Poissons Ratio (x) = 0.41950 1.22025
# Poissons Ratio (y) = 1.29333 -0.08473
# Poissons Ratio (z) = 0.28491 -0.00642
#
# Static dielectric constant tensor:
#      x y z
#    x 1.579710 0.000000 0.000000 
#    y 0.000000 1.589740 0.000000 
#    z 0.000000 0.000000 1.580760 
# 
# From -- ./inp_files/6020.got.cif
#   From: 2010.05.17/outbox.cif.g08.bks.cpg/sg25_4_cif.got.tgz:6020.got - 2010.06.04 01:04:00.
