data_PCOD9337678
_publ_section_title
;
Structure prediction by ZEFSAII (Michael W. Deem and Ramdas Pophale) SiO2 
 PCOD9337678
Probable space group: P M M 2
;
_chemical_formula_sum "Si O2"
_cell_formula_units_Z 28
_cell_length_a 7.538627
_cell_length_b 9.966023
_cell_length_c 18.518351
_cell_angle_alpha 90.000000
_cell_angle_beta 90.000000
_cell_angle_gamma 90.000000
_cell_volume 1391.286119
_symmetry_space_group_name_H-M "P M M 2"
_symmetry_group_IT_number 25
_symmetry_cell_setting 'orthorhombic'
loop_
_space_group_symop_operation_xyz
x,y,z
-x,-y,z
-x,y,z
x,-y,z
loop_
_atom_site_type_symbol
_atom_site_label
_atom_site_fract_x
_atom_site_fract_y
_atom_site_fract_z
Si Si1 0.712438 0.650510 0.349310
Si Si2 0.716380 0.654298 0.512002
Si Si3 0.716215 0.346040 0.771216
Si Si4 0.289981 0.151712 0.059479
Si Si5 0.790147 0.848873 0.219144
Si Si6 0.717156 0.845197 0.641633
Si Si7 0.716771 0.346710 0.935066
O O1 0.500000 0.643111 0.354275
O O2 0.778011 0.500000 0.332288
O O3 0.774713 0.686702 0.430182
O O4 0.751316 0.754876 0.286635
O O5 0.500000 0.655338 0.513074
O O6 0.768689 0.500000 0.528443
O O7 0.774631 0.761300 0.571284
O O8 0.500000 0.346586 0.770127
O O9 0.770703 0.500000 0.755101
O O10 0.774243 0.239094 0.711871
O O11 0.770502 0.312164 0.853145
O O12 0.500000 0.141770 0.046465
O O13 0.269642 0.204562 0.141067
O O14 0.216353 0.000000 0.057799
O O15 0.218242 0.246965 0.996897
O O16 0.000000 0.859606 0.214471
O O17 0.715484 0.000000 0.228349
O O18 0.500000 0.846178 0.641653
O O19 0.774391 0.000000 0.641687
O O20 0.500000 0.345238 0.935607
O O21 0.770457 0.500000 0.949414
#
# Coordination Sequence:
#
# PCOD9337678 Si02
#       7
#     4   4   4   4   4   4   4
#     4   9  18  32  50  71  92 117 153 194 233 274
#     4   8  14  25  39  55  79 111 144 178 218 263
#     4   8  13  21  32  47  73 110 144 172 209 257
#     4   9  17  29  45  64  86 114 148 185 225 267
#     4  10  21  35  49  67  93 123 153 186 228 279
#     4   9  15  20  29  50  79 110 144 178 211 251
#     4   8  14  24  38  57  80 108 144 182 218 259
#
# _framework density 20.125261999999999
#
# number of rings (size 3 to 8) (size 9 to 14) (size 15 to 20)
#    0.000    3.286    0.000    2.571    0.000    4.571 
#    0.000    5.714    0.000    0.000    0.000    0.000 
#    0.000    1.143    0.000    8.571    0.000   11.000 
#
# Total GULP energy -156129.338618 kJ/mol
# GULP energy per Si atom -5576.047808 kJ/mol
# Density = 2.007946 g / cm^3
# Si number density = 20.125262 Si / 1000 Ang^3
#
#
#
# Elastic Constant Matrix: (Units=GPa)
#
#
# Indices 1 2 3 4 5 6 
#
# 1 47.9216 4.4258 2.8847 0.0000 0.0000 0.0000
# 2 4.4258 148.6139 147.4051 0.0000 0.0000 0.0000
# 3 2.8847 147.4051 202.5687 0.0000 0.0000 0.0000
# 4 0.0000 0.0000 0.0000 -12.3534 0.0000 0.0000
# 5 0.0000 0.0000 0.0000 0.0000 -37.9073 0.0000
# 6 0.0000 0.0000 0.0000 0.0000 0.0000 -8.4690
#
#
#
# Elastic Compliance Matrix: (Units=1/GPa)
#
#
# Indices 1 2 3 4 5 6 
#
# 1 0.020943 -0.001178 0.000559 0.000000 0.000000 0.000000
# 2 -0.001178 0.024250 -0.017629 0.000000 0.000000 0.000000
# 3 0.000559 -0.017629 0.017757 0.000000 0.000000 0.000000
# 4 0.000000 0.000000 0.000000 -0.080950 0.000000 0.000000
# 5 0.000000 0.000000 0.000000 0.000000 -0.026380 0.000000
# 6 0.000000 0.000000 0.000000 0.000000 0.000000 -0.118077
#
#
# Mechanical properties :
#
#
# Convention : Reuss Voigt Hill
#
# Bulk Modulus (GPa) = 37.80341 78.72614 58.26478
# Shear Modulus (GPa) = -42.68292 4.54665 -19.06814
#
# Velocity S-wave (km/s) = -4.61028 1.50469 -3.08144
# Velocity P-wave (km/s) = 3.08459 6.49783 4.04395
#
# Compressibility (1/GPa) = 0.02645264
#
# Stress axis : x y z
#
# Youngs Moduli (GPa) = 47.74964 41.23717 56.31519
#
# Poissons Ratio (x) = 0.04859 -0.03149
# Poissons Ratio (y) = 0.05627 0.99280
# Poissons Ratio (z) = -0.02670 0.72699
#
# Static dielectric constant tensor:
#      x y z
#    x 1.745170 0.000000 0.000000 
#    y 0.000000 1.691980 0.000000 
#    z 0.000000 0.000000 1.699280 
# 
# From -- ./inp_files/6325.got.cif
#   From: 2010.05.17/outbox.cif.g08.bks.cpg/sg25_4_cif.got.tgz:6325.got - 2010.06.04 01:04:00.
