data_PCOD9337242
_publ_section_title
;
Structure prediction by ZEFSAII (Michael W. Deem and Ramdas Pophale) SiO2 
 PCOD9337242
Probable space group: P M M 2
;
_chemical_formula_sum "Si O2"
_cell_formula_units_Z 32
_cell_length_a 36.522852
_cell_length_b 7.369612
_cell_length_c 5.390247
_cell_angle_alpha 90.000000
_cell_angle_beta 90.000000
_cell_angle_gamma 90.000000
_cell_volume 1450.834831
_symmetry_space_group_name_H-M "P M M 2"
_symmetry_group_IT_number 25
_symmetry_cell_setting 'orthorhombic'
loop_
_space_group_symop_operation_xyz
x,y,z
-x,-y,z
-x,y,z
x,-y,z
loop_
_atom_site_type_symbol
_atom_site_label
_atom_site_fract_x
_atom_site_fract_y
_atom_site_fract_z
Si Si1 0.168906 0.215126 0.599110
Si Si2 0.794904 0.784918 0.099115
Si Si3 0.042395 0.278261 0.104711
Si Si4 0.668339 0.278154 0.605275
Si Si5 0.457710 0.278540 0.103205
Si Si6 0.708616 0.717969 0.105310
Si Si7 0.583660 0.721339 0.603186
Si Si8 0.917387 0.282038 0.604749
O O1 0.186574 0.290323 0.347705
O O2 0.125438 0.238750 0.603268
O O3 0.176587 0.000000 0.598037
O O4 0.187443 0.290315 0.847685
O O5 0.751432 0.761484 0.103329
O O6 0.802623 0.000000 0.098042
O O7 0.042980 0.500000 0.104757
O O8 0.062855 0.217515 0.354238
O O9 0.000000 0.223801 0.103863
O O10 0.063078 0.217493 0.856016
O O11 0.668808 0.500000 0.605374
O O12 0.689120 0.217663 0.356810
O O13 0.625980 0.222821 0.603743
O O14 0.688783 0.217663 0.854979
O O15 0.500000 0.221971 0.103498
O O16 0.457447 0.500000 0.103218
O O17 0.436969 0.220883 0.353015
O O18 0.437049 0.220919 0.853082
O O19 0.705321 0.500000 0.105490
O O20 0.583308 0.500000 0.603132
O O21 0.920732 0.500000 0.604891
#
# Coordination Sequence:
#
# PCOD9337242 Si02
#       8
#     4   4   4   4   4   4   4   4
#     4  10  21  36  52  70  96 127 155 188 231 279
#     4  10  21  36  52  70  93 124 157 186 229 284
#     4   9  17  30  49  74 102 129 158 194 234 273
#     4   9  17  28  42  62  86 113 147 186 231 276
#     4   9  15  21  30  46  69 102 146 186 214 249
#     4  10  19  31  48  69  91 115 149 192 229 267
#     4   9  15  23  34  48  72 105 140 180 220 260
#     4  10  19  31  51  76  98 125 162 198 230 269
#
# _framework density 22.056267999999999
#
# number of rings (size 3 to 8) (size 9 to 14) (size 15 to 20)
#    0.000    2.500    0.000    3.000    0.000    7.000 
#    0.000    0.000    0.000    2.250    0.000    0.000 
#    0.000    0.000    0.000    0.000    0.000   43.750 
#
# Total GULP energy -178923.383168 kJ/mol
# GULP energy per Si atom -5591.355724 kJ/mol
# Density = 2.200607 g / cm^3
# Si number density = 22.056268 Si / 1000 Ang^3
#
#
#
# Elastic Constant Matrix: (Units=GPa)
#
#
# Indices 1 2 3 4 5 6 
#
# 1 170.4291 -18.7210 117.1138 0.0000 0.0000 0.0000
# 2 -18.7210 78.2211 6.7236 0.0000 0.0000 0.0000
# 3 117.1138 6.7236 247.3505 0.0000 0.0000 0.0000
# 4 0.0000 0.0000 0.0000 -21.2495 0.0000 0.0000
# 5 0.0000 0.0000 0.0000 0.0000 53.2716 0.0000
# 6 0.0000 0.0000 0.0000 0.0000 0.0000 42.3479
#
#
#
# Elastic Compliance Matrix: (Units=1/GPa)
#
#
# Indices 1 2 3 4 5 6 
#
# 1 0.009189 0.002579 -0.004421 0.000000 0.000000 0.000000
# 2 0.002579 0.013538 -0.001589 0.000000 0.000000 0.000000
# 3 -0.004421 -0.001589 0.006179 0.000000 0.000000 0.000000
# 4 0.000000 0.000000 0.000000 -0.047060 0.000000 0.000000
# 5 0.000000 0.000000 0.000000 0.000000 0.018772 0.000000
# 6 0.000000 0.000000 0.000000 0.000000 0.000000 0.023614
#
#
# Mechanical properties :
#
#
# Convention : Reuss Voigt Hill
#
# Bulk Modulus (GPa) = 45.36279 78.47040 61.91660
# Shear Modulus (GPa) = 130.06872 40.93294 85.50083
#
# Velocity S-wave (km/s) = 7.68761 4.31262 6.23290
# Velocity P-wave (km/s) = 9.97049 7.77514 8.94046
#
# Compressibility (1/GPa) = 0.02204450
#
# Stress axis : x y z
#
# Youngs Moduli (GPa) = 108.83058 73.86532 161.83570
#
# Poissons Ratio (x) = -0.19051 0.71542
# Poissons Ratio (y) = -0.28069 0.25718
# Poissons Ratio (z) = 0.48110 0.11738
#
# Static dielectric constant tensor:
#      x y z
#    x 1.719380 0.000000 0.000000 
#    y 0.000000 1.832720 0.000000 
#    z 0.000000 0.000000 1.847580 
# 
# From -- ./inp_files/383.got.cif
#   From: 2010.05.17/outbox.cif.g08.bks.cpg/sg25_1_cif.got.tgz:383.got - 2010.06.04 01:04:00.
