data_PCOD9337630
_publ_section_title
;
Structure prediction by ZEFSAII (Michael W. Deem and Ramdas Pophale) SiO2 
 PCOD9337630
Probable space group: P M M 2
;
_chemical_formula_sum "Si O2"
_cell_formula_units_Z 32
_cell_length_a 14.280787
_cell_length_b 8.968342
_cell_length_c 13.359237
_cell_angle_alpha 90.000000
_cell_angle_beta 90.000000
_cell_angle_gamma 90.000000
_cell_volume 1710.984036
_symmetry_space_group_name_H-M "P M M 2"
_symmetry_group_IT_number 25
_symmetry_cell_setting 'orthorhombic'
loop_
_space_group_symop_operation_xyz
x,y,z
-x,-y,z
-x,y,z
x,-y,z
loop_
_atom_site_type_symbol
_atom_site_label
_atom_site_fract_x
_atom_site_fract_y
_atom_site_fract_z
Si Si1 0.886323 0.331100 0.559690
Si Si2 0.720023 0.679937 0.262272
Si Si3 0.386599 0.674648 0.681171
Si Si4 0.608705 0.680013 0.062310
Si Si5 0.892155 0.821060 0.768253
Si Si6 0.890911 0.822301 0.350743
Si Si7 0.707549 0.177552 0.871454
Si Si8 0.391943 0.318634 0.459623
O O1 0.850062 0.500000 0.552913
O O2 0.861126 0.255117 0.664359
O O3 0.862438 0.241434 0.459770
O O4 0.000000 0.336555 0.560969
O O5 0.726896 0.500000 0.264118
O O6 0.661830 0.723114 0.164249
O O7 0.822403 0.750430 0.269833
O O8 0.665643 0.728653 0.362945
O O9 0.500000 0.681730 0.682435
O O10 0.361105 0.500000 0.694404
O O11 0.345225 0.769145 0.771223
O O12 0.356407 0.725988 0.569826
O O13 0.500000 0.727332 0.063939
O O14 0.609746 0.500000 0.056642
O O15 0.661498 0.744923 0.966598
O O16 0.816737 0.783128 0.852983
O O17 0.000000 0.778273 0.789799
O O18 0.890258 0.000000 0.754015
O O19 0.000000 0.783094 0.334567
O O20 0.882794 0.000000 0.351161
O O21 0.699911 0.000000 0.881660
O O22 0.500000 0.271050 0.449429
O O23 0.392225 0.500000 0.460834
#
# Coordination Sequence:
#
# PCOD9337630 Si02
#       8
#     4   4   4   4   4   4   4   4
#     4   9  17  30  51  79 109 144 187 232 273 318
#     4  10  20  35  59  87 110 139 187 240 282 325
#     4   9  18  33  53  78 110 145 178 218 277 346
#     4  10  22  41  63  85 111 145 185 231 285 344
#     4   9  19  36  54  75 109 150 188 228 280 338
#     4  10  21  36  53  77 115 158 192 224 270 331
#     4  11  23  36  55  82 110 145 191 237 280 328
#     4   8  15  30  53  81 110 139 173 218 278 343
#
# _framework density 18.702686
#
# number of rings (size 3 to 8) (size 9 to 14) (size 15 to 20)
#    0.000    2.500    0.000    2.625    1.750    7.250 
#    0.000    0.625    0.000    4.125    0.000    0.000 
#    0.000    0.000    0.000    0.000    0.000    0.000 
#
# Total GULP energy -178624.108174 kJ/mol
# GULP energy per Si atom -5582.003380 kJ/mol
# Density = 1.866012 g / cm^3
# Si number density = 18.702686 Si / 1000 Ang^3
#
#
#
# Elastic Constant Matrix: (Units=GPa)
#
#
# Indices 1 2 3 4 5 6 
#
# 1 124.6072 39.1515 87.4973 0.0000 0.0000 0.0000
# 2 39.1515 23.5904 37.2859 0.0000 0.0000 0.0000
# 3 87.4973 37.2859 146.4024 0.0000 0.0000 0.0000
# 4 0.0000 0.0000 0.0000 12.6605 0.0000 0.0000
# 5 0.0000 0.0000 0.0000 0.0000 36.6177 0.0000
# 6 0.0000 0.0000 0.0000 0.0000 0.0000 22.7754
#
#
#
# Elastic Compliance Matrix: (Units=1/GPa)
#
#
# Indices 1 2 3 4 5 6 
#
# 1 0.019184 -0.022958 -0.005618 0.000000 0.000000 0.000000
# 2 -0.022958 0.098425 -0.011346 0.000000 0.000000 0.000000
# 3 -0.005618 -0.011346 0.013078 0.000000 0.000000 0.000000
# 4 0.000000 0.000000 0.000000 0.078986 0.000000 0.000000
# 5 0.000000 0.000000 0.000000 0.000000 0.027309 0.000000
# 6 0.000000 0.000000 0.000000 0.000000 0.000000 0.043907
#
#
# Mechanical properties :
#
#
# Convention : Reuss Voigt Hill
#
# Bulk Modulus (GPa) = 19.66875 69.16328 44.41601
# Shear Modulus (GPa) = 13.23869 23.12173 18.18021
#
# Velocity S-wave (km/s) = 2.66343 3.51989 3.12118
# Velocity P-wave (km/s) = 4.47190 7.31985 6.06539
#
# Compressibility (1/GPa) = 0.05084208
#
# Stress axis : x y z
#
# Youngs Moduli (GPa) = 52.12810 10.15998 76.46563
#
# Poissons Ratio (x) = 0.23325 0.42959
# Poissons Ratio (y) = 1.19676 0.86760
# Poissons Ratio (z) = 0.29286 0.11528
#
# Static dielectric constant tensor:
#      x y z
#    x 1.690630 0.000000 0.000000 
#    y 0.000000 1.623910 0.000000 
#    z 0.000000 0.000000 1.616850 
# 
# From -- ./inp_files/4903.got.cif
#   From: 2010.05.17/outbox.cif.g08.bks.cpg/sg25_3_cif.got.tgz:4903.got - 2010.06.04 01:04:00.
