data_PCOD9337636
_publ_section_title
;
Structure prediction by ZEFSAII (Michael W. Deem and Ramdas Pophale) SiO2 
 PCOD9337636
Probable space group: P M M 2
;
_chemical_formula_sum "Si O2"
_cell_formula_units_Z 32
_cell_length_a 18.561130
_cell_length_b 13.852086
_cell_length_c 5.565512
_cell_angle_alpha 90.000000
_cell_angle_beta 90.000000
_cell_angle_gamma 90.000000
_cell_volume 1430.950844
_symmetry_space_group_name_H-M "P M M 2"
_symmetry_group_IT_number 25
_symmetry_cell_setting 'orthorhombic'
loop_
_space_group_symop_operation_xyz
x,y,z
-x,-y,z
-x,y,z
x,-y,z
loop_
_atom_site_type_symbol
_atom_site_label
_atom_site_fract_x
_atom_site_fract_y
_atom_site_fract_z
Si Si1 0.287486 0.607248 0.689650
Si Si2 0.854790 0.387450 0.954102
Si Si3 0.080677 0.888564 0.182491
Si Si4 0.914246 0.299545 0.454501
Si Si5 0.316196 0.758192 0.314943
Si Si6 0.583605 0.696984 0.935891
Si Si7 0.773274 0.107891 0.980520
Si Si8 0.364085 0.890567 0.686900
O O1 0.277363 0.500000 0.588999
O O2 0.231623 0.616868 0.909944
O O3 0.274085 0.693446 0.505369
O O4 0.369287 0.627312 0.768551
O O5 0.875865 0.500000 0.939353
O O6 0.885795 0.334868 0.713954
O O7 0.879876 0.348758 0.213866
O O8 0.000000 0.867847 0.091612
O O9 0.082855 0.000000 0.262840
O O10 0.096113 0.814248 0.396996
O O11 0.141607 0.877264 0.978784
O O12 0.000000 0.319000 0.449602
O O13 0.260127 0.809887 0.144047
O O14 0.363862 0.845336 0.424735
O O15 0.374719 0.691416 0.186434
O O16 0.500000 0.676548 0.942370
O O17 0.597790 0.808109 0.846733
O O18 0.762031 0.000000 0.086303
O O19 0.721536 0.109308 0.751232
O O20 0.390613 0.000000 0.711732
#
# Coordination Sequence:
#
# PCOD9337636 Si02
#       8
#     4   4   4   4   4   4   4   4
#     4  10  24  42  63  89 118 158 208 262 320 384
#     4  11  25  43  69 100 133 173 224 282 340 404
#     4   9  19  36  57  86 128 175 223 272 325 392
#     4  11  24  42  68 100 137 180 224 277 343 401
#     4  10  20  35  61  88 116 156 201 257 309 378
#     4  10  23  41  60  87 123 160 200 255 320 387
#     4   9  17  32  56  84 117 158 204 251 306 366
#     4   9  19  35  58  89 120 155 200 250 307 377
#
# _framework density 22.362753000000001
#
# number of rings (size 3 to 8) (size 9 to 14) (size 15 to 20)
#    0.000    2.125    0.000    1.875    7.000    5.000 
#    0.000    0.625    0.000    3.000    0.000    0.000 
#    0.000    0.000    0.000    0.000    0.000    0.000 
#
# Total GULP energy -178557.713881 kJ/mol
# GULP energy per Si atom -5579.928559 kJ/mol
# Density = 2.231185 g / cm^3
# Si number density = 22.362753 Si / 1000 Ang^3
#
#
#
# Elastic Constant Matrix: (Units=GPa)
#
#
# Indices 1 2 3 4 5 6 
#
# 1 114.8810 17.4052 18.9669 0.0000 0.0000 0.0000
# 2 17.4052 94.6172 22.4392 0.0000 0.0000 0.0000
# 3 18.9669 22.4392 59.5363 0.0000 0.0000 0.0000
# 4 0.0000 0.0000 0.0000 11.4242 0.0000 0.0000
# 5 0.0000 0.0000 0.0000 0.0000 19.4368 0.0000
# 6 0.0000 0.0000 0.0000 0.0000 0.0000 21.0410
#
#
#
# Elastic Compliance Matrix: (Units=1/GPa)
#
#
# Indices 1 2 3 4 5 6 
#
# 1 0.009292 -0.001106 -0.002543 0.000000 0.000000 0.000000
# 2 -0.001106 0.011738 -0.004072 0.000000 0.000000 0.000000
# 3 -0.002543 -0.004072 0.019141 0.000000 0.000000 0.000000
# 4 0.000000 0.000000 0.000000 0.087533 0.000000 0.000000
# 5 0.000000 0.000000 0.000000 0.000000 0.051449 0.000000
# 6 0.000000 0.000000 0.000000 0.000000 0.000000 0.047526
#
#
# Mechanical properties :
#
#
# Convention : Reuss Voigt Hill
#
# Bulk Modulus (GPa) = 40.43807 42.96190 41.69998
# Shear Modulus (GPa) = 19.97080 24.39526 22.18303
#
# Velocity S-wave (km/s) = 2.99162 3.30644 3.15296
# Velocity P-wave (km/s) = 5.48225 5.81634 5.65176
#
# Compressibility (1/GPa) = 0.02472917
#
# Stress axis : x y z
#
# Youngs Moduli (GPa) = 107.61761 85.19328 52.24291
#
# Poissons Ratio (x) = 0.09424 0.13287
# Poissons Ratio (y) = 0.11904 0.21272
# Poissons Ratio (z) = 0.27371 0.34688
#
# Static dielectric constant tensor:
#      x y z
#    x 1.832450 0.000000 0.000000 
#    y 0.000000 1.837590 0.000000 
#    z 0.000000 0.000000 1.857260 
# 
# From -- ./inp_files/1161.got.cif
#   From: 2010.05.17/outbox.cif.g08.bks.cpg/sg25_1_cif.got.tgz:1161.got - 2010.06.04 01:04:00.
