data_PCOD9337466
_publ_section_title
;
Structure prediction by ZEFSAII (Michael W. Deem and Ramdas Pophale) SiO2 
 PCOD9337466
Probable space group: P M M 2
;
_chemical_formula_sum "Si O2"
_cell_formula_units_Z 32
_cell_length_a 14.487731
_cell_length_b 8.937751
_cell_length_c 15.960157
_cell_angle_alpha 90.000000
_cell_angle_beta 90.000000
_cell_angle_gamma 90.000000
_cell_volume 2066.644536
_symmetry_space_group_name_H-M "P M M 2"
_symmetry_group_IT_number 25
_symmetry_cell_setting 'orthorhombic'
loop_
_space_group_symop_operation_xyz
x,y,z
-x,-y,z
-x,y,z
x,-y,z
loop_
_atom_site_type_symbol
_atom_site_label
_atom_site_fract_x
_atom_site_fract_y
_atom_site_fract_z
Si Si1 0.112079 0.827226 0.316740
Si Si2 0.893558 0.182265 0.132322
Si Si3 0.212039 0.179517 0.965206
Si Si4 0.605518 0.678805 0.903602
Si Si5 0.605868 0.678754 0.704659
Si Si6 0.890010 0.677140 0.489896
Si Si7 0.210853 0.822023 0.646534
Si Si8 0.110172 0.322550 0.806387
O O1 0.140636 0.770616 0.224618
O O2 0.138561 0.731214 0.397235
O O3 0.000000 0.828128 0.313415
O O4 0.141510 0.000000 0.327891
O O5 0.000000 0.230770 0.120104
O O6 0.894869 0.000000 0.134857
O O7 0.831791 0.227321 0.053817
O O8 0.316476 0.234708 0.953793
O O9 0.153773 0.250156 0.889203
O O10 0.207311 0.000000 0.959512
O O11 0.500000 0.718351 0.925422
O O12 0.616314 0.500000 0.914509
O O13 0.617946 0.709030 0.804159
O O14 0.500000 0.716722 0.682864
O O15 0.617541 0.500000 0.693377
O O16 0.683993 0.766194 0.655106
O O17 0.876297 0.500000 0.499124
O O18 0.835277 0.763495 0.561537
O O19 0.000000 0.707377 0.498888
O O20 0.155887 0.750539 0.724750
O O21 0.206034 0.000000 0.651450
O O22 0.129773 0.500000 0.805897
O O23 0.000000 0.301040 0.805104
#
# Coordination Sequence:
#
# PCOD9337466 Si02
#       8
#     4   4   4   4   4   4   4   4
#     4   8  14  28  49  69  91 123 161 199 238 281
#     4   8  15  28  46  69  99 131 159 191 236 287
#     4  11  20  30  48  74  99 126 161 201 241 285
#     4   9  18  33  51  68  91 126 163 200 244 290
#     4   9  18  34  54  71  92 125 160 197 243 290
#     4  10  20  33  49  70  98 130 162 199 241 286
#     4  12  23  33  49  73  97 125 161 201 240 284
#     4  11  23  36  47  62  93 135 170 198 232 277
#
# _framework density 15.484038
#
# number of rings (size 3 to 8) (size 9 to 14) (size 15 to 20)
#    0.000    2.250    1.250    4.500    0.000    4.250 
#    0.000    2.500    0.000    3.000    0.000    0.875 
#    0.000    5.000    0.000    0.000    0.000    0.000 
#
# Total GULP energy -178503.844219 kJ/mol
# GULP energy per Si atom -5578.245132 kJ/mol
# Density = 1.544880 g / cm^3
# Si number density = 15.484038 Si / 1000 Ang^3
#
#
#
# Elastic Constant Matrix: (Units=GPa)
#
#
# Indices 1 2 3 4 5 6 
#
# 1 92.0171 56.7206 65.1637 0.0000 0.0000 0.0000
# 2 56.7206 64.8672 52.8718 0.0000 0.0000 0.0000
# 3 65.1637 52.8718 128.8419 0.0000 0.0000 0.0000
# 4 0.0000 0.0000 0.0000 -0.9012 0.0000 0.0000
# 5 0.0000 0.0000 0.0000 0.0000 6.1126 0.0000
# 6 0.0000 0.0000 0.0000 0.0000 0.0000 19.9125
#
#
#
# Elastic Compliance Matrix: (Units=1/GPa)
#
#
# Indices 1 2 3 4 5 6 
#
# 1 0.026151 -0.018160 -0.005774 0.000000 0.000000 0.000000
# 2 -0.018160 0.035775 -0.005496 0.000000 0.000000 0.000000
# 3 -0.005774 -0.005496 0.012937 0.000000 0.000000 0.000000
# 4 0.000000 0.000000 0.000000 -1.109688 0.000000 0.000000
# 5 0.000000 0.000000 0.000000 0.000000 0.163597 0.000000
# 6 0.000000 0.000000 0.000000 0.000000 0.000000 0.050220
#
#
# Mechanical properties :
#
#
# Convention : Reuss Voigt Hill
#
# Bulk Modulus (GPa) = 62.48911 70.58205 66.53558
# Shear Modulus (GPa) = -6.60665 12.42279 2.90807
#
# Velocity S-wave (km/s) = -2.06785 2.83556 1.37193
# Velocity P-wave (km/s) = 5.89435 7.51021 6.75080
#
# Compressibility (1/GPa) = 0.01600279
#
# Stress axis : x y z
#
# Youngs Moduli (GPa) = 38.23999 27.95216 77.29798
#
# Poissons Ratio (x) = 0.50762 0.44630
# Poissons Ratio (y) = 0.69445 0.42483
# Poissons Ratio (z) = 0.22079 0.15363
#
# Static dielectric constant tensor:
#      x y z
#    x 1.507630 0.000000 0.000000 
#    y 0.000000 1.516370 0.000000 
#    z 0.000000 0.000000 1.508120 
# 
# From -- ./inp_files/5735.got.cif
#   From: 2010.05.17/outbox.cif.g08.bks.cpg/sg25_3_cif.got.tgz:5735.got - 2010.06.04 01:04:00.
