data_PCOD9337977
_publ_section_title
;
Structure prediction by ZEFSAII (Michael W. Deem and Ramdas Pophale) SiO2 
 PCOD9337977
Probable space group: P M C 21
;
_chemical_formula_sum "Si O2"
_cell_formula_units_Z 32
_cell_length_a 8.728590
_cell_length_b 11.825985
_cell_length_c 16.547619
_cell_angle_alpha 90.000000
_cell_angle_beta 90.000000
_cell_angle_gamma 90.000000
_cell_volume 1708.114310
_symmetry_space_group_name_H-M "P M C 21"
_symmetry_group_IT_number 26
_symmetry_cell_setting 'orthorhombic'
loop_
_space_group_symop_operation_xyz
x,y,z
-x,-y,1/2+z
-x,y,z
x,-y,1/2+z
loop_
_atom_site_type_symbol
_atom_site_label
_atom_site_fract_x
_atom_site_fract_y
_atom_site_fract_z
Si Si1 0.685260 0.187125 0.545560
Si Si2 0.185286 0.441224 0.837397
Si Si3 0.315777 0.929954 0.569783
Si Si4 0.173941 0.255938 0.960324
Si Si5 0.816109 0.302882 0.384813
Si Si6 0.317924 0.376855 0.664490
Si Si7 0.317224 0.779864 0.721729
Si Si8 0.174007 0.587576 0.616958
O O1 0.500000 0.188228 0.537783
O O2 0.752941 0.250315 0.467635
O O3 0.724049 0.256586 0.626767
O O4 0.736947 0.057742 0.555319
O O5 0.234477 0.566184 0.868025
O O6 0.238582 0.414412 0.747120
O O7 0.000000 0.440512 0.842587
O O8 0.242062 0.334522 0.890344
O O9 0.500000 0.929322 0.572419
O O10 0.263182 0.850732 0.495841
O O11 0.265058 0.874123 0.655673
O O12 0.165361 0.341315 0.035749
O O13 0.000000 0.221514 0.938747
O O14 0.759775 0.226238 0.309338
O O15 0.000000 0.303281 0.386864
O O16 0.500000 0.382918 0.673859
O O17 0.257718 0.470366 0.601731
O O18 0.500000 0.788045 0.730758
O O19 0.270655 0.661801 0.679568
O O20 0.000000 0.571169 0.647255
#
# Coordination Sequence:
#
# PCOD9337977 Si02
#       8
#     4   4   4   4   4   4   4   4
#     4  10  23  42  59  81 115 155 197 242 288 340
#     4  10  21  37  56  83 120 151 180 229 292 350
#     4   9  20  40  61  81 111 151 194 236 286 337
#     4   9  19  35  57  83 111 145 185 231 280 337
#     4  11  22  37  60  89 118 151 190 235 293 353
#     4  11  22  35  55  82 114 150 190 235 283 339
#     4  10  19  34  59  87 114 148 190 237 283 339
#     4  10  18  32  55  82 113 147 182 227 287 341
#
# _framework density 18.734110000000001
#
# number of rings (size 3 to 8) (size 9 to 14) (size 15 to 20)
#    0.000    2.000    1.250    2.250    0.000    4.500 
#    2.250    0.000    0.000    0.000    0.000    0.000 
#    0.000    0.000    0.000    0.000    0.000    0.000 
#
# Total GULP energy -178449.385633 kJ/mol
# GULP energy per Si atom -5576.543301 kJ/mol
# Density = 1.869147 g / cm^3
# Si number density = 18.734110 Si / 1000 Ang^3
#
#
#
# Elastic Constant Matrix: (Units=GPa)
#
#
# Indices 1 2 3 4 5 6 
#
# 1 21.4938 28.4608 19.9255 0.0000 0.0000 0.0000
# 2 28.4608 153.4452 64.1734 0.0000 0.0000 0.0000
# 3 19.9255 64.1734 78.1932 0.0000 0.0000 0.0000
# 4 0.0000 0.0000 0.0000 25.0154 0.0000 0.0000
# 5 0.0000 0.0000 0.0000 0.0000 24.9635 0.0000
# 6 0.0000 0.0000 0.0000 0.0000 0.0000 18.6683
#
#
#
# Elastic Compliance Matrix: (Units=1/GPa)
#
#
# Indices 1 2 3 4 5 6 
#
# 1 0.066838 -0.008030 -0.010441 0.000000 0.000000 0.000000
# 2 -0.008030 0.010888 -0.006889 0.000000 0.000000 0.000000
# 3 -0.010441 -0.006889 0.021104 0.000000 0.000000 0.000000
# 4 0.000000 0.000000 0.000000 0.039975 0.000000 0.000000
# 5 0.000000 0.000000 0.000000 0.000000 0.040058 0.000000
# 6 0.000000 0.000000 0.000000 0.000000 0.000000 0.053567
#
#
# Mechanical properties :
#
#
# Convention : Reuss Voigt Hill
#
# Bulk Modulus (GPa) = 20.78686 53.13906 36.96296
# Shear Modulus (GPa) = 16.71195 23.10095 19.90645
#
# Velocity S-wave (km/s) = 2.98998 3.51536 3.26326
# Velocity P-wave (km/s) = 4.79998 6.70100 5.82852
#
# Compressibility (1/GPa) = 0.04810731
#
# Stress axis : x y z
#
# Youngs Moduli (GPa) = 14.96156 91.84769 47.38540
#
# Poissons Ratio (x) = 0.73756 0.49477
# Poissons Ratio (y) = 0.12014 0.32645
# Poissons Ratio (z) = 0.15622 0.63276
#
# Static dielectric constant tensor:
#      x y z
#    x 1.645830 0.000000 0.000000 
#    y 0.000000 1.662490 0.000000 
#    z 0.000000 0.000000 1.677060 
# 
# From -- ./inp_files/4191.got.cif
#   From: 2010.05.17/outbox.cif.g08.bks.cpg/sg26_3_cif.got.tgz:4191.got - 2010.06.04 01:07:29.
