data_PCOD9337711
_publ_section_title
;
Structure prediction by ZEFSAII (Michael W. Deem and Ramdas Pophale) SiO2 
 PCOD9337711
Probable space group: P M M 2
;
_chemical_formula_sum "Si O2"
_cell_formula_units_Z 32
_cell_length_a 8.364483
_cell_length_b 14.444058
_cell_length_c 13.490094
_cell_angle_alpha 90.000000
_cell_angle_beta 90.000000
_cell_angle_gamma 90.000000
_cell_volume 1629.833734
_symmetry_space_group_name_H-M "P M M 2"
_symmetry_group_IT_number 25
_symmetry_cell_setting 'orthorhombic'
loop_
_space_group_symop_operation_xyz
x,y,z
-x,-y,z
-x,y,z
x,-y,z
loop_
_atom_site_type_symbol
_atom_site_label
_atom_site_fract_x
_atom_site_fract_y
_atom_site_fract_z
Si Si1 0.304570 0.605200 0.659480
Si Si2 0.190469 0.893199 0.345035
Si Si3 0.682373 0.612484 0.440275
Si Si4 0.307513 0.107211 0.555569
Si Si5 0.811181 0.605583 0.226779
Si Si6 0.695707 0.107264 0.951934
Si Si7 0.304724 0.788085 0.754002
Si Si8 0.689809 0.789653 0.150365
O O1 0.500000 0.603323 0.655306
O O2 0.250849 0.500000 0.677359
O O3 0.254442 0.638103 0.549018
O O4 0.256898 0.681229 0.739747
O O5 0.253239 0.854006 0.449507
O O6 0.242956 0.838083 0.248542
O O7 0.000000 0.894307 0.349434
O O8 0.249153 0.000000 0.336962
O O9 0.500000 0.646758 0.428925
O O10 0.675962 0.500000 0.444836
O O11 0.777817 0.634350 0.341088
O O12 0.500000 0.108694 0.556392
O O13 0.252753 0.159129 0.654212
O O14 0.254211 0.000000 0.560021
O O15 0.750728 0.500000 0.214282
O O16 0.732851 0.681642 0.156806
O O17 0.000000 0.605623 0.210911
O O18 0.500000 0.107873 0.951507
O O19 0.749214 0.160941 0.853251
O O20 0.745241 0.000000 0.951354
O O21 0.749365 0.159653 0.051257
O O22 0.500000 0.790450 0.755111
O O23 0.500000 0.799483 0.152702
#
# Coordination Sequence:
#
# PCOD9337711 Si02
#       8
#     4   4   4   4   4   4   4   4
#     4   8  14  24  40  67 103 138 173 212 255 308
#     4  10  21  36  53  76 109 144 177 221 279 337
#     4   8  14  26  45  70 102 140 178 215 254 302
#     4   9  17  29  48  76 106 135 170 213 264 328
#     4  10  21  36  53  76 108 144 181 222 271 327
#     4   9  18  33  52  75 103 136 178 231 282 324
#     4   9  16  27  47  74 104 138 176 216 270 327
#     4  11  22  35  55  79 105 140 186 232 276 326
#
# _framework density 19.633904999999999
#
# number of rings (size 3 to 8) (size 9 to 14) (size 15 to 20)
#    0.000    2.750    0.000    2.625    1.750    3.500 
#    0.000    0.625    0.000    3.750    0.000    1.750 
#    0.000    2.000    0.000    0.000    0.000    0.000 
#
# Total GULP energy -178539.370773 kJ/mol
# GULP energy per Si atom -5579.355337 kJ/mol
# Density = 1.958922 g / cm^3
# Si number density = 19.633905 Si / 1000 Ang^3
#
#
#
# Elastic Constant Matrix: (Units=GPa)
#
#
# Indices 1 2 3 4 5 6 
#
# 1 6.2067 4.2662 11.0422 0.0000 0.0000 0.0000
# 2 4.2662 124.8399 92.7440 0.0000 0.0000 0.0000
# 3 11.0422 92.7440 159.8580 0.0000 0.0000 0.0000
# 4 0.0000 0.0000 0.0000 37.3715 0.0000 0.0000
# 5 0.0000 0.0000 0.0000 0.0000 -22.5383 0.0000
# 6 0.0000 0.0000 0.0000 0.0000 0.0000 15.5683
#
#
#
# Elastic Compliance Matrix: (Units=1/GPa)
#
#
# Indices 1 2 3 4 5 6 
#
# 1 0.185893 0.005601 -0.016090 0.000000 0.000000 0.000000
# 2 0.005601 0.014247 -0.008652 0.000000 0.000000 0.000000
# 3 -0.016090 -0.008652 0.012387 0.000000 0.000000 0.000000
# 4 0.000000 0.000000 0.000000 0.026758 0.000000 0.000000
# 5 0.000000 0.000000 0.000000 0.000000 -0.044369 0.000000
# 6 0.000000 0.000000 0.000000 0.000000 0.000000 0.064233
#
#
# Mechanical properties :
#
#
# Convention : Reuss Voigt Hill
#
# Bulk Modulus (GPa) = 5.73909 56.33437 31.03673
# Shear Modulus (GPa) = 14.06415 18.27043 16.16729
#
# Velocity S-wave (km/s) = 2.67932 3.05381 2.87267
# Velocity P-wave (km/s) = 3.53568 6.41787 5.18122
#
# Compressibility (1/GPa) = 0.17424370
#
# Stress axis : x y z
#
# Youngs Moduli (GPa) = 5.37943 70.19179 80.73153
#
# Poissons Ratio (x) = -0.39313 1.29897
# Poissons Ratio (y) = -0.03013 0.69851
# Poissons Ratio (z) = 0.08655 0.60732
#
# Static dielectric constant tensor:
#      x y z
#    x 1.669070 0.000000 0.000000 
#    y 0.000000 1.736560 0.000000 
#    z 0.000000 0.000000 1.671060 
# 
# From -- ./inp_files/4273.got.cif
#   From: 2010.05.17/outbox.cif.g08.bks.cpg/sg25_3_cif.got.tgz:4273.got - 2010.06.04 01:04:00.
