data_PCOD9337087
_publ_section_title
;
Structure prediction by ZEFSAII (Michael W. Deem and Ramdas Pophale) SiO2 
 PCOD9337087
Probable space group: I 21 21 21
;
_chemical_formula_sum "Si O2"
_cell_formula_units_Z 30
_cell_length_a 12.000000
_cell_length_b 27.000000
_cell_length_c 9.000000
_cell_angle_alpha 90.000000
_cell_angle_beta 90.000000
_cell_angle_gamma 90.000000
_cell_volume 2916.000000
_symmetry_space_group_name_H-M "I 21 21 21"
_symmetry_group_IT_number 24
_symmetry_cell_setting 'orthorhombic'
loop_
_space_group_symop_operation_xyz
x,y,z
-x,1/2-y,z
x,-y,1/2-z
1/2-x,y,-z
1/2+x,1/2+y,1/2+z
1/2-x,-y,1/2+z
1/2+x,1/2-y,-z
-x,1/2+y,1/2-z
loop_
_atom_site_type_symbol
_atom_site_label
_atom_site_fract_x
_atom_site_fract_y
_atom_site_fract_z
Si Si1 0.557513 0.694886 0.779704
Si Si2 0.490410 0.808635 0.121265
Si Si3 0.953091 0.979496 0.402928
Si Si4 0.711769 0.655872 0.328237
Si Si5 0.684377 0.868897 0.254319
Si Si6 0.750000 0.051493 0.500000
Si Si7 0.657915 0.460160 0.119956
Si Si8 0.400601 0.629821 0.589533
O O1 0.500000 0.750000 0.764573
O O2 0.689068 0.684414 0.759384
O O3 0.505054 0.660196 0.649696
O O4 0.534478 0.677497 0.949374
O O5 0.500000 0.750000 0.126410
O O6 0.400045 0.824844 0.245781
O O7 0.608334 0.832335 0.161679
O O8 0.902158 0.926770 0.358469
O O9 0.041376 0.965887 0.531062
O O10 0.006284 0.000000 0.250000
O O11 0.855175 0.016439 0.456552
O O12 0.750000 0.665740 0.500000
O O13 0.691577 0.595623 0.326494
O O14 0.619441 0.875819 0.412712
O O15 0.798449 0.846496 0.319015
O O16 0.711757 0.914421 0.141378
O O17 0.656672 0.500000 0.250000
O O18 0.750000 0.474483 0.000000
#
# Coordination Sequence:
#
# PCOD9337087 Si02
#       8
#     8   8   8   8   8   4   8   8
#     4  11  26  48  75 103 139 184 244 305 373 439
#     4  11  26  45  73 106 142 188 241 305 372 445
#     4  12  26  42  70 104 146 191 245 298 358 434
#     4  11  25  47  71 104 143 187 242 302 365 444
#     4  11  24  44  68 102 147 187 239 292 366 432
#     4  12  26  44  70 110 146 200 240 296 366 434
#     4  11  26  46  71 102 142 191 244 299 358 436
#     4  11  24  43  69 103 143 187 236 304 360 436
#
# _framework density 10.288066000000001
#
# number of rings (size 3 to 8) (size 9 to 14) (size 15 to 20)
#    0.000    0.800    1.333    5.600    5.600    3.200 
#    0.000    0.000    0.000    0.000    0.000    0.000 
#    0.000    0.000    0.000    0.000    0.000    0.000 
#
# Total GULP energy -167284.878271 kJ/mol
# GULP energy per Si atom -5576.162609 kJ/mol
# Density = 1.026465 g / cm^3
# Si number density = 10.288066 Si / 1000 Ang^3
#
#
#
# Elastic Constant Matrix: (Units=GPa)
#
#
# Indices 1 2 3 4 5 6 
#
# 1 112.9828 35.4002 24.7357 0.0000 0.0000 0.0000
# 2 35.4002 76.9827 40.1078 0.0003 0.0000 0.0000
# 3 24.7357 40.1078 110.7923 -0.0002 0.0012 -0.0001
# 4 0.0000 0.0003 -0.0002 35.0955 0.0004 0.0000
# 5 0.0000 0.0000 0.0012 0.0004 31.1701 -0.0001
# 6 0.0000 0.0000 -0.0001 0.0000 -0.0001 36.7250
#
#
#
# Elastic Compliance Matrix: (Units=1/GPa)
#
#
# Indices 1 2 3 4 5 6 
#
# 1 0.010388 -0.004398 -0.000727 0.000000 0.000000 0.000000
# 2 -0.004398 0.017871 -0.005488 0.000000 0.000000 0.000000
# 3 -0.000727 -0.005488 0.011175 0.000000 0.000000 0.000000
# 4 0.000000 0.000000 0.000000 0.028494 0.000000 0.000000
# 5 0.000000 0.000000 0.000000 0.000000 0.032082 0.000000
# 6 0.000000 0.000000 0.000000 0.000000 0.000000 0.027229
#
#
# Mechanical properties :
#
#
# Convention : Reuss Voigt Hill
#
# Bulk Modulus (GPa) = 54.91918 55.69389 55.30654
# Shear Modulus (GPa) = 32.35516 33.96574 33.16045
#
# Velocity S-wave (km/s) = 3.96973 4.06733 4.01883
# Velocity P-wave (km/s) = 6.91088 7.01310 6.96218
#
# Compressibility (1/GPa) = 0.01820857
#
# Stress axis : x y z
#
# Youngs Moduli (GPa) = 96.26370 55.95511 89.48687
#
# Poissons Ratio (x) = 0.24610 0.06507
# Poissons Ratio (y) = 0.42338 0.49108
# Poissons Ratio (z) = 0.07000 0.30706
#
# Static dielectric constant tensor:
#      x y z
#    x 1.781770 0.000000 0.000000 
#    y 0.000000 1.720890 0.000000 
#    z 0.000000 0.000000 1.749310 
# 
# From -- ./inp_files/11548.got.cif
#   From: 2010.05.17/outbox.ucp.g08.bks.cvg/sg24_6_cif.got.tgz:11548.got - 2010.06.11 15:20:44.
