data_PCOD9337237
_publ_section_title
;
Structure prediction by ZEFSAII (Michael W. Deem and Ramdas Pophale) SiO2 
 PCOD9337237
Probable space group: P M M 2
;
_chemical_formula_sum "Si O2"
_cell_formula_units_Z 32
_cell_length_a 8.867163
_cell_length_b 14.674731
_cell_length_c 15.968101
_cell_angle_alpha 90.000000
_cell_angle_beta 90.000000
_cell_angle_gamma 90.000000
_cell_volume 2077.820907
_symmetry_space_group_name_H-M "P M M 2"
_symmetry_group_IT_number 25
_symmetry_cell_setting 'orthorhombic'
loop_
_space_group_symop_operation_xyz
x,y,z
-x,-y,z
-x,y,z
x,-y,z
loop_
_atom_site_type_symbol
_atom_site_label
_atom_site_fract_x
_atom_site_fract_y
_atom_site_fract_z
Si Si1 0.826370 0.610607 0.278290
Si Si2 0.316699 0.898741 0.866125
Si Si3 0.318540 0.392601 0.765301
Si Si4 0.318263 0.392854 0.103399
Si Si5 0.179394 0.285571 0.608548
Si Si6 0.681177 0.104416 0.669698
Si Si7 0.316184 0.290779 0.936164
Si Si8 0.319920 0.607492 0.453555
O O1 0.822443 0.500000 0.276779
O O2 0.752304 0.639558 0.190811
O O3 0.737428 0.637224 0.361937
O O4 0.000000 0.639293 0.283563
O O5 0.500000 0.899669 0.869383
O O6 0.278848 0.883972 0.768219
O O7 0.264948 0.812788 0.920075
O O8 0.264506 0.000000 0.891053
O O9 0.500000 0.381132 0.756851
O O10 0.285529 0.500000 0.762357
O O11 0.240876 0.339714 0.689603
O O12 0.273970 0.350199 0.854833
O O13 0.500000 0.387041 0.109430
O O14 0.281110 0.500000 0.091098
O O15 0.266370 0.335921 0.022814
O O16 0.238004 0.182298 0.617465
O O17 0.244833 0.334380 0.526569
O O18 0.000000 0.288101 0.607274
O O19 0.500000 0.115532 0.663492
O O20 0.717635 0.000000 0.646566
O O21 0.500000 0.290724 0.938032
O O22 0.500000 0.615179 0.458130
O O23 0.281032 0.500000 0.464438
#
# Coordination Sequence:
#
# PCOD9337237 Si02
#       8
#     4   4   4   4   4   4   4   4
#     4   9  17  30  47  67  92 120 149 188 238 285
#     4   8  13  23  43  68  89 112 149 200 246 275
#     4  10  19  31  46  63  89 128 170 204 232 270
#     4   9  16  26  42  65  91 120 154 190 229 275
#     4  12  23  32  45  68  99 130 157 191 238 291
#     4   9  17  32  53  71  89 119 161 205 242 278
#     4   9  15  25  43  66  91 119 157 200 236 273
#     4  10  20  34  52  71  92 122 161 201 236 278
#
# _framework density 15.40075
#
# number of rings (size 3 to 8) (size 9 to 14) (size 15 to 20)
#    0.000    2.500    1.250    3.375    0.000    5.750 
#    0.000    0.625    0.000    1.500    0.000    0.875 
#    0.000    5.000    0.000    0.000    0.000    0.000 
#
# Total GULP energy -178395.866705 kJ/mol
# GULP energy per Si atom -5574.870835 kJ/mol
# Density = 1.536570 g / cm^3
# Si number density = 15.400750 Si / 1000 Ang^3
#
#
#
# Elastic Constant Matrix: (Units=GPa)
#
#
# Indices 1 2 3 4 5 6 
#
# 1 38.3565 44.6367 45.4527 0.0000 0.0000 0.0000
# 2 44.6367 108.5334 76.6794 0.0000 0.0000 0.0000
# 3 45.4527 76.6794 139.8256 0.0000 0.0000 0.0000
# 4 0.0000 0.0000 0.0000 8.3048 0.0000 0.0000
# 5 0.0000 0.0000 0.0000 0.0000 -15.6739 0.0000
# 6 0.0000 0.0000 0.0000 0.0000 0.0000 9.4168
#
#
#
# Elastic Compliance Matrix: (Units=1/GPa)
#
#
# Indices 1 2 3 4 5 6 
#
# 1 0.056378 -0.016715 -0.009160 0.000000 0.000000 0.000000
# 2 -0.016715 0.019997 -0.005533 0.000000 0.000000 0.000000
# 3 -0.009160 -0.005533 0.013164 0.000000 0.000000 0.000000
# 4 0.000000 0.000000 0.000000 0.120413 0.000000 0.000000
# 5 0.000000 0.000000 0.000000 0.000000 -0.063800 0.000000
# 6 0.000000 0.000000 0.000000 0.000000 0.000000 0.106193
#
#
# Mechanical properties :
#
#
# Convention : Reuss Voigt Hill
#
# Bulk Modulus (GPa) = 37.42147 68.91702 53.16924
# Shear Modulus (GPa) = 15.42890 8.40598 11.91744
#
# Velocity S-wave (km/s) = 3.16860 2.33881 2.78478
# Velocity P-wave (km/s) = 6.14312 7.22078 6.70364
#
# Compressibility (1/GPa) = 0.02672263
#
# Stress axis : x y z
#
# Youngs Moduli (GPa) = 17.73754 50.00749 75.96700
#
# Poissons Ratio (x) = 0.83586 0.69588
# Poissons Ratio (y) = 0.29648 0.42031
# Poissons Ratio (z) = 0.16248 0.27668
#
# Static dielectric constant tensor:
#      x y z
#    x 1.511280 0.000000 0.000000 
#    y 0.000000 1.513520 0.000000 
#    z 0.000000 0.000000 1.494230 
# 
# From -- ./inp_files/5664.got.cif
#   From: 2010.05.17/outbox.cif.g08.bks.cpg/sg25_3_cif.got.tgz:5664.got - 2010.06.04 01:04:00.
