data_PCOD9337906
_publ_section_title
;
Structure prediction by ZEFSAII (Michael W. Deem and Ramdas Pophale) SiO2 
 PCOD9337906
Probable space group: P M C 21
;
_chemical_formula_sum "Si O2"
_cell_formula_units_Z 20
_cell_length_a 15.167088
_cell_length_b 7.167398
_cell_length_c 6.961158
_cell_angle_alpha 90.000000
_cell_angle_beta 90.000000
_cell_angle_gamma 90.000000
_cell_volume 756.737436
_symmetry_space_group_name_H-M "P M C 21"
_symmetry_group_IT_number 26
_symmetry_cell_setting 'orthorhombic'
loop_
_space_group_symop_operation_xyz
x,y,z
-x,-y,1/2+z
-x,y,z
x,-y,1/2+z
loop_
_atom_site_type_symbol
_atom_site_label
_atom_site_fract_x
_atom_site_fract_y
_atom_site_fract_z
Si Si1 0.000000 0.223127 0.502410
Si Si2 0.500000 0.022968 0.673024
Si Si3 0.337846 0.215128 0.241194
Si Si4 0.810325 0.776536 0.007176
Si Si5 0.192390 0.339864 0.945188
Si Si6 0.500000 0.302757 0.446532
Si Si7 0.000000 0.659535 0.443692
O O1 0.905394 0.135520 0.458293
O O2 0.000000 0.255827 0.731314
O O3 0.000000 0.434533 0.421396
O O4 0.596069 0.928906 0.646247
O O5 0.500000 0.928438 0.906513
O O6 0.500000 0.253014 0.671375
O O7 0.272143 0.134063 0.401821
O O8 0.408496 0.357243 0.347549
O O9 0.273776 0.293829 0.079712
O O10 0.800217 0.751245 0.235139
O O11 0.809545 0.564000 0.927517
O O12 0.095100 0.291564 0.031197
#
# Coordination Sequence:
#
# PCOD9337906 Si02
#       7
#     2   2   4   4   4   2   2
#     4   8  16  24  40  72 106 153 177 195 221 271
#     4   8  20  40  56  72  94 112 175 232 282 312
#     4   9  20  33  54  80  94 137 172 211 274 304
#     4  10  17  29  48  76 119 145 173 197 231 301
#     4  10  17  29  48  76 119 145 173 197 231 301
#     4   8  20  40  56  72  94 112 175 232 282 312
#     4   8  16  24  40  72 106 153 177 195 221 271
#
# _framework density 26.429248999999999
#
# number of rings (size 3 to 8) (size 9 to 14) (size 15 to 20)
#    1.200    1.600    2.000    0.000    2.800    1.600 
#    0.000    5.000    0.000    0.000    0.000    5.600 
#    0.000    0.000    0.000    0.000    0.000    0.000 
#
# Total GULP energy -111478.411085 kJ/mol
# GULP energy per Si atom -5573.920554 kJ/mol
# Density = 2.636909 g / cm^3
# Si number density = 26.429249 Si / 1000 Ang^3
#
#
#
# Elastic Constant Matrix: (Units=GPa)
#
#
# Indices 1 2 3 4 5 6 
#
# 1 282.2929 40.2507 64.4100 0.0000 0.0000 0.0000
# 2 40.2507 75.6415 19.0074 0.0000 0.0000 0.0000
# 3 64.4100 19.0074 99.2608 0.0000 0.0000 0.0000
# 4 0.0000 0.0000 0.0000 5.6660 0.0000 0.0000
# 5 0.0000 0.0000 0.0000 0.0000 46.0820 0.0000
# 6 0.0000 0.0000 0.0000 0.0000 0.0000 55.9263
#
#
#
# Elastic Compliance Matrix: (Units=1/GPa)
#
#
# Indices 1 2 3 4 5 6 
#
# 1 0.004354 -0.001688 -0.002502 0.000000 0.000000 0.000000
# 2 -0.001688 0.014543 -0.001689 0.000000 0.000000 0.000000
# 3 -0.002502 -0.001689 0.012022 0.000000 0.000000 0.000000
# 4 0.000000 0.000000 0.000000 0.176490 0.000000 0.000000
# 5 0.000000 0.000000 0.000000 0.000000 0.021700 0.000000
# 6 0.000000 0.000000 0.000000 0.000000 0.000000 0.017881
#
#
# Mechanical properties :
#
#
# Convention : Reuss Voigt Hill
#
# Bulk Modulus (GPa) = 52.19363 78.28127 65.23745
# Shear Modulus (GPa) = 18.85828 43.77000 31.31414
#
# Velocity S-wave (km/s) = 2.67411 4.07396 3.44587
# Velocity P-wave (km/s) = 5.41533 7.19813 6.36941
#
# Compressibility (1/GPa) = 0.01915943
#
# Stress axis : x y z
#
# Youngs Moduli (GPa) = 229.67348 68.76115 83.18409
#
# Poissons Ratio (x) = 0.11608 0.20813
# Poissons Ratio (y) = 0.38773 0.14053
# Poissons Ratio (z) = 0.57465 0.11617
#
# Static dielectric constant tensor:
#      x y z
#    x 2.069670 0.000000 0.000000 
#    y 0.000000 2.197270 0.000000 
#    z 0.000000 0.000000 2.301590 
# 
# From -- ./inp_files/2057.got.cif
#   From: 2010.05.17/outbox.cif.g08.bks.cpg/sg26_2_cif.got.tgz:2057.got - 2010.06.04 01:07:29.
