data_PCOD9337181
_publ_section_title
;
Structure prediction by ZEFSAII (Michael W. Deem and Ramdas Pophale) SiO2 
 PCOD9337181
Probable space group: P M M 2
;
_chemical_formula_sum "Si O2"
_cell_formula_units_Z 32
_cell_length_a 8.466611
_cell_length_b 15.176988
_cell_length_c 12.704139
_cell_angle_alpha 90.000000
_cell_angle_beta 90.000000
_cell_angle_gamma 90.000000
_cell_volume 1632.452052
_symmetry_space_group_name_H-M "P M M 2"
_symmetry_group_IT_number 25
_symmetry_cell_setting 'orthorhombic'
loop_
_space_group_symop_operation_xyz
x,y,z
-x,-y,z
-x,y,z
x,-y,z
loop_
_atom_site_type_symbol
_atom_site_label
_atom_site_fract_x
_atom_site_fract_y
_atom_site_fract_z
Si Si1 0.811864 0.597337 0.153430
Si Si2 0.191153 0.897647 0.883857
Si Si3 0.814078 0.181612 0.448047
Si Si4 0.310842 0.779491 0.076324
Si Si5 0.688355 0.095411 0.261045
Si Si6 0.810356 0.784995 0.683741
Si Si7 0.690723 0.403795 0.621230
Si Si8 0.314933 0.635419 0.384217
O O1 0.757849 0.500000 0.118719
O O2 0.739442 0.678197 0.088433
O O3 0.768792 0.606406 0.277374
O O4 0.000000 0.602208 0.143587
O O5 0.246572 0.846803 0.778242
O O6 0.000000 0.900104 0.882041
O O7 0.245348 0.000000 0.890663
O O8 0.243973 0.835819 0.979948
O O9 0.775065 0.101744 0.372100
O O10 0.770114 0.173502 0.569998
O O11 0.712482 0.260845 0.399060
O O12 0.000000 0.203808 0.442744
O O13 0.500000 0.784044 0.072681
O O14 0.255813 0.829084 0.182356
O O15 0.500000 0.104284 0.277231
O O16 0.716503 0.000000 0.210915
O O17 0.750935 0.683830 0.679209
O O18 0.000000 0.781080 0.690897
O O19 0.500000 0.399534 0.620584
O O20 0.738343 0.500000 0.664162
O O21 0.741733 0.400264 0.497809
O O22 0.500000 0.614662 0.373319
#
# Coordination Sequence:
#
# PCOD9337181 Si02
#       8
#     4   4   4   4   4   4   4   4
#     4  11  23  37  56  85 119 154 194 238 284 340
#     4  10  22  42  66  87 111 148 194 244 297 350
#     4  10  19  32  53  82 117 154 192 234 284 340
#     4  11  23  40  62  86 115 150 192 243 292 344
#     4  10  21  36  54  80 115 152 186 228 289 352
#     4   9  20  37  57  84 115 148 191 241 290 341
#     4   9  18  32  52  81 117 156 196 235 279 336
#     4  10  18  31  52  79 115 158 198 234 279 336
#
# _framework density 19.602414
#
# number of rings (size 3 to 8) (size 9 to 14) (size 15 to 20)
#    0.000    2.000    1.250    2.250    0.000    5.250 
#    0.000    1.875    0.000    0.750    0.000    0.000 
#    0.000    0.000    0.000    0.000    0.000    0.000 
#
# Total GULP energy -178504.370914 kJ/mol
# GULP energy per Si atom -5578.261591 kJ/mol
# Density = 1.955780 g / cm^3
# Si number density = 19.602414 Si / 1000 Ang^3
#
#
#
# Elastic Constant Matrix: (Units=GPa)
#
#
# Indices 1 2 3 4 5 6 
#
# 1 16.4440 22.7617 18.6433 0.0000 0.0000 0.0000
# 2 22.7617 163.8942 76.7384 0.0000 0.0000 0.0000
# 3 18.6433 76.7384 111.2803 0.0000 0.0000 0.0000
# 4 0.0000 0.0000 0.0000 13.4519 0.0000 0.0000
# 5 0.0000 0.0000 0.0000 0.0000 19.3240 0.0000
# 6 0.0000 0.0000 0.0000 0.0000 0.0000 21.8469
#
#
#
# Elastic Compliance Matrix: (Units=1/GPa)
#
#
# Indices 1 2 3 4 5 6 
#
# 1 0.080409 -0.007177 -0.008522 0.000000 0.000000 0.000000
# 2 -0.007177 0.009652 -0.005453 0.000000 0.000000 0.000000
# 3 -0.008522 -0.005453 0.014175 0.000000 0.000000 0.000000
# 4 0.000000 0.000000 0.000000 0.074339 0.000000 0.000000
# 5 0.000000 0.000000 0.000000 0.000000 0.051749 0.000000
# 6 0.000000 0.000000 0.000000 0.000000 0.000000 0.045773
#
#
# Mechanical properties :
#
#
# Convention : Reuss Voigt Hill
#
# Bulk Modulus (GPa) = 16.14720 58.65613 37.40166
# Shear Modulus (GPa) = 14.74735 22.48956 18.61846
#
# Velocity S-wave (km/s) = 2.74583 3.39083 3.08523
# Velocity P-wave (km/s) = 4.27878 6.73188 5.64031
#
# Compressibility (1/GPa) = 0.06193024
#
# Stress axis : x y z
#
# Youngs Moduli (GPa) = 12.43648 103.60996 70.54874
#
# Poissons Ratio (x) = 0.74361 0.60121
# Poissons Ratio (y) = 0.08926 0.38472
# Poissons Ratio (z) = 0.10598 0.56501
#
# Static dielectric constant tensor:
#      x y z
#    x 1.678640 0.000000 0.000000 
#    y 0.000000 1.743340 0.000000 
#    z 0.000000 0.000000 1.685460 
# 
# From -- ./inp_files/4174.got.cif
#   From: 2010.05.17/outbox.cif.g08.bks.cpg/sg25_3_cif.got.tgz:4174.got - 2010.06.04 01:04:00.
