data_PCOD9337151
_publ_section_title
;
Structure prediction by ZEFSAII (Michael W. Deem and Ramdas Pophale) SiO2 
 PCOD9337151
Probable space group: P M M 2
;
_chemical_formula_sum "Si O2"
_cell_formula_units_Z 24
_cell_length_a 12.725742
_cell_length_b 7.695492
_cell_length_c 14.751098
_cell_angle_alpha 90.000000
_cell_angle_beta 90.000000
_cell_angle_gamma 90.000000
_cell_volume 1444.587503
_symmetry_space_group_name_H-M "P M M 2"
_symmetry_group_IT_number 25
_symmetry_cell_setting 'orthorhombic'
loop_
_space_group_symop_operation_xyz
x,y,z
-x,-y,z
-x,y,z
x,-y,z
loop_
_atom_site_type_symbol
_atom_site_label
_atom_site_fract_x
_atom_site_fract_y
_atom_site_fract_z
Si Si1 0.119602 0.209937 0.700010
Si Si2 0.128228 0.800370 0.900709
Si Si3 0.735306 0.800257 0.334266
Si Si4 0.872682 0.500000 0.034339
Si Si5 0.277346 0.706291 0.542060
Si Si6 0.500000 0.303019 0.562582
Si Si7 0.500000 0.790661 0.354930
Si Si8 0.872867 0.500000 0.246771
O O1 0.159983 0.261736 0.799908
O O2 0.187777 0.267654 0.615458
O O3 0.000000 0.272223 0.690146
O O4 0.117581 0.000000 0.701455
O O5 0.162880 0.669951 0.979052
O O6 0.000000 0.801325 0.898919
O O7 0.161381 0.000000 0.915063
O O8 0.742885 0.789114 0.444013
O O9 0.613384 0.750507 0.311287
O O10 0.818260 0.667886 0.291890
O O11 0.752956 0.000000 0.306553
O O12 0.000000 0.500000 0.030254
O O13 0.846539 0.500000 0.139872
O O14 0.290643 0.500000 0.525417
O O15 0.387111 0.776943 0.583557
O O16 0.500000 0.500000 0.598304
O O17 0.500000 0.300499 0.452662
O O18 0.500000 0.000000 0.370264
O O19 0.000000 0.500000 0.258004
#
# Coordination Sequence:
#
# PCOD9337151 Si02
#       8
#     4   4   4   2   4   2   2   2
#     4   9  18  30  44  68 100 130 161 194 235 290
#     4   8  15  29  48  69  92 120 158 204 246 280
#     4  10  20  36  54  74 102 134 169 213 252 287
#     4   9  18  32  50  68  91 122 162 205 243 289
#     4  10  18  30  48  71  99 132 166 201 239 285
#     4   8  16  28  44  66  94 125 160 204 245 275
#     4   8  16  30  54  78  90 117 170 219 258 288
#     4  11  24  37  48  74 105 135 173 199 239 317
#
# _framework density 16.613738999999999
#
# number of rings (size 3 to 8) (size 9 to 14) (size 15 to 20)
#    0.000    2.833    0.833    1.500    2.333    2.667 
#    0.000    1.667    0.000    0.000    0.000    2.333 
#    0.000    0.000    0.000    0.000    0.000    0.000 
#
# Total GULP energy -133620.517178 kJ/mol
# GULP energy per Si atom -5567.521549 kJ/mol
# Density = 1.657593 g / cm^3
# Si number density = 16.613739 Si / 1000 Ang^3
#
#
#
# Elastic Constant Matrix: (Units=GPa)
#
#
# Indices 1 2 3 4 5 6 
#
# 1 89.6549 35.9421 49.8934 0.0000 0.0000 0.0000
# 2 35.9421 72.9431 34.2841 0.0000 0.0000 0.0000
# 3 49.8934 34.2841 90.1179 0.0000 0.0000 0.0000
# 4 0.0000 0.0000 0.0000 -101.0947 0.0000 0.0000
# 5 0.0000 0.0000 0.0000 0.0000 -3.6136 0.0000
# 6 0.0000 0.0000 0.0000 0.0000 0.0000 8.9048
#
#
#
# Elastic Compliance Matrix: (Units=1/GPa)
#
#
# Indices 1 2 3 4 5 6 
#
# 1 0.017474 -0.004948 -0.007792 0.000000 0.000000 0.000000
# 2 -0.004948 0.018095 -0.004145 0.000000 0.000000 0.000000
# 3 -0.007792 -0.004145 0.016987 0.000000 0.000000 0.000000
# 4 0.000000 0.000000 0.000000 -0.009892 0.000000 0.000000
# 5 0.000000 0.000000 0.000000 0.000000 -0.276731 0.000000
# 6 0.000000 0.000000 0.000000 0.000000 0.000000 0.112299
#
#
# Mechanical properties :
#
#
# Convention : Reuss Voigt Hill
#
# Bulk Modulus (GPa) = 53.22702 54.77278 53.99990
# Shear Modulus (GPa) = -61.17258 -10.32094 -35.74676
#
# Velocity S-wave (km/s) = -6.07457 -2.49515 -4.64361
# Velocity P-wave (km/s) = 4.13437 4.97382 1.95523
#
# Compressibility (1/GPa) = 0.01878745
#
# Stress axis : x y z
#
# Youngs Moduli (GPa) = 57.22922 55.26273 58.86723
#
# Poissons Ratio (x) = 0.27342 0.45869
# Poissons Ratio (y) = 0.28315 0.24400
# Poissons Ratio (z) = 0.44592 0.22906
#
# Static dielectric constant tensor:
#      x y z
#    x 1.588990 0.000000 0.000000 
#    y 0.000000 1.632630 0.000000 
#    z 0.000000 0.000000 1.532820 
# 
# From -- ./inp_files/4576.got.cif
#   From: 2010.05.17/outbox.cif.g08.bks.cpg/sg25_3_cif.got.tgz:4576.got - 2010.06.04 01:04:00.
