data_PCOD9337754
_publ_section_title
;
Structure prediction by ZEFSAII (Michael W. Deem and Ramdas Pophale) SiO2 
 PCOD9337754
Probable space group: P M M 2
;
_chemical_formula_sum "Si O2"
_cell_formula_units_Z 28
_cell_length_a 21.388022
_cell_length_b 7.492258
_cell_length_c 7.746137
_cell_angle_alpha 90.000000
_cell_angle_beta 90.000000
_cell_angle_gamma 90.000000
_cell_volume 1241.276462
_symmetry_space_group_name_H-M "P M M 2"
_symmetry_group_IT_number 25
_symmetry_cell_setting 'orthorhombic'
loop_
_space_group_symop_operation_xyz
x,y,z
-x,-y,z
-x,y,z
x,-y,z
loop_
_atom_site_type_symbol
_atom_site_label
_atom_site_fract_x
_atom_site_fract_y
_atom_site_fract_z
Si Si1 0.163830 0.784264 0.444470
Si Si2 0.298259 0.797858 0.422207
Si Si3 0.070033 0.209647 0.155750
Si Si4 0.566749 0.283663 0.957263
Si Si5 0.299049 0.717902 0.816009
Si Si6 0.433222 0.206837 0.357947
Si Si7 0.836256 0.710766 0.853880
O O1 0.231347 0.716334 0.373796
O O2 0.109759 0.717211 0.317558
O O3 0.154586 0.744909 0.648241
O O4 0.167602 0.000000 0.433215
O O5 0.292843 0.799508 0.627667
O O6 0.365776 0.708776 0.395248
O O7 0.302180 0.000000 0.350293
O O8 0.000000 0.284177 0.138252
O O9 0.063875 0.000000 0.192651
O O10 0.110250 0.221094 0.980465
O O11 0.500000 0.231380 0.872174
O O12 0.567961 0.500000 0.960821
O O13 0.633354 0.225338 0.884202
O O14 0.564063 0.214402 0.151702
O O15 0.299301 0.500000 0.805317
O O16 0.234085 0.772316 0.906957
O O17 0.500000 0.283913 0.420955
O O18 0.431324 0.000000 0.417096
O O19 0.836684 0.500000 0.875208
#
# Coordination Sequence:
#
# PCOD9337754 Si02
#       7
#     4   4   4   4   4   4   4
#     4   9  19  37  58  81 111 147 187 229 271 320
#     4   9  18  32  50  73  99 132 173 215 261 312
#     4  10  22  39  60  86 112 143 184 225 269 325
#     4   9  18  32  48  68  97 134 175 216 258 307
#     4   9  19  34  50  73 103 135 173 216 261 310
#     4   9  18  31  46  69 101 133 168 214 265 312
#     4  10  21  37  57  84 117 149 181 224 278 329
#
# _framework density 22.557423
#
# number of rings (size 3 to 8) (size 9 to 14) (size 15 to 20)
#    0.000    2.714    0.000    0.429    2.000    3.714 
#    0.000    1.429    0.000    0.000    0.000    0.000 
#    0.000    0.000    0.000    0.000    0.000    0.000 
#
# Total GULP energy -155991.231107 kJ/mol
# GULP energy per Si atom -5571.115397 kJ/mol
# Density = 2.250608 g / cm^3
# Si number density = 22.557423 Si / 1000 Ang^3
#
#
#
# Elastic Constant Matrix: (Units=GPa)
#
#
# Indices 1 2 3 4 5 6 
#
# 1 263.5294 17.8360 69.7433 0.0000 0.0000 0.0000
# 2 17.8360 66.0643 -7.7668 0.0000 0.0000 0.0000
# 3 69.7433 -7.7668 60.0698 0.0000 0.0000 0.0000
# 4 0.0000 0.0000 0.0000 9.2300 0.0000 0.0000
# 5 0.0000 0.0000 0.0000 0.0000 48.5580 0.0000
# 6 0.0000 0.0000 0.0000 0.0000 0.0000 60.2510
#
#
#
# Elastic Compliance Matrix: (Units=1/GPa)
#
#
# Indices 1 2 3 4 5 6 
#
# 1 0.005832 -0.002407 -0.007082 0.000000 0.000000 0.000000
# 2 -0.002407 0.016364 0.004911 0.000000 0.000000 0.000000
# 3 -0.007082 0.004911 0.025505 0.000000 0.000000 0.000000
# 4 0.000000 0.000000 0.000000 0.108343 0.000000 0.000000
# 5 0.000000 0.000000 0.000000 0.000000 0.020594 0.000000
# 6 0.000000 0.000000 0.000000 0.000000 0.000000 0.016597
#
#
# Mechanical properties :
#
#
# Convention : Reuss Voigt Hill
#
# Bulk Modulus (GPa) = 25.94493 61.03206 43.48850
# Shear Modulus (GPa) = 23.22989 44.26453 33.74721
#
# Velocity S-wave (km/s) = 3.21255 4.43460 3.87209
# Velocity P-wave (km/s) = 5.02865 7.30314 6.26990
#
# Compressibility (1/GPa) = 0.03854317
#
# Stress axis : x y z
#
# Youngs Moduli (GPa) = 171.47089 61.10996 39.20800
#
# Poissons Ratio (x) = 0.14710 0.27768
# Poissons Ratio (y) = 0.41275 -0.19253
# Poissons Ratio (z) = 1.21440 -0.30008
#
# Static dielectric constant tensor:
#      x y z
#    x 1.962960 0.000000 0.000000 
#    y 0.000000 2.077570 0.000000 
#    z 0.000000 0.000000 1.793070 
# 
# From -- ./inp_files/3560.got.cif
#   From: 2010.05.17/outbox.cif.g08.bks.cpg/sg25_2_cif.got.tgz:3560.got - 2010.06.04 01:04:00.
