data_PCOD9337017
_publ_section_title
;
Structure prediction by ZEFSAII (Michael W. Deem and Ramdas Pophale) SiO2 
 PCOD9337017
Probable space group: I 21 21 21
;
_chemical_formula_sum "Si O2"
_cell_formula_units_Z 24
_cell_length_a 14.094148
_cell_length_b 5.147081
_cell_length_c 13.282558
_cell_angle_alpha 90.000000
_cell_angle_beta 90.000000
_cell_angle_gamma 90.000000
_cell_volume 963.566187
_symmetry_space_group_name_H-M "I 21 21 21"
_symmetry_group_IT_number 24
_symmetry_cell_setting 'orthorhombic'
loop_
_space_group_symop_operation_xyz
x,y,z
-x,1/2-y,z
x,-y,1/2-z
1/2-x,y,-z
1/2+x,1/2+y,1/2+z
1/2-x,-y,1/2+z
1/2+x,1/2-y,-z
-x,1/2+y,1/2-z
loop_
_atom_site_type_symbol
_atom_site_label
_atom_site_fract_x
_atom_site_fract_y
_atom_site_fract_z
Si Si1 0.344399 0.443482 0.557186
Si Si2 0.609544 0.500000 0.250000
Si Si3 0.000000 0.750000 0.180021
Si Si4 0.000000 0.250000 0.926948
Si Si5 0.762466 0.000000 0.750000
O O1 0.250000 0.354206 0.500000
O O2 0.409710 0.223070 0.606718
O O3 0.416162 0.618349 0.491960
O O4 0.301156 0.583096 0.655375
O O5 0.547385 0.451612 0.150717
O O6 0.672451 0.247140 0.271490
O O7 0.007101 0.500000 0.250000
#
# Coordination Sequence:
#
# PCOD9337017 Si02
#       5
#     8   4   4   4   4
#     4  12  29  54  83 130 165 229 276 352 417 505
#     4  12  29  56  83 124 166 224 277 360 403 506
#     4  12  29  57  84 118 172 224 275 347 416 498
#     4  12  29  55  90 122 172 222 285 345 428 494
#     4  12  29  56  83 120 174 218 285 344 421 492
#
# _framework density 24.907475000000002
#
# number of rings (size 3 to 8) (size 9 to 14) (size 15 to 20)
#    0.000    0.000    5.000    2.000    7.000    0.000 
#    0.000    0.000    0.000    0.000    0.000    0.000 
#    0.000    0.000    0.000    0.000    0.000    0.000 
#
# Total GULP energy -67275.807121 kJ/mol
# GULP energy per Si atom -5606.317260 kJ/mol
# Density = 2.485078 g / cm^3
# Si number density = 24.907475 Si / 1000 Ang^3
#
#
#
# Elastic Constant Matrix: (Units=GPa)
#
#
# Indices 1 2 3 4 5 6 
#
# 1 226.2131 76.6777 112.4348 0.0000 0.0000 0.0000
# 2 76.6777 138.4325 57.8850 0.0000 0.0000 0.0000
# 3 112.4348 57.8850 187.2139 0.0000 0.0000 0.0000
# 4 0.0000 0.0000 0.0000 34.9542 0.0000 0.0000
# 5 0.0000 0.0000 0.0000 0.0000 11.3786 0.0000
# 6 0.0000 0.0000 0.0000 0.0000 0.0000 26.6750
#
#
#
# Elastic Compliance Matrix: (Units=1/GPa)
#
#
# Indices 1 2 3 4 5 6 
#
# 1 0.006939 -0.002413 -0.003421 0.000000 0.000000 0.000000
# 2 -0.002413 0.009135 -0.001375 0.000000 0.000000 0.000000
# 3 -0.003421 -0.001375 0.007821 0.000000 0.000000 0.000000
# 4 0.000000 0.000000 0.000000 0.028609 0.000000 0.000000
# 5 0.000000 0.000000 0.000000 0.000000 0.087885 0.000000
# 6 0.000000 0.000000 0.000000 0.000000 0.000000 0.037488
#
#
# Mechanical properties :
#
#
# Convention : Reuss Voigt Hill
#
# Bulk Modulus (GPa) = 105.52379 116.20605 110.86492
# Shear Modulus (GPa) = 25.58125 34.92569 30.25347
#
# Velocity S-wave (km/s) = 3.20824 3.74868 3.48894
# Velocity P-wave (km/s) = 7.49547 8.09279 7.79985
#
# Compressibility (1/GPa) = 0.00947654
#
# Stress axis : x y z
#
# Youngs Moduli (GPa) = 144.11351 109.46441 127.85292
#
# Poissons Ratio (x) = 0.26413 0.43742
# Poissons Ratio (y) = 0.34773 0.17586
# Poissons Ratio (z) = 0.49305 0.15057
#
# Static dielectric constant tensor:
#      x y z
#    x 2.013270 0.000000 0.000000 
#    y 0.000000 1.968170 0.000000 
#    z 0.000000 0.000000 2.006830 
# 
# From -- ./inp_files/2891.got.cif
#   From: 2010.05.17/outbox.cif.g08.bks.cpg/sg24_2_cif.got.tgz:2891.got - 2010.06.04 00:33:39.
