data_PCOD9337948
_publ_section_title
;
Structure prediction by ZEFSAII (Michael W. Deem and Ramdas Pophale) SiO2 
 PCOD9337948
Probable space group: P M C 21
;
_chemical_formula_sum "Si O2"
_cell_formula_units_Z 32
_cell_length_a 9.047722
_cell_length_b 21.342388
_cell_length_c 9.843018
_cell_angle_alpha 90.000000
_cell_angle_beta 90.000000
_cell_angle_gamma 90.000000
_cell_volume 1900.686711
_symmetry_space_group_name_H-M "P M C 21"
_symmetry_group_IT_number 26
_symmetry_cell_setting 'orthorhombic'
loop_
_space_group_symop_operation_xyz
x,y,z
-x,-y,1/2+z
-x,y,z
x,-y,1/2+z
loop_
_atom_site_type_symbol
_atom_site_label
_atom_site_fract_x
_atom_site_fract_y
_atom_site_fract_z
Si Si1 0.824264 0.997390 0.705330
Si Si2 0.176673 0.740465 0.750916
Si Si3 0.324528 0.397800 0.750915
Si Si4 0.176032 0.636509 0.526071
Si Si5 0.672896 0.050322 0.950917
Si Si6 0.176415 0.466788 0.251248
Si Si7 0.823294 0.637991 0.974762
Si Si8 0.327176 0.128518 0.201030
O O1 0.760388 0.047271 0.811020
O O2 0.768417 0.929243 0.759698
O O3 0.000000 0.999749 0.694054
O O4 0.746509 0.998527 0.557790
O O5 0.208460 0.696082 0.621361
O O6 0.264064 0.804881 0.741507
O O7 0.000000 0.752176 0.751732
O O8 0.212090 0.698548 0.883034
O O9 0.500000 0.397682 0.749333
O O10 0.263474 0.468880 0.752471
O O11 0.260938 0.365895 0.615563
O O12 0.263576 0.365458 0.886822
O O13 0.208271 0.575160 0.618156
O O14 0.000000 0.635841 0.499208
O O15 0.500000 0.036790 0.929696
O O16 0.684918 0.885486 0.538199
O O17 0.209552 0.422792 0.380936
O O18 0.000000 0.479636 0.252435
O O19 0.000000 0.637588 0.998115
O O20 0.500000 0.121376 0.236017
#
# Coordination Sequence:
#
# PCOD9337948 Si02
#       8
#     4   4   4   4   4   4   4   4
#     4  10  18  30  52  80 107 138 176 212 244 288
#     4   9  18  35  58  77  93 122 175 221 245 290
#     4  12  23  31  45  73 105 131 159 203 257 306
#     4   9  19  35  54  73  95 129 167 208 254 298
#     4   9  18  32  50  77 111 142 168 202 257 306
#     4   9  18  34  54  73  93 126 169 205 249 308
#     4   9  19  35  54  73  95 129 167 208 254 298
#     4   9  19  32  53  78 107 141 167 201 256 308
#
# _framework density 16.836020000000001
#
# number of rings (size 3 to 8) (size 9 to 14) (size 15 to 20)
#    0.750    1.750    0.000    4.875    0.000    5.000 
#    0.000    2.500    2.750    0.000    0.000    0.000 
#    0.000    0.000    0.000    0.000    0.000    0.000 
#
# Total GULP energy -178279.491705 kJ/mol
# GULP energy per Si atom -5571.234116 kJ/mol
# Density = 1.679770 g / cm^3
# Si number density = 16.836020 Si / 1000 Ang^3
#
#
#
# Elastic Constant Matrix: (Units=GPa)
#
#
# Indices 1 2 3 4 5 6 
#
# 1 65.3978 13.6637 32.8107 0.0000 0.0000 0.0000
# 2 13.6637 34.7883 -1.8049 0.0000 0.0000 0.0000
# 3 32.8107 -1.8049 85.6866 0.0000 0.0000 0.0000
# 4 0.0000 0.0000 0.0000 -0.1068 0.0000 0.0000
# 5 0.0000 0.0000 0.0000 0.0000 7.4883 0.0000
# 6 0.0000 0.0000 0.0000 0.0000 0.0000 -2.8191
#
#
#
# Elastic Compliance Matrix: (Units=1/GPa)
#
#
# Indices 1 2 3 4 5 6 
#
# 1 0.021320 -0.008807 -0.008349 0.000000 0.000000 0.000000
# 2 -0.008807 0.032415 0.004055 0.000000 0.000000 0.000000
# 3 -0.008349 0.004055 0.014953 0.000000 0.000000 0.000000
# 4 0.000000 0.000000 0.000000 -9.365013 0.000000 0.000000
# 5 0.000000 0.000000 0.000000 0.000000 0.133542 0.000000
# 6 0.000000 0.000000 0.000000 0.000000 0.000000 -0.354718
#
#
# Mechanical properties :
#
#
# Convention : Reuss Voigt Hill
#
# Bulk Modulus (GPa) = 23.53749 30.57908 27.05828
# Shear Modulus (GPa) = -0.52759 10.32601 4.89921
#
# Velocity S-wave (km/s) = -0.56040 2.47923 1.70771
# Velocity P-wave (km/s) = 3.68674 5.13788 4.47157
#
# Compressibility (1/GPa) = 0.04248542
#
# Stress axis : x y z
#
# Youngs Moduli (GPa) = 46.90429 30.85011 66.87667
#
# Poissons Ratio (x) = 0.27170 0.55837
# Poissons Ratio (y) = 0.41309 -0.27119
# Poissons Ratio (z) = 0.39162 -0.12510
#
# Static dielectric constant tensor:
#      x y z
#    x 1.551060 0.000000 0.000000 
#    y 0.000000 1.558440 0.000000 
#    z 0.000000 0.000000 1.572490 
# 
# From -- ./inp_files/1619.got.cif
#   From: 2010.05.17/outbox.cif.g08.bks.cpg/sg26_1_cif.got.tgz:1619.got - 2010.06.04 01:07:29.
