data_PCOD9337653
_publ_section_title
;
Structure prediction by ZEFSAII (Michael W. Deem and Ramdas Pophale) SiO2 
 PCOD9337653
Probable space group: P M M 2
;
_chemical_formula_sum "Si O2"
_cell_formula_units_Z 32
_cell_length_a 15.498739
_cell_length_b 17.263484
_cell_length_c 6.857185
_cell_angle_alpha 90.000000
_cell_angle_beta 90.000000
_cell_angle_gamma 90.000000
_cell_volume 1834.723729
_symmetry_space_group_name_H-M "P M M 2"
_symmetry_group_IT_number 25
_symmetry_cell_setting 'orthorhombic'
loop_
_space_group_symop_operation_xyz
x,y,z
-x,-y,z
-x,y,z
x,-y,z
loop_
_atom_site_type_symbol
_atom_site_label
_atom_site_fract_x
_atom_site_fract_y
_atom_site_fract_z
Si Si1 0.598074 0.197549 0.531740
Si Si2 0.324435 0.699689 0.867645
Si Si3 0.824435 0.199689 0.072948
Si Si4 0.098114 0.848362 0.676216
Si Si5 0.746259 0.410151 0.531498
Si Si6 0.246259 0.089849 0.409095
Si Si7 0.598114 0.651638 0.264377
Si Si8 0.098074 0.697549 0.408853
O O1 0.500000 0.168677 0.534708
O O2 0.620399 0.243094 0.730559
O O3 0.669288 0.132710 0.492393
O O4 0.605581 0.263054 0.363265
O O5 0.283165 0.636049 0.724419
O O6 0.250000 0.750000 0.970297
O O7 0.379890 0.660540 0.037708
O O8 0.783165 0.136049 0.216174
O O9 0.879601 0.256906 0.210034
O O10 0.879890 0.160540 0.902885
O O11 0.169085 0.899100 0.565213
O O12 0.105581 0.763054 0.577328
O O13 0.000000 0.875257 0.645429
O O14 0.761627 0.500000 0.569561
O O15 0.669085 0.399100 0.375380
O O16 0.830712 0.367290 0.448200
O O17 0.261627 0.000000 0.371031
O O18 0.500000 0.624743 0.295164
O O19 0.000000 0.668677 0.405886
#
# Coordination Sequence:
#
# PCOD9337653 Si02
#       8
#     4   4   4   4   4   4   4   4
#     4  10  20  36  60  86 110 146 194 234 275 339
#     4  11  18  37  62  85 108 146 200 236 276 331
#     4  11  18  37  62  85 108 146 200 236 276 331
#     4  10  20  37  61  84 110 147 190 237 282 333
#     4  11  23  37  55  84 121 152 184 235 292 343
#     4  11  23  37  55  84 121 152 184 235 292 343
#     4  10  20  37  61  84 110 147 190 237 282 333
#     4  10  20  36  60  86 110 146 194 234 275 339
#
# _framework density 17.441319
#
# number of rings (size 3 to 8) (size 9 to 14) (size 15 to 20)
#    0.000    1.500    5.000    2.250    0.000    3.000 
#    0.000    0.000    0.000    0.000    0.000    0.000 
#    0.000    0.000    0.000    0.000    0.000    0.000 
#
# Total GULP energy -178665.377342 kJ/mol
# GULP energy per Si atom -5583.293042 kJ/mol
# Density = 1.740162 g / cm^3
# Si number density = 17.441319 Si / 1000 Ang^3
#
#
#
# Elastic Constant Matrix: (Units=GPa)
#
#
# Indices 1 2 3 4 5 6 
#
# 1 117.9399 40.6092 41.6492 0.0000 0.0000 0.0000
# 2 40.6092 77.0429 31.0460 0.0000 0.0000 0.0000
# 3 41.6492 31.0460 117.1848 0.0000 0.0000 0.0000
# 4 0.0000 0.0000 0.0000 8.9452 0.0000 0.0000
# 5 0.0000 0.0000 0.0000 0.0000 24.6545 0.0000
# 6 0.0000 0.0000 0.0000 0.0000 0.0000 -2.2131
#
#
#
# Elastic Compliance Matrix: (Units=1/GPa)
#
#
# Indices 1 2 3 4 5 6 
#
# 1 0.011059 -0.004753 -0.002671 0.000000 0.000000 0.000000
# 2 -0.004753 0.016574 -0.002702 0.000000 0.000000 0.000000
# 3 -0.002671 -0.002702 0.010199 0.000000 0.000000 0.000000
# 4 0.000000 0.000000 0.000000 0.111792 0.000000 0.000000
# 5 0.000000 0.000000 0.000000 0.000000 0.040561 0.000000
# 6 0.000000 0.000000 0.000000 0.000000 0.000000 -0.451856
#
#
# Mechanical properties :
#
#
# Convention : Reuss Voigt Hill
#
# Bulk Modulus (GPa) = 56.88359 59.86403 58.37381
# Shear Modulus (GPa) = -21.22584 19.53487 -0.84549
#
# Velocity S-wave (km/s) = -3.49232 3.35032 -0.69700
# Velocity P-wave (km/s) = 4.05258 7.02594 5.73529
#
# Compressibility (1/GPa) = 0.01757976
#
# Stress axis : x y z
#
# Youngs Moduli (GPa) = 90.42707 60.33710 98.05145
#
# Poissons Ratio (x) = 0.28675 0.26193
# Poissons Ratio (y) = 0.42976 0.26491
# Poissons Ratio (z) = 0.24156 0.16302
#
# Static dielectric constant tensor:
#      x y z
#    x 1.598740 0.000000 0.000000 
#    y 0.000000 1.558340 0.000000 
#    z 0.000000 0.000000 1.590280 
# 
# From -- ./inp_files/973.got.cif
#   From: 2010.05.17/outbox.cif.g08.bks.cpg/sg25_1_cif.got.tgz:973.got - 2010.06.04 01:04:00.
