data_PCOD9337011
_publ_section_title
;
Structure prediction by ZEFSAII (Michael W. Deem and Ramdas Pophale) SiO2 
 PCOD9337011
Probable space group: I 21 21 21
;
_chemical_formula_sum "Si O2"
_cell_formula_units_Z 20
_cell_length_a 20.903182
_cell_length_b 5.000714
_cell_length_c 7.484843
_cell_angle_alpha 90.000000
_cell_angle_beta 90.000000
_cell_angle_gamma 90.000000
_cell_volume 782.396888
_symmetry_space_group_name_H-M "I 21 21 21"
_symmetry_group_IT_number 24
_symmetry_cell_setting 'orthorhombic'
loop_
_space_group_symop_operation_xyz
x,y,z
-x,1/2-y,z
x,-y,1/2-z
1/2-x,y,-z
1/2+x,1/2+y,1/2+z
1/2-x,-y,1/2+z
1/2+x,1/2-y,-z
-x,1/2+y,1/2-z
loop_
_atom_site_type_symbol
_atom_site_label
_atom_site_fract_x
_atom_site_fract_y
_atom_site_fract_z
Si Si1 0.806442 0.500000 0.750000
Si Si2 0.372064 0.810053 0.576610
Si Si3 0.750000 0.923280 0.000000
Si Si4 0.500000 0.750000 0.384537
O O1 0.853908 0.499265 0.585280
O O2 0.761625 0.265577 0.673349
O O3 0.313880 0.597069 0.542679
O O4 0.440114 0.693232 0.517419
O O5 0.374631 0.000000 0.750000
O O6 0.507776 0.500000 0.250000
#
# Coordination Sequence:
#
# PCOD9337011 Si02
#       4
#     4   8   4   4
#     4  12  28  52  82 132 176 226 282 372 432 522
#     4  12  31  55  90 127 172 233 296 364 439 525
#     4  12  30  56  86 132 182 224 298 362 444 524
#     4  12  28  62  94 128 180 236 296 374 450 532
#
# _framework density 25.562476
#
# number of rings (size 3 to 8) (size 9 to 14) (size 15 to 20)
#    0.000    0.000    2.000    4.800   16.800    1.600 
#    0.000    0.000    0.000    0.000    0.000    0.000 
#    0.000    0.000    0.000    0.000    0.000    0.000 
#
# Total GULP energy -55790.933594 kJ/mol
# GULP energy per Si atom -5579.093359 kJ/mol
# Density = 2.550429 g / cm^3
# Si number density = 25.562476 Si / 1000 Ang^3
#
#
#
# Elastic Constant Matrix: (Units=GPa)
#
#
# Indices 1 2 3 4 5 6 
#
# 1 238.2972 65.1898 78.3138 0.0000 0.0000 0.0000
# 2 65.1898 120.8508 67.2712 0.0000 0.0000 0.0000
# 3 78.3138 67.2712 232.6988 0.0000 0.0000 0.0000
# 4 0.0000 0.0000 0.0000 -32.0974 0.0000 0.0000
# 5 0.0000 0.0000 0.0000 0.0000 46.2469 0.0000
# 6 0.0000 0.0000 0.0000 0.0000 0.0000 -41.3960
#
#
#
# Elastic Compliance Matrix: (Units=1/GPa)
#
#
# Indices 1 2 3 4 5 6 
#
# 1 0.005152 -0.002162 -0.001109 0.000000 0.000000 0.000000
# 2 -0.002162 0.010769 -0.002386 0.000000 0.000000 0.000000
# 3 -0.001109 -0.002386 0.005360 0.000000 0.000000 0.000000
# 4 0.000000 0.000000 0.000000 -0.031155 0.000000 0.000000
# 5 0.000000 0.000000 0.000000 0.000000 0.021623 0.000000
# 6 0.000000 0.000000 0.000000 0.000000 0.000000 -0.024157
#
#
# Mechanical properties :
#
#
# Convention : Reuss Voigt Hill
#
# Bulk Modulus (GPa) = 100.31748 112.59960 106.45854
# Shear Modulus (GPa) = 2243.97921 19.95552 1131.96736
#
# Velocity S-wave (km/s) = 29.66053 2.79705 21.06621
# Velocity P-wave (km/s) = 34.81846 7.38754 25.16844
#
# Compressibility (1/GPa) = 0.00996835
#
# Stress axis : x y z
#
# Youngs Moduli (GPa) = 194.08654 92.86085 186.55773
#
# Poissons Ratio (x) = 0.20076 0.20689
# Poissons Ratio (y) = 0.41961 0.44504
# Poissons Ratio (z) = 0.21524 0.22153
#
# Static dielectric constant tensor:
#      x y z
#    x 2.098030 0.000000 0.000000 
#    y 0.000000 2.571270 0.000000 
#    z 0.000000 0.000000 2.253880 
# 
# From -- ./inp_files/14706.got.cif
#   From: 2010.05.17/outbox.cif.g08.bks.cpg/sg24_8_cif.got.tgz:14706.got - 2010.06.04 00:33:39.
