data_PCOD9337669
_publ_section_title
;
Structure prediction by ZEFSAII (Michael W. Deem and Ramdas Pophale) SiO2 
 PCOD9337669
Probable space group: P M M 2
;
_chemical_formula_sum "Si O2"
_cell_formula_units_Z 28
_cell_length_a 14.750174
_cell_length_b 8.725428
_cell_length_c 13.145149
_cell_angle_alpha 90.000000
_cell_angle_beta 90.000000
_cell_angle_gamma 90.000000
_cell_volume 1691.801462
_symmetry_space_group_name_H-M "P M M 2"
_symmetry_group_IT_number 25
_symmetry_cell_setting 'orthorhombic'
loop_
_space_group_symop_operation_xyz
x,y,z
-x,-y,z
-x,y,z
x,-y,z
loop_
_atom_site_type_symbol
_atom_site_label
_atom_site_fract_x
_atom_site_fract_y
_atom_site_fract_z
Si Si1 0.393818 0.184834 0.654260
Si Si2 0.896983 0.684641 0.527877
Si Si3 0.899431 0.686233 0.765514
Si Si4 0.394636 0.316592 0.261837
Si Si5 0.714680 0.183261 0.450206
Si Si6 0.394297 0.816571 0.041507
Si Si7 0.709399 0.684109 0.849484
O O1 0.500000 0.224399 0.646832
O O2 0.340749 0.230589 0.551843
O O3 0.348478 0.260667 0.752445
O O4 0.387141 0.000000 0.664336
O O5 0.888713 0.500000 0.522340
O O6 0.885988 0.728764 0.646978
O O7 0.817471 0.761066 0.464386
O O8 0.000000 0.725090 0.497738
O O9 0.900443 0.500000 0.767625
O O10 0.813134 0.736519 0.830227
O O11 0.000000 0.738601 0.797517
O O12 0.500000 0.272514 0.280985
O O13 0.389592 0.500000 0.258130
O O14 0.332704 0.253722 0.351728
O O15 0.369147 0.249138 0.151897
O O16 0.711240 0.000000 0.443832
O O17 0.500000 0.774188 0.022778
O O18 0.388515 0.000000 0.043084
O O19 0.333458 0.750827 0.951534
O O20 0.707777 0.500000 0.853507
#
# Coordination Sequence:
#
# PCOD9337669 Si02
#       7
#     4   4   4   4   4   4   4
#     4  10  21  34  46  67 104 144 173 201 249 312
#     4   9  17  32  53  75 103 139 178 218 260 309
#     4   8  15  29  49  73 102 135 170 210 256 304
#     4  10  21  37  57  79 102 132 177 225 261 304
#     4  11  21  33  52  77 108 141 173 213 263 318
#     4  10  21  37  55  74 102 139 174 210 259 316
#     4  11  20  31  52  78 103 132 172 218 258 302
#
# _framework density 16.550405000000001
#
# number of rings (size 3 to 8) (size 9 to 14) (size 15 to 20)
#    0.000    2.143    1.429    3.429    0.000    5.143 
#    0.000    0.000    0.000    2.571    0.000    2.000 
#    0.000    0.000    0.000    0.000    0.000    0.000 
#
# Total GULP energy -156265.051010 kJ/mol
# GULP energy per Si atom -5580.894679 kJ/mol
# Density = 1.651274 g / cm^3
# Si number density = 16.550405 Si / 1000 Ang^3
#
#
#
# Elastic Constant Matrix: (Units=GPa)
#
#
# Indices 1 2 3 4 5 6 
#
# 1 142.8620 42.3160 98.2490 0.0000 0.0000 0.0000
# 2 42.3160 34.7850 44.1257 0.0000 0.0000 0.0000
# 3 98.2490 44.1257 141.0777 0.0000 0.0000 0.0000
# 4 0.0000 0.0000 0.0000 29.3368 0.0000 0.0000
# 5 0.0000 0.0000 0.0000 0.0000 20.2412 0.0000
# 6 0.0000 0.0000 0.0000 0.0000 0.0000 19.2181
#
#
#
# Elastic Compliance Matrix: (Units=1/GPa)
#
#
# Indices 1 2 3 4 5 6 
#
# 1 0.014697 -0.008115 -0.007697 0.000000 0.000000 0.000000
# 2 -0.008115 0.052137 -0.010656 0.000000 0.000000 0.000000
# 3 -0.007697 -0.010656 0.015782 0.000000 0.000000 0.000000
# 4 0.000000 0.000000 0.000000 0.034087 0.000000 0.000000
# 5 0.000000 0.000000 0.000000 0.000000 0.049404 0.000000
# 6 0.000000 0.000000 0.000000 0.000000 0.000000 0.052034
#
#
# Mechanical properties :
#
#
# Convention : Reuss Voigt Hill
#
# Bulk Modulus (GPa) = 33.69283 76.45625 55.07454
# Shear Modulus (GPa) = 17.79553 22.69480 20.24516
#
# Velocity S-wave (km/s) = 3.28263 3.70706 3.50128
# Velocity P-wave (km/s) = 5.89656 8.03862 7.04943
#
# Compressibility (1/GPa) = 0.02967991
#
# Stress axis : x y z
#
# Youngs Moduli (GPa) = 68.04235 19.18022 63.36533
#
# Poissons Ratio (x) = 0.15564 0.48772
# Poissons Ratio (y) = 0.55215 0.67522
# Poissons Ratio (z) = 0.52372 0.20438
#
# Static dielectric constant tensor:
#      x y z
#    x 1.562680 0.000000 0.000000 
#    y 0.000000 1.557640 0.000000 
#    z 0.000000 0.000000 1.520120 
# 
# From -- ./inp_files/4793.got.cif
#   From: 2010.05.17/outbox.cif.g08.bks.cpg/sg25_3_cif.got.tgz:4793.got - 2010.06.04 01:04:00.
