data_PCOD9337315
_publ_section_title
;
Structure prediction by ZEFSAII (Michael W. Deem and Ramdas Pophale) SiO2 
 PCOD9337315
Probable space group: P M M 2
;
_chemical_formula_sum "Si O2"
_cell_formula_units_Z 24
_cell_length_a 13.025038
_cell_length_b 8.599491
_cell_length_c 12.169450
_cell_angle_alpha 90.000000
_cell_angle_beta 90.000000
_cell_angle_gamma 90.000000
_cell_volume 1363.084238
_symmetry_space_group_name_H-M "P M M 2"
_symmetry_group_IT_number 25
_symmetry_cell_setting 'orthorhombic'
loop_
_space_group_symop_operation_xyz
x,y,z
-x,-y,z
-x,y,z
x,-y,z
loop_
_atom_site_type_symbol
_atom_site_label
_atom_site_fract_x
_atom_site_fract_y
_atom_site_fract_z
Si Si1 0.500000 0.314841 0.549320
Si Si2 0.118615 0.687637 0.550078
Si Si3 0.500000 0.188061 0.303193
Si Si4 0.697118 0.812373 0.158752
Si Si5 0.306774 0.813524 0.684503
Si Si6 0.619460 0.189608 0.922771
Si Si7 0.117586 0.312498 0.298253
O O1 0.500000 0.500000 0.553036
O O2 0.500000 0.258422 0.423940
O O3 0.600466 0.251348 0.610959
O O4 0.124836 0.500000 0.554423
O O5 0.199807 0.758126 0.633587
O O6 0.143180 0.735022 0.423993
O O7 0.000000 0.731016 0.572010
O O8 0.399049 0.234689 0.235015
O O9 0.500000 0.000000 0.311524
O O10 0.801053 0.752102 0.212746
O O11 0.699415 0.000000 0.157710
O O12 0.674877 0.758933 0.034420
O O13 0.326109 0.761635 0.810086
O O14 0.311502 0.000000 0.681894
O O15 0.500000 0.238398 0.922626
O O16 0.618765 0.000000 0.924053
O O17 0.120319 0.500000 0.295912
O O18 0.000000 0.264191 0.275919
#
# Coordination Sequence:
#
# PCOD9337315 Si02
#       7
#     2   4   2   4   4   4   4
#     4  12  24  35  50  76 112 145 173 214 271 330
#     4   9  19  37  58  79 109 147 180 216 269 325
#     4  10  20  33  52  80 108 133 169 218 269 318
#     4  10  19  33  56  81 104 135 176 219 263 314
#     4  11  21  35  57  81 106 139 182 226 267 313
#     4   9  17  34  56  76 104 143 177 214 267 316
#     4   9  19  36  55  75 105 144 178 213 264 318
#
# _framework density 17.607127999999999
#
# number of rings (size 3 to 8) (size 9 to 14) (size 15 to 20)
#    0.000    2.167    1.667    3.250    0.000    4.667 
#    0.000    4.167    0.000    5.000    0.000    0.000 
#    0.000    0.000    0.000    0.000    0.000    0.000 
#
# Total GULP energy -133964.857298 kJ/mol
# GULP energy per Si atom -5581.869054 kJ/mol
# Density = 1.756705 g / cm^3
# Si number density = 17.607128 Si / 1000 Ang^3
#
#
#
# Elastic Constant Matrix: (Units=GPa)
#
#
# Indices 1 2 3 4 5 6 
#
# 1 140.1641 30.8698 118.3314 0.0000 0.0000 0.0000
# 2 30.8698 22.0341 38.4728 0.0000 0.0000 0.0000
# 3 118.3314 38.4728 199.1999 0.0000 0.0000 0.0000
# 4 0.0000 0.0000 0.0000 2.3722 0.0000 0.0000
# 5 0.0000 0.0000 0.0000 0.0000 18.4098 0.0000
# 6 0.0000 0.0000 0.0000 0.0000 0.0000 33.5660
#
#
#
# Elastic Compliance Matrix: (Units=1/GPa)
#
#
# Indices 1 2 3 4 5 6 
#
# 1 0.015274 -0.008384 -0.007454 0.000000 0.000000 0.000000
# 2 -0.008384 0.073078 -0.009134 0.000000 0.000000 0.000000
# 3 -0.007454 -0.009134 0.011212 0.000000 0.000000 0.000000
# 4 0.000000 0.000000 0.000000 0.421545 0.000000 0.000000
# 5 0.000000 0.000000 0.000000 0.000000 0.054319 0.000000
# 6 0.000000 0.000000 0.000000 0.000000 0.000000 0.029792
#
#
# Mechanical properties :
#
#
# Convention : Reuss Voigt Hill
#
# Bulk Modulus (GPa) = 20.15284 81.86069 51.00677
# Shear Modulus (GPa) = 7.44377 22.45122 14.94749
#
# Velocity S-wave (km/s) = 2.05837 3.57476 2.91683
# Velocity P-wave (km/s) = 4.13762 7.97699 6.35422
#
# Compressibility (1/GPa) = 0.04962079
#
# Stress axis : x y z
#
# Youngs Moduli (GPa) = 65.47165 13.68406 89.18945
#
# Poissons Ratio (x) = 0.11472 0.66482
# Poissons Ratio (y) = 0.54888 0.81465
# Poissons Ratio (z) = 0.48802 0.12499
#
# Static dielectric constant tensor:
#      x y z
#    x 1.575810 0.000000 0.000000 
#    y 0.000000 1.601690 0.000000 
#    z 0.000000 0.000000 1.589500 
# 
# From -- ./inp_files/3947.got.cif
#   From: 2010.05.17/outbox.cif.g08.bks.cpg/sg25_2_cif.got.tgz:3947.got - 2010.06.04 01:04:00.
