data_PCOD9337971
_publ_section_title
;
Structure prediction by ZEFSAII (Michael W. Deem and Ramdas Pophale) SiO2 
 PCOD9337971
Probable space group: P M C 21
;
_chemical_formula_sum "Si O2"
_cell_formula_units_Z 32
_cell_length_a 7.467358
_cell_length_b 11.920315
_cell_length_c 16.748771
_cell_angle_alpha 90.000000
_cell_angle_beta 90.000000
_cell_angle_gamma 90.000000
_cell_volume 1490.862701
_symmetry_space_group_name_H-M "P M C 21"
_symmetry_group_IT_number 26
_symmetry_cell_setting 'orthorhombic'
loop_
_space_group_symop_operation_xyz
x,y,z
-x,-y,1/2+z
-x,y,z
x,-y,1/2+z
loop_
_atom_site_type_symbol
_atom_site_label
_atom_site_fract_x
_atom_site_fract_y
_atom_site_fract_z
Si Si1 0.779223 0.054886 0.112310
Si Si2 0.288567 0.266216 0.725023
Si Si3 0.792626 0.140358 0.280719
Si Si4 0.784137 0.577248 0.374747
Si Si5 0.792698 0.810760 0.054537
Si Si6 0.715890 0.083473 0.849170
Si Si7 0.798459 0.237953 0.992779
Si Si8 0.220344 0.322011 0.398126
O O1 0.716822 0.081622 0.201965
O O2 0.000000 0.051313 0.110543
O O3 0.717608 0.934754 0.077048
O O4 0.718099 0.164724 0.063503
O O5 0.500000 0.257519 0.715190
O O6 0.256489 0.366604 0.788507
O O7 0.213697 0.263512 0.635717
O O8 0.225121 0.154056 0.771281
O O9 0.718190 0.251281 0.321095
O O10 0.000000 0.163522 0.262601
O O11 0.777244 0.043423 0.346434
O O12 0.714612 0.656339 0.446905
O O13 0.723636 0.450587 0.388124
O O14 0.000000 0.579978 0.380170
O O15 0.000000 0.830994 0.034859
O O16 0.719129 0.741351 0.979031
O O17 0.500000 0.089700 0.855017
O O18 0.802121 0.146644 0.922558
O O19 0.000000 0.270176 0.017825
O O20 0.000000 0.321964 0.398871
#
# Coordination Sequence:
#
# PCOD9337971 Si02
#       8
#     4   4   4   4   4   4   4   4
#     4   9  17  29  50  80 105 133 171 212 262 318
#     4  10  20  34  53  77 104 137 177 220 260 309
#     4  10  18  32  53  75 108 141 169 209 263 318
#     4   9  18  35  55  77 105 139 178 216 263 312
#     4  10  18  32  53  78 107 137 175 220 269 318
#     4  10  19  31  49  75 104 133 171 212 260 311
#     4   9  17  31  52  75 101 133 172 213 257 312
#     4   9  19  34  53  81 110 139 177 224 264 308
#
# _framework density 21.464081
#
# number of rings (size 3 to 8) (size 9 to 14) (size 15 to 20)
#    0.000    2.500    1.250    1.500    0.000    3.000 
#    2.250    4.375    0.000    0.000    0.000    0.000 
#    0.000    0.000    0.000    0.000    0.000    0.000 
#
# Total GULP energy -178398.069689 kJ/mol
# GULP energy per Si atom -5574.939678 kJ/mol
# Density = 2.141523 g / cm^3
# Si number density = 21.464081 Si / 1000 Ang^3
#
#
#
# Elastic Constant Matrix: (Units=GPa)
#
#
# Indices 1 2 3 4 5 6 
#
# 1 64.9826 -2.9863 1.0070 0.0000 0.0000 0.0000
# 2 -2.9863 180.6777 66.1740 0.0000 0.0000 0.0000
# 3 1.0070 66.1740 76.3612 0.0000 0.0000 0.0000
# 4 0.0000 0.0000 0.0000 27.9848 0.0000 0.0000
# 5 0.0000 0.0000 0.0000 0.0000 -41.5673 0.0000
# 6 0.0000 0.0000 0.0000 0.0000 0.0000 -13.7215
#
#
#
# Elastic Compliance Matrix: (Units=1/GPa)
#
#
# Indices 1 2 3 4 5 6 
#
# 1 0.015421 0.000482 -0.000621 0.000000 0.000000 0.000000
# 2 0.000482 0.008123 -0.007046 0.000000 0.000000 0.000000
# 3 -0.000621 -0.007046 0.019210 0.000000 0.000000 0.000000
# 4 0.000000 0.000000 0.000000 0.035734 0.000000 0.000000
# 5 0.000000 0.000000 0.000000 0.000000 -0.024057 0.000000
# 6 0.000000 0.000000 0.000000 0.000000 0.000000 -0.072878
#
#
# Mechanical properties :
#
#
# Convention : Reuss Voigt Hill
#
# Bulk Modulus (GPa) = 35.23139 50.04567 42.63853
# Shear Modulus (GPa) = 928.92278 11.72766 470.32522
#
# Velocity S-wave (km/s) = 20.82594 2.34002 14.81883
# Velocity P-wave (km/s) = 24.38735 5.53783 17.68347
#
# Compressibility (1/GPa) = 0.02838378
#
# Stress axis : x y z
#
# Youngs Moduli (GPa) = 64.84857 123.10265 52.05675
#
# Poissons Ratio (x) = -0.05940 0.03235
# Poissons Ratio (y) = -0.03129 0.36679
# Poissons Ratio (z) = 0.04030 0.86738
#
# Static dielectric constant tensor:
#      x y z
#    x 1.804900 0.000000 0.000000 
#    y 0.000000 1.766230 0.000000 
#    z 0.000000 0.000000 1.847410 
# 
# From -- ./inp_files/4152.got.cif
#   From: 2010.05.17/outbox.cif.g08.bks.cpg/sg26_3_cif.got.tgz:4152.got - 2010.06.04 01:07:29.
