data_PCOD9337395
_publ_section_title
;
Structure prediction by ZEFSAII (Michael W. Deem and Ramdas Pophale) SiO2 
 PCOD9337395
Probable space group: P M M 2
;
_chemical_formula_sum "Si O2"
_cell_formula_units_Z 28
_cell_length_a 9.618909
_cell_length_b 7.511861
_cell_length_c 18.931861
_cell_angle_alpha 90.000000
_cell_angle_beta 90.000000
_cell_angle_gamma 90.000000
_cell_volume 1367.938795
_symmetry_space_group_name_H-M "P M M 2"
_symmetry_group_IT_number 25
_symmetry_cell_setting 'orthorhombic'
loop_
_space_group_symop_operation_xyz
x,y,z
-x,-y,z
-x,y,z
x,-y,z
loop_
_atom_site_type_symbol
_atom_site_label
_atom_site_fract_x
_atom_site_fract_y
_atom_site_fract_z
Si Si1 0.839881 0.281913 0.596210
Si Si2 0.338721 0.716975 0.462410
Si Si3 0.156943 0.213032 0.170339
Si Si4 0.657537 0.287787 0.728550
Si Si5 0.657269 0.713585 0.305339
Si Si6 0.830523 0.794086 0.018674
Si Si7 0.158874 0.785260 0.864587
O O1 0.840531 0.500000 0.596558
O O2 0.762024 0.224295 0.524813
O O3 0.751467 0.220688 0.663822
O O4 0.000000 0.225018 0.599438
O O5 0.500000 0.769203 0.474021
O O6 0.337306 0.500000 0.463448
O O7 0.296189 0.774883 0.383362
O O8 0.247887 0.243949 0.239034
O O9 0.212613 0.283243 0.094632
O O10 0.000000 0.280745 0.181269
O O11 0.148076 0.000000 0.161289
O O12 0.500000 0.216995 0.728871
O O13 0.647632 0.500000 0.718452
O O14 0.737505 0.258562 0.801781
O O15 0.500000 0.779147 0.294093
O O16 0.651508 0.500000 0.309532
O O17 0.000000 0.793797 0.020395
O O18 0.783446 0.000000 0.017264
O O19 0.794713 0.716613 0.942024
O O20 0.000000 0.723910 0.850158
O O21 0.152413 0.000000 0.869812
#
# Coordination Sequence:
#
# PCOD9337395 Si02
#       7
#     4   4   4   4   4   4   4
#     4   9  16  26  43  67  91 116 151 193 231 267
#     4   8  14  26  43  62  87 119 152 186 226 272
#     4   9  17  30  49  71  93 119 154 194 233 274
#     4  10  20  32  46  67  97 129 156 184 224 274
#     4   9  18  31  46  67  96 127 156 187 227 275
#     4   7  12  26  47  68  89 115 150 191 231 272
#     4   9  17  31  52  73  91 116 153 195 236 276
#
# _framework density 20.468751999999999
#
# number of rings (size 3 to 8) (size 9 to 14) (size 15 to 20)
#    0.000    3.286    0.000    3.429    0.000    4.000 
#    0.000    2.857    0.000    7.714    0.000    4.000 
#    0.000    0.000    0.000    0.000    0.000    0.000 
#
# Total GULP energy -156064.662328 kJ/mol
# GULP energy per Si atom -5573.737940 kJ/mol
# Density = 2.042216 g / cm^3
# Si number density = 20.468752 Si / 1000 Ang^3
#
#
#
# Elastic Constant Matrix: (Units=GPa)
#
#
# Indices 1 2 3 4 5 6 
#
# 1 131.4906 5.2170 134.2618 0.0000 0.0000 0.0000
# 2 5.2170 51.9589 4.4863 0.0000 0.0000 0.0000
# 3 134.2618 4.4863 251.4940 0.0000 0.0000 0.0000
# 4 0.0000 0.0000 0.0000 21.8096 0.0000 0.0000
# 5 0.0000 0.0000 0.0000 0.0000 343.5837 0.0000
# 6 0.0000 0.0000 0.0000 0.0000 0.0000 13.4378
#
#
#
# Elastic Compliance Matrix: (Units=1/GPa)
#
#
# Indices 1 2 3 4 5 6 
#
# 1 0.016762 -0.000912 -0.008932 0.000000 0.000000 0.000000
# 2 -0.000912 0.019325 0.000142 0.000000 0.000000 0.000000
# 3 -0.008932 0.000142 0.008742 0.000000 0.000000 0.000000
# 4 0.000000 0.000000 0.000000 0.045851 0.000000 0.000000
# 5 0.000000 0.000000 0.000000 0.000000 0.002910 0.000000
# 6 0.000000 0.000000 0.000000 0.000000 0.000000 0.074417
#
#
# Mechanical properties :
#
#
# Convention : Reuss Voigt Hill
#
# Bulk Modulus (GPa) = 39.33071 80.31931 59.82501
# Shear Modulus (GPa) = 25.52499 95.16476 60.34487
#
# Velocity S-wave (km/s) = 3.53515 6.82595 5.43557
# Velocity P-wave (km/s) = 5.99331 10.07224 8.28763
#
# Compressibility (1/GPa) = 0.02542543
#
# Stress axis : x y z
#
# Youngs Moduli (GPa) = 59.66044 51.74573 114.38884
#
# Poissons Ratio (x) = 0.04718 1.02172
# Poissons Ratio (y) = 0.05440 -0.01624
# Poissons Ratio (z) = 0.53289 -0.00735
#
# Static dielectric constant tensor:
#      x y z
#    x 1.680330 0.000000 0.000000 
#    y 0.000000 1.806330 0.000000 
#    z 0.000000 0.000000 1.749030 
# 
# From -- ./inp_files/6071.got.cif
#   From: 2010.05.17/outbox.cif.g08.bks.cpg/sg25_4_cif.got.tgz:6071.got - 2010.06.04 01:04:00.
