data_PCOD9337417
_publ_section_title
;
Structure prediction by ZEFSAII (Michael W. Deem and Ramdas Pophale) SiO2 
 PCOD9337417
Probable space group: P M M 2
;
_chemical_formula_sum "Si O2"
_cell_formula_units_Z 32
_cell_length_a 9.547979
_cell_length_b 8.118598
_cell_length_c 21.772383
_cell_angle_alpha 90.000000
_cell_angle_beta 90.000000
_cell_angle_gamma 90.000000
_cell_volume 1687.712465
_symmetry_space_group_name_H-M "P M M 2"
_symmetry_group_IT_number 25
_symmetry_cell_setting 'orthorhombic'
loop_
_space_group_symop_operation_xyz
x,y,z
-x,-y,z
-x,y,z
x,-y,z
loop_
_atom_site_type_symbol
_atom_site_label
_atom_site_fract_x
_atom_site_fract_y
_atom_site_fract_z
Si Si1 0.837085 0.298130 0.431040
Si Si2 0.160140 0.303180 0.063025
Si Si3 0.160200 0.196635 0.198830
Si Si4 0.830583 0.696175 0.565062
Si Si5 0.838785 0.699053 0.830630
Si Si6 0.658593 0.196438 0.947111
Si Si7 0.341024 0.698224 0.314549
Si Si8 0.169964 0.695103 0.697122
O O1 0.835465 0.500000 0.432189
O O2 0.784548 0.240733 0.498337
O O3 0.744105 0.241476 0.374150
O O4 0.000000 0.250349 0.422910
O O5 0.156054 0.500000 0.062237
O O6 0.207182 0.247332 0.130612
O O7 0.000000 0.241263 0.054103
O O8 0.258688 0.245995 0.008315
O O9 0.258473 0.260040 0.252690
O O10 0.000000 0.259179 0.206849
O O11 0.157046 0.000000 0.201777
O O12 0.800177 0.500000 0.566100
O O13 0.782313 0.765516 0.631130
O O14 0.000000 0.710774 0.564080
O O15 0.842927 0.500000 0.827044
O O16 0.742763 0.746315 0.887248
O O17 0.786158 0.761295 0.763754
O O18 0.000000 0.754730 0.840178
O O19 0.500000 0.262596 0.947474
O O20 0.652467 0.000000 0.945363
O O21 0.500000 0.760771 0.313209
O O22 0.346167 0.500000 0.319318
O O23 0.204517 0.500000 0.696149
O O24 0.000000 0.705215 0.697857
#
# Coordination Sequence:
#
# PCOD9337417 Si02
#       8
#     4   4   4   4   4   4   4   4
#     4   8  13  22  39  63  91 125 164 204 245 289
#     4  10  21  38  61  85 104 124 154 194 241 292
#     4  10  21  37  57  79 101 127 160 198 241 288
#     4   7   9  15  31  58  90 121 153 193 244 294
#     4   9  17  30  50  75 100 128 164 205 249 296
#     4  11  24  38  51  71 101 136 170 202 238 282
#     4  10  20  32  47  70 101 136 170 203 242 288
#     4   7  10  18  35  62  94 122 151 194 246 295
#
# _framework density 18.960577000000001
#
# number of rings (size 3 to 8) (size 9 to 14) (size 15 to 20)
#    0.000    3.000    0.000    4.125    0.000    5.500 
#    0.000    0.000    0.000    0.750    0.000    4.375 
#    0.000    3.000    0.000    0.000    0.000    0.000 
#
# Total GULP energy -178268.543527 kJ/mol
# GULP energy per Si atom -5570.891985 kJ/mol
# Density = 1.891742 g / cm^3
# Si number density = 18.960577 Si / 1000 Ang^3
#
#
#
# Elastic Constant Matrix: (Units=GPa)
#
#
# Indices 1 2 3 4 5 6 
#
# 1 83.8472 10.0527 105.8598 0.0000 0.0000 0.0000
# 2 10.0527 14.3014 12.3678 0.0000 0.0000 0.0000
# 3 105.8598 12.3678 240.0254 0.0000 0.0000 0.0000
# 4 0.0000 0.0000 0.0000 -41.0243 0.0000 0.0000
# 5 0.0000 0.0000 0.0000 0.0000 -6.0671 0.0000
# 6 0.0000 0.0000 0.0000 0.0000 0.0000 4.3359
#
#
#
# Elastic Compliance Matrix: (Units=1/GPa)
#
#
# Indices 1 2 3 4 5 6 
#
# 1 0.028080 -0.009449 -0.011898 0.000000 0.000000 0.000000
# 2 -0.009449 0.076364 0.000233 0.000000 0.000000 0.000000
# 3 -0.011898 0.000233 0.009402 0.000000 0.000000 0.000000
# 4 0.000000 0.000000 0.000000 -0.024376 0.000000 0.000000
# 5 0.000000 0.000000 0.000000 0.000000 -0.164822 0.000000
# 6 0.000000 0.000000 0.000000 0.000000 0.000000 0.230632
#
#
# Mechanical properties :
#
#
# Convention : Reuss Voigt Hill
#
# Bulk Modulus (GPa) = 13.96301 66.08164 40.02232
# Shear Modulus (GPa) = 22.58549 5.44180 14.01364
#
# Velocity S-wave (km/s) = 3.45509 1.69596 2.72158
# Velocity P-wave (km/s) = 4.82671 6.22598 5.57046
#
# Compressibility (1/GPa) = 0.07161781
#
# Stress axis : x y z
#
# Youngs Moduli (GPa) = 35.61196 13.09511 106.36600
#
# Poissons Ratio (x) = 0.12374 1.26550
# Poissons Ratio (y) = 0.33651 -0.02474
# Poissons Ratio (z) = 0.42370 -0.00305
#
# Static dielectric constant tensor:
#      x y z
#    x 1.640040 0.000000 0.000000 
#    y 0.000000 1.667700 0.000000 
#    z 0.000000 0.000000 1.695660 
# 
# From -- ./inp_files/6554.got.cif
#   From: 2010.05.17/outbox.cif.g08.bks.cpg/sg25_4_cif.got.tgz:6554.got - 2010.06.04 01:04:00.
