data_PCOD9337990
_publ_section_title
;
Structure prediction by ZEFSAII (Michael W. Deem and Ramdas Pophale) SiO2 
 PCOD9337990
Probable space group: P M C 21
;
_chemical_formula_sum "Si O2"
_cell_formula_units_Z 32
_cell_length_a 8.004807
_cell_length_b 11.044345
_cell_length_c 14.456165
_cell_angle_alpha 90.000000
_cell_angle_beta 90.000000
_cell_angle_gamma 90.000000
_cell_volume 1278.038469
_symmetry_space_group_name_H-M "P M C 21"
_symmetry_group_IT_number 26
_symmetry_cell_setting 'orthorhombic'
loop_
_space_group_symop_operation_xyz
x,y,z
-x,-y,1/2+z
-x,y,z
x,-y,1/2+z
loop_
_atom_site_type_symbol
_atom_site_label
_atom_site_fract_x
_atom_site_fract_y
_atom_site_fract_z
Si Si1 0.704440 0.961632 0.000000
Si Si2 0.691584 0.451788 0.335107
Si Si3 0.195615 0.193662 0.880968
Si Si4 0.797837 0.337507 0.048029
Si Si5 0.803700 0.215519 0.232013
Si Si6 0.803425 0.425348 0.658285
Si Si7 0.697825 0.045768 0.713682
Si Si8 0.697509 0.698955 0.991720
O O1 0.500000 0.968337 0.995134
O O2 0.760059 0.830253 0.962015
O O3 0.776807 0.073689 0.943916
O O4 0.757182 0.955001 0.107672
O O5 0.500000 0.488423 0.344671
O O6 0.703720 0.320036 0.284693
O O7 0.773703 0.546922 0.265499
O O8 0.771800 0.413312 0.433178
O O9 0.267325 0.300442 0.946933
O O10 0.263030 0.158318 0.780456
O O11 0.000000 0.216286 0.869289
O O12 0.000000 0.345824 0.041629
O O13 0.761125 0.232394 0.123013
O O14 0.738087 0.456463 0.101922
O O15 0.000000 0.244874 0.243005
O O16 0.769083 0.077852 0.257661
O O17 0.720893 0.318088 0.601077
O O18 0.000000 0.413868 0.644735
O O19 0.500000 0.033261 0.710879
O O20 0.500000 0.696318 0.973879
#
# Coordination Sequence:
#
# PCOD9337990 Si02
#       8
#     4   4   4   4   4   4   4   4
#     4  10  22  40  60  85 122 158 194 244 293 351
#     4  10  20  36  61  90 119 154 197 245 300 356
#     4  11  21  36  59  85 117 154 194 239 292 354
#     4   8  17  34  55  80 110 141 180 237 290 332
#     4  10  18  33  57  84 115 149 194 245 286 339
#     4  10  21  39  62  87 117 151 196 249 295 349
#     4  11  22  35  53  83 120 158 194 234 294 358
#     4  10  22  41  61  84 118 157 197 245 296 349
#
# _framework density 25.038371000000001
#
# number of rings (size 3 to 8) (size 9 to 14) (size 15 to 20)
#    0.000    2.000    1.250    3.375    0.000    3.000 
#    2.250    1.875    0.000    0.000    0.000    0.000 
#    0.000    0.000    0.000    0.000    0.000    0.000 
#
# Total GULP energy -178876.161452 kJ/mol
# GULP energy per Si atom -5589.880045 kJ/mol
# Density = 2.498138 g / cm^3
# Si number density = 25.038371 Si / 1000 Ang^3
#
#
#
# Elastic Constant Matrix: (Units=GPa)
#
#
# Indices 1 2 3 4 5 6 
#
# 1 39.2891 -6.9677 3.1838 0.0000 0.0000 0.0000
# 2 -6.9677 61.5341 12.4880 0.0000 0.0000 0.0000
# 3 3.1838 12.4880 141.6739 0.0000 0.0000 0.0000
# 4 0.0000 0.0000 0.0000 47.5533 0.0000 0.0000
# 5 0.0000 0.0000 0.0000 0.0000 26.5709 0.0000
# 6 0.0000 0.0000 0.0000 0.0000 0.0000 15.2256
#
#
#
# Elastic Compliance Matrix: (Units=1/GPa)
#
#
# Indices 1 2 3 4 5 6 
#
# 1 0.026077 0.003128 -0.000862 0.000000 0.000000 0.000000
# 2 0.003128 0.016922 -0.001562 0.000000 0.000000 0.000000
# 3 -0.000862 -0.001562 0.007216 0.000000 0.000000 0.000000
# 4 0.000000 0.000000 0.000000 0.021029 0.000000 0.000000
# 5 0.000000 0.000000 0.000000 0.000000 0.037635 0.000000
# 6 0.000000 0.000000 0.000000 0.000000 0.000000 0.065679
#
#
# Mechanical properties :
#
#
# Convention : Reuss Voigt Hill
#
# Bulk Modulus (GPa) = 19.37132 28.87835 24.12483
# Shear Modulus (GPa) = 26.26640 33.45616 29.86128
#
# Velocity S-wave (km/s) = 3.24241 3.65937 3.45718
# Velocity P-wave (km/s) = 4.66595 5.42340 5.05887
#
# Compressibility (1/GPa) = 0.05162272
#
# Stress axis : x y z
#
# Youngs Moduli (GPa) = 38.34816 59.09371 138.59045
#
# Poissons Ratio (x) = -0.18482 0.11942
# Poissons Ratio (y) = -0.11994 0.21647
# Poissons Ratio (z) = 0.03304 0.09230
#
# Static dielectric constant tensor:
#      x y z
#    x 1.868310 0.000000 0.000000 
#    y 0.000000 2.016020 0.000000 
#    z 0.000000 0.000000 2.060940 
# 
# From -- ./inp_files/4149.got.cif
#   From: 2010.05.17/outbox.cif.g08.bks.cpg/sg26_3_cif.got.tgz:4149.got - 2010.06.04 01:07:29.
