data_PCOD9337497
_publ_section_title
;
Structure prediction by ZEFSAII (Michael W. Deem and Ramdas Pophale) SiO2 
 PCOD9337497
Probable space group: P M M 2
;
_chemical_formula_sum "Si O2"
_cell_formula_units_Z 28
_cell_length_a 7.434931
_cell_length_b 9.390202
_cell_length_c 18.624978
_cell_angle_alpha 90.000000
_cell_angle_beta 90.000000
_cell_angle_gamma 90.000000
_cell_volume 1300.312225
_symmetry_space_group_name_H-M "P M M 2"
_symmetry_group_IT_number 25
_symmetry_cell_setting 'orthorhombic'
loop_
_space_group_symop_operation_xyz
x,y,z
-x,-y,z
-x,y,z
x,-y,z
loop_
_atom_site_type_symbol
_atom_site_label
_atom_site_fract_x
_atom_site_fract_y
_atom_site_fract_z
Si Si1 0.279735 0.663644 0.211520
Si Si2 0.780083 0.663502 0.774753
Si Si3 0.285047 0.837573 0.073747
Si Si4 0.785050 0.162432 0.912274
Si Si5 0.219856 0.164149 0.633421
Si Si6 0.284686 0.161681 0.350435
Si Si7 0.784882 0.338159 0.494443
O O1 0.500000 0.663418 0.211766
O O2 0.222703 0.500000 0.216691
O O3 0.219650 0.737845 0.137742
O O4 0.219408 0.755224 0.279984
O O5 0.722313 0.500000 0.769335
O O6 0.719016 0.737847 0.848362
O O7 0.724893 0.755650 0.705937
O O8 0.000000 0.662719 0.775011
O O9 0.500000 0.845494 0.081685
O O10 0.215047 0.000000 0.079410
O O11 0.249727 0.785262 0.993032
O O12 0.000000 0.154524 0.904115
O O13 0.715067 0.000000 0.906756
O O14 0.281313 0.250716 0.563451
O O15 0.000000 0.163268 0.632836
O O16 0.277544 0.000000 0.631875
O O17 0.500000 0.152527 0.343157
O O18 0.249021 0.251722 0.421801
O O19 0.215420 0.000000 0.355609
O O20 0.715310 0.500000 0.490981
O O21 0.000000 0.347515 0.502594
#
# Coordination Sequence:
#
# PCOD9337497 Si02
#       7
#     4   4   4   4   4   4   4
#     4   9  17  30  49  71  93 120 157 198 236 277
#     4   9  16  26  42  65  92 121 154 192 232 274
#     4   9  17  30  48  68  90 118 153 191 230 275
#     4   9  17  29  45  66  92 120 150 186 230 278
#     4   9  16  27  45  68  94 125 160 196 234 278
#     4  10  20  34  53  75  98 127 164 202 240 286
#     4  10  20  33  50  74 103 131 160 198 244 290
#
# _framework density 21.533287999999999
#
# number of rings (size 3 to 8) (size 9 to 14) (size 15 to 20)
#    0.000    2.714    0.000    2.143    0.000    7.429 
#    0.000    0.714    0.000    3.429    0.000    2.000 
#    0.000    0.000    0.000    0.000    0.000    0.000 
#
# Total GULP energy -156426.272458 kJ/mol
# GULP energy per Si atom -5586.652588 kJ/mol
# Density = 2.148428 g / cm^3
# Si number density = 21.533288 Si / 1000 Ang^3
#
#
#
# Elastic Constant Matrix: (Units=GPa)
#
#
# Indices 1 2 3 4 5 6 
#
# 1 67.4990 7.3119 -0.1475 0.0000 0.0000 0.0000
# 2 7.3119 223.2007 161.6959 0.0000 0.0000 0.0000
# 3 -0.1475 161.6959 245.4269 0.0000 0.0000 0.0000
# 4 0.0000 0.0000 0.0000 46.1037 0.0000 0.0000
# 5 0.0000 0.0000 0.0000 0.0000 21.3584 0.0000
# 6 0.0000 0.0000 0.0000 0.0000 0.0000 19.7247
#
#
#
# Elastic Compliance Matrix: (Units=1/GPa)
#
#
# Indices 1 2 3 4 5 6 
#
# 1 0.014919 -0.000947 0.000633 0.000000 0.000000 0.000000
# 2 -0.000947 0.008631 -0.005687 0.000000 0.000000 0.000000
# 3 0.000633 -0.005687 0.007822 0.000000 0.000000 0.000000
# 4 0.000000 0.000000 0.000000 0.021690 0.000000 0.000000
# 5 0.000000 0.000000 0.000000 0.000000 0.046820 0.000000
# 6 0.000000 0.000000 0.000000 0.000000 0.000000 0.050698
#
#
# Mechanical properties :
#
#
# Convention : Reuss Voigt Hill
#
# Bulk Modulus (GPa) = 51.62805 97.09413 74.36109
# Shear Modulus (GPa) = 29.57882 41.92176 35.75029
#
# Velocity S-wave (km/s) = 3.71028 4.41708 4.07902
# Velocity P-wave (km/s) = 6.51021 8.43814 7.53608
#
# Compressibility (1/GPa) = 0.01936931
#
# Stress axis : x y z
#
# Youngs Moduli (GPa) = 67.02835 115.85652 127.84694
#
# Poissons Ratio (x) = 0.10977 -0.08095
# Poissons Ratio (y) = 0.06351 0.72709
# Poissons Ratio (z) = -0.04244 0.65890
#
# Static dielectric constant tensor:
#      x y z
#    x 1.849290 0.000000 0.000000 
#    y 0.000000 1.743770 0.000000 
#    z 0.000000 0.000000 1.730080 
# 
# From -- ./inp_files/6080.got.cif
#   From: 2010.05.17/outbox.cif.g08.bks.cpg/sg25_4_cif.got.tgz:6080.got - 2010.06.04 01:04:00.
