data_PCOD9337126
_publ_section_title
;
Structure prediction by ZEFSAII (Michael W. Deem and Ramdas Pophale) SiO2 
 PCOD9337126
Probable space group: P M M 2
;
_chemical_formula_sum "Si O2"
_cell_formula_units_Z 32
_cell_length_a 14.785760
_cell_length_b 7.815146
_cell_length_c 16.240404
_cell_angle_alpha 90.000000
_cell_angle_beta 90.000000
_cell_angle_gamma 90.000000
_cell_volume 1876.625343
_symmetry_space_group_name_H-M "P M M 2"
_symmetry_group_IT_number 25
_symmetry_cell_setting 'orthorhombic'
loop_
_space_group_symop_operation_xyz
x,y,z
-x,-y,z
-x,y,z
x,-y,z
loop_
_atom_site_type_symbol
_atom_site_label
_atom_site_fract_x
_atom_site_fract_y
_atom_site_fract_z
Si Si1 0.603682 0.704661 0.424640
Si Si2 0.603917 0.705066 0.067324
Si Si3 0.712420 0.705688 0.909213
Si Si4 0.101247 0.204212 0.838006
Si Si5 0.604299 0.709108 0.747685
Si Si6 0.899521 0.703140 0.649089
Si Si7 0.711769 0.289898 0.583840
Si Si8 0.396798 0.796329 0.246128
O O1 0.500000 0.772153 0.428857
O O2 0.598057 0.500000 0.433414
O O3 0.664333 0.768435 0.499949
O O4 0.642482 0.740801 0.333743
O O5 0.500000 0.771329 0.062394
O O6 0.598739 0.500000 0.059646
O O7 0.642370 0.742827 0.158195
O O8 0.664884 0.770342 0.992298
O O9 0.704313 0.500000 0.909370
O O10 0.817670 0.746704 0.898008
O O11 0.659032 0.768004 0.828046
O O12 0.120384 0.274179 0.746269
O O13 0.000000 0.263284 0.861660
O O14 0.099562 0.000000 0.831534
O O15 0.500000 0.763224 0.750270
O O16 0.604938 0.500000 0.748555
O O17 0.653184 0.761548 0.663461
O O18 0.903964 0.500000 0.633802
O O19 0.814484 0.770322 0.597907
O O20 0.000000 0.775864 0.633548
O O21 0.712984 0.500000 0.583347
O O22 0.500000 0.725259 0.245920
O O23 0.400785 0.000000 0.246692
#
# Coordination Sequence:
#
# PCOD9337126 Si02
#       8
#     4   4   4   4   4   4   4   4
#     4   9  16  26  42  63  86 113 146 183 219 259
#     4   9  17  29  46  69  94 118 147 183 221 263
#     4  10  18  29  46  68  90 116 149 184 222 261
#     4  10  20  32  45  62  86 117 152 189 227 264
#     4   9  15  23  38  62  91 119 147 177 209 253
#     4   9  16  28  46  65  85 111 147 190 229 264
#     4   9  15  24  40  65  89 113 146 182 220 261
#     4   9  17  29  44  62  86 117 149 182 222 263
#
# _framework density 17.051884999999999
#
# number of rings (size 3 to 8) (size 9 to 14) (size 15 to 20)
#    0.000    2.750    1.250    1.500    0.000    5.750 
#    0.000    0.625    0.000    1.125    0.000    0.875 
#    0.000    5.000    0.000    0.000    0.000    0.000 
#
# Total GULP energy -178329.950143 kJ/mol
# GULP energy per Si atom -5572.810942 kJ/mol
# Density = 1.701307 g / cm^3
# Si number density = 17.051885 Si / 1000 Ang^3
#
#
#
# Elastic Constant Matrix: (Units=GPa)
#
#
# Indices 1 2 3 4 5 6 
#
# 1 116.1858 4.3326 81.3161 0.0000 0.0000 0.0000
# 2 4.3326 20.8704 4.6233 0.0000 0.0000 0.0000
# 3 81.3161 4.6233 158.1780 0.0000 0.0000 0.0000
# 4 0.0000 0.0000 0.0000 -30.3523 0.0000 0.0000
# 5 0.0000 0.0000 0.0000 0.0000 11.3631 0.0000
# 6 0.0000 0.0000 0.0000 0.0000 0.0000 4.9520
#
#
#
# Elastic Compliance Matrix: (Units=1/GPa)
#
#
# Indices 1 2 3 4 5 6 
#
# 1 0.013477 -0.001271 -0.006891 0.000000 0.000000 0.000000
# 2 -0.001271 0.048347 -0.000760 0.000000 0.000000 0.000000
# 3 -0.006891 -0.000760 0.009887 0.000000 0.000000 0.000000
# 4 0.000000 0.000000 0.000000 -0.032946 0.000000 0.000000
# 5 0.000000 0.000000 0.000000 0.000000 0.088004 0.000000
# 6 0.000000 0.000000 0.000000 0.000000 0.000000 0.201937
#
#
# Mechanical properties :
#
#
# Convention : Reuss Voigt Hill
#
# Bulk Modulus (GPa) = 18.56425 52.86425 35.71425
# Shear Modulus (GPa) = 13.71719 10.85670 12.28695
#
# Velocity S-wave (km/s) = 2.83934 2.52600 2.68724
# Velocity P-wave (km/s) = 4.65400 6.29102 5.53338
#
# Compressibility (1/GPa) = 0.05386697
#
# Stress axis : x y z
#
# Youngs Moduli (GPa) = 74.19838 20.68380 101.14429
#
# Poissons Ratio (x) = 0.02629 0.69701
# Poissons Ratio (y) = 0.09433 0.07683
# Poissons Ratio (z) = 0.51132 0.01571
#
# Static dielectric constant tensor:
#      x y z
#    x 1.591710 0.000000 0.000000 
#    y 0.000000 1.614720 0.000000 
#    z 0.000000 0.000000 1.578460 
# 
# From -- ./inp_files/5680.got.cif
#   From: 2010.05.17/outbox.cif.g08.bks.cpg/sg25_3_cif.got.tgz:5680.got - 2010.06.04 01:04:00.
