data_PCOD9337235
_publ_section_title
;
Structure prediction by ZEFSAII (Michael W. Deem and Ramdas Pophale) SiO2 
 PCOD9337235
Probable space group: P M M 2
;
_chemical_formula_sum "Si O2"
_cell_formula_units_Z 32
_cell_length_a 15.694863
_cell_length_b 14.279304
_cell_length_c 5.679918
_cell_angle_alpha 90.000000
_cell_angle_beta 90.000000
_cell_angle_gamma 90.000000
_cell_volume 1272.936193
_symmetry_space_group_name_H-M "P M M 2"
_symmetry_group_IT_number 25
_symmetry_cell_setting 'orthorhombic'
loop_
_space_group_symop_operation_xyz
x,y,z
-x,-y,z
-x,y,z
x,-y,z
loop_
_atom_site_type_symbol
_atom_site_label
_atom_site_fract_x
_atom_site_fract_y
_atom_site_fract_z
Si Si1 0.671584 0.860778 0.067690
Si Si2 0.142954 0.884998 0.567686
Si Si3 0.163131 0.392099 0.567706
Si Si4 0.874789 0.892140 0.067686
Si Si5 0.406261 0.338368 0.067696
Si Si6 0.636517 0.366695 0.567696
Si Si7 0.898481 0.609809 0.067706
Si Si8 0.655144 0.851388 0.567690
O O1 0.771114 0.887917 0.067688
O O2 0.662188 0.746854 0.067692
O O3 0.632420 0.893296 0.314804
O O4 0.632420 0.893296 0.820576
O O5 0.100173 0.855103 0.323372
O O6 0.240910 0.849344 0.567688
O O7 0.147913 0.000000 0.567686
O O8 0.100173 0.855103 0.812000
O O9 0.130317 0.500000 0.567707
O O10 0.264428 0.390102 0.567703
O O11 0.134455 0.350662 0.316581
O O12 0.134455 0.350662 0.818832
O O13 0.901068 0.000000 0.067686
O O14 0.500000 0.293808 0.067699
O O15 0.397502 0.394585 0.311233
O O16 0.397504 0.394584 0.824157
O O17 0.621995 0.254541 0.567692
O O18 0.870425 0.500000 0.067707
O O19 0.000000 0.613339 0.067706
#
# Coordination Sequence:
#
# PCOD9337235 Si02
#       8
#     4   4   4   4   4   4   4   4
#     4   8  14  23  35  51  68  90 124 166 213 260
#     4   8  12  18  29  46  67  91 121 155 196 246
#     4  10  19  31  49  71  95 122 147 174 207 243
#     4   8  12  18  29  45  65  87 112 149 199 254
#     4  10  19  31  46  60  77 105 144 192 236 270
#     4  10  19  31  46  64  85 109 144 184 223 265
#     4   9  17  30  49  74 101 125 147 166 188 232
#     4   8  14  23  35  52  73  97 127 166 208 250
#
# _framework density 25.138732000000001
#
# number of rings (size 3 to 8) (size 9 to 14) (size 15 to 20)
#    0.000    3.125    0.000    1.500    0.000    1.500 
#    0.000    0.000    0.000    2.625    0.000    0.000 
#    0.000   21.000    0.000    0.000    0.000    6.250 
#
# Total GULP energy -178459.630794 kJ/mol
# GULP energy per Si atom -5576.863462 kJ/mol
# Density = 2.508151 g / cm^3
# Si number density = 25.138732 Si / 1000 Ang^3
#
#
#
# Elastic Constant Matrix: (Units=GPa)
#
#
# Indices 1 2 3 4 5 6 
#
# 1 62.5144 9.3048 29.3449 0.0000 0.0000 0.0000
# 2 9.3048 112.0294 9.3528 0.0000 0.0000 0.0000
# 3 29.3449 9.3528 370.0136 0.0000 0.0000 0.0000
# 4 0.0000 0.0000 0.0000 13.0972 0.0000 0.0000
# 5 0.0000 0.0000 0.0000 0.0000 17.7299 0.0000
# 6 0.0000 0.0000 0.0000 0.0000 0.0000 7.2141
#
#
#
# Elastic Compliance Matrix: (Units=1/GPa)
#
#
# Indices 1 2 3 4 5 6 
#
# 1 0.016798 -0.001287 -0.001300 0.000000 0.000000 0.000000
# 2 -0.001287 0.009044 -0.000127 0.000000 0.000000 0.000000
# 3 -0.001300 -0.000127 0.002809 0.000000 0.000000 0.000000
# 4 0.000000 0.000000 0.000000 0.076352 0.000000 0.000000
# 5 0.000000 0.000000 0.000000 0.000000 0.056402 0.000000
# 6 0.000000 0.000000 0.000000 0.000000 0.000000 0.138618
#
#
# Mechanical properties :
#
#
# Convention : Reuss Voigt Hill
#
# Bulk Modulus (GPa) = 43.05774 71.17360 57.11567
# Shear Modulus (GPa) = 15.96474 40.71190 28.33832
#
# Velocity S-wave (km/s) = 2.52278 4.02865 3.36114
# Velocity P-wave (km/s) = 5.06470 7.07205 6.15081
#
# Compressibility (1/GPa) = 0.02322463
#
# Stress axis : x y z
#
# Youngs Moduli (GPa) = 59.53124 110.57474 356.01418
#
# Poissons Ratio (x) = 0.14227 0.46270
# Poissons Ratio (y) = 0.07660 0.04505
# Poissons Ratio (z) = 0.07737 0.01399
#
# Static dielectric constant tensor:
#      x y z
#    x 1.875720 0.000000 0.000000 
#    y 0.000000 1.960620 0.000000 
#    z 0.000000 0.000000 2.089860 
# 
# From -- ./inp_files/964.got.cif
#   From: 2010.05.17/outbox.cif.g08.bks.cpg/sg25_1_cif.got.tgz:964.got - 2010.06.04 01:04:00.
