data_PCOD9337050
_publ_section_title
;
Structure prediction by ZEFSAII (Michael W. Deem and Ramdas Pophale) SiO2 
 PCOD9337050
Probable space group: I 21 21 21
;
_chemical_formula_sum "Si O2"
_cell_formula_units_Z 24
_cell_length_a 9.000000
_cell_length_b 30.000000
_cell_length_c 9.000000
_cell_angle_alpha 90.000000
_cell_angle_beta 90.000000
_cell_angle_gamma 90.000000
_cell_volume 2430.000000
_symmetry_space_group_name_H-M "I 21 21 21"
_symmetry_group_IT_number 24
_symmetry_cell_setting 'orthorhombic'
loop_
_space_group_symop_operation_xyz
x,y,z
-x,1/2-y,z
x,-y,1/2-z
1/2-x,y,-z
1/2+x,1/2+y,1/2+z
1/2-x,-y,1/2+z
1/2+x,1/2-y,-z
-x,1/2+y,1/2-z
loop_
_atom_site_type_symbol
_atom_site_label
_atom_site_fract_x
_atom_site_fract_y
_atom_site_fract_z
Si Si1 0.034479 0.000000 0.250000
Si Si2 0.593463 0.319164 0.410567
Si Si3 0.250000 0.969167 0.000000
Si Si4 0.230480 0.769322 0.324361
Si Si5 0.658679 0.915932 0.790452
Si Si6 0.063517 0.315434 0.284629
Si Si7 0.019592 0.414507 0.623073
O O1 0.141112 0.994910 0.108956
O O2 0.932645 0.956676 0.278335
O O3 0.750000 0.326333 0.500000
O O4 0.633932 0.286056 0.277702
O O5 0.474090 0.308214 0.539755
O O6 0.534459 0.364913 0.342273
O O7 0.366551 0.941886 0.104635
O O8 0.250000 0.767805 0.500000
O O9 0.181582 0.721080 0.265357
O O10 0.091825 0.802660 0.293477
O O11 0.617687 0.865207 0.746249
O O12 0.835362 0.925516 0.778434
O O13 0.594858 0.915985 0.959556
#
# Coordination Sequence:
#
# PCOD9337050 Si02
#       7
#     4   8   4   8   8   8   8
#     4  10  22  38  66  96 122 164 204 268 318 386
#     4   9  17  36  62  93 111 156 218 262 301 377
#     4  10  20  38  64  96 126 158 212 260 326 374
#     4  10  21  40  59  85 130 168 205 267 327 374
#     4   9  19  38  62  88 127 160 205 262 319 370
#     4   9  20  42  58  87 122 165 216 262 303 393
#     4   9  17  35  63  91 121 158 203 266 316 368
#
# _framework density 9.8765429999999999
#
# number of rings (size 3 to 8) (size 9 to 14) (size 15 to 20)
#    0.000    2.667    0.833    0.000    2.333    0.667 
#   40.500    0.000    7.333    0.000    0.000    0.000 
#    0.000    0.000    0.000    0.000    0.000    0.000 
#
# Total GULP energy -133708.917508 kJ/mol
# GULP energy per Si atom -5571.204896 kJ/mol
# Density = 0.985406 g / cm^3
# Si number density = 9.876543 Si / 1000 Ang^3
#
#
#
# Elastic Constant Matrix: (Units=GPa)
#
#
# Indices 1 2 3 4 5 6 
#
# 1 129.0014 90.6708 47.9661 0.0000 -0.0001 -0.0001
# 2 90.6708 135.4557 60.5369 0.0002 0.0002 0.0001
# 3 47.9661 60.5369 84.0285 0.0013 -0.0005 -0.0016
# 4 0.0000 0.0002 0.0013 16.5604 0.0002 0.0000
# 5 -0.0001 0.0002 -0.0005 0.0002 18.4926 0.0000
# 6 -0.0001 0.0001 -0.0016 0.0000 0.0000 24.5242
#
#
#
# Elastic Compliance Matrix: (Units=1/GPa)
#
#
# Indices 1 2 3 4 5 6 
#
# 1 0.014851 -0.009074 -0.001940 0.000000 0.000000 0.000000
# 2 -0.009074 0.016432 -0.006659 0.000000 0.000000 -0.000001
# 3 -0.001940 -0.006659 0.017805 -0.000001 0.000001 0.000001
# 4 0.000000 0.000000 -0.000001 0.060385 -0.000001 0.000000
# 5 0.000000 0.000000 0.000001 -0.000001 0.054076 0.000000
# 6 0.000000 -0.000001 0.000001 0.000000 0.000000 0.040776
#
#
# Mechanical properties :
#
#
# Convention : Reuss Voigt Hill
#
# Bulk Modulus (GPa) = 72.76429 82.98146 77.87287
# Shear Modulus (GPa) = 20.47070 21.86956 21.17013
#
# Velocity S-wave (km/s) = 3.22270 3.33099 3.27729
# Velocity P-wave (km/s) = 7.12493 7.54285 7.33686
#
# Compressibility (1/GPa) = 0.01374301
#
# Stress axis : x y z
#
# Youngs Moduli (GPa) = 67.33586 60.85679 56.16250
#
# Poissons Ratio (x) = 0.55219 0.10898
# Poissons Ratio (y) = 0.61098 0.37397
# Poissons Ratio (z) = 0.13066 0.40522
#
# Static dielectric constant tensor:
#      x y z
#    x 1.725710 0.000000 0.000000 
#    y 0.000000 1.712740 0.000000 
#    z 0.000000 0.000000 1.727220 
# 
# From -- ./inp_files/9806.got.cif
#   From: 2010.05.17/outbox.ucp.g08.bks.cvg/sg24_5_cif.got.tgz:9806.got - 2010.06.11 15:20:44.
