data_PCOD9337335
_publ_section_title
;
Structure prediction by ZEFSAII (Michael W. Deem and Ramdas Pophale) SiO2 
 PCOD9337335
Probable space group: P M M 2
;
_chemical_formula_sum "Si O2"
_cell_formula_units_Z 32
_cell_length_a 15.983437
_cell_length_b 8.315230
_cell_length_c 12.275284
_cell_angle_alpha 90.000000
_cell_angle_beta 90.000000
_cell_angle_gamma 90.000000
_cell_volume 1631.458341
_symmetry_space_group_name_H-M "P M M 2"
_symmetry_group_IT_number 25
_symmetry_cell_setting 'orthorhombic'
loop_
_space_group_symop_operation_xyz
x,y,z
-x,-y,z
-x,y,z
x,-y,z
loop_
_atom_site_type_symbol
_atom_site_label
_atom_site_fract_x
_atom_site_fract_y
_atom_site_fract_z
Si Si1 0.836644 0.805086 0.826500
Si Si2 0.751649 0.691533 0.201617
Si Si3 0.250118 0.305694 0.449879
Si Si4 0.093995 0.194306 0.591054
Si Si5 0.592614 0.696278 0.593058
Si Si6 0.592411 0.808958 0.067071
Si Si7 0.646018 0.691397 0.833346
Si Si8 0.092742 0.806141 0.059512
O O1 0.882450 0.758664 0.714865
O O2 0.744387 0.731027 0.829698
O O3 0.828968 0.000000 0.827394
O O4 0.885425 0.756818 0.935707
O O5 0.756800 0.500000 0.205490
O O6 0.748517 0.753186 0.325603
O O7 0.668310 0.736992 0.135819
O O8 0.833089 0.752701 0.138099
O O9 0.253925 0.500000 0.448525
O O10 0.165587 0.256584 0.511195
O O11 0.330879 0.247707 0.518076
O O12 0.000000 0.249009 0.563951
O O13 0.094803 0.000000 0.587358
O O14 0.500000 0.746475 0.556589
O O15 0.594518 0.500000 0.592352
O O16 0.607580 0.745546 0.718286
O O17 0.500000 0.748174 0.098749
O O18 0.594436 0.000000 0.081940
O O19 0.607356 0.771550 0.939904
O O20 0.633873 0.500000 0.842788
O O21 0.000000 0.748095 0.090465
O O22 0.091470 0.000000 0.060315
#
# Coordination Sequence:
#
# PCOD9337335 Si02
#       8
#     4   4   4   4   4   4   4   4
#     4  10  19  34  58  86 118 152 188 235 291 348
#     4  11  24  40  60  85 115 153 198 249 295 340
#     4  10  22  40  59  82 113 151 196 243 290 336
#     4  10  21  37  59  87 118 153 193 236 285 345
#     4   9  18  34  57  84 114 147 183 227 281 340
#     4  11  24  41  61  86 119 156 192 235 290 352
#     4  11  20  33  59  90 120 151 186 232 288 349
#     4  10  21  38  61  86 115 154 194 235 290 352
#
# _framework density 19.614355
#
# number of rings (size 3 to 8) (size 9 to 14) (size 15 to 20)
#    0.000    1.750    2.500    1.875    0.000    5.500 
#    0.000    3.750    0.000    3.375    0.000    0.000 
#    0.000    0.000    0.000    0.000    0.000    0.000 
#
# Total GULP energy -178773.995025 kJ/mol
# GULP energy per Si atom -5586.687345 kJ/mol
# Density = 1.956971 g / cm^3
# Si number density = 19.614355 Si / 1000 Ang^3
#
#
#
# Elastic Constant Matrix: (Units=GPa)
#
#
# Indices 1 2 3 4 5 6 
#
# 1 191.6100 9.5649 85.5692 0.0000 0.0000 0.0000
# 2 9.5649 6.2268 10.5961 0.0000 0.0000 0.0000
# 3 85.5692 10.5961 153.9494 0.0000 0.0000 0.0000
# 4 0.0000 0.0000 0.0000 20.7229 0.0000 0.0000
# 5 0.0000 0.0000 0.0000 0.0000 -1.4249 0.0000
# 6 0.0000 0.0000 0.0000 0.0000 0.0000 19.7604
#
#
#
# Elastic Compliance Matrix: (Units=1/GPa)
#
#
# Indices 1 2 3 4 5 6 
#
# 1 0.007063 -0.004722 -0.003601 0.000000 0.000000 0.000000
# 2 -0.004722 0.185057 -0.010113 0.000000 0.000000 0.000000
# 3 -0.003601 -0.010113 0.009193 0.000000 0.000000 0.000000
# 4 0.000000 0.000000 0.000000 0.048256 0.000000 0.000000
# 5 0.000000 0.000000 0.000000 0.000000 -0.701786 0.000000
# 6 0.000000 0.000000 0.000000 0.000000 0.000000 0.050606
#
#
# Mechanical properties :
#
#
# Convention : Reuss Voigt Hill
#
# Bulk Modulus (GPa) = 6.08116 62.58298 34.33207
# Shear Modulus (GPa) = -16.13282 24.21540 4.04129
#
# Velocity S-wave (km/s) = -2.87104 3.51746 1.43696
# Velocity P-wave (km/s) = 2.80774 6.96224 4.50496
#
# Compressibility (1/GPa) = 0.16444235
#
# Stress axis : x y z
#
# Youngs Moduli (GPa) = 141.59117 5.40375 108.77845
#
# Poissons Ratio (x) = 0.02551 0.39167
# Poissons Ratio (y) = 0.66854 1.10005
# Poissons Ratio (z) = 0.50981 0.05465
#
# Static dielectric constant tensor:
#      x y z
#    x 1.682800 0.000000 0.000000 
#    y 0.000000 1.685210 0.000000 
#    z 0.000000 0.000000 1.672020 
# 
# From -- ./inp_files/4164.got.cif
#   From: 2010.05.17/outbox.cif.g08.bks.cpg/sg25_3_cif.got.tgz:4164.got - 2010.06.04 01:04:00.
