data_PCOD9337796
_publ_section_title
;
Structure prediction by ZEFSAII (Michael W. Deem and Ramdas Pophale) SiO2 
 PCOD9337796
Probable space group: P M M 2
;
_chemical_formula_sum "Si O2"
_cell_formula_units_Z 32
_cell_length_a 8.526353
_cell_length_b 15.939375
_cell_length_c 12.206859
_cell_angle_alpha 90.000000
_cell_angle_beta 90.000000
_cell_angle_gamma 90.000000
_cell_volume 1658.969972
_symmetry_space_group_name_H-M "P M M 2"
_symmetry_group_IT_number 25
_symmetry_cell_setting 'orthorhombic'
loop_
_space_group_symop_operation_xyz
x,y,z
-x,-y,z
-x,y,z
x,-y,z
loop_
_atom_site_type_symbol
_atom_site_label
_atom_site_fract_x
_atom_site_fract_y
_atom_site_fract_z
Si Si1 0.310589 0.906037 0.286770
Si Si2 0.190915 0.406343 0.286421
Si Si3 0.687434 0.249501 0.674700
Si Si4 0.188003 0.338179 0.048281
Si Si5 0.310654 0.593826 0.822271
Si Si6 0.812273 0.751726 0.428918
Si Si7 0.687189 0.149298 0.043515
Si Si8 0.812957 0.093608 0.812733
O O1 0.500000 0.902559 0.290764
O O2 0.245208 0.833345 0.363528
O O3 0.264597 0.888527 0.160616
O O4 0.260914 0.000000 0.318787
O O5 0.245588 0.500000 0.314966
O O6 0.233189 0.383324 0.161530
O O7 0.245371 0.332059 0.366029
O O8 0.000000 0.406990 0.290509
O O9 0.500000 0.252578 0.667938
O O10 0.741638 0.332220 0.741022
O O11 0.755855 0.247168 0.553329
O O12 0.736171 0.167365 0.742543
O O13 0.267928 0.247209 0.043481
O O14 0.000000 0.327290 0.048023
O O15 0.239450 0.389161 0.941636
O O16 0.500000 0.598727 0.831144
O O17 0.269290 0.500000 0.784510
O O18 0.000000 0.750993 0.426328
O O19 0.500000 0.139835 0.032033
O O20 0.768040 0.107078 0.939479
O O21 0.000000 0.099674 0.801184
O O22 0.762732 0.000000 0.778478
#
# Coordination Sequence:
#
# PCOD9337796 Si02
#       8
#     4   4   4   4   4   4   4   4
#     4  10  22  40  62  88 120 158 198 240 292 358
#     4   9  19  36  58  87 122 157 194 239 294 353
#     4  11  24  42  63  86 117 160 202 247 300 357
#     4  11  20  34  60  91 124 160 198 241 295 356
#     4  10  22  40  61  88 122 158 198 246 300 357
#     4  11  23  40  62  87 117 155 201 254 300 345
#     4  11  21  36  61  91 125 161 196 239 297 360
#     4  11  24  41  63  92 123 155 196 247 299 355
#
# _framework density 19.289078
#
# number of rings (size 3 to 8) (size 9 to 14) (size 15 to 20)
#    0.000    1.500    2.500    2.625    0.000    4.500 
#    0.000    0.000    0.000    3.375    0.000    0.000 
#    0.000    0.000    0.000    0.000    0.000    0.000 
#
# Total GULP energy -178856.295378 kJ/mol
# GULP energy per Si atom -5589.259231 kJ/mol
# Density = 1.924518 g / cm^3
# Si number density = 19.289078 Si / 1000 Ang^3
#
#
#
# Elastic Constant Matrix: (Units=GPa)
#
#
# Indices 1 2 3 4 5 6 
#
# 1 19.3722 20.2891 20.1599 0.0000 0.0000 0.0000
# 2 20.2891 174.1394 77.1589 0.0000 0.0000 0.0000
# 3 20.1599 77.1589 146.0392 0.0000 0.0000 0.0000
# 4 0.0000 0.0000 0.0000 -0.7110 0.0000 0.0000
# 5 0.0000 0.0000 0.0000 0.0000 31.8599 0.0000
# 6 0.0000 0.0000 0.0000 0.0000 0.0000 20.5916
#
#
#
# Elastic Compliance Matrix: (Units=1/GPa)
#
#
# Indices 1 2 3 4 5 6 
#
# 1 0.062922 -0.004547 -0.006284 0.000000 0.000000 0.000000
# 2 -0.004547 0.007826 -0.003507 0.000000 0.000000 0.000000
# 3 -0.006284 -0.003507 0.009568 0.000000 0.000000 0.000000
# 4 0.000000 0.000000 0.000000 -1.406439 0.000000 0.000000
# 5 0.000000 0.000000 0.000000 0.000000 0.031387 0.000000
# 6 0.000000 0.000000 0.000000 0.000000 0.000000 0.048564
#
#
# Mechanical properties :
#
#
# Convention : Reuss Voigt Hill
#
# Bulk Modulus (GPa) = 19.36478 63.86297 41.61387
# Shear Modulus (GPa) = -4.16568 25.14428 10.48930
#
# Velocity S-wave (km/s) = -1.47115 3.61439 2.33447
# Velocity P-wave (km/s) = 2.67868 7.11327 5.37466
#
# Compressibility (1/GPa) = 0.05164015
#
# Stress axis : x y z
#
# Youngs Moduli (GPa) = 15.89281 127.77382 104.51531
#
# Poissons Ratio (x) = 0.58096 0.65674
# Poissons Ratio (y) = 0.07226 0.36657
# Poissons Ratio (z) = 0.09987 0.44814
#
# Static dielectric constant tensor:
#      x y z
#    x 1.660760 0.000000 0.000000 
#    y 0.000000 1.677390 0.000000 
#    z 0.000000 0.000000 1.636280 
# 
# From -- ./inp_files/4188.got.cif
#   From: 2010.05.17/outbox.cif.g08.bks.cpg/sg25_3_cif.got.tgz:4188.got - 2010.06.04 01:04:00.
