data_PCOD9337650
_publ_section_title
;
Structure prediction by ZEFSAII (Michael W. Deem and Ramdas Pophale) SiO2 
 PCOD9337650
Probable space group: P M M 2
;
_chemical_formula_sum "Si O2"
_cell_formula_units_Z 32
_cell_length_a 8.111313
_cell_length_b 15.990881
_cell_length_c 12.287504
_cell_angle_alpha 90.000000
_cell_angle_beta 90.000000
_cell_angle_gamma 90.000000
_cell_volume 1593.775784
_symmetry_space_group_name_H-M "P M M 2"
_symmetry_group_IT_number 25
_symmetry_cell_setting 'orthorhombic'
loop_
_space_group_symop_operation_xyz
x,y,z
-x,-y,z
-x,y,z
x,-y,z
loop_
_atom_site_type_symbol
_atom_site_label
_atom_site_fract_x
_atom_site_fract_y
_atom_site_fract_z
Si Si1 0.297947 0.250203 0.539070
Si Si2 0.194280 0.907667 0.157393
Si Si3 0.802037 0.592460 0.144928
Si Si4 0.802665 0.666993 0.915562
Si Si5 0.693979 0.142480 0.921029
Si Si6 0.699536 0.593976 0.685669
Si Si7 0.298674 0.907810 0.681590
Si Si8 0.304885 0.746945 0.291533
O O1 0.500000 0.249110 0.539129
O O2 0.246189 0.334261 0.601830
O O3 0.243297 0.168797 0.606719
O O4 0.239856 0.248153 0.414761
O O5 0.268685 0.831079 0.224475
O O6 0.000000 0.907269 0.178923
O O7 0.261382 0.000000 0.185084
O O8 0.221120 0.891467 0.029201
O O9 0.739075 0.500000 0.174647
O O10 0.758680 0.666363 0.226990
O O11 0.000000 0.588312 0.140837
O O12 0.746618 0.618147 0.023549
O O13 0.719925 0.757937 0.914426
O O14 0.760157 0.618303 0.805725
O O15 0.000000 0.678878 0.922006
O O16 0.500000 0.123732 0.931016
O O17 0.754433 0.105483 0.806534
O O18 0.500000 0.595342 0.687405
O O19 0.752922 0.500000 0.656945
O O20 0.500000 0.905180 0.682720
O O21 0.248876 0.000000 0.643167
O O22 0.500000 0.737721 0.298799
#
# Coordination Sequence:
#
# PCOD9337650 Si02
#       8
#     4   4   4   4   4   4   4   4
#     4   9  19  36  55  82 115 147 190 241 293 337
#     4  11  24  41  60  84 120 161 194 232 290 354
#     4  10  22  40  60  82 115 157 193 233 291 353
#     4  11  21  35  58  86 118 154 189 230 289 353
#     4  11  20  34  60  90 118 148 189 238 288 344
#     4  10  20  36  59  85 115 151 190 235 287 343
#     4   9  17  31  55  85 115 144 176 225 286 339
#     4  11  23  38  61  88 114 150 199 252 294 338
#
# _framework density 20.078108
#
# number of rings (size 3 to 8) (size 9 to 14) (size 15 to 20)
#    0.000    1.750    2.500    2.250    0.000    4.000 
#    0.000    3.750    0.000    0.000    0.000    0.000 
#    0.000    0.000    0.000    0.000    0.000    0.000 
#
# Total GULP energy -178780.076544 kJ/mol
# GULP energy per Si atom -5586.877392 kJ/mol
# Density = 2.003241 g / cm^3
# Si number density = 20.078108 Si / 1000 Ang^3
#
#
#
# Elastic Constant Matrix: (Units=GPa)
#
#
# Indices 1 2 3 4 5 6 
#
# 1 9.3397 -1.8338 -0.7135 0.0000 0.0000 0.0000
# 2 -1.8338 181.5797 82.1108 0.0000 0.0000 0.0000
# 3 -0.7135 82.1108 152.0444 0.0000 0.0000 0.0000
# 4 0.0000 0.0000 0.0000 -1.1174 0.0000 0.0000
# 5 0.0000 0.0000 0.0000 0.0000 -709.7668 0.0000
# 6 0.0000 0.0000 0.0000 0.0000 0.0000 1.7508
#
#
#
# Elastic Compliance Matrix: (Units=1/GPa)
#
#
# Indices 1 2 3 4 5 6 
#
# 1 0.107283 0.001132 -0.000108 0.000000 0.000000 0.000000
# 2 0.001132 0.007299 -0.003936 0.000000 0.000000 0.000000
# 3 -0.000108 -0.003936 0.008702 0.000000 0.000000 0.000000
# 4 0.000000 0.000000 0.000000 -0.894910 0.000000 0.000000
# 5 0.000000 0.000000 0.000000 0.000000 -0.001409 0.000000
# 6 0.000000 0.000000 0.000000 0.000000 0.000000 0.571173
#
#
# Mechanical properties :
#
#
# Convention : Reuss Voigt Hill
#
# Bulk Modulus (GPa) = 8.51351 55.78785 32.15068
# Shear Modulus (GPa) = -31.87062 -124.26667 -78.06864
#
# Velocity S-wave (km/s) = -3.98846 -7.87566 -6.24235
# Velocity P-wave (km/s) = 4.11837 7.40646 5.99235
#
# Compressibility (1/GPa) = 0.11746031
#
# Stress axis : x y z
#
# Youngs Moduli (GPa) = 9.32111 137.01149 114.91226
#
# Poissons Ratio (x) = -0.15515 0.01242
# Poissons Ratio (y) = -0.01055 0.45233
# Poissons Ratio (z) = 0.00101 0.53932
#
# Static dielectric constant tensor:
#      x y z
#    x 1.835630 0.000000 0.000000 
#    y 0.000000 1.720990 0.000000 
#    z 0.000000 0.000000 1.685990 
# 
# From -- ./inp_files/4213.got.cif
#   From: 2010.05.17/outbox.cif.g08.bks.cpg/sg25_3_cif.got.tgz:4213.got - 2010.06.04 01:04:00.
