data_PCOD9337766
_publ_section_title
;
Structure prediction by ZEFSAII (Michael W. Deem and Ramdas Pophale) SiO2 
 PCOD9337766
Probable space group: P M M 2
;
_chemical_formula_sum "Si O2"
_cell_formula_units_Z 32
_cell_length_a 7.589794
_cell_length_b 14.497246
_cell_length_c 13.508234
_cell_angle_alpha 90.000000
_cell_angle_beta 90.000000
_cell_angle_gamma 90.000000
_cell_volume 1486.325991
_symmetry_space_group_name_H-M "P M M 2"
_symmetry_group_IT_number 25
_symmetry_cell_setting 'orthorhombic'
loop_
_space_group_symop_operation_xyz
x,y,z
-x,-y,z
-x,y,z
x,-y,z
loop_
_atom_site_type_symbol
_atom_site_label
_atom_site_fract_x
_atom_site_fract_y
_atom_site_fract_z
Si Si1 0.708416 0.708885 0.356310
Si Si2 0.215954 0.104637 0.838785
Si Si3 0.784163 0.712040 0.748126
Si Si4 0.711346 0.606178 0.161504
Si Si5 0.791533 0.396098 0.556471
Si Si6 0.788999 0.605397 0.944104
Si Si7 0.201601 0.887479 0.056280
Si Si8 0.212065 0.895702 0.271057
O O1 0.500000 0.696517 0.354971
O O2 0.781112 0.661969 0.255746
O O3 0.772203 0.658757 0.454524
O O4 0.746125 0.817490 0.349797
O O5 0.268317 0.181488 0.760260
O O6 0.000000 0.103211 0.843840
O O7 0.272413 0.000000 0.818935
O O8 0.278313 0.134593 0.948924
O O9 0.720248 0.660696 0.650107
O O10 0.726316 0.659927 0.848107
O O11 0.000000 0.710878 0.747275
O O12 0.500000 0.602981 0.168921
O O13 0.776902 0.500000 0.164310
O O14 0.751394 0.645924 0.052763
O O15 0.718686 0.500000 0.549131
O O16 0.000000 0.404702 0.574543
O O17 0.720737 0.500000 0.943158
O O18 0.000000 0.601398 0.935816
O O19 0.282937 0.864158 0.162631
O O20 0.000000 0.852525 0.055761
O O21 0.194394 0.000000 0.057450
O O22 0.000000 0.900172 0.261499
O O23 0.273394 0.000000 0.292334
#
# Coordination Sequence:
#
# PCOD9337766 Si02
#       8
#     4   4   4   4   4   4   4   4
#     4  11  23  37  55  78 106 143 186 228 274 328
#     4   8  13  22  39  68 105 139 169 202 249 312
#     4   9  17  29  48  74 104 137 171 215 274 326
#     4   9  19  35  51  70 102 140 174 215 270 329
#     4  10  21  38  58  78 103 137 181 234 285 332
#     4   9  17  29  48  76 105 131 164 210 266 327
#     4   7  11  21  39  67 103 138 169 204 247 297
#     4   9  18  33  54  81 112 144 181 225 268 315
#
# _framework density 21.529596999999999
#
# number of rings (size 3 to 8) (size 9 to 14) (size 15 to 20)
#    0.000    3.000    0.000    2.625    1.750    3.500 
#    0.000    2.500    0.000    3.750    0.000    0.000 
#    0.000    1.000    0.000    0.000    0.000    0.000 
#
# Total GULP energy -178552.164154 kJ/mol
# GULP energy per Si atom -5579.755130 kJ/mol
# Density = 2.148059 g / cm^3
# Si number density = 21.529597 Si / 1000 Ang^3
#
#
#
# Elastic Constant Matrix: (Units=GPa)
#
#
# Indices 1 2 3 4 5 6 
#
# 1 47.0335 0.5855 0.3669 0.0000 0.0000 0.0000
# 2 0.5855 145.6164 106.5295 0.0000 0.0000 0.0000
# 3 0.3669 106.5295 166.1968 0.0000 0.0000 0.0000
# 4 0.0000 0.0000 0.0000 19.5065 0.0000 0.0000
# 5 0.0000 0.0000 0.0000 0.0000 11.6677 0.0000
# 6 0.0000 0.0000 0.0000 0.0000 0.0000 -4.8171
#
#
#
# Elastic Compliance Matrix: (Units=1/GPa)
#
#
# Indices 1 2 3 4 5 6 
#
# 1 0.021263 -0.000096 0.000015 0.000000 0.000000 0.000000
# 2 -0.000096 0.012932 -0.008289 0.000000 0.000000 0.000000
# 3 0.000015 -0.008289 0.011330 0.000000 0.000000 0.000000
# 4 0.000000 0.000000 0.000000 0.051265 0.000000 0.000000
# 5 0.000000 0.000000 0.000000 0.000000 0.085706 0.000000
# 6 0.000000 0.000000 0.000000 0.000000 0.000000 -0.207595
#
#
# Mechanical properties :
#
#
# Convention : Reuss Voigt Hill
#
# Bulk Modulus (GPa) = 34.74218 63.75674 49.24946
# Shear Modulus (GPa) = 4047.20350 22.02909 2034.61629
#
# Velocity S-wave (km/s) = 43.40407 3.20222 30.77473
# Velocity P-wave (km/s) = 50.27978 6.58408 35.85671
#
# Compressibility (1/GPa) = 0.02878346
#
# Stress axis : x y z
#
# Youngs Moduli (GPa) = 47.03114 77.33001 88.26218
#
# Poissons Ratio (x) = 0.00745 -0.00131
# Poissons Ratio (y) = 0.00453 0.73158
# Poissons Ratio (z) = -0.00070 0.64097
#
# Static dielectric constant tensor:
#      x y z
#    x 1.800840 0.000000 0.000000 
#    y 0.000000 1.816080 0.000000 
#    z 0.000000 0.000000 1.771930 
# 
# From -- ./inp_files/4287.got.cif
#   From: 2010.05.17/outbox.cif.g08.bks.cpg/sg25_3_cif.got.tgz:4287.got - 2010.06.04 01:04:00.
