data_PCOD9337160
_publ_section_title
;
Structure prediction by ZEFSAII (Michael W. Deem and Ramdas Pophale) SiO2 
 PCOD9337160
Probable space group: P M M 2
;
_chemical_formula_sum "Si O2"
_cell_formula_units_Z 32
_cell_length_a 7.865729
_cell_length_b 15.197665
_cell_length_c 12.735075
_cell_angle_alpha 90.000000
_cell_angle_beta 90.000000
_cell_angle_gamma 90.000000
_cell_volume 1522.359962
_symmetry_space_group_name_H-M "P M M 2"
_symmetry_group_IT_number 25
_symmetry_cell_setting 'orthorhombic'
loop_
_space_group_symop_operation_xyz
x,y,z
-x,-y,z
-x,y,z
x,-y,z
loop_
_atom_site_type_symbol
_atom_site_label
_atom_site_fract_x
_atom_site_fract_y
_atom_site_fract_z
Si Si1 0.194250 0.651627 0.759090
Si Si2 0.805398 0.274476 0.142835
Si Si3 0.792174 0.291101 0.535443
Si Si4 0.791528 0.398278 0.328447
Si Si5 0.205709 0.904289 0.595303
Si Si6 0.697354 0.594691 0.975993
Si Si7 0.702632 0.095273 0.049506
Si Si8 0.702985 0.156737 0.820694
O O1 0.264352 0.658182 0.641206
O O2 0.288246 0.600401 0.850708
O O3 0.201985 0.752443 0.797969
O O4 0.000000 0.620241 0.755342
O O5 0.730116 0.340259 0.229687
O O6 0.735551 0.177452 0.124633
O O7 0.000000 0.262464 0.172449
O O8 0.790988 0.326208 0.032964
O O9 0.741502 0.345099 0.433025
O O10 0.737291 0.188219 0.542308
O O11 0.000000 0.289986 0.539035
O O12 0.734818 0.500000 0.326222
O O13 0.000000 0.401011 0.326189
O O14 0.264771 0.899519 0.716440
O O15 0.000000 0.902485 0.593837
O O16 0.259860 0.000000 0.551308
O O17 0.500000 0.601853 0.004489
O O18 0.765118 0.500000 0.011874
O O19 0.500000 0.089187 0.041051
O O20 0.769595 0.000000 0.084104
O O21 0.762393 0.115855 0.930545
O O22 0.500000 0.174816 0.828981
#
# Coordination Sequence:
#
# PCOD9337160 Si02
#       8
#     4   4   4   4   4   4   4   4
#     4  10  19  32  53  82 113 144 179 222 274 327
#     4  11  22  36  57  83 110 140 184 238 282 323
#     4   8  16  31  51  77 108 139 176 221 275 331
#     4   9  18  34  56  81 108 140 181 230 281 329
#     4   9  17  29  47  74 108 144 182 225 270 318
#     4  11  23  37  54  78 111 151 186 220 274 338
#     4  10  21  36  54  77 109 150 188 221 269 333
#     4  10  18  30  50  75 107 147 186 219 261 321
#
# _framework density 21.019995000000002
#
# number of rings (size 3 to 8) (size 9 to 14) (size 15 to 20)
#    0.000    2.250    1.250    3.000    0.000    3.500 
#    0.000    1.875    0.000    9.750    0.000    1.750 
#    0.000    0.000    0.000    0.000    0.000    0.000 
#
# Total GULP energy -178489.916289 kJ/mol
# GULP energy per Si atom -5577.809884 kJ/mol
# Density = 2.097215 g / cm^3
# Si number density = 21.019995 Si / 1000 Ang^3
#
#
#
# Elastic Constant Matrix: (Units=GPa)
#
#
# Indices 1 2 3 4 5 6 
#
# 1 24.1673 3.5282 0.8138 0.0000 0.0000 0.0000
# 2 3.5282 161.2528 73.3224 0.0000 0.0000 0.0000
# 3 0.8138 73.3224 117.6197 0.0000 0.0000 0.0000
# 4 0.0000 0.0000 0.0000 18.9815 0.0000 0.0000
# 5 0.0000 0.0000 0.0000 0.0000 -232.6239 0.0000
# 6 0.0000 0.0000 0.0000 0.0000 0.0000 11.7558
#
#
#
# Elastic Compliance Matrix: (Units=1/GPa)
#
#
# Indices 1 2 3 4 5 6 
#
# 1 0.041524 -0.001086 0.000389 0.000000 0.000000 0.000000
# 2 -0.001086 0.008683 -0.005405 0.000000 0.000000 0.000000
# 3 0.000389 -0.005405 0.011869 0.000000 0.000000 0.000000
# 4 0.000000 0.000000 0.000000 0.052683 0.000000 0.000000
# 5 0.000000 0.000000 0.000000 0.000000 -0.004299 0.000000
# 6 0.000000 0.000000 0.000000 0.000000 0.000000 0.085064
#
#
# Mechanical properties :
#
#
# Convention : Reuss Voigt Hill
#
# Bulk Modulus (GPa) = 20.05113 50.92986 35.49049
# Shear Modulus (GPa) = 22.28651 -25.35228 -1.53288
#
# Velocity S-wave (km/s) = 3.25969 -3.47667 -0.85489
# Velocity P-wave (km/s) = 4.87106 2.85754 3.99329
#
# Compressibility (1/GPa) = 0.04987250
#
# Stress axis : x y z
#
# Youngs Moduli (GPa) = 24.08267 115.16697 84.25374
#
# Poissons Ratio (x) = 0.12503 -0.03281
# Poissons Ratio (y) = 0.02614 0.45542
# Poissons Ratio (z) = -0.00938 0.62252
#
# Static dielectric constant tensor:
#      x y z
#    x 1.806720 0.000000 0.000000 
#    y 0.000000 1.797530 0.000000 
#    z 0.000000 0.000000 1.758690 
# 
# From -- ./inp_files/4262.got.cif
#   From: 2010.05.17/outbox.cif.g08.bks.cpg/sg25_3_cif.got.tgz:4262.got - 2010.06.04 01:04:00.
