data_PCOD9337858
_publ_section_title
;
Structure prediction by ZEFSAII (Michael W. Deem and Ramdas Pophale) SiO2 
 PCOD9337858
Probable space group: P M M 2
;
_chemical_formula_sum "Si O2"
_cell_formula_units_Z 28
_cell_length_a 7.490947
_cell_length_b 9.984125
_cell_length_c 18.532901
_cell_angle_alpha 90.000000
_cell_angle_beta 90.000000
_cell_angle_gamma 90.000000
_cell_volume 1386.085881
_symmetry_space_group_name_H-M "P M M 2"
_symmetry_group_IT_number 25
_symmetry_cell_setting 'orthorhombic'
loop_
_space_group_symop_operation_xyz
x,y,z
-x,-y,z
-x,y,z
x,-y,z
loop_
_atom_site_type_symbol
_atom_site_label
_atom_site_fract_x
_atom_site_fract_y
_atom_site_fract_z
Si Si1 0.214592 0.652074 0.724220
Si Si2 0.782129 0.845033 0.597889
Si Si3 0.712811 0.652526 0.888676
Si Si4 0.713451 0.649856 0.307742
Si Si5 0.718647 0.154539 0.016004
Si Si6 0.786599 0.849000 0.437618
Si Si7 0.282386 0.345816 0.145464
O O1 0.281480 0.500000 0.715138
O O2 0.281605 0.750459 0.662113
O O3 0.255566 0.694155 0.806044
O O4 0.000000 0.648008 0.718268
O O5 0.724142 0.803360 0.517134
O O6 0.000000 0.841710 0.599212
O O7 0.730546 0.000000 0.608181
O O8 0.500000 0.644301 0.899217
O O9 0.783230 0.500000 0.898240
O O10 0.778649 0.760162 0.946430
O O11 0.500000 0.642023 0.302031
O O12 0.780426 0.500000 0.324448
O O13 0.750279 0.751969 0.371514
O O14 0.776590 0.687049 0.227163
O O15 0.500000 0.152539 0.015785
O O16 0.776600 0.000000 0.015816
O O17 0.775557 0.238567 0.086368
O O18 0.000000 0.857675 0.443246
O O19 0.718698 0.000000 0.424663
O O20 0.500000 0.345164 0.144269
O O21 0.229489 0.500000 0.129137
#
# Coordination Sequence:
#
# PCOD9337858 Si02
#       7
#     4   4   4   4   4   4   4
#     4   9  17  29  46  67  87 109 143 183 217 254
#     4   8  15  29  47  65  86 114 148 183 218 260
#     4   9  17  29  44  62  87 117 143 171 215 264
#     4   9  18  31  47  70  97 122 152 191 232 274
#     4   9  16  25  40  64  89 112 144 183 216 251
#     4   9  18  32  49  69  93 122 156 191 228 274
#     4   8  14  26  43  62  87 118 148 179 218 263
#
# _framework density 20.200768
#
# number of rings (size 3 to 8) (size 9 to 14) (size 15 to 20)
#    0.000    3.286    0.000    2.143    0.000    4.000 
#    0.000    3.571    0.000    3.429    0.000    2.000 
#    0.000    0.000    0.000    0.000    0.000    0.000 
#
# Total GULP energy -156133.038824 kJ/mol
# GULP energy per Si atom -5576.179958 kJ/mol
# Density = 2.015479 g / cm^3
# Si number density = 20.200768 Si / 1000 Ang^3
#
#
#
# Elastic Constant Matrix: (Units=GPa)
#
#
# Indices 1 2 3 4 5 6 
#
# 1 52.8058 4.9557 3.0257 0.0000 0.0000 0.0000
# 2 4.9557 153.4857 161.5079 0.0000 0.0000 0.0000
# 3 3.0257 161.5079 225.9293 0.0000 0.0000 0.0000
# 4 0.0000 0.0000 0.0000 52.7544 0.0000 0.0000
# 5 0.0000 0.0000 0.0000 0.0000 22.1191 0.0000
# 6 0.0000 0.0000 0.0000 0.0000 0.0000 5.7992
#
#
#
# Elastic Compliance Matrix: (Units=1/GPa)
#
#
# Indices 1 2 3 4 5 6 
#
# 1 0.019026 -0.001397 0.000744 0.000000 0.000000 0.000000
# 2 -0.001397 0.026398 -0.018852 0.000000 0.000000 0.000000
# 3 0.000744 -0.018852 0.017893 0.000000 0.000000 0.000000
# 4 0.000000 0.000000 0.000000 0.018956 0.000000 0.000000
# 5 0.000000 0.000000 0.000000 0.000000 0.045210 0.000000
# 6 0.000000 0.000000 0.000000 0.000000 0.000000 0.172438
#
#
# Mechanical properties :
#
#
# Convention : Reuss Voigt Hill
#
# Bulk Modulus (GPa) = 41.14221 85.68882 63.41552
# Shear Modulus (GPa) = 14.40791 33.64997 24.02894
#
# Velocity S-wave (km/s) = 2.67354 4.08582 3.45266
# Velocity P-wave (km/s) = 5.47187 8.04793 6.88152
#
# Compressibility (1/GPa) = 0.02430594
#
# Stress axis : x y z
#
# Youngs Moduli (GPa) = 52.56016 37.88228 55.88889
#
# Poissons Ratio (x) = 0.05293 -0.04158
# Poissons Ratio (y) = 0.07343 1.05361
# Poissons Ratio (z) = -0.03910 0.71415
#
# Static dielectric constant tensor:
#      x y z
#    x 1.784490 0.000000 0.000000 
#    y 0.000000 1.701110 0.000000 
#    z 0.000000 0.000000 1.700590 
# 
# From -- ./inp_files/6247.got.cif
#   From: 2010.05.17/outbox.cif.g08.bks.cpg/sg25_4_cif.got.tgz:6247.got - 2010.06.04 01:04:00.
