data_PCOD9337092
_publ_section_title
;
Structure prediction by ZEFSAII (Michael W. Deem and Ramdas Pophale) SiO2 
 PCOD9337092
Probable space group: P M M 2
;
_chemical_formula_sum "Si O2"
_cell_formula_units_Z 32
_cell_length_a 7.338119
_cell_length_b 14.520224
_cell_length_c 14.616298
_cell_angle_alpha 90.000000
_cell_angle_beta 90.000000
_cell_angle_gamma 90.000000
_cell_volume 1557.383092
_symmetry_space_group_name_H-M "P M M 2"
_symmetry_group_IT_number 25
_symmetry_cell_setting 'orthorhombic'
loop_
_space_group_symop_operation_xyz
x,y,z
-x,-y,z
-x,y,z
x,-y,z
loop_
_atom_site_type_symbol
_atom_site_label
_atom_site_fract_x
_atom_site_fract_y
_atom_site_fract_z
Si Si1 0.278101 0.606752 0.059910
Si Si2 0.278256 0.896936 0.768907
Si Si3 0.298756 0.253622 0.418505
Si Si4 0.277913 0.103448 0.555564
Si Si5 0.721604 0.608143 0.266502
Si Si6 0.719372 0.103898 0.080250
Si Si7 0.278793 0.759145 0.920973
Si Si8 0.791130 0.104393 0.281810
O O1 0.500000 0.612045 0.061519
O O2 0.227705 0.500000 0.050708
O O3 0.220757 0.637218 0.163100
O O4 0.217926 0.665507 0.971619
O O5 0.500000 0.897341 0.773298
O O6 0.228461 0.890798 0.662312
O O7 0.217190 0.808213 0.827234
O O8 0.222444 0.000000 0.802548
O O9 0.500000 0.286551 0.448399
O O10 0.213712 0.194773 0.501836
O O11 0.213102 0.333138 0.354330
O O12 0.315747 0.171474 0.345627
O O13 0.500000 0.104490 0.549341
O O14 0.222157 0.000000 0.521863
O O15 0.500000 0.616546 0.267523
O O16 0.765859 0.500000 0.275849
O O17 0.500000 0.103565 0.083186
O O18 0.784022 0.137861 0.178017
O O19 0.783775 0.000000 0.068707
O O20 0.772381 0.165937 0.996850
O O21 0.500000 0.752459 0.914305
O O22 0.000000 0.104058 0.312589
O O23 0.721579 0.000000 0.282142
#
# Coordination Sequence:
#
# PCOD9337092 Si02
#       8
#     4   4   4   4   4   4   4   4
#     4   8  13  20  29  44  69  99 128 157 191 233
#     4   8  13  21  32  49  76 103 123 153 202 246
#     4  10  17  26  44  63  77 101 140 176 199 230
#     4   8  14  23  35  54  78 100 125 162 205 240
#     4   8  14  24  38  58  82 104 129 166 209 245
#     4   9  16  25  38  57  78 100 131 167 195 226
#     4   9  14  20  34  54  74  97 127 162 196 230
#     4  10  20  30  38  54  84 115 135 157 199 249
#
# _framework density 20.547288999999999
#
# number of rings (size 3 to 8) (size 9 to 14) (size 15 to 20)
#    0.000    3.250    0.000    3.375    0.000    4.750 
#    0.000    0.000    0.000    1.125    0.000    6.125 
#    0.000    3.000    0.000    0.000    0.000    2.375 
#
# Total GULP energy -178246.263419 kJ/mol
# GULP energy per Si atom -5570.195732 kJ/mol
# Density = 2.050052 g / cm^3
# Si number density = 20.547289 Si / 1000 Ang^3
#
#
#
# Elastic Constant Matrix: (Units=GPa)
#
#
# Indices 1 2 3 4 5 6 
#
# 1 73.7495 3.2383 1.5534 0.0000 0.0000 0.0000
# 2 3.2383 119.4231 69.0166 0.0000 0.0000 0.0000
# 3 1.5534 69.0166 102.5202 0.0000 0.0000 0.0000
# 4 0.0000 0.0000 0.0000 44.7572 0.0000 0.0000
# 5 0.0000 0.0000 0.0000 0.0000 11.0267 0.0000
# 6 0.0000 0.0000 0.0000 0.0000 0.0000 -16.2306
#
#
#
# Elastic Compliance Matrix: (Units=1/GPa)
#
#
# Indices 1 2 3 4 5 6 
#
# 1 0.013576 -0.000408 0.000069 0.000000 0.000000 0.000000
# 2 -0.000408 0.013718 -0.009229 0.000000 0.000000 0.000000
# 3 0.000069 -0.009229 0.015966 0.000000 0.000000 0.000000
# 4 0.000000 0.000000 0.000000 0.022343 0.000000 0.000000
# 5 0.000000 0.000000 0.000000 0.000000 0.090689 0.000000
# 6 0.000000 0.000000 0.000000 0.000000 0.000000 -0.061612
#
#
# Mechanical properties :
#
#
# Convention : Reuss Voigt Hill
#
# Bulk Modulus (GPa) = 41.45211 49.25662 45.35437
# Shear Modulus (GPa) = 41.03177 22.70297 31.86737
#
# Velocity S-wave (km/s) = 4.47356 3.32763 3.94245
# Velocity P-wave (km/s) = 6.84847 6.22804 6.54561
#
# Compressibility (1/GPa) = 0.02412422
#
# Stress axis : x y z
#
# Youngs Moduli (GPa) = 73.66007 72.89591 62.63297
#
# Poissons Ratio (x) = 0.02974 -0.00432
# Poissons Ratio (y) = 0.03005 0.57803
# Poissons Ratio (z) = -0.00508 0.67275
#
# Static dielectric constant tensor:
#      x y z
#    x 1.759260 0.000000 0.000000 
#    y 0.000000 1.746100 0.000000 
#    z 0.000000 0.000000 1.739430 
# 
# From -- ./inp_files/5760.got.cif
#   From: 2010.05.17/outbox.cif.g08.bks.cpg/sg25_3_cif.got.tgz:5760.got - 2010.06.04 01:04:00.
