data_PCOD9337921
_publ_section_title
;
Structure prediction by ZEFSAII (Michael W. Deem and Ramdas Pophale) SiO2 
 PCOD9337921
Probable space group: P M C 21
;
_chemical_formula_sum "Si O2"
_cell_formula_units_Z 24
_cell_length_a 14.672307
_cell_length_b 8.756900
_cell_length_c 9.732272
_cell_angle_alpha 90.000000
_cell_angle_beta 90.000000
_cell_angle_gamma 90.000000
_cell_volume 1250.440507
_symmetry_space_group_name_H-M "P M C 21"
_symmetry_group_IT_number 26
_symmetry_cell_setting 'orthorhombic'
loop_
_space_group_symop_operation_xyz
x,y,z
-x,-y,1/2+z
-x,y,z
x,-y,1/2+z
loop_
_atom_site_type_symbol
_atom_site_label
_atom_site_fract_x
_atom_site_fract_y
_atom_site_fract_z
Si Si1 0.812476 0.203183 0.439580
Si Si2 0.176389 0.149938 0.923829
Si Si3 0.500000 0.187229 0.120470
Si Si4 0.299553 0.203892 0.156952
Si Si5 0.000000 0.321000 0.819599
Si Si6 0.312852 0.847499 0.174159
Si Si7 0.000000 0.374341 0.493362
Si Si8 0.500000 0.872721 0.291568
O O1 0.751327 0.216390 0.302446
O O2 0.743018 0.245512 0.561898
O O3 0.906474 0.294641 0.442578
O O4 0.841538 0.026031 0.464066
O O5 0.253062 0.144097 0.809119
O O6 0.088262 0.222204 0.856207
O O7 0.221988 0.246056 0.046688
O O8 0.401977 0.270750 0.145125
O O9 0.500000 0.048019 0.233442
O O10 0.500000 0.135146 0.958171
O O11 0.319225 0.023723 0.123557
O O12 0.000000 0.369857 0.659788
O O13 0.000000 0.461245 0.924222
O O14 0.411554 0.797174 0.223393
#
# Coordination Sequence:
#
# PCOD9337921 Si02
#       8
#     4   4   2   4   2   4   2   2
#     4  10  21  38  60  84 115 150 195 238 283 341
#     4  10  19  38  59  84 111 154 191 234 284 337
#     4  10  18  28  44  80 123 156 181 229 280 340
#     4   9  19  29  54  83 118 147 188 229 284 337
#     4  12  27  42  60  82 116 150 195 240 296 348
#     4   9  17  31  51  81 115 152 186 229 281 334
#     4  12  27  44  58  84 114 150 193 244 294 348
#     4  10  18  26  46  78 123 154 187 225 286 338
#
# _framework density 19.193235999999999
#
# number of rings (size 3 to 8) (size 9 to 14) (size 15 to 20)
#    0.000    2.000    3.333    0.500    9.333    0.000 
#    0.000    0.000    0.000    0.000    0.000    7.000 
#    0.000    0.000    0.000    0.000    0.000    0.000 
#
# Total GULP energy -133647.141046 kJ/mol
# GULP energy per Si atom -5568.630877 kJ/mol
# Density = 1.914955 g / cm^3
# Si number density = 19.193236 Si / 1000 Ang^3
#
#
#
# Elastic Constant Matrix: (Units=GPa)
#
#
# Indices 1 2 3 4 5 6 
#
# 1 137.5164 20.6955 15.1638 0.0000 0.0000 0.0000
# 2 20.6955 20.4098 0.8993 0.0000 0.0000 0.0000
# 3 15.1638 0.8993 81.0825 0.0000 0.0000 0.0000
# 4 0.0000 0.0000 0.0000 12.6084 0.0000 0.0000
# 5 0.0000 0.0000 0.0000 0.0000 36.4768 0.0000
# 6 0.0000 0.0000 0.0000 0.0000 0.0000 -7.2034
#
#
#
# Elastic Compliance Matrix: (Units=1/GPa)
#
#
# Indices 1 2 3 4 5 6 
#
# 1 0.008770 -0.008825 -0.001542 0.000000 0.000000 0.000000
# 2 -0.008825 0.057900 0.001008 0.000000 0.000000 0.000000
# 3 -0.001542 0.001008 0.012610 0.000000 0.000000 0.000000
# 4 0.000000 0.000000 0.000000 0.079312 0.000000 0.000000
# 5 0.000000 0.000000 0.000000 0.000000 0.027415 0.000000
# 6 0.000000 0.000000 0.000000 0.000000 0.000000 -0.138824
#
#
# Mechanical properties :
#
#
# Convention : Reuss Voigt Hill
#
# Bulk Modulus (GPa) = 16.51180 34.72509 25.61844
# Shear Modulus (GPa) = 58.07966 21.85972 39.96969
#
# Velocity S-wave (km/s) = 5.50692 3.37846 4.56838
# Velocity P-wave (km/s) = 7.00403 5.77497 6.41899
#
# Compressibility (1/GPa) = 0.06056275
#
# Stress axis : x y z
#
# Youngs Moduli (GPa) = 114.02497 17.27114 79.29985
#
# Poissons Ratio (x) = 0.15241 0.12230
# Poissons Ratio (y) = 1.00625 -0.07995
# Poissons Ratio (z) = 0.17586 -0.01741
#
# Static dielectric constant tensor:
#      x y z
#    x 1.695990 0.000000 0.000000 
#    y 0.000000 1.695550 0.000000 
#    z 0.000000 0.000000 1.695950 
# 
# From -- ./inp_files/2153.got.cif
#   From: 2010.05.17/outbox.cif.g08.bks.cpg/sg26_2_cif.got.tgz:2153.got - 2010.06.04 01:07:29.
