data_PCOD9337243
_publ_section_title
;
Structure prediction by ZEFSAII (Michael W. Deem and Ramdas Pophale) SiO2 
 PCOD9337243
Probable space group: P M M 2
;
_chemical_formula_sum "Si O2"
_cell_formula_units_Z 32
_cell_length_a 7.383665
_cell_length_b 17.616825
_cell_length_c 11.573013
_cell_angle_alpha 90.000000
_cell_angle_beta 90.000000
_cell_angle_gamma 90.000000
_cell_volume 1505.379735
_symmetry_space_group_name_H-M "P M M 2"
_symmetry_group_IT_number 25
_symmetry_cell_setting 'orthorhombic'
loop_
_space_group_symop_operation_xyz
x,y,z
-x,-y,z
-x,y,z
x,-y,z
loop_
_atom_site_type_symbol
_atom_site_label
_atom_site_fract_x
_atom_site_fract_y
_atom_site_fract_z
Si Si1 0.780005 0.585482 0.304430
Si Si2 0.292024 0.883917 0.014646
Si Si3 0.220528 0.726590 0.904025
Si Si4 0.796375 0.764159 0.653230
Si Si5 0.220089 0.581031 0.036527
Si Si6 0.777901 0.753748 0.393289
Si Si7 0.791720 0.085971 0.277232
Si Si8 0.718588 0.918420 0.759086
O O1 0.723700 0.500000 0.349124
O O2 0.727720 0.586673 0.169801
O O3 0.722786 0.668958 0.350433
O O4 0.000000 0.585092 0.312809
O O5 0.500000 0.908365 0.022888
O O6 0.209439 0.904642 0.137493
O O7 0.281393 0.794601 0.986954
O O8 0.218330 0.915415 0.892759
O O9 0.286562 0.732977 0.772205
O O10 0.000000 0.731078 0.900533
O O11 0.282507 0.649642 0.960377
O O12 0.717186 0.756148 0.526751
O O13 0.801413 0.852823 0.683662
O O14 0.000000 0.732233 0.645618
O O15 0.277340 0.500000 0.989867
O O16 0.000000 0.583479 0.036346
O O17 0.718732 0.833013 0.329303
O O18 0.000000 0.754925 0.386512
O O19 0.000000 0.083329 0.316313
O O20 0.715692 0.000000 0.302481
O O21 0.500000 0.907772 0.762309
O O22 0.758964 0.000000 0.709403
#
# Coordination Sequence:
#
# PCOD9337243 Si02
#       8
#     4   4   4   4   4   4   4   4
#     4   8  13  22  39  63  89 119 153 186 225 273
#     4  10  19  31  48  69  93 119 148 187 236 283
#     4   9  16  28  46  68  94 122 153 189 229 275
#     4   9  18  30  45  66  90 118 153 190 225 263
#     4   8  13  22  40  67  94 118 147 185 229 276
#     4   9  17  30  45  63  92 125 156 193 230 265
#     4  10  20  32  47  67  91 122 157 191 232 280
#     4   9  18  32  48  65  87 116 148 185 230 275
#
# _framework density 21.257095
#
# number of rings (size 3 to 8) (size 9 to 14) (size 15 to 20)
#    0.000    3.000    0.000    2.250    0.000    4.000 
#    0.000    2.500    0.000    4.125    0.000    0.000 
#    0.000    2.500    0.000    0.000    0.000    0.000 
#
# Total GULP energy -178163.771510 kJ/mol
# GULP energy per Si atom -5567.617860 kJ/mol
# Density = 2.120871 g / cm^3
# Si number density = 21.257095 Si / 1000 Ang^3
#
#
#
# Elastic Constant Matrix: (Units=GPa)
#
#
# Indices 1 2 3 4 5 6 
#
# 1 72.1177 3.7283 1.4954 0.0000 0.0000 0.0000
# 2 3.7283 219.4872 82.1745 0.0000 0.0000 0.0000
# 3 1.4954 82.1745 80.8036 0.0000 0.0000 0.0000
# 4 0.0000 0.0000 0.0000 -55.0014 0.0000 0.0000
# 5 0.0000 0.0000 0.0000 0.0000 -19.7489 0.0000
# 6 0.0000 0.0000 0.0000 0.0000 0.0000 213.9370
#
#
#
# Elastic Compliance Matrix: (Units=1/GPa)
#
#
# Indices 1 2 3 4 5 6 
#
# 1 0.013878 -0.000225 -0.000028 0.000000 0.000000 0.000000
# 2 -0.000225 0.007361 -0.007482 0.000000 0.000000 0.000000
# 3 -0.000028 -0.007482 0.019985 0.000000 0.000000 0.000000
# 4 0.000000 0.000000 0.000000 -0.018181 0.000000 0.000000
# 5 0.000000 0.000000 0.000000 0.000000 -0.050636 0.000000
# 6 0.000000 0.000000 0.000000 0.000000 0.000000 0.004674
#
#
# Mechanical properties :
#
#
# Convention : Reuss Voigt Hill
#
# Bulk Modulus (GPa) = 38.82768 60.80055 49.81412
# Shear Modulus (GPa) = 4401.34472 46.83803 2224.09138
#
# Velocity S-wave (km/s) = 45.55244 4.69914 32.38137
# Velocity P-wave (km/s) = 52.77315 7.62280 37.70353
#
# Compressibility (1/GPa) = 0.02575482
#
# Stress axis : x y z
#
# Youngs Moduli (GPa) = 72.05415 135.85097 50.03789
#
# Poissons Ratio (x) = 0.03062 0.00138
# Poissons Ratio (y) = 0.01624 0.37437
# Poissons Ratio (z) = 0.00199 1.01640
#
# Static dielectric constant tensor:
#      x y z
#    x 1.842830 0.000000 0.000000 
#    y 0.000000 1.817010 0.000000 
#    z 0.000000 0.000000 1.723810 
# 
# From -- ./inp_files/4460.got.cif
#   From: 2010.05.17/outbox.cif.g08.bks.cpg/sg25_3_cif.got.tgz:4460.got - 2010.06.04 01:04:00.
