data_PCOD9337468
_publ_section_title
;
Structure prediction by ZEFSAII (Michael W. Deem and Ramdas Pophale) SiO2 
 PCOD9337468
Probable space group: P M M 2
;
_chemical_formula_sum "Si O2"
_cell_formula_units_Z 32
_cell_length_a 9.340063
_cell_length_b 7.420071
_cell_length_c 21.588212
_cell_angle_alpha 90.000000
_cell_angle_beta 90.000000
_cell_angle_gamma 90.000000
_cell_volume 1496.147946
_symmetry_space_group_name_H-M "P M M 2"
_symmetry_group_IT_number 25
_symmetry_cell_setting 'orthorhombic'
loop_
_space_group_symop_operation_xyz
x,y,z
-x,-y,z
-x,y,z
x,-y,z
loop_
_atom_site_type_symbol
_atom_site_label
_atom_site_fract_x
_atom_site_fract_y
_atom_site_fract_z
Si Si1 0.664980 0.779672 0.844600
Si Si2 0.665355 0.783892 0.465350
Si Si3 0.663286 0.286578 0.329845
Si Si4 0.162477 0.215496 0.965080
Si Si5 0.835396 0.279203 0.210474
Si Si6 0.662367 0.284360 0.089921
Si Si7 0.835254 0.779792 0.722010
Si Si8 0.667339 0.780296 0.600425
O O1 0.500000 0.722274 0.845692
O O2 0.750555 0.718125 0.905319
O O3 0.745378 0.723707 0.782046
O O4 0.664573 0.000000 0.844959
O O5 0.500000 0.719761 0.463182
O O6 0.728313 0.736919 0.398573
O O7 0.722373 0.723012 0.532232
O O8 0.662958 0.000000 0.467569
O O9 0.500000 0.212756 0.328923
O O10 0.651162 0.500000 0.320227
O O11 0.758871 0.217828 0.273591
O O12 0.000000 0.285369 0.968137
O O13 0.153189 0.000000 0.957987
O O14 0.248744 0.249134 0.027892
O O15 0.835753 0.500000 0.210385
O O16 0.746107 0.218939 0.150602
O O17 0.000000 0.222216 0.207024
O O18 0.500000 0.214674 0.085781
O O19 0.653238 0.500000 0.096321
O O20 0.759911 0.719752 0.658578
O O21 0.000000 0.723130 0.725863
O O22 0.834483 0.000000 0.721654
O O23 0.500000 0.728506 0.606531
O O24 0.669155 0.000000 0.601269
#
# Coordination Sequence:
#
# PCOD9337468 Si02
#       8
#     4   4   4   4   4   4   4   4
#     4   9  16  26  41  61  87 120 155 189 226 269
#     4   8  14  25  41  61  86 115 144 175 216 266
#     4   9  16  27  45  67  87 109 143 185 222 259
#     4  10  20  33  49  71 100 130 157 189 233 282
#     4   9  17  30  48  68  90 117 149 186 228 271
#     4  10  20  34  53  75  96 121 157 197 233 274
#     4   9  15  22  34  55  83 112 143 182 226 267
#     4   8  13  22  36  53  75 106 142 176 212 259
#
# _framework density 21.388258
#
# number of rings (size 3 to 8) (size 9 to 14) (size 15 to 20)
#    0.000    3.000    0.000    2.625    0.000    6.000 
#    0.000    1.250    0.000    3.375    0.000    0.875 
#    0.000    5.000    0.000    0.000    0.000    0.000 
#
# Total GULP energy -178599.146458 kJ/mol
# GULP energy per Si atom -5581.223327 kJ/mol
# Density = 2.133958 g / cm^3
# Si number density = 21.388258 Si / 1000 Ang^3
#
#
#
# Elastic Constant Matrix: (Units=GPa)
#
#
# Indices 1 2 3 4 5 6 
#
# 1 184.6401 6.5578 141.0177 0.0000 0.0000 0.0000
# 2 6.5578 67.8520 2.3840 0.0000 0.0000 0.0000
# 3 141.0177 2.3840 264.7663 0.0000 0.0000 0.0000
# 4 0.0000 0.0000 0.0000 20.6177 0.0000 0.0000
# 5 0.0000 0.0000 0.0000 0.0000 83.1921 0.0000
# 6 0.0000 0.0000 0.0000 0.0000 0.0000 -5.9938
#
#
#
# Elastic Compliance Matrix: (Units=1/GPa)
#
#
# Indices 1 2 3 4 5 6 
#
# 1 0.009164 -0.000714 -0.004875 0.000000 0.000000 0.000000
# 2 -0.000714 0.014798 0.000247 0.000000 0.000000 0.000000
# 3 -0.004875 0.000247 0.006371 0.000000 0.000000 0.000000
# 4 0.000000 0.000000 0.000000 0.048502 0.000000 0.000000
# 5 0.000000 0.000000 0.000000 0.000000 0.012020 0.000000
# 6 0.000000 0.000000 0.000000 0.000000 0.000000 -0.166838
#
#
# Mechanical properties :
#
#
# Convention : Reuss Voigt Hill
#
# Bulk Modulus (GPa) = 50.89047 90.79750 70.84399
# Shear Modulus (GPa) = -85.10780 44.04978 -20.52901
#
# Velocity S-wave (km/s) = -6.31492 4.54313 -3.10147
# Velocity P-wave (km/s) = 5.41532 8.37044 4.51323
#
# Compressibility (1/GPa) = 0.01965004
#
# Stress axis : x y z
#
# Youngs Moduli (GPa) = 109.12004 67.57524 156.96295
#
# Poissons Ratio (x) = 0.04828 0.76512
# Poissons Ratio (y) = 0.07796 -0.03881
# Poissons Ratio (z) = 0.53191 -0.01671
#
# Static dielectric constant tensor:
#      x y z
#    x 1.719950 0.000000 0.000000 
#    y 0.000000 1.847080 0.000000 
#    z 0.000000 0.000000 1.755140 
# 
# From -- ./inp_files/6280.got.cif
#   From: 2010.05.17/outbox.cif.g08.bks.cpg/sg25_4_cif.got.tgz:6280.got - 2010.06.04 01:04:00.
