data_PCOD9337309
_publ_section_title
;
Structure prediction by ZEFSAII (Michael W. Deem and Ramdas Pophale) SiO2 
 PCOD9337309
Probable space group: P M M 2
;
_chemical_formula_sum "Si O2"
_cell_formula_units_Z 24
_cell_length_a 8.509864
_cell_length_b 12.182480
_cell_length_c 12.989938
_cell_angle_alpha 90.000000
_cell_angle_beta 90.000000
_cell_angle_gamma 90.000000
_cell_volume 1346.683084
_symmetry_space_group_name_H-M "P M M 2"
_symmetry_group_IT_number 25
_symmetry_cell_setting 'orthorhombic'
loop_
_space_group_symop_operation_xyz
x,y,z
-x,-y,z
-x,y,z
x,-y,z
loop_
_atom_site_type_symbol
_atom_site_label
_atom_site_fract_x
_atom_site_fract_y
_atom_site_fract_z
Si Si1 0.810564 0.124617 0.621670
Si Si2 0.691639 0.874467 0.237837
Si Si3 0.688127 0.729317 0.042624
Si Si4 0.690242 0.500000 0.353441
Si Si5 0.186433 0.500000 0.119196
Si Si6 0.310314 0.734872 0.435897
Si Si7 0.810284 0.874401 0.859099
O O1 0.747625 0.212765 0.541626
O O2 0.763794 0.145209 0.740237
O O3 0.000000 0.125450 0.618761
O O4 0.758837 0.000000 0.594040
O O5 0.500000 0.875564 0.237837
O O6 0.741291 0.806208 0.137876
O O7 0.741810 0.812202 0.341194
O O8 0.745737 0.000000 0.234940
O O9 0.500000 0.722070 0.046338
O O10 0.756799 0.609032 0.061045
O O11 0.739939 0.787882 0.937954
O O12 0.500000 0.500000 0.351431
O O13 0.744756 0.500000 0.235118
O O14 0.742250 0.388919 0.410542
O O15 0.000000 0.500000 0.126199
O O16 0.500000 0.734671 0.436733
O O17 0.000000 0.869592 0.863952
O O18 0.763439 0.000000 0.885999
#
# Coordination Sequence:
#
# PCOD9337309 Si02
#       7
#     4   4   4   2   2   4   4
#     4   9  19  36  56  79 112 150 184 224 275 328
#     4   9  17  29  49  79 110 137 169 218 278 330
#     4  11  21  36  57  81 112 146 185 230 279 333
#     4  10  20  38  57  78 109 148 185 227 281 327
#     4  12  24  38  57  80 109 148 191 229 273 333
#     4  10  19  33  55  79 108 143 184 230 276 327
#     4   9  19  37  58  81 113 150 186 229 282 334
#
# _framework density 17.821563999999999
#
# number of rings (size 3 to 8) (size 9 to 14) (size 15 to 20)
#    0.000    2.167    1.667    3.250    0.000    3.333 
#    0.000    2.500    0.000    7.000    0.000    0.000 
#    0.000    0.000    0.000    0.000    0.000    0.000 
#
# Total GULP energy -133970.447626 kJ/mol
# GULP energy per Si atom -5582.101984 kJ/mol
# Density = 1.778100 g / cm^3
# Si number density = 17.821564 Si / 1000 Ang^3
#
#
#
# Elastic Constant Matrix: (Units=GPa)
#
#
# Indices 1 2 3 4 5 6 
#
# 1 18.1791 32.0950 22.6644 0.0000 0.0000 0.0000
# 2 32.0950 194.2177 102.5467 0.0000 0.0000 0.0000
# 3 22.6644 102.5467 122.3210 0.0000 0.0000 0.0000
# 4 0.0000 0.0000 0.0000 20.5797 0.0000 0.0000
# 5 0.0000 0.0000 0.0000 0.0000 39.4550 0.0000
# 6 0.0000 0.0000 0.0000 0.0000 0.0000 15.3571
#
#
#
# Elastic Compliance Matrix: (Units=1/GPa)
#
#
# Indices 1 2 3 4 5 6 
#
# 1 0.080673 -0.009759 -0.006766 0.000000 0.000000 0.000000
# 2 -0.009759 0.010419 -0.006926 0.000000 0.000000 0.000000
# 3 -0.006766 -0.006926 0.015235 0.000000 0.000000 0.000000
# 4 0.000000 0.000000 0.000000 0.048592 0.000000 0.000000
# 5 0.000000 0.000000 0.000000 0.000000 0.025345 0.000000
# 6 0.000000 0.000000 0.000000 0.000000 0.000000 0.065116
#
#
# Mechanical properties :
#
#
# Convention : Reuss Voigt Hill
#
# Bulk Modulus (GPa) = 16.82812 72.14778 44.48795
# Shear Modulus (GPa) = 16.02098 26.90581 21.46339
#
# Velocity S-wave (km/s) = 3.00153 3.88974 3.47414
# Velocity P-wave (km/s) = 4.63414 7.79389 6.41171
#
# Compressibility (1/GPa) = 0.05942434
#
# Stress axis : x y z
#
# Youngs Moduli (GPa) = 12.39571 95.98308 65.63675
#
# Poissons Ratio (x) = 0.93668 0.44412
# Poissons Ratio (y) = 0.12097 0.45461
# Poissons Ratio (z) = 0.08387 0.66479
#
# Static dielectric constant tensor:
#      x y z
#    x 1.609080 0.000000 0.000000 
#    y 0.000000 1.597460 0.000000 
#    z 0.000000 0.000000 1.584080 
# 
# From -- ./inp_files/3938.got.cif
#   From: 2010.05.17/outbox.cif.g08.bks.cpg/sg25_2_cif.got.tgz:3938.got - 2010.06.04 01:04:00.
