data_PCOD9337273
_publ_section_title
;
Structure prediction by ZEFSAII (Michael W. Deem and Ramdas Pophale) SiO2 
 PCOD9337273
Probable space group: P M M 2
;
_chemical_formula_sum "Si O2"
_cell_formula_units_Z 24
_cell_length_a 16.996116
_cell_length_b 8.417649
_cell_length_c 9.523762
_cell_angle_alpha 90.000000
_cell_angle_beta 90.000000
_cell_angle_gamma 90.000000
_cell_volume 1362.539285
_symmetry_space_group_name_H-M "P M M 2"
_symmetry_group_IT_number 25
_symmetry_cell_setting 'orthorhombic'
loop_
_space_group_symop_operation_xyz
x,y,z
-x,-y,z
-x,y,z
x,-y,z
loop_
_atom_site_type_symbol
_atom_site_label
_atom_site_fract_x
_atom_site_fract_y
_atom_site_fract_z
Si Si1 0.758042 0.191821 0.501650
Si Si2 0.912895 0.309576 0.659749
Si Si3 0.664222 0.185789 0.760794
Si Si4 0.257724 0.810273 0.181245
Si Si5 0.185157 0.687953 0.918291
Si Si6 0.412531 0.311323 0.025296
O O1 0.841579 0.243259 0.566786
O O2 0.687687 0.246356 0.605990
O O3 0.748298 0.245221 0.341772
O O4 0.755411 0.000000 0.504315
O O5 0.912851 0.500000 0.641455
O O6 0.891145 0.280457 0.823778
O O7 0.000000 0.248274 0.626000
O O8 0.746223 0.210287 0.844530
O O9 0.643796 0.000000 0.754884
O O10 0.602878 0.273802 0.860776
O O11 0.342462 0.766281 0.114850
O O12 0.248828 0.000000 0.177597
O O13 0.191496 0.733570 0.080598
O O14 0.203909 0.500000 0.904036
O O15 0.500000 0.255965 0.064629
O O16 0.407602 0.500000 0.044915
#
# Coordination Sequence:
#
# PCOD9337273 Si02
#       6
#     4   4   4   4   4   4
#     4   9  19  33  49  72  99 127 159 196 237 282
#     4   9  18  32  50  72  96 124 160 200 240 282
#     4   9  16  29  49  69  90 119 156 192 229 277
#     4  10  19  32  50  71  97 127 160 195 233 283
#     4   9  16  28  47  69  93 121 155 193 231 274
#     4  10  20  33  49  71  97 123 156 198 240 282
#
# _framework density 17.614172
#
# number of rings (size 3 to 8) (size 9 to 14) (size 15 to 20)
#    0.000    2.667    0.000    4.000    0.000    4.333 
#    0.000    1.667    0.000    8.000    0.000    0.000 
#    0.000    0.000    0.000    0.000    0.000    0.000 
#
# Total GULP energy -133613.869895 kJ/mol
# GULP energy per Si atom -5567.244579 kJ/mol
# Density = 1.757408 g / cm^3
# Si number density = 17.614172 Si / 1000 Ang^3
#
#
#
# Elastic Constant Matrix: (Units=GPa)
#
#
# Indices 1 2 3 4 5 6 
#
# 1 71.7989 6.2250 34.5264 0.0000 0.0000 0.0000
# 2 6.2250 17.9449 9.9721 0.0000 0.0000 0.0000
# 3 34.5264 9.9721 139.6658 0.0000 0.0000 0.0000
# 4 0.0000 0.0000 0.0000 16.4978 0.0000 0.0000
# 5 0.0000 0.0000 0.0000 0.0000 15.0104 0.0000
# 6 0.0000 0.0000 0.0000 0.0000 0.0000 21.5143
#
#
#
# Elastic Compliance Matrix: (Units=1/GPa)
#
#
# Indices 1 2 3 4 5 6 
#
# 1 0.016014 -0.003494 -0.003709 0.000000 0.000000 0.000000
# 2 -0.003494 0.058791 -0.003334 0.000000 0.000000 0.000000
# 3 -0.003709 -0.003334 0.008315 0.000000 0.000000 0.000000
# 4 0.000000 0.000000 0.000000 0.060614 0.000000 0.000000
# 5 0.000000 0.000000 0.000000 0.000000 0.066620 0.000000
# 6 0.000000 0.000000 0.000000 0.000000 0.000000 0.046481
#
#
# Mechanical properties :
#
#
# Convention : Reuss Voigt Hill
#
# Bulk Modulus (GPa) = 16.11717 36.76187 26.43952
# Shear Modulus (GPa) = 16.74525 22.51691 19.63108
#
# Velocity S-wave (km/s) = 3.08664 3.57927 3.34204
# Velocity P-wave (km/s) = 4.67687 6.16421 5.47131
#
# Compressibility (1/GPa) = 0.06204562
#
# Stress axis : x y z
#
# Youngs Moduli (GPa) = 62.44341 17.00944 120.26469
#
# Poissons Ratio (x) = 0.05943 0.44611
# Poissons Ratio (y) = 0.21818 0.40095
# Poissons Ratio (z) = 0.23163 0.05671
#
# Static dielectric constant tensor:
#      x y z
#    x 1.604710 0.000000 0.000000 
#    y 0.000000 1.601520 0.000000 
#    z 0.000000 0.000000 1.641040 
# 
# From -- ./inp_files/2110.got.cif
#   From: 2010.05.17/outbox.cif.g08.bks.cpg/sg25_2_cif.got.tgz:2110.got - 2010.06.04 01:04:00.
