data_PCOD9337628
_publ_section_title
;
Structure prediction by ZEFSAII (Michael W. Deem and Ramdas Pophale) SiO2 
 PCOD9337628
Probable space group: P M M 2
;
_chemical_formula_sum "Si O2"
_cell_formula_units_Z 20
_cell_length_a 14.588000
_cell_length_b 8.809554
_cell_length_c 7.959126
_cell_angle_alpha 90.000000
_cell_angle_beta 90.000000
_cell_angle_gamma 90.000000
_cell_volume 1022.857318
_symmetry_space_group_name_H-M "P M M 2"
_symmetry_group_IT_number 25
_symmetry_cell_setting 'orthorhombic'
loop_
_space_group_symop_operation_xyz
x,y,z
-x,-y,z
-x,y,z
x,-y,z
loop_
_atom_site_type_symbol
_atom_site_label
_atom_site_fract_x
_atom_site_fract_y
_atom_site_fract_z
Si Si1 0.714301 0.819713 0.183070
Si Si2 0.285038 0.318424 0.528860
Si Si3 0.392130 0.681822 0.868747
Si Si4 0.103956 0.818291 0.670694
Si Si5 0.104034 0.318427 0.045792
O O1 0.677545 0.751577 0.357078
O O2 0.716226 0.000000 0.190493
O O3 0.656028 0.764160 0.023822
O O4 0.816867 0.755753 0.155561
O O5 0.283114 0.500000 0.515782
O O6 0.343973 0.276259 0.693139
O O7 0.182976 0.255364 0.560036
O O8 0.500000 0.714308 0.863147
O O9 0.379903 0.500000 0.890363
O O10 0.112676 0.749049 0.857875
O O11 0.000000 0.786105 0.612297
O O12 0.115719 0.000000 0.678503
O O13 0.116728 0.500000 0.038815
O O14 0.000000 0.286933 0.103840
#
# Coordination Sequence:
#
# PCOD9337628 Si02
#       5
#     4   4   4   4   4
#     4  12  25  40  63  94 130 166 205 257 315 370
#     4  11  23  40  65  93 125 166 211 256 306 367
#     4  10  23  45  70  93 120 158 206 260 316 374
#     4  10  20  35  58  90 128 167 205 251 309 366
#     4  10  20  36  60  89 123 166 213 256 302 363
#
# _framework density 19.553070000000002
#
# number of rings (size 3 to 8) (size 9 to 14) (size 15 to 20)
#    0.000    1.400    2.000    3.600    0.000    5.200 
#    0.000    2.000    0.000    0.000    0.000    0.000 
#    0.000    0.000    0.000    0.000    0.000    0.000 
#
# Total GULP energy -111842.355659 kJ/mol
# GULP energy per Si atom -5592.117783 kJ/mol
# Density = 1.950857 g / cm^3
# Si number density = 19.553070 Si / 1000 Ang^3
#
#
#
# Elastic Constant Matrix: (Units=GPa)
#
#
# Indices 1 2 3 4 5 6 
#
# 1 99.4331 63.5208 67.9682 0.0000 0.0000 0.0000
# 2 63.5208 94.6414 72.3361 0.0000 0.0000 0.0000
# 3 67.9682 72.3361 151.6487 0.0000 0.0000 0.0000
# 4 0.0000 0.0000 0.0000 147.8245 0.0000 0.0000
# 5 0.0000 0.0000 0.0000 0.0000 -4.1700 0.0000
# 6 0.0000 0.0000 0.0000 0.0000 0.0000 11.4686
#
#
#
# Elastic Compliance Matrix: (Units=1/GPa)
#
#
# Indices 1 2 3 4 5 6 
#
# 1 0.018908 -0.009779 -0.003810 0.000000 0.000000 0.000000
# 2 -0.009779 0.021686 -0.005961 0.000000 0.000000 0.000000
# 3 -0.003810 -0.005961 0.011145 0.000000 0.000000 0.000000
# 4 0.000000 0.000000 0.000000 0.006765 0.000000 0.000000
# 5 0.000000 0.000000 0.000000 0.000000 -0.239808 0.000000
# 6 0.000000 0.000000 0.000000 0.000000 0.000000 0.087195
#
#
# Mechanical properties :
#
#
# Convention : Reuss Voigt Hill
#
# Bulk Modulus (GPa) = 79.11889 83.70814 81.41351
# Shear Modulus (GPa) = -98.43354 40.48450 -28.97452
#
# Velocity S-wave (km/s) = -7.10289 4.55520 -3.85364
# Velocity P-wave (km/s) = 5.16880 8.40061 4.68261
#
# Compressibility (1/GPa) = 0.01263921
#
# Stress axis : x y z
#
# Youngs Moduli (GPa) = 52.88665 46.11356 89.72250
#
# Poissons Ratio (x) = 0.45092 0.34187
# Poissons Ratio (y) = 0.51715 0.53486
# Poissons Ratio (z) = 0.20151 0.27490
#
# Static dielectric constant tensor:
#      x y z
#    x 1.677160 0.000000 0.000000 
#    y 0.000000 1.644820 0.000000 
#    z 0.000000 0.000000 1.689090 
# 
# From -- ./inp_files/1762.got.cif
#   From: 2010.05.17/outbox.cif.g08.bks.cpg/sg25_1_cif.got.tgz:1762.got - 2010.06.04 01:04:00.
