data_PCOD9337773
_publ_section_title
;
Structure prediction by ZEFSAII (Michael W. Deem and Ramdas Pophale) SiO2 
 PCOD9337773
Probable space group: P M M 2
;
_chemical_formula_sum "Si O2"
_cell_formula_units_Z 21
_cell_length_a 8.865338
_cell_length_b 13.838043
_cell_length_c 7.351858
_cell_angle_alpha 90.000000
_cell_angle_beta 90.000000
_cell_angle_gamma 90.000000
_cell_volume 901.918062
_symmetry_space_group_name_H-M "P M M 2"
_symmetry_group_IT_number 25
_symmetry_cell_setting 'orthorhombic'
loop_
_space_group_symop_operation_xyz
x,y,z
-x,-y,z
-x,y,z
x,-y,z
loop_
_atom_site_type_symbol
_atom_site_label
_atom_site_fract_x
_atom_site_fract_y
_atom_site_fract_z
Si Si1 0.000000 0.500000 0.200450
Si Si2 0.328746 0.500000 0.221027
Si Si3 0.166582 0.710087 0.549311
Si Si4 0.672635 0.890914 0.670020
Si Si5 0.000000 0.608963 0.840903
Si Si6 0.331218 0.705518 0.206588
Si Si7 0.177094 0.892421 0.060273
O O1 0.157753 0.500000 0.305428
O O2 0.000000 0.590733 0.056520
O O3 0.500000 0.500000 0.303450
O O4 0.324553 0.601234 0.109208
O O5 0.209344 0.821051 0.576192
O O6 0.141624 0.663901 0.748807
O O7 0.293752 0.673077 0.413932
O O8 0.000000 0.697130 0.465298
O O9 0.500000 0.856421 0.649025
O O10 0.719665 0.892147 0.880773
O O11 0.681030 0.000000 0.600990
O O12 0.000000 0.500000 0.765116
O O13 0.500000 0.743641 0.189769
O O14 0.222404 0.794156 0.161957
O O15 0.000000 0.886290 0.010961
O O16 0.198626 0.000000 0.147148
#
# Coordination Sequence:
#
# PCOD9337773 Si02
#       7
#     1   2   4   4   2   4   4
#     4  10  22  42  70  88 126 170 202 262 324 356
#     4  10  26  41  61  99 129 165 213 258 315 377
#     4  10  22  37  61  86 117 157 202 248 295 368
#     4  10  21  38  60  87 121 159 198 249 312 365
#     4   8  22  39  59  90 113 153 206 242 305 367
#     4  11  24  41  61  89 127 164 206 254 309 373
#     4  10  22  39  62  91 121 157 207 261 309 366
#
# _framework density 23.283709000000002
#
# number of rings (size 3 to 8) (size 9 to 14) (size 15 to 20)
#    0.857    1.143    0.000    2.286    6.667    3.048 
#    0.000    0.952    0.000    0.000    0.000    0.000 
#    0.000    0.000    0.000    0.000    0.000    0.000 
#
# Total GULP energy -116915.025381 kJ/mol
# GULP energy per Si atom -5567.382161 kJ/mol
# Density = 2.323071 g / cm^3
# Si number density = 23.283709 Si / 1000 Ang^3
#
#
#
# Elastic Constant Matrix: (Units=GPa)
#
#
# Indices 1 2 3 4 5 6 
#
# 1 123.6358 32.7734 -4.4958 0.0000 0.0000 0.0000
# 2 32.7734 135.8430 17.6352 0.0000 0.0000 0.0000
# 3 -4.4958 17.6352 43.1187 0.0000 0.0000 0.0000
# 4 0.0000 0.0000 0.0000 19.0779 0.0000 0.0000
# 5 0.0000 0.0000 0.0000 0.0000 28.0173 0.0000
# 6 0.0000 0.0000 0.0000 0.0000 0.0000 38.0436
#
#
#
# Elastic Compliance Matrix: (Units=1/GPa)
#
#
# Indices 1 2 3 4 5 6 
#
# 1 0.008783 -0.002363 0.001882 0.000000 0.000000 0.000000
# 2 -0.002363 0.008410 -0.003686 0.000000 0.000000 0.000000
# 3 0.001882 -0.003686 0.024896 0.000000 0.000000 0.000000
# 4 0.000000 0.000000 0.000000 0.052417 0.000000 0.000000
# 5 0.000000 0.000000 0.000000 0.000000 0.035692 0.000000
# 6 0.000000 0.000000 0.000000 0.000000 0.000000 0.026286
#
#
# Mechanical properties :
#
#
# Convention : Reuss Voigt Hill
#
# Bulk Modulus (GPa) = 29.62539 43.82478 36.72508
# Shear Modulus (GPa) = 28.39786 34.14006 31.26896
#
# Velocity S-wave (km/s) = 3.49613 3.83334 3.66861
# Velocity P-wave (km/s) = 5.38967 6.20125 5.80965
#
# Compressibility (1/GPa) = 0.03375483
#
# Stress axis : x y z
#
# Youngs Moduli (GPa) = 113.85355 118.90367 40.16760
#
# Poissons Ratio (x) = 0.28102 -0.07561
# Poissons Ratio (y) = 0.26908 0.14806
# Poissons Ratio (z) = -0.21432 0.43829
#
# Static dielectric constant tensor:
#      x y z
#    x 1.846260 0.000000 0.000000 
#    y 0.000000 1.997670 0.000000 
#    z 0.000000 0.000000 1.915020 
# 
# From -- ./inp_files/1932.got.cif
#   From: 2010.05.17/outbox.cif.g08.bks.cpg/sg25_1_cif.got.tgz:1932.got - 2010.06.04 01:04:00.
