data_PCOD9337157
_publ_section_title
;
Structure prediction by ZEFSAII (Michael W. Deem and Ramdas Pophale) SiO2 
 PCOD9337157
Probable space group: P M M 2
;
_chemical_formula_sum "Si O2"
_cell_formula_units_Z 24
_cell_length_a 8.470515
_cell_length_b 17.022520
_cell_length_c 9.434841
_cell_angle_alpha 90.000000
_cell_angle_beta 90.000000
_cell_angle_gamma 90.000000
_cell_volume 1360.405110
_symmetry_space_group_name_H-M "P M M 2"
_symmetry_group_IT_number 25
_symmetry_cell_setting 'orthorhombic'
loop_
_space_group_symop_operation_xyz
x,y,z
-x,-y,z
-x,y,z
x,-y,z
loop_
_atom_site_type_symbol
_atom_site_label
_atom_site_fract_x
_atom_site_fract_y
_atom_site_fract_z
Si Si1 0.689175 0.911756 0.141290
Si Si2 0.314204 0.673309 0.067712
Si Si3 0.186519 0.820683 0.895933
Si Si4 0.813646 0.236006 0.320531
Si Si5 0.307603 0.413196 0.796867
Si Si6 0.688450 0.744252 0.634699
O O1 0.500000 0.904119 0.134333
O O2 0.754357 0.843742 0.243876
O O3 0.728429 0.000000 0.188827
O O4 0.760688 0.896089 0.985001
O O5 0.500000 0.664660 0.095767
O O6 0.227937 0.692392 0.213838
O O7 0.283599 0.750896 0.972700
O O8 0.260777 0.605303 0.959890
O O9 0.231658 0.811114 0.732260
O O10 0.000000 0.807987 0.915362
O O11 0.732525 0.247221 0.471562
O O12 0.000000 0.231388 0.338507
O O13 0.500000 0.412443 0.795438
O O14 0.254645 0.500000 0.753276
O O15 0.257502 0.340700 0.697329
O O16 0.500000 0.749242 0.652322
#
# Coordination Sequence:
#
# PCOD9337157 Si02
#       6
#     4   4   4   4   4   4
#     4  10  20  35  55  77 101 130 166 207 250 297
#     4   9  16  29  50  72  96 128 166 203 241 292
#     4  10  18  30  50  74 100 128 162 201 241 291
#     4  11  21  33  51  74 103 135 169 208 250 301
#     4   8  15  29  51  77  99 124 166 216 256 292
#     4  10  19  33  53  74 101 135 171 209 250 301
#
# _framework density 17.641804
#
# number of rings (size 3 to 8) (size 9 to 14) (size 15 to 20)
#    0.000    2.333    0.000    7.500    0.000    1.333 
#    0.000    1.667    0.000   28.000    0.000    0.000 
#    0.000    0.000    0.000    0.000    0.000    0.000 
#
# Total GULP energy -133717.378505 kJ/mol
# GULP energy per Si atom -5571.557438 kJ/mol
# Density = 1.760165 g / cm^3
# Si number density = 17.641804 Si / 1000 Ang^3
#
#
#
# Elastic Constant Matrix: (Units=GPa)
#
#
# Indices 1 2 3 4 5 6 
#
# 1 48.6362 20.5968 9.5200 0.0000 0.0000 0.0000
# 2 20.5968 78.0738 31.9673 0.0000 0.0000 0.0000
# 3 9.5200 31.9673 103.5471 0.0000 0.0000 0.0000
# 4 0.0000 0.0000 0.0000 17.5934 0.0000 0.0000
# 5 0.0000 0.0000 0.0000 0.0000 17.4802 0.0000
# 6 0.0000 0.0000 0.0000 0.0000 0.0000 -7.0079
#
#
#
# Elastic Compliance Matrix: (Units=1/GPa)
#
#
# Indices 1 2 3 4 5 6 
#
# 1 0.023154 -0.005994 -0.000278 0.000000 0.000000 0.000000
# 2 -0.005994 0.016214 -0.004454 0.000000 0.000000 0.000000
# 3 -0.000278 -0.004454 0.011058 0.000000 0.000000 0.000000
# 4 0.000000 0.000000 0.000000 0.056839 0.000000 0.000000
# 5 0.000000 0.000000 0.000000 0.000000 0.057208 0.000000
# 6 0.000000 0.000000 0.000000 0.000000 0.000000 -0.142696
#
#
# Mechanical properties :
#
#
# Convention : Reuss Voigt Hill
#
# Bulk Modulus (GPa) = 34.51633 39.38061 36.94847
# Shear Modulus (GPa) = 94.53990 16.82467 55.68228
#
# Velocity S-wave (km/s) = 7.32836 3.09152 5.62416
# Velocity P-wave (km/s) = 9.55061 5.92572 7.94759
#
# Compressibility (1/GPa) = 0.02897179
#
# Stress axis : x y z
#
# Youngs Moduli (GPa) = 43.18952 61.67653 90.43073
#
# Poissons Ratio (x) = 0.36971 0.02515
# Poissons Ratio (y) = 0.25889 0.40281
# Poissons Ratio (z) = 0.01201 0.27473
#
# Static dielectric constant tensor:
#      x y z
#    x 1.591350 0.000000 0.000000 
#    y 0.000000 1.632480 0.000000 
#    z 0.000000 0.000000 1.615070 
# 
# From -- ./inp_files/2109.got.cif
#   From: 2010.05.17/outbox.cif.g08.bks.cpg/sg25_2_cif.got.tgz:2109.got - 2010.06.04 01:04:00.
