data_PCOD9337532
_publ_section_title
;
Structure prediction by ZEFSAII (Michael W. Deem and Ramdas Pophale) SiO2 
 PCOD9337532
Probable space group: P M M 2
;
_chemical_formula_sum "Si O2"
_cell_formula_units_Z 24
_cell_length_a 12.849503
_cell_length_b 8.813532
_cell_length_c 11.993855
_cell_angle_alpha 90.000000
_cell_angle_beta 90.000000
_cell_angle_gamma 90.000000
_cell_volume 1358.298152
_symmetry_space_group_name_H-M "P M M 2"
_symmetry_group_IT_number 25
_symmetry_cell_setting 'orthorhombic'
loop_
_space_group_symop_operation_xyz
x,y,z
-x,-y,z
-x,y,z
x,-y,z
loop_
_atom_site_type_symbol
_atom_site_label
_atom_site_fract_x
_atom_site_fract_y
_atom_site_fract_z
Si Si1 0.306041 0.319197 0.099760
Si Si2 0.623035 0.818947 0.330003
Si Si3 0.305448 0.681763 0.560974
Si Si4 0.500000 0.319471 0.722238
Si Si5 0.120723 0.681884 0.721365
Si Si6 0.500000 0.180633 0.965529
Si Si7 0.877981 0.180924 0.962092
O O1 0.311842 0.500000 0.094995
O O2 0.323970 0.261588 0.225087
O O3 0.398591 0.248711 0.025471
O O4 0.197738 0.261610 0.048741
O O5 0.500000 0.779351 0.331145
O O6 0.672789 0.765733 0.445865
O O7 0.631402 0.000000 0.317522
O O8 0.305151 0.500000 0.540720
O O9 0.398979 0.713378 0.647371
O O10 0.198566 0.724613 0.622514
O O11 0.500000 0.500000 0.748181
O O12 0.500000 0.228150 0.836562
O O13 0.130586 0.500000 0.738305
O O14 0.148492 0.762894 0.837239
O O15 0.000000 0.715483 0.696001
O O16 0.500000 0.000000 0.978143
O O17 0.000000 0.217179 0.980514
O O18 0.864927 0.000000 0.968903
#
# Coordination Sequence:
#
# PCOD9337532 Si02
#       7
#     4   4   4   2   4   2   4
#     4  12  24  39  61  85 114 153 197 239 288 349
#     4  11  23  39  59  82 112 150 193 241 294 347
#     4  10  20  35  56  81 112 149 191 237 284 338
#     4  10  20  33  52  81 114 147 187 233 285 342
#     4   9  18  34  57  85 117 154 194 234 281 340
#     4  12  24  37  56  85 120 151 187 239 295 348
#     4  10  21  38  61  89 121 155 192 239 294 346
#
# _framework density 17.669169
#
# number of rings (size 3 to 8) (size 9 to 14) (size 15 to 20)
#    0.000    1.500    1.667    4.250    0.000    4.333 
#    0.000    0.833    0.000    3.000    0.000    0.000 
#    0.000    0.000    0.000    0.000    0.000    0.000 
#
# Total GULP energy -134147.530381 kJ/mol
# GULP energy per Si atom -5589.480433 kJ/mol
# Density = 1.762895 g / cm^3
# Si number density = 17.669169 Si / 1000 Ang^3
#
#
#
# Elastic Constant Matrix: (Units=GPa)
#
#
# Indices 1 2 3 4 5 6 
#
# 1 101.2778 63.3440 82.7890 0.0000 0.0000 0.0000
# 2 63.3440 91.8653 80.4424 0.0000 0.0000 0.0000
# 3 82.7890 80.4424 148.8364 0.0000 0.0000 0.0000
# 4 0.0000 0.0000 0.0000 59.6296 0.0000 0.0000
# 5 0.0000 0.0000 0.0000 0.0000 16.7761 0.0000
# 6 0.0000 0.0000 0.0000 0.0000 0.0000 18.3560
#
#
#
# Elastic Compliance Matrix: (Units=1/GPa)
#
#
# Indices 1 2 3 4 5 6 
#
# 1 0.020799 -0.007994 -0.007249 0.000000 0.000000 0.000000
# 2 -0.007994 0.023739 -0.008383 0.000000 0.000000 0.000000
# 3 -0.007249 -0.008383 0.015282 0.000000 0.000000 0.000000
# 4 0.000000 0.000000 0.000000 0.016770 0.000000 0.000000
# 5 0.000000 0.000000 0.000000 0.000000 0.059608 0.000000
# 6 0.000000 0.000000 0.000000 0.000000 0.000000 0.054478
#
#
# Mechanical properties :
#
#
# Convention : Reuss Voigt Hill
#
# Bulk Modulus (GPa) = 79.57361 88.34780 83.96070
# Shear Modulus (GPa) = 20.65099 26.64595 23.64847
#
# Velocity S-wave (km/s) = 3.42242 3.88757 3.66239
# Velocity P-wave (km/s) = 7.79425 8.38216 8.09354
#
# Compressibility (1/GPa) = 0.01256698
#
# Stress axis : x y z
#
# Youngs Moduli (GPa) = 48.07852 42.12481 65.43712
#
# Poissons Ratio (x) = 0.33677 0.47433
# Poissons Ratio (y) = 0.38436 0.54859
# Poissons Ratio (z) = 0.34850 0.35315
#
# Static dielectric constant tensor:
#      x y z
#    x 1.596190 0.000000 0.000000 
#    y 0.000000 1.591260 0.000000 
#    z 0.000000 0.000000 1.562380 
# 
# From -- ./inp_files/4557.got.cif
#   From: 2010.05.17/outbox.cif.g08.bks.cpg/sg25_3_cif.got.tgz:4557.got - 2010.06.04 01:04:00.
