data_PCOD9337192
_publ_section_title
;
Structure prediction by ZEFSAII (Michael W. Deem and Ramdas Pophale) SiO2 
 PCOD9337192
Probable space group: P M M 2
;
_chemical_formula_sum "Si O2"
_cell_formula_units_Z 32
_cell_length_a 16.009658
_cell_length_b 7.720401
_cell_length_c 12.261773
_cell_angle_alpha 90.000000
_cell_angle_beta 90.000000
_cell_angle_gamma 90.000000
_cell_volume 1515.567155
_symmetry_space_group_name_H-M "P M M 2"
_symmetry_group_IT_number 25
_symmetry_cell_setting 'orthorhombic'
loop_
_space_group_symop_operation_xyz
x,y,z
-x,-y,z
-x,y,z
x,-y,z
loop_
_atom_site_type_symbol
_atom_site_label
_atom_site_fract_x
_atom_site_fract_y
_atom_site_fract_z
Si Si1 0.667418 0.710583 0.554490
Si Si2 0.254206 0.704031 0.937745
Si Si3 0.091989 0.212602 0.318631
Si Si4 0.907878 0.210134 0.797203
Si Si5 0.861939 0.203661 0.558572
Si Si6 0.594053 0.711669 0.786535
Si Si7 0.251843 0.200551 0.186777
Si Si8 0.592177 0.294519 0.326565
O O1 0.669766 0.500000 0.553365
O O2 0.762309 0.774142 0.559610
O O3 0.618562 0.763342 0.663506
O O4 0.625190 0.773730 0.442877
O O5 0.267250 0.500000 0.953051
O O6 0.169690 0.730424 0.869359
O O7 0.333409 0.771529 0.868503
O O8 0.246962 0.782282 0.057431
O O9 0.104669 0.272239 0.443568
O O10 0.169538 0.275190 0.245994
O O11 0.000000 0.264595 0.279380
O O12 0.093386 0.000000 0.318387
O O13 0.896296 0.273969 0.672683
O O14 0.000000 0.261699 0.837296
O O15 0.904850 0.000000 0.795988
O O16 0.883061 0.000000 0.558513
O O17 0.500000 0.767174 0.814068
O O18 0.594942 0.500000 0.788056
O O19 0.337740 0.271593 0.235274
O O20 0.253190 0.000000 0.216835
O O21 0.500000 0.225532 0.299344
O O22 0.584516 0.500000 0.341989
#
# Coordination Sequence:
#
# PCOD9337192 Si02
#       8
#     4   4   4   4   4   4   4   4
#     4  10  18  32  57  86 115 145 181 228 283 342
#     4  11  23  39  59  83 112 150 194 242 288 335
#     4   9  18  34  57  83 110 144 185 227 277 338
#     4  10  21  37  59  86 116 151 189 231 283 344
#     4  10  18  32  57  86 115 145 181 228 283 342
#     4   9  18  34  57  83 110 144 185 227 277 338
#     4  11  23  39  59  83 112 150 194 242 288 335
#     4  10  21  37  59  86 116 151 189 231 283 344
#
# _framework density 21.114207
#
# number of rings (size 3 to 8) (size 9 to 14) (size 15 to 20)
#    0.000    2.000    2.500    1.500    0.000    4.500 
#    0.000    2.500    0.000    7.500    0.000    0.000 
#    0.000    0.000    0.000    0.000    0.000    0.000 
#
# Total GULP energy -178730.786740 kJ/mol
# GULP energy per Si atom -5585.337086 kJ/mol
# Density = 2.106615 g / cm^3
# Si number density = 21.114207 Si / 1000 Ang^3
#
#
#
# Elastic Constant Matrix: (Units=GPa)
#
#
# Indices 1 2 3 4 5 6 
#
# 1 170.9409 -11.9009 57.4046 0.0000 0.0000 0.0000
# 2 -11.9009 27.9135 -13.0311 0.0000 0.0000 0.0000
# 3 57.4046 -13.0311 108.9404 0.0000 0.0000 0.0000
# 4 0.0000 0.0000 0.0000 17.6417 0.0000 0.0000
# 5 0.0000 0.0000 0.0000 0.0000 1.4193 0.0000
# 6 0.0000 0.0000 0.0000 0.0000 0.0000 20.4996
#
#
#
# Elastic Compliance Matrix: (Units=1/GPa)
#
#
# Indices 1 2 3 4 5 6 
#
# 1 0.007157 0.001367 -0.003608 0.000000 0.000000 0.000000
# 2 0.001367 0.038205 0.003850 0.000000 0.000000 0.000000
# 3 -0.003608 0.003850 0.011541 0.000000 0.000000 0.000000
# 4 0.000000 0.000000 0.000000 0.056684 0.000000 0.000000
# 5 0.000000 0.000000 0.000000 0.000000 0.704587 0.000000
# 6 0.000000 0.000000 0.000000 0.000000 0.000000 0.048781
#
#
# Mechanical properties :
#
#
# Convention : Reuss Voigt Hill
#
# Bulk Modulus (GPa) = 16.63325 41.41557 29.02441
# Shear Modulus (GPa) = 5.65754 26.26692 15.96223
#
# Velocity S-wave (km/s) = 1.63869 3.53092 2.75252
# Velocity P-wave (km/s) = 3.38752 6.02336 4.88652
#
# Compressibility (1/GPa) = 0.06012054
#
# Stress axis : x y z
#
# Youngs Moduli (GPa) = 139.73065 26.17462 86.64942
#
# Poissons Ratio (x) = -0.03578 0.31259
# Poissons Ratio (y) = -0.19102 -0.33356
# Poissons Ratio (z) = 0.50409 -0.10076
#
# Static dielectric constant tensor:
#      x y z
#    x 1.757240 0.000000 0.000000 
#    y 0.000000 1.811320 0.000000 
#    z 0.000000 0.000000 1.722010 
# 
# From -- ./inp_files/4170.got.cif
#   From: 2010.05.17/outbox.cif.g08.bks.cpg/sg25_3_cif.got.tgz:4170.got - 2010.06.04 01:04:00.
