data_PCOD9337821
_publ_section_title
;
Structure prediction by ZEFSAII (Michael W. Deem and Ramdas Pophale) SiO2 
 PCOD9337821
Probable space group: P M M 2
;
_chemical_formula_sum "Si O2"
_cell_formula_units_Z 24
_cell_length_a 8.534690
_cell_length_b 25.927539
_cell_length_c 4.964161
_cell_angle_alpha 90.000000
_cell_angle_beta 90.000000
_cell_angle_gamma 90.000000
_cell_volume 1098.486960
_symmetry_space_group_name_H-M "P M M 2"
_symmetry_group_IT_number 25
_symmetry_cell_setting 'orthorhombic'
loop_
_space_group_symop_operation_xyz
x,y,z
-x,-y,z
-x,y,z
x,-y,z
loop_
_atom_site_type_symbol
_atom_site_label
_atom_site_fract_x
_atom_site_fract_y
_atom_site_fract_z
Si Si1 0.683866 0.114882 0.570180
Si Si2 0.183916 0.559341 0.580100
Si Si3 0.815235 0.720417 0.813446
Si Si4 0.316075 0.384377 0.069366
Si Si5 0.686215 0.775972 0.312454
Si Si6 0.816966 0.059154 0.076540
O O1 0.500000 0.118247 0.636780
O O2 0.733206 0.169722 0.445269
O O3 0.775119 0.097174 0.833753
O O4 0.715389 0.073758 0.335295
O O5 0.207752 0.500000 0.496131
O O6 0.283657 0.572544 0.843098
O O7 0.000000 0.566209 0.644373
O O8 0.232820 0.597365 0.341258
O O9 0.756120 0.667543 0.945729
O O10 0.728041 0.733101 0.535323
O O11 0.000000 0.718472 0.764528
O O12 0.772721 0.763784 0.034717
O O13 0.500000 0.377305 0.117322
O O14 0.500000 0.776724 0.261277
O O15 0.000000 0.064011 0.148382
O O16 0.788134 0.000000 0.992458
#
# Coordination Sequence:
#
# PCOD9337821 Si02
#       6
#     4   4   4   4   4   4
#     4  11  24  41  64  92 123 161 204 253 306 365
#     4  11  24  43  66  93 127 165 206 255 308 363
#     4  12  25  42  65  93 124 162 208 253 304 366
#     4  12  25  42  65  93 127 165 206 255 308 363
#     4  11  24  43  64  91 126 161 202 253 310 365
#     4  11  24  41  62  90 125 163 204 253 306 361
#
# _framework density 21.848234999999999
#
# number of rings (size 3 to 8) (size 9 to 14) (size 15 to 20)
#    0.000    0.667    0.000    8.000    0.000   13.333 
#    0.000    0.000    0.000    0.000    0.000    0.000 
#    0.000    0.000    0.000    0.000    0.000    0.000 
#
# Total GULP energy -134478.327619 kJ/mol
# GULP energy per Si atom -5603.263651 kJ/mol
# Density = 2.179851 g / cm^3
# Si number density = 21.848235 Si / 1000 Ang^3
#
#
#
# Elastic Constant Matrix: (Units=GPa)
#
#
# Indices 1 2 3 4 5 6 
#
# 1 42.4888 10.0598 -18.9717 0.0000 0.0000 0.0000
# 2 10.0598 58.6938 -18.8712 0.0000 0.0000 0.0000
# 3 -18.9717 -18.8712 55.6931 0.0000 0.0000 0.0000
# 4 0.0000 0.0000 0.0000 40.4911 0.0000 0.0000
# 5 0.0000 0.0000 0.0000 0.0000 33.1796 0.0000
# 6 0.0000 0.0000 0.0000 0.0000 0.0000 31.7863
#
#
#
# Elastic Compliance Matrix: (Units=1/GPa)
#
#
# Indices 1 2 3 4 5 6 
#
# 1 0.027953 -0.001941 0.008865 0.000000 0.000000 0.000000
# 2 -0.001941 0.019255 0.005863 0.000000 0.000000 0.000000
# 3 0.008865 0.005863 0.022962 0.000000 0.000000 0.000000
# 4 0.000000 0.000000 0.000000 0.024697 0.000000 0.000000
# 5 0.000000 0.000000 0.000000 0.000000 0.030139 0.000000
# 6 0.000000 0.000000 0.000000 0.000000 0.000000 0.031460
#
#
# Mechanical properties :
#
#
# Convention : Reuss Voigt Hill
#
# Bulk Modulus (GPa) = 10.44443 11.25660 10.85052
# Shear Modulus (GPa) = 30.71114 33.40199 32.05656
#
# Velocity S-wave (km/s) = 3.75328 3.91425 3.83461
# Velocity P-wave (km/s) = 4.85527 5.05884 4.95810
#
# Compressibility (1/GPa) = 0.09574481
#
# Stress axis : x y z
#
# Youngs Moduli (GPa) = 35.77400 51.93344 43.55023
#
# Poissons Ratio (x) = 0.10080 -0.38605
# Poissons Ratio (y) = 0.06943 -0.25535
# Poissons Ratio (z) = -0.31712 -0.30451
#
# Static dielectric constant tensor:
#      x y z
#    x 1.732560 0.000000 0.000000 
#    y 0.000000 1.824710 0.000000 
#    z 0.000000 0.000000 1.752050 
# 
# From -- ./inp_files/313.got.cif
#   From: 2010.05.17/outbox.cif.g08.bks.cpg/sg25_1_cif.got.tgz:313.got - 2010.06.04 01:04:00.
