data_PCOD9337602
_publ_section_title
;
Structure prediction by ZEFSAII (Michael W. Deem and Ramdas Pophale) SiO2 
 PCOD9337602
Probable space group: P M M 2
;
_chemical_formula_sum "Si O2"
_cell_formula_units_Z 32
_cell_length_a 8.853037
_cell_length_b 14.284901
_cell_length_c 13.418504
_cell_angle_alpha 90.000000
_cell_angle_beta 90.000000
_cell_angle_gamma 90.000000
_cell_volume 1696.967849
_symmetry_space_group_name_H-M "P M M 2"
_symmetry_group_IT_number 25
_symmetry_cell_setting 'orthorhombic'
loop_
_space_group_symop_operation_xyz
x,y,z
-x,-y,z
-x,y,z
x,-y,z
loop_
_atom_site_type_symbol
_atom_site_label
_atom_site_fract_x
_atom_site_fract_y
_atom_site_fract_z
Si Si1 0.822200 0.886718 0.427040
Si Si2 0.818348 0.607172 0.745231
Si Si3 0.819725 0.391622 0.326344
Si Si4 0.182145 0.211594 0.848814
Si Si5 0.682411 0.891595 0.038690
Si Si6 0.672438 0.386091 0.535865
Si Si7 0.319643 0.784678 0.239275
Si Si8 0.816319 0.108681 0.646409
O O1 0.733583 0.842109 0.336080
O O2 0.766441 0.856542 0.537273
O O3 0.000000 0.862212 0.417516
O O4 0.812044 0.000000 0.424409
O O5 0.771785 0.500000 0.764103
O O6 0.778324 0.679537 0.832089
O O7 0.749390 0.640031 0.639999
O O8 0.000000 0.608979 0.734014
O O9 0.773143 0.500000 0.310426
O O10 0.763808 0.361503 0.436543
O O11 0.749972 0.318566 0.249366
O O12 0.000000 0.387598 0.323562
O O13 0.230675 0.162164 0.745469
O O14 0.000000 0.203508 0.856385
O O15 0.255168 0.162363 0.943006
O O16 0.500000 0.890994 0.035722
O O17 0.729817 0.839223 0.139936
O O18 0.732215 0.000000 0.038791
O O19 0.500000 0.353045 0.529486
O O20 0.670480 0.500000 0.537167
O O21 0.500000 0.778062 0.239017
O O22 0.000000 0.112043 0.643136
O O23 0.772666 0.000000 0.655707
#
# Coordination Sequence:
#
# PCOD9337602 Si02
#       8
#     4   4   4   4   4   4   4   4
#     4   9  18  33  54  81 114 150 186 228 284 349
#     4   9  18  32  50  78 117 156 192 231 279 332
#     4  10  21  37  57  82 114 151 191 235 282 335
#     4  10  20  34  57  84 109 145 193 239 283 333
#     4  10  23  43  62  81 110 146 184 234 292 346
#     4   9  17  30  50  78 113 152 191 230 272 324
#     4  11  23  38  58  83 112 148 191 237 288 346
#     4   8  15  29  49  76 109 140 173 223 285 339
#
# _framework density 18.857163
#
# number of rings (size 3 to 8) (size 9 to 14) (size 15 to 20)
#    0.000    2.500    0.000    2.625    1.750    5.250 
#    0.000    1.250    0.000    3.000    0.000    0.000 
#    0.000    0.000    0.000    0.000    0.000    0.000 
#
# Total GULP energy -178609.866672 kJ/mol
# GULP energy per Si atom -5581.558333 kJ/mol
# Density = 1.881424 g / cm^3
# Si number density = 18.857163 Si / 1000 Ang^3
#
#
#
# Elastic Constant Matrix: (Units=GPa)
#
#
# Indices 1 2 3 4 5 6 
#
# 1 28.8963 34.3800 36.0010 0.0000 0.0000 0.0000
# 2 34.3800 123.0290 91.0621 0.0000 0.0000 0.0000
# 3 36.0010 91.0621 154.6253 0.0000 0.0000 0.0000
# 4 0.0000 0.0000 0.0000 37.3166 0.0000 0.0000
# 5 0.0000 0.0000 0.0000 0.0000 35.4766 0.0000
# 6 0.0000 0.0000 0.0000 0.0000 0.0000 22.7714
#
#
#
# Elastic Compliance Matrix: (Units=1/GPa)
#
#
# Indices 1 2 3 4 5 6 
#
# 1 0.055519 -0.010542 -0.006718 0.000000 0.000000 0.000000
# 2 -0.010542 0.016411 -0.007210 0.000000 0.000000 0.000000
# 3 -0.006718 -0.007210 0.012278 0.000000 0.000000 0.000000
# 4 0.000000 0.000000 0.000000 0.026798 0.000000 0.000000
# 5 0.000000 0.000000 0.000000 0.000000 0.028188 0.000000
# 6 0.000000 0.000000 0.000000 0.000000 0.000000 0.043915
#
#
# Mechanical properties :
#
#
# Convention : Reuss Voigt Hill
#
# Bulk Modulus (GPa) = 28.35522 69.93742 49.14632
# Shear Modulus (GPa) = 20.50834 28.78676 24.64755
#
# Velocity S-wave (km/s) = 3.30140 3.91137 3.61926
# Velocity P-wave (km/s) = 5.44075 7.58729 6.60185
#
# Compressibility (1/GPa) = 0.03526687
#
# Stress axis : x y z
#
# Youngs Moduli (GPa) = 18.01193 60.93504 81.44938
#
# Poissons Ratio (x) = 0.64239 0.54715
# Poissons Ratio (y) = 0.18989 0.58727
# Poissons Ratio (z) = 0.12100 0.43935
#
# Static dielectric constant tensor:
#      x y z
#    x 1.637590 0.000000 0.000000 
#    y 0.000000 1.697190 0.000000 
#    z 0.000000 0.000000 1.622570 
# 
# From -- ./inp_files/4253.got.cif
#   From: 2010.05.17/outbox.cif.g08.bks.cpg/sg25_3_cif.got.tgz:4253.got - 2010.06.04 01:04:00.
