data_PCOD9337533
_publ_section_title
;
Structure prediction by ZEFSAII (Michael W. Deem and Ramdas Pophale) SiO2 
 PCOD9337533
Probable space group: P M M 2
;
_chemical_formula_sum "Si O2"
_cell_formula_units_Z 32
_cell_length_a 14.636547
_cell_length_b 7.698857
_cell_length_c 13.326808
_cell_angle_alpha 90.000000
_cell_angle_beta 90.000000
_cell_angle_gamma 90.000000
_cell_volume 1501.727126
_symmetry_space_group_name_H-M "P M M 2"
_symmetry_group_IT_number 25
_symmetry_cell_setting 'orthorhombic'
loop_
_space_group_symop_operation_xyz
x,y,z
-x,-y,z
-x,y,z
x,-y,z
loop_
_atom_site_type_symbol
_atom_site_label
_atom_site_fract_x
_atom_site_fract_y
_atom_site_fract_z
Si Si1 0.791056 0.713323 0.061930
Si Si2 0.603233 0.293061 0.553181
Si Si3 0.777965 0.297350 0.450201
Si Si4 0.894994 0.287008 0.263334
Si Si5 0.397706 0.297982 0.996992
Si Si6 0.894363 0.794055 0.641062
Si Si7 0.105190 0.290737 0.862524
Si Si8 0.610774 0.198392 0.776095
O O1 0.789836 0.500000 0.060759
O O2 0.847907 0.765343 0.159244
O O3 0.686135 0.775432 0.060437
O O4 0.839484 0.770675 0.959076
O O5 0.500000 0.222008 0.543855
O O6 0.597510 0.500000 0.538143
O O7 0.679157 0.220178 0.477970
O O8 0.637871 0.268041 0.667523
O O9 0.762778 0.500000 0.426023
O O10 0.835411 0.224373 0.357671
O O11 0.837575 0.287665 0.551355
O O12 0.896435 0.500000 0.265217
O O13 0.000000 0.230207 0.269872
O O14 0.500000 0.220306 0.005026
O O15 0.405829 0.500000 0.023775
O O16 0.366424 0.290964 0.880129
O O17 0.857719 0.759903 0.753194
O O18 0.000000 0.731604 0.639066
O O19 0.894251 0.000000 0.624847
O O20 0.103925 0.500000 0.865932
O O21 0.000000 0.228900 0.868248
O O22 0.500000 0.204759 0.773084
O O23 0.640592 0.000000 0.784599
#
# Coordination Sequence:
#
# PCOD9337533 Si02
#       8
#     4   4   4   4   4   4   4   4
#     4   9  17  29  48  73  99 128 165 205 251 300
#     4   9  18  32  48  69 101 137 170 206 251 302
#     4  10  20  33  53  77 100 131 173 213 255 306
#     4   9  17  31  52  77 101 125 163 217 262 296
#     4   9  17  29  45  68 101 136 166 199 244 299
#     4  10  21  35  50  72 104 136 164 204 260 314
#     4   9  17  30  49  72  97 126 162 204 249 301
#     4   9  17  29  46  69  97 131 170 209 246 288
#
# _framework density 21.308799
#
# number of rings (size 3 to 8) (size 9 to 14) (size 15 to 20)
#    0.000    2.750    0.000    1.500    1.750    4.750 
#    0.000    0.625    0.000    5.250    0.000    1.750 
#    0.000    4.000    0.000    0.000    0.000    0.000 
#
# Total GULP energy -178565.203900 kJ/mol
# GULP energy per Si atom -5580.162622 kJ/mol
# Density = 2.126030 g / cm^3
# Si number density = 21.308799 Si / 1000 Ang^3
#
#
#
# Elastic Constant Matrix: (Units=GPa)
#
#
# Indices 1 2 3 4 5 6 
#
# 1 132.4500 -0.9221 68.3625 0.0000 0.0000 0.0000
# 2 -0.9221 34.8850 -8.6134 0.0000 0.0000 0.0000
# 3 68.3625 -8.6134 99.0072 0.0000 0.0000 0.0000
# 4 0.0000 0.0000 0.0000 -40.8249 0.0000 0.0000
# 5 0.0000 0.0000 0.0000 0.0000 36.8532 0.0000
# 6 0.0000 0.0000 0.0000 0.0000 0.0000 0.5190
#
#
#
# Elastic Compliance Matrix: (Units=1/GPa)
#
#
# Indices 1 2 3 4 5 6 
#
# 1 0.011833 -0.001742 -0.008322 0.000000 0.000000 0.000000
# 2 -0.001742 0.029551 0.003774 0.000000 0.000000 0.000000
# 3 -0.008322 0.003774 0.016175 0.000000 0.000000 0.000000
# 4 0.000000 0.000000 0.000000 -0.024495 0.000000 0.000000
# 5 0.000000 0.000000 0.000000 0.000000 0.027135 0.000000
# 6 0.000000 0.000000 0.000000 0.000000 0.000000 1.926665
#
#
# Mechanical properties :
#
#
# Convention : Reuss Voigt Hill
#
# Bulk Modulus (GPa) = 22.23282 42.66624 32.44953
# Shear Modulus (GPa) = 2.48208 13.14382 7.81295
#
# Velocity S-wave (km/s) = 1.08044 2.48629 1.91690
# Velocity P-wave (km/s) = 3.46594 5.32057 4.49006
#
# Compressibility (1/GPa) = 0.04497854
#
# Stress axis : x y z
#
# Youngs Moduli (GPa) = 84.50723 33.83940 61.82417
#
# Poissons Ratio (x) = 0.05895 0.51451
# Poissons Ratio (y) = 0.14721 -0.23331
# Poissons Ratio (z) = 0.70329 -0.12770
#
# Static dielectric constant tensor:
#      x y z
#    x 1.822550 0.000000 0.000000 
#    y 0.000000 1.774930 0.000000 
#    z 0.000000 0.000000 1.733380 
# 
# From -- ./inp_files/4153.got.cif
#   From: 2010.05.17/outbox.cif.g08.bks.cpg/sg25_3_cif.got.tgz:4153.got - 2010.06.04 01:04:00.
