data_PCOD9337293
_publ_section_title
;
Structure prediction by ZEFSAII (Michael W. Deem and Ramdas Pophale) SiO2 
 PCOD9337293
Probable space group: P M M 2
;
_chemical_formula_sum "Si O2"
_cell_formula_units_Z 32
_cell_length_a 7.994919
_cell_length_b 14.410170
_cell_length_c 13.461067
_cell_angle_alpha 90.000000
_cell_angle_beta 90.000000
_cell_angle_gamma 90.000000
_cell_volume 1550.824517
_symmetry_space_group_name_H-M "P M M 2"
_symmetry_group_IT_number 25
_symmetry_cell_setting 'orthorhombic'
loop_
_space_group_symop_operation_xyz
x,y,z
-x,-y,z
-x,y,z
x,-y,z
loop_
_atom_site_type_symbol
_atom_site_label
_atom_site_fract_x
_atom_site_fract_y
_atom_site_fract_z
Si Si1 0.199770 0.894604 0.419170
Si Si2 0.696620 0.781161 0.829103
Si Si3 0.304885 0.204740 0.219872
Si Si4 0.294420 0.107296 0.019576
Si Si5 0.801407 0.111703 0.635607
Si Si6 0.294465 0.393586 0.719844
Si Si7 0.309047 0.387472 0.502391
Si Si8 0.804965 0.605029 0.284795
O O1 0.233122 0.835581 0.321900
O O2 0.262042 0.857864 0.526092
O O3 0.000000 0.900408 0.431171
O O4 0.263602 0.000000 0.404524
O O5 0.500000 0.768407 0.849099
O O6 0.715246 0.841491 0.729273
O O7 0.764481 0.679488 0.801488
O O8 0.766155 0.835526 0.923734
O O9 0.500000 0.183877 0.222818
O O10 0.236514 0.155318 0.121511
O O11 0.279719 0.315190 0.220827
O O12 0.500000 0.108120 0.018646
O O13 0.243390 0.000000 0.014851
O O14 0.000000 0.130907 0.643945
O O15 0.780414 0.000000 0.638651
O O16 0.500000 0.393125 0.716142
O O17 0.243080 0.500000 0.736163
O O18 0.239736 0.359560 0.609852
O O19 0.500000 0.354371 0.490318
O O20 0.314800 0.500000 0.509610
O O21 0.213214 0.367618 0.401187
O O22 0.736876 0.500000 0.274039
O O23 0.000000 0.603482 0.260504
#
# Coordination Sequence:
#
# PCOD9337293 Si02
#       8
#     4   4   4   4   4   4   4   4
#     4   9  19  36  55  77 109 144 176 219 279 339
#     4  10  19  32  55  82 106 138 183 223 264 317
#     4  11  22  35  55  79 105 141 188 232 274 325
#     4   9  19  36  55  78 109 140 174 226 281 321
#     4   9  19  35  52  74 108 142 169 210 273 334
#     4   8  15  28  47  75 110 141 172 213 258 305
#     4   8  14  27  47  71 103 141 176 213 256 305
#     4  10  21  36  53  76 108 144 181 222 272 329
#
# _framework density 20.634186
#
# number of rings (size 3 to 8) (size 9 to 14) (size 15 to 20)
#    0.000    2.750    0.000    3.000    1.750    2.750 
#    0.000    3.125    0.000    5.625    0.000    0.000 
#    0.000    0.000    0.000    0.000    0.000    0.000 
#
# Total GULP energy -178539.137382 kJ/mol
# GULP energy per Si atom -5579.348043 kJ/mol
# Density = 2.058722 g / cm^3
# Si number density = 20.634186 Si / 1000 Ang^3
#
#
#
# Elastic Constant Matrix: (Units=GPa)
#
#
# Indices 1 2 3 4 5 6 
#
# 1 10.4942 -4.6869 -4.5679 0.0000 0.0000 0.0000
# 2 -4.6869 111.9559 73.5806 0.0000 0.0000 0.0000
# 3 -4.5679 73.5806 122.3293 0.0000 0.0000 0.0000
# 4 0.0000 0.0000 0.0000 37.4043 0.0000 0.0000
# 5 0.0000 0.0000 0.0000 0.0000 28.5796 0.0000
# 6 0.0000 0.0000 0.0000 0.0000 0.0000 15.2095
#
#
#
# Elastic Compliance Matrix: (Units=1/GPa)
#
#
# Indices 1 2 3 4 5 6 
#
# 1 0.097389 0.002790 0.001959 0.000000 0.000000 0.000000
# 2 0.002790 0.014852 -0.008829 0.000000 0.000000 0.000000
# 3 0.001959 -0.008829 0.013558 0.000000 0.000000 0.000000
# 4 0.000000 0.000000 0.000000 0.026735 0.000000 0.000000
# 5 0.000000 0.000000 0.000000 0.000000 0.034990 0.000000
# 6 0.000000 0.000000 0.000000 0.000000 0.000000 0.065748
#
#
# Mechanical properties :
#
#
# Convention : Reuss Voigt Hill
#
# Bulk Modulus (GPa) = 8.50068 41.49234 24.99651
# Shear Modulus (GPa) = 16.63087 28.26893 22.44990
#
# Velocity S-wave (km/s) = 2.84207 3.70537 3.30206
# Velocity P-wave (km/s) = 3.85985 6.20150 5.16513
#
# Compressibility (1/GPa) = 0.11763761
#
# Stress axis : x y z
#
# Youngs Moduli (GPa) = 10.26811 67.33321 73.75523
#
# Poissons Ratio (x) = -0.18785 -0.14445
# Poissons Ratio (y) = -0.02865 0.65118
# Poissons Ratio (z) = -0.02011 0.59448
#
# Static dielectric constant tensor:
#      x y z
#    x 1.735720 0.000000 0.000000 
#    y 0.000000 1.768600 0.000000 
#    z 0.000000 0.000000 1.736690 
# 
# From -- ./inp_files/4272.got.cif
#   From: 2010.05.17/outbox.cif.g08.bks.cpg/sg25_3_cif.got.tgz:4272.got - 2010.06.04 01:04:00.
