data_PCOD9337597
_publ_section_title
;
Structure prediction by ZEFSAII (Michael W. Deem and Ramdas Pophale) SiO2 
 PCOD9337597
Probable space group: P M M 2
;
_chemical_formula_sum "Si O2"
_cell_formula_units_Z 32
_cell_length_a 7.926569
_cell_length_b 14.465616
_cell_length_c 13.501082
_cell_angle_alpha 90.000000
_cell_angle_beta 90.000000
_cell_angle_gamma 90.000000
_cell_volume 1548.070560
_symmetry_space_group_name_H-M "P M M 2"
_symmetry_group_IT_number 25
_symmetry_cell_setting 'orthorhombic'
loop_
_space_group_symop_operation_xyz
x,y,z
-x,-y,z
-x,y,z
x,-y,z
loop_
_atom_site_type_symbol
_atom_site_label
_atom_site_fract_x
_atom_site_fract_y
_atom_site_fract_z
Si Si1 0.702695 0.710380 0.356310
Si Si2 0.202651 0.104031 0.840233
Si Si3 0.699545 0.713996 0.747703
Si Si4 0.702984 0.606747 0.160425
Si Si5 0.707068 0.393172 0.554134
Si Si6 0.798937 0.605796 0.945007
Si Si7 0.193225 0.887243 0.055372
Si Si8 0.203838 0.895006 0.271053
O O1 0.500000 0.701961 0.355564
O O2 0.767701 0.661940 0.255636
O O3 0.763132 0.659057 0.454761
O O4 0.746623 0.818100 0.349508
O O5 0.240463 0.181103 0.759976
O O6 0.000000 0.099365 0.851537
O O7 0.262868 0.000000 0.818583
O O8 0.271000 0.135352 0.948710
O O9 0.500000 0.716230 0.737296
O O10 0.767366 0.659347 0.652602
O O11 0.741218 0.661371 0.849453
O O12 0.500000 0.605069 0.165640
O O13 0.763279 0.500000 0.164377
O O14 0.749573 0.645510 0.052425
O O15 0.500000 0.392771 0.554518
O O16 0.759227 0.500000 0.554169
O O17 0.732226 0.500000 0.940316
O O18 0.000000 0.602706 0.942217
O O19 0.271237 0.864558 0.161898
O O20 0.000000 0.851797 0.055574
O O21 0.184946 0.000000 0.055503
O O22 0.000000 0.897381 0.263488
O O23 0.260160 0.000000 0.291540
#
# Coordination Sequence:
#
# PCOD9337597 Si02
#       8
#     4   4   4   4   4   4   4   4
#     4  10  20  34  56  83 107 136 182 231 274 319
#     4   9  18  34  55  79 110 149 189 226 269 324
#     4  11  22  35  56  83 110 142 185 232 279 327
#     4   9  18  33  53  79 111 141 171 217 277 336
#     4   9  19  38  61  81 104 141 186 228 274 330
#     4  10  21  36  54  78 110 146 181 220 272 336
#     4   7  12  26  48  71  97 136 180 213 249 305
#     4   9  18  33  52  76 109 148 185 219 263 322
#
# _framework density 20.670893
#
# number of rings (size 3 to 8) (size 9 to 14) (size 15 to 20)
#    0.000    2.750    0.000    3.000    1.750    3.750 
#    0.000    1.875    0.000    8.625    0.000    0.000 
#    0.000    0.000    0.000    0.000    0.000    0.000 
#
# Total GULP energy -178567.743397 kJ/mol
# GULP energy per Si atom -5580.241981 kJ/mol
# Density = 2.062384 g / cm^3
# Si number density = 20.670893 Si / 1000 Ang^3
#
#
#
# Elastic Constant Matrix: (Units=GPa)
#
#
# Indices 1 2 3 4 5 6 
#
# 1 18.7922 6.9870 4.9623 0.0000 0.0000 0.0000
# 2 6.9870 144.3786 108.1383 0.0000 0.0000 0.0000
# 3 4.9623 108.1383 152.2372 0.0000 0.0000 0.0000
# 4 0.0000 0.0000 0.0000 40.1852 0.0000 0.0000
# 5 0.0000 0.0000 0.0000 0.0000 0.0146 0.0000
# 6 0.0000 0.0000 0.0000 0.0000 0.0000 21.0247
#
#
#
# Elastic Compliance Matrix: (Units=1/GPa)
#
#
# Indices 1 2 3 4 5 6 
#
# 1 0.054191 -0.002777 0.000206 0.000000 0.000000 0.000000
# 2 -0.002777 0.014943 -0.010524 0.000000 0.000000 0.000000
# 3 0.000206 -0.010524 0.014037 0.000000 0.000000 0.000000
# 4 0.000000 0.000000 0.000000 0.024885 0.000000 0.000000
# 5 0.000000 0.000000 0.000000 0.000000 68.700458 0.000000
# 6 0.000000 0.000000 0.000000 0.000000 0.000000 0.047563
#
#
# Mechanical properties :
#
#
# Convention : Reuss Voigt Hill
#
# Bulk Modulus (GPa) = 17.54926 61.73147 39.64036
# Shear Modulus (GPa) = 0.07257 25.26625 12.66941
#
# Velocity S-wave (km/s) = 0.18757 3.49995 2.47839
# Velocity P-wave (km/s) = 2.92492 6.80159 5.23530
#
# Compressibility (1/GPa) = 0.05698246
#
# Stress axis : x y z
#
# Youngs Moduli (GPa) = 18.45308 66.92160 71.23860
#
# Poissons Ratio (x) = 0.18583 -0.01468
# Poissons Ratio (y) = 0.05124 0.74970
# Poissons Ratio (z) = -0.00380 0.70427
#
# Static dielectric constant tensor:
#      x y z
#    x 1.751090 0.000000 0.000000 
#    y 0.000000 1.743910 0.000000 
#    z 0.000000 0.000000 1.744460 
# 
# From -- ./inp_files/4274.got.cif
#   From: 2010.05.17/outbox.cif.g08.bks.cpg/sg25_3_cif.got.tgz:4274.got - 2010.06.04 01:04:00.
