data_PCOD9337058
_publ_section_title
;
Structure prediction by ZEFSAII (Michael W. Deem and Ramdas Pophale) SiO2 
 PCOD9337058
Probable space group: I 21 21 21
;
_chemical_formula_sum "Si O2"
_cell_formula_units_Z 28
_cell_length_a 21.000000
_cell_length_b 15.000000
_cell_length_c 9.000000
_cell_angle_alpha 90.000000
_cell_angle_beta 90.000000
_cell_angle_gamma 90.000000
_cell_volume 2835.000000
_symmetry_space_group_name_H-M "I 21 21 21"
_symmetry_group_IT_number 24
_symmetry_cell_setting 'orthorhombic'
loop_
_space_group_symop_operation_xyz
x,y,z
-x,1/2-y,z
x,-y,1/2-z
1/2-x,y,-z
1/2+x,1/2+y,1/2+z
1/2-x,-y,1/2+z
1/2+x,1/2-y,-z
-x,1/2+y,1/2-z
loop_
_atom_site_type_symbol
_atom_site_label
_atom_site_fract_x
_atom_site_fract_y
_atom_site_fract_z
Si Si1 0.216783 0.102426 0.252999
Si Si2 0.891132 0.391765 0.495853
Si Si3 0.402860 0.904526 0.528329
Si Si4 0.846268 0.908327 0.155610
Si Si5 0.505459 0.854049 0.766061
Si Si6 0.651759 0.287795 0.222920
Si Si7 0.698174 0.100869 0.312407
O O1 0.175093 0.118872 0.402055
O O2 0.159302 0.106614 0.133834
O O3 0.277542 0.165242 0.223645
O O4 0.240450 0.000000 0.250000
O O5 0.896248 0.496151 0.539573
O O6 0.955066 0.373456 0.399717
O O7 0.882975 0.323212 0.629091
O O8 0.468433 0.900894 0.625604
O O9 0.391506 0.826535 0.409787
O O10 0.774122 0.870851 0.194984
O O11 0.918939 0.872394 0.195124
O O12 0.846333 0.000000 0.250000
O O13 0.834410 0.908068 0.976817
O O14 0.500000 0.750000 0.732880
O O15 0.662168 0.181345 0.228050
O O16 0.694621 0.000000 0.250000
#
# Coordination Sequence:
#
# PCOD9337058 Si02
#       7
#     8   8   8   8   8   8   8
#     4   9  19  35  58  89 128 172 215 256 314 390
#     4  10  21  38  63  93 131 171 218 267 320 403
#     4  10  22  39  58  97 134 168 217 265 324 400
#     4  10  22  45  71  89 123 174 224 274 335 398
#     4  11  23  40  66  94 126 174 224 264 322 399
#     4  12  22  36  64  93 135 164 209 269 341 384
#     4  10  25  44  65 101 130 163 225 288 343 396
#
# _framework density 9.8765429999999999
#
# number of rings (size 3 to 8) (size 9 to 14) (size 15 to 20)
#    0.000    1.714    0.000    5.143    8.000    3.429 
#    7.714    5.000    0.000    0.000    0.000    0.000 
#    0.000    0.000    0.000    0.000    0.000    0.000 
#
# Total GULP energy -155986.893719 kJ/mol
# GULP energy per Si atom -5570.960490 kJ/mol
# Density = 0.985406 g / cm^3
# Si number density = 9.876543 Si / 1000 Ang^3
#
#
#
# Elastic Constant Matrix: (Units=GPa)
#
#
# Indices 1 2 3 4 5 6 
#
# 1 127.1080 20.8684 23.6101 0.0000 0.0000 0.0000
# 2 20.8684 91.7745 18.5330 0.0000 0.0000 0.0000
# 3 23.6101 18.5330 57.2490 0.0000 0.0000 0.0000
# 4 0.0000 0.0000 0.0000 28.4458 0.0000 0.0000
# 5 0.0000 0.0000 0.0000 0.0000 26.3258 0.0000
# 6 0.0000 0.0000 0.0000 0.0000 0.0000 41.3527
#
#
#
# Elastic Compliance Matrix: (Units=1/GPa)
#
#
# Indices 1 2 3 4 5 6 
#
# 1 0.008671 -0.001337 -0.003143 0.000000 0.000000 0.000000
# 2 -0.001337 0.011865 -0.003290 0.000000 0.000000 0.000000
# 3 -0.003143 -0.003290 0.019829 0.000000 0.000000 0.000000
# 4 0.000000 0.000000 0.000000 0.035155 0.000000 0.000000
# 5 0.000000 0.000000 0.000000 0.000000 0.037986 0.000000
# 6 0.000000 0.000000 0.000000 0.000000 0.000000 0.024182
#
#
# Mechanical properties :
#
#
# Convention : Reuss Voigt Hill
#
# Bulk Modulus (GPa) = 40.28212 44.68384 42.48298
# Shear Modulus (GPa) = 30.95971 33.43286 32.19628
#
# Velocity S-wave (km/s) = 3.96325 4.11851 4.04163
# Velocity P-wave (km/s) = 6.43275 6.72952 6.58281
#
# Compressibility (1/GPa) = 0.02482491
#
# Stress axis : x y z
#
# Youngs Moduli (GPa) = 115.33184 84.28470 50.43193
#
# Poissons Ratio (x) = 0.11268 0.15851
# Poissons Ratio (y) = 0.15418 0.16590
# Poissons Ratio (z) = 0.36250 0.27726
#
# Static dielectric constant tensor:
#      x y z
#    x 1.680080 0.000000 0.000000 
#    y 0.000000 1.718830 0.000000 
#    z 0.000000 0.000000 1.764690 
# 
# From -- ./inp_files/15263.got.cif
#   From: 2010.05.17/outbox.ucp.g08.bks.cvg/sg24_8_cif.got.tgz:15263.got - 2010.06.11 15:20:44.
