data_PCOD9337924
_publ_section_title
;
Structure prediction by ZEFSAII (Michael W. Deem and Ramdas Pophale) SiO2 
 PCOD9337924
Probable space group: P M C 21
;
_chemical_formula_sum "Si O2"
_cell_formula_units_Z 28
_cell_length_a 10.507894
_cell_length_b 5.231649
_cell_length_c 28.295373
_cell_angle_alpha 90.000000
_cell_angle_beta 90.000000
_cell_angle_gamma 90.000000
_cell_volume 1555.498889
_symmetry_space_group_name_H-M "P M C 21"
_symmetry_group_IT_number 26
_symmetry_cell_setting 'orthorhombic'
loop_
_space_group_symop_operation_xyz
x,y,z
-x,-y,1/2+z
-x,y,z
x,-y,1/2+z
loop_
_atom_site_type_symbol
_atom_site_label
_atom_site_fract_x
_atom_site_fract_y
_atom_site_fract_z
Si Si1 0.844706 0.422977 0.341730
Si Si2 0.845512 0.555662 0.235854
Si Si3 0.737845 0.960788 0.075351
Si Si4 0.154136 0.920390 0.395400
Si Si5 0.640841 0.474139 0.030073
Si Si6 0.143502 0.231791 0.486821
Si Si7 0.154094 0.945070 0.678838
O O1 0.802555 0.497539 0.289094
O O2 0.806248 0.140990 0.358333
O O3 0.000000 0.422197 0.341557
O O4 0.802471 0.642311 0.378496
O O5 0.808248 0.326893 0.200791
O O6 0.000000 0.555475 0.237461
O O7 0.808190 0.828431 0.214660
O O8 0.665816 0.207330 0.055512
O O9 0.786799 0.004910 0.127714
O O10 0.655274 0.704549 0.068132
O O11 0.851302 0.907698 0.037673
O O12 0.186759 0.034003 0.446625
O O13 0.000000 0.909438 0.394852
O O14 0.500000 0.480471 0.009088
O O15 0.753466 0.543948 0.993390
O O16 0.000000 0.321452 0.476077
O O17 0.000000 0.948702 0.674490
#
# Coordination Sequence:
#
# PCOD9337924 Si02
#       7
#     4   4   4   4   4   4   4
#     4   9  16  27  41  62  95 138 170 202 251 308
#     4   9  17  27  42  63  98 138 173 207 252 310
#     4  10  21  34  53  73 105 139 172 217 256 307
#     4   9  17  27  43  66  97 131 171 206 250 309
#     4  10  22  38  55  73 105 144 178 217 255 306
#     4   9  21  34  53  80 109 141 175 216 262 312
#     4  10  18  29  45  71 101 135 173 209 256 310
#
# _framework density 18.000658000000001
#
# number of rings (size 3 to 8) (size 9 to 14) (size 15 to 20)
#    0.857    1.714    0.000    2.571    2.000    4.571 
#    0.000    0.000    0.000    0.000    0.000    0.000 
#    0.000   22.857    0.000    0.000    0.000    0.000 
#
# Total GULP energy -155899.795944 kJ/mol
# GULP energy per Si atom -5567.849855 kJ/mol
# Density = 1.795969 g / cm^3
# Si number density = 18.000658 Si / 1000 Ang^3
#
#
#
# Elastic Constant Matrix: (Units=GPa)
#
#
# Indices 1 2 3 4 5 6 
#
# 1 45.3464 8.2278 2.9759 0.0000 0.0000 0.0000
# 2 8.2278 70.2877 -21.6317 0.0000 0.0000 0.0000
# 3 2.9759 -21.6317 55.2312 0.0000 0.0000 0.0000
# 4 0.0000 0.0000 0.0000 22.7821 0.0000 0.0000
# 5 0.0000 0.0000 0.0000 0.0000 -1.1595 0.0000
# 6 0.0000 0.0000 0.0000 0.0000 0.0000 -8.1263
#
#
#
# Elastic Compliance Matrix: (Units=1/GPa)
#
#
# Indices 1 2 3 4 5 6 
#
# 1 0.022853 -0.003473 -0.002591 0.000000 0.000000 0.000000
# 2 -0.003473 0.016705 0.006730 0.000000 0.000000 0.000000
# 3 -0.002591 0.006730 0.020881 0.000000 0.000000 0.000000
# 4 0.000000 0.000000 0.000000 0.043894 0.000000 0.000000
# 5 0.000000 0.000000 0.000000 0.000000 -0.862455 0.000000
# 6 0.000000 0.000000 0.000000 0.000000 0.000000 -0.123057
#
#
# Mechanical properties :
#
#
# Convention : Reuss Voigt Hill
#
# Bulk Modulus (GPa) = 16.18909 16.66768 16.42838
# Shear Modulus (GPa) = -5.80100 14.78548 4.49224
#
# Velocity S-wave (km/s) = -1.79712 2.86909 1.58146
# Velocity P-wave (km/s) = 2.16955 4.50057 3.53285
#
# Compressibility (1/GPa) = 0.06176998
#
# Stress axis : x y z
#
# Youngs Moduli (GPa) = 43.75869 59.86274 47.89022
#
# Poissons Ratio (x) = 0.20788 0.12410
# Poissons Ratio (y) = 0.15196 -0.32229
# Poissons Ratio (z) = 0.11340 -0.40286
#
# Static dielectric constant tensor:
#      x y z
#    x 1.614640 0.000000 0.000000 
#    y 0.000000 1.633000 0.000000 
#    z 0.000000 0.000000 1.619470 
# 
# From -- ./inp_files/5652.got.cif
#   From: 2010.05.17/outbox.cif.g08.bks.cpg/sg26_3_cif.got.tgz:5652.got - 2010.06.04 01:07:29.
