data_PCOD9337424
_publ_section_title
;
Structure prediction by ZEFSAII (Michael W. Deem and Ramdas Pophale) SiO2 
 PCOD9337424
Probable space group: P M M 2
;
_chemical_formula_sum "Si O2"
_cell_formula_units_Z 32
_cell_length_a 7.406813
_cell_length_b 9.587176
_cell_length_c 21.187202
_cell_angle_alpha 90.000000
_cell_angle_beta 90.000000
_cell_angle_gamma 90.000000
_cell_volume 1504.512109
_symmetry_space_group_name_H-M "P M M 2"
_symmetry_group_IT_number 25
_symmetry_cell_setting 'orthorhombic'
loop_
_space_group_symop_operation_xyz
x,y,z
-x,-y,z
-x,y,z
x,-y,z
loop_
_atom_site_type_symbol
_atom_site_label
_atom_site_fract_x
_atom_site_fract_y
_atom_site_fract_z
Si Si1 0.720688 0.660705 0.718840
Si Si2 0.720591 0.160457 0.596934
Si Si3 0.778946 0.159802 0.218400
Si Si4 0.219839 0.339791 0.099466
Si Si5 0.715399 0.659139 0.479055
Si Si6 0.215929 0.341419 0.336296
Si Si7 0.217233 0.341417 0.957284
Si Si8 0.286758 0.157406 0.836473
O O1 0.500000 0.657742 0.719353
O O2 0.779835 0.500000 0.717395
O O3 0.774772 0.747637 0.657141
O O4 0.783872 0.742415 0.781171
O O5 0.500000 0.158327 0.596662
O O6 0.781825 0.237381 0.533100
O O7 0.779382 0.000000 0.601108
O O8 0.720177 0.238690 0.154978
O O9 0.718078 0.242822 0.280520
O O10 0.000000 0.160924 0.218411
O O11 0.721726 0.000000 0.219357
O O12 0.272417 0.500000 0.112208
O O13 0.000000 0.337106 0.099487
O O14 0.278032 0.303934 0.028215
O O15 0.500000 0.650795 0.487180
O O16 0.785926 0.500000 0.485124
O O17 0.748289 0.707671 0.407529
O O18 0.286028 0.500000 0.330675
O O19 0.000000 0.348599 0.329430
O O20 0.279554 0.500000 0.942878
O O21 0.267141 0.232894 0.903537
O O22 0.000000 0.346022 0.958958
O O23 0.500000 0.145617 0.824177
O O24 0.212614 0.000000 0.835989
#
# Coordination Sequence:
#
# PCOD9337424 Si02
#       8
#     4   4   4   4   4   4   4   4
#     4   9  16  27  45  67  90 118 153 192 230 267
#     4   9  16  26  42  65  91 116 144 182 226 268
#     4   9  16  25  40  64  90 114 144 183 223 262
#     4   8  14  26  44  65  89 116 147 185 226 266
#     4   9  17  29  45  65  88 114 145 180 217 260
#     4   9  17  29  45  64  87 116 147 179 217 260
#     4   9  18  32  50  72  96 123 157 195 234 278
#     4  10  20  32  47  70  99 128 157 191 233 280
#
# _framework density 21.269354
#
# number of rings (size 3 to 8) (size 9 to 14) (size 15 to 20)
#    0.000    3.000    0.000    2.250    0.000    6.500 
#    0.000    1.250    0.000    1.500    0.000    3.500 
#    0.000    0.000    0.000    0.000    0.000    0.000 
#
# Total GULP energy -178669.212948 kJ/mol
# GULP energy per Si atom -5583.412905 kJ/mol
# Density = 2.122094 g / cm^3
# Si number density = 21.269354 Si / 1000 Ang^3
#
#
#
# Elastic Constant Matrix: (Units=GPa)
#
#
# Indices 1 2 3 4 5 6 
#
# 1 69.6317 6.4001 -0.4278 0.0000 0.0000 0.0000
# 2 6.4001 199.0785 161.5657 0.0000 0.0000 0.0000
# 3 -0.4278 161.5657 215.0573 0.0000 0.0000 0.0000
# 4 0.0000 0.0000 0.0000 -590.7557 0.0000 0.0000
# 5 0.0000 0.0000 0.0000 0.0000 17.3600 0.0000
# 6 0.0000 0.0000 0.0000 0.0000 0.0000 -3.4780
#
#
#
# Elastic Compliance Matrix: (Units=1/GPa)
#
#
# Indices 1 2 3 4 5 6 
#
# 1 0.014482 -0.001253 0.000970 0.000000 0.000000 0.000000
# 2 -0.001253 0.012979 -0.009753 0.000000 0.000000 0.000000
# 3 0.000970 -0.009753 0.011979 0.000000 0.000000 0.000000
# 4 0.000000 0.000000 0.000000 -0.001693 0.000000 0.000000
# 5 0.000000 0.000000 0.000000 0.000000 0.057604 0.000000
# 6 0.000000 0.000000 0.000000 0.000000 0.000000 -0.287521
#
#
# Mechanical properties :
#
#
# Convention : Reuss Voigt Hill
#
# Bulk Modulus (GPa) = 51.63035 90.98263 71.30649
# Shear Modulus (GPa) = -30.18536 -94.29279 -62.23907
#
# Velocity S-wave (km/s) = -3.77131 -6.66550 -5.41533
# Velocity P-wave (km/s) = 2.31593 4.04590 2.34582
#
# Compressibility (1/GPa) = 0.01936845
#
# Stress axis : x y z
#
# Youngs Moduli (GPa) = 69.04941 77.05043 83.48047
#
# Poissons Ratio (x) = 0.09653 -0.08098
# Poissons Ratio (y) = 0.08651 0.81417
# Poissons Ratio (z) = -0.06698 0.75146
#
# Static dielectric constant tensor:
#      x y z
#    x 1.842080 0.000000 0.000000 
#    y 0.000000 1.727870 0.000000 
#    z 0.000000 0.000000 1.729740 
# 
# From -- ./inp_files/6265.got.cif
#   From: 2010.05.17/outbox.cif.g08.bks.cpg/sg25_4_cif.got.tgz:6265.got - 2010.06.04 01:04:00.
