data_PCOD9337175
_publ_section_title
;
Structure prediction by ZEFSAII (Michael W. Deem and Ramdas Pophale) SiO2 
 PCOD9337175
Probable space group: P M M 2
;
_chemical_formula_sum "Si O2"
_cell_formula_units_Z 32
_cell_length_a 19.897707
_cell_length_b 7.646613
_cell_length_c 10.744452
_cell_angle_alpha 90.000000
_cell_angle_beta 90.000000
_cell_angle_gamma 90.000000
_cell_volume 1634.769070
_symmetry_space_group_name_H-M "P M M 2"
_symmetry_group_IT_number 25
_symmetry_cell_setting 'orthorhombic'
loop_
_space_group_symop_operation_xyz
x,y,z
-x,-y,z
-x,y,z
x,-y,z
loop_
_atom_site_type_symbol
_atom_site_label
_atom_site_fract_x
_atom_site_fract_y
_atom_site_fract_z
Si Si1 0.289229 0.214472 0.737600
Si Si2 0.425610 0.790983 0.848456
Si Si3 0.282107 0.792025 0.234278
Si Si4 0.074944 0.791767 0.590424
Si Si5 0.075408 0.290794 0.879361
Si Si6 0.214235 0.785145 0.487665
Si Si7 0.786335 0.793335 0.984247
Si Si8 0.575556 0.708630 0.137497
O O1 0.365342 0.273217 0.762675
O O2 0.256772 0.269982 0.608385
O O3 0.246682 0.275897 0.857136
O O4 0.288135 0.000000 0.737310
O O5 0.500000 0.718522 0.824023
O O6 0.428426 0.000000 0.832418
O O7 0.409921 0.760005 0.994118
O O8 0.248824 0.724058 0.360718
O O9 0.362083 0.767217 0.221076
O O10 0.270030 0.000000 0.235500
O O11 0.246453 0.719618 0.109628
O O12 0.090185 0.765322 0.737057
O O13 0.137440 0.726026 0.509715
O O14 0.000000 0.719056 0.566828
O O15 0.071670 0.000000 0.570508
O O16 0.074945 0.500000 0.881246
O O17 0.134033 0.228988 0.970102
O O18 0.000000 0.227540 0.909483
O O19 0.213742 0.000000 0.487615
O O20 0.771378 0.000000 0.984644
O O21 0.500000 0.775105 0.167777
O O22 0.573371 0.500000 0.142801
#
# Coordination Sequence:
#
# PCOD9337175 Si02
#       8
#     4   4   4   4   4   4   4   4
#     4   9  15  27  48  74 101 126 157 201 247 289
#     4   9  16  28  49  75 101 130 165 205 248 291
#     4  10  20  34  52  75 102 132 167 207 249 295
#     4   9  16  29  51  75  99 131 167 201 246 300
#     4  10  20  32  48  74 104 131 165 209 251 292
#     4   9  17  30  49  74 103 130 160 203 246 288
#     4  10  18  31  51  74  99 128 164 204 250 296
#     4  10  20  33  50  73 101 132 167 206 248 296
#
# _framework density 19.574632000000001
#
# number of rings (size 3 to 8) (size 9 to 14) (size 15 to 20)
#    0.000    2.500    2.500    0.750    0.000    2.000 
#    0.000    1.875    0.000    4.500    0.000    3.500 
#    0.000    0.000    0.000    0.000    0.000    0.000 
#
# Total GULP energy -178482.895090 kJ/mol
# GULP energy per Si atom -5577.590472 kJ/mol
# Density = 1.953008 g / cm^3
# Si number density = 19.574632 Si / 1000 Ang^3
#
#
#
# Elastic Constant Matrix: (Units=GPa)
#
#
# Indices 1 2 3 4 5 6 
#
# 1 165.6637 -4.6683 99.7404 0.0000 0.0000 0.0000
# 2 -4.6683 34.2846 9.1683 0.0000 0.0000 0.0000
# 3 99.7404 9.1683 129.8780 0.0000 0.0000 0.0000
# 4 0.0000 0.0000 0.0000 112.9208 0.0000 0.0000
# 5 0.0000 0.0000 0.0000 0.0000 35.8336 0.0000
# 6 0.0000 0.0000 0.0000 0.0000 0.0000 1.1909
#
#
#
# Elastic Compliance Matrix: (Units=1/GPa)
#
#
# Indices 1 2 3 4 5 6 
#
# 1 0.011766 0.004096 -0.009325 0.000000 0.000000 0.000000
# 2 0.004096 0.031155 -0.005345 0.000000 0.000000 0.000000
# 3 -0.009325 -0.005345 0.015238 0.000000 0.000000 0.000000
# 4 0.000000 0.000000 0.000000 0.008856 0.000000 0.000000
# 5 0.000000 0.000000 0.000000 0.000000 0.027907 0.000000
# 6 0.000000 0.000000 0.000000 0.000000 0.000000 0.839680
#
#
# Mechanical properties :
#
#
# Convention : Reuss Voigt Hill
#
# Bulk Modulus (GPa) = 27.01904 59.81187 43.41545
# Shear Modulus (GPa) = 5.16484 45.02813 25.09648
#
# Velocity S-wave (km/s) = 1.62612 4.80138 3.58452
# Velocity P-wave (km/s) = 4.16638 7.83325 6.27370
#
# Compressibility (1/GPa) = 0.03701094
#
# Stress axis : x y z
#
# Youngs Moduli (GPa) = 84.99172 32.09808 65.62627
#
# Poissons Ratio (x) = -0.13146 0.61195
# Poissons Ratio (y) = -0.34810 0.35074
# Poissons Ratio (z) = 0.79253 0.17155
#
# Static dielectric constant tensor:
#      x y z
#    x 1.675300 0.000000 0.000000 
#    y 0.000000 1.694620 0.000000 
#    z 0.000000 0.000000 1.649070 
# 
# From -- ./inp_files/5067.got.cif
#   From: 2010.05.17/outbox.cif.g08.bks.cpg/sg25_3_cif.got.tgz:5067.got - 2010.06.04 01:04:00.
