data_PCOD9337554
_publ_section_title
;
Structure prediction by ZEFSAII (Michael W. Deem and Ramdas Pophale) SiO2 
 PCOD9337554
Probable space group: P M M 2
;
_chemical_formula_sum "Si O2"
_cell_formula_units_Z 32
_cell_length_a 9.342731
_cell_length_b 7.925669
_cell_length_c 21.420337
_cell_angle_alpha 90.000000
_cell_angle_beta 90.000000
_cell_angle_gamma 90.000000
_cell_volume 1586.120122
_symmetry_space_group_name_H-M "P M M 2"
_symmetry_group_IT_number 25
_symmetry_cell_setting 'orthorhombic'
loop_
_space_group_symop_operation_xyz
x,y,z
-x,-y,z
-x,y,z
x,-y,z
loop_
_atom_site_type_symbol
_atom_site_label
_atom_site_fract_x
_atom_site_fract_y
_atom_site_fract_z
Si Si1 0.334426 0.704772 0.069670
Si Si2 0.674225 0.304289 0.205867
Si Si3 0.661167 0.701091 0.584698
Si Si4 0.164357 0.293190 0.464407
Si Si5 0.666117 0.293239 0.341716
Si Si6 0.662833 0.300808 0.825701
Si Si7 0.838178 0.198750 0.705174
Si Si8 0.836650 0.200887 0.946991
O O1 0.500000 0.757554 0.059002
O O2 0.335176 0.500000 0.072010
O O3 0.286019 0.768332 0.138301
O O4 0.234328 0.759771 0.013473
O O5 0.500000 0.305149 0.206222
O O6 0.721472 0.500000 0.205645
O O7 0.716248 0.231856 0.273208
O O8 0.500000 0.770180 0.588880
O O9 0.649947 0.500000 0.575817
O O10 0.747027 0.766290 0.524573
O O11 0.747670 0.728224 0.648150
O O12 0.165489 0.500000 0.464695
O O13 0.238932 0.239812 0.400006
O O14 0.000000 0.239628 0.468038
O O15 0.500000 0.245072 0.350962
O O16 0.668141 0.500000 0.339579
O O17 0.500000 0.233804 0.826123
O O18 0.655606 0.500000 0.813972
O O19 0.757396 0.225577 0.770308
O O20 0.739085 0.272803 0.891797
O O21 0.000000 0.268506 0.707515
O O22 0.847350 0.000000 0.694116
O O23 0.000000 0.264942 0.943563
O O24 0.840197 0.000000 0.938655
#
# Coordination Sequence:
#
# PCOD9337554 Si02
#       8
#     4   4   4   4   4   4   4   4
#     4   9  17  31  52  77 103 133 173 218 262 311
#     4   7  11  21  39  64  94 127 163 206 256 308
#     4  10  20  34  53  77 104 137 179 221 259 304
#     4   9  16  25  39  63  97 134 170 212 262 311
#     4   8  12  20  36  59  90 128 166 205 254 310
#     4  11  24  41  62  87 110 134 169 211 253 300
#     4  11  24  40  58  82 111 141 172 207 251 304
#     4  11  24  39  54  76 107 141 176 213 255 305
#
# _framework density 20.175017
#
# number of rings (size 3 to 8) (size 9 to 14) (size 15 to 20)
#    0.000    2.500    0.000    4.500    0.000   10.000 
#    0.000    0.625    0.000    2.250    0.000    0.875 
#    0.000    5.000    0.000    0.000    0.000    0.000 
#
# Total GULP energy -178563.147591 kJ/mol
# GULP energy per Si atom -5580.098362 kJ/mol
# Density = 2.012910 g / cm^3
# Si number density = 20.175017 Si / 1000 Ang^3
#
#
#
# Elastic Constant Matrix: (Units=GPa)
#
#
# Indices 1 2 3 4 5 6 
#
# 1 149.7693 1.3287 81.5600 0.0000 0.0000 0.0000
# 2 1.3287 18.5885 -12.3095 0.0000 0.0000 0.0000
# 3 81.5600 -12.3095 154.1453 0.0000 0.0000 0.0000
# 4 0.0000 0.0000 0.0000 -58.9482 0.0000 0.0000
# 5 0.0000 0.0000 0.0000 0.0000 -205.6179 0.0000
# 6 0.0000 0.0000 0.0000 0.0000 0.0000 22.2643
#
#
#
# Elastic Compliance Matrix: (Units=1/GPa)
#
#
# Indices 1 2 3 4 5 6 
#
# 1 0.009697 -0.004319 -0.005476 0.000000 0.000000 0.000000
# 2 -0.004319 0.058724 0.006975 0.000000 0.000000 0.000000
# 3 -0.005476 0.006975 0.009942 0.000000 0.000000 0.000000
# 4 0.000000 0.000000 0.000000 -0.016964 0.000000 0.000000
# 5 0.000000 0.000000 0.000000 0.000000 -0.004863 0.000000
# 6 0.000000 0.000000 0.000000 0.000000 0.000000 0.044915
#
#
# Mechanical properties :
#
#
# Convention : Reuss Voigt Hill
#
# Bulk Modulus (GPa) = 13.75085 51.51796 32.63441
# Shear Modulus (GPa) = 38.07137 -31.66545 3.20296
#
# Velocity S-wave (km/s) = 4.34874 -3.96604 1.26136
# Velocity P-wave (km/s) = 5.66091 2.14904 4.28161
#
# Compressibility (1/GPa) = 0.07272277
#
# Stress axis : x y z
#
# Youngs Moduli (GPa) = 103.12212 17.02872 100.58634
#
# Poissons Ratio (x) = 0.07355 0.55080
# Poissons Ratio (y) = 0.44542 -0.70158
# Poissons Ratio (z) = 0.56468 -0.11877
#
# Static dielectric constant tensor:
#      x y z
#    x 1.707210 0.000000 0.000000 
#    y 0.000000 1.733200 0.000000 
#    z 0.000000 0.000000 1.702430 
# 
# From -- ./inp_files/6447.got.cif
#   From: 2010.05.17/outbox.cif.g08.bks.cpg/sg25_4_cif.got.tgz:6447.got - 2010.06.04 01:04:00.
