data_PCOD9337596
_publ_section_title
;
Structure prediction by ZEFSAII (Michael W. Deem and Ramdas Pophale) SiO2 
 PCOD9337596
Probable space group: P M M 2
;
_chemical_formula_sum "Si O2"
_cell_formula_units_Z 32
_cell_length_a 7.577056
_cell_length_b 14.504840
_cell_length_c 13.437821
_cell_angle_alpha 90.000000
_cell_angle_beta 90.000000
_cell_angle_gamma 90.000000
_cell_volume 1476.870077
_symmetry_space_group_name_H-M "P M M 2"
_symmetry_group_IT_number 25
_symmetry_cell_setting 'orthorhombic'
loop_
_space_group_symop_operation_xyz
x,y,z
-x,-y,z
-x,y,z
x,-y,z
loop_
_atom_site_type_symbol
_atom_site_label
_atom_site_fract_x
_atom_site_fract_y
_atom_site_fract_z
Si Si1 0.796693 0.717088 0.316940
Si Si2 0.707531 0.396971 0.508543
Si Si3 0.797410 0.112383 0.999467
Si Si4 0.787729 0.104029 0.784271
Si Si5 0.711289 0.290289 0.700468
Si Si6 0.714934 0.608018 0.898165
Si Si7 0.217219 0.894325 0.217119
Si Si8 0.713061 0.608570 0.118313
O O1 0.718712 0.657684 0.405542
O O2 0.722243 0.818906 0.296036
O O3 0.784546 0.663734 0.212045
O O4 0.000000 0.728814 0.343867
O O5 0.500000 0.406690 0.529176
O O6 0.783010 0.500000 0.499786
O O7 0.781643 0.340416 0.602218
O O8 0.719162 0.135788 0.106654
O O9 0.000000 0.145080 0.000091
O O10 0.802054 0.000000 0.998761
O O11 0.716114 0.136469 0.892876
O O12 0.746637 0.181646 0.704720
O O13 0.000000 0.099250 0.794387
O O14 0.725504 0.000000 0.763422
O O15 0.500000 0.301526 0.702676
O O16 0.780066 0.336150 0.802712
O O17 0.500000 0.611287 0.898691
O O18 0.762619 0.500000 0.888621
O O19 0.771436 0.641121 0.008173
O O20 0.000000 0.893185 0.213680
O O21 0.268846 0.000000 0.235644
O O22 0.500000 0.614466 0.122165
O O23 0.759020 0.500000 0.126359
#
# Coordination Sequence:
#
# PCOD9337596 Si02
#       8
#     4   4   4   4   4   4   4   4
#     4  11  22  33  53  83 108 134 176 227 270 305
#     4  10  22  41  61  77  99 138 183 222 266 325
#     4   7  11  23  44  68  97 136 175 204 235 290
#     4   9  18  32  51  77 110 147 181 211 253 316
#     4  10  20  34  56  82 103 131 179 231 271 307
#     4   8  15  30  52  77 104 134 170 214 266 326
#     4   8  15  29  48  72 104 140 176 211 252 306
#     4   9  18  33  52  74 105 143 173 203 260 335
#
# _framework density 21.667444
#
# number of rings (size 3 to 8) (size 9 to 14) (size 15 to 20)
#    0.000    3.000    0.000    3.375    1.750    4.250 
#    0.000    0.625    0.000    5.625    0.000    0.000 
#    0.000    0.000    0.000    0.000    0.000    0.000 
#
# Total GULP energy -178555.439926 kJ/mol
# GULP energy per Si atom -5579.857498 kJ/mol
# Density = 2.161813 g / cm^3
# Si number density = 21.667444 Si / 1000 Ang^3
#
#
#
# Elastic Constant Matrix: (Units=GPa)
#
#
# Indices 1 2 3 4 5 6 
#
# 1 48.5338 3.2324 2.7088 0.0000 0.0000 0.0000
# 2 3.2324 139.1107 95.0794 0.0000 0.0000 0.0000
# 3 2.7088 95.0794 137.5255 0.0000 0.0000 0.0000
# 4 0.0000 0.0000 0.0000 33.2700 0.0000 0.0000
# 5 0.0000 0.0000 0.0000 0.0000 -19.2331 0.0000
# 6 0.0000 0.0000 0.0000 0.0000 0.0000 13.4147
#
#
#
# Elastic Compliance Matrix: (Units=1/GPa)
#
#
# Indices 1 2 3 4 5 6 
#
# 1 0.020638 -0.000382 -0.000142 0.000000 0.000000 0.000000
# 2 -0.000382 0.013635 -0.009419 0.000000 0.000000 0.000000
# 3 -0.000142 -0.009419 0.013786 0.000000 0.000000 0.000000
# 4 0.000000 0.000000 0.000000 0.030057 0.000000 0.000000
# 5 0.000000 0.000000 0.000000 0.000000 -0.051994 0.000000
# 6 0.000000 0.000000 0.000000 0.000000 0.000000 0.074545
#
#
# Mechanical properties :
#
#
# Convention : Reuss Voigt Hill
#
# Bulk Modulus (GPa) = 35.49688 58.57902 47.03795
# Shear Modulus (GPa) = 38.47745 20.43361 29.45553
#
# Velocity S-wave (km/s) = 4.21862 3.07425 3.69105
# Velocity P-wave (km/s) = 6.33618 6.30044 6.31833
#
# Compressibility (1/GPa) = 0.02817149
#
# Stress axis : x y z
#
# Youngs Moduli (GPa) = 48.45528 73.33861 72.53544
#
# Poissons Ratio (x) = 0.02805 0.01031
# Poissons Ratio (y) = 0.01853 0.68324
# Poissons Ratio (z) = 0.00689 0.69081
#
# Static dielectric constant tensor:
#      x y z
#    x 1.827580 0.000000 0.000000 
#    y 0.000000 1.807670 0.000000 
#    z 0.000000 0.000000 1.779890 
# 
# From -- ./inp_files/4194.got.cif
#   From: 2010.05.17/outbox.cif.g08.bks.cpg/sg25_3_cif.got.tgz:4194.got - 2010.06.04 01:04:00.
