data_PCOD9337818
_publ_section_title
;
Structure prediction by ZEFSAII (Michael W. Deem and Ramdas Pophale) SiO2 
 PCOD9337818
Probable space group: P M M 2
;
_chemical_formula_sum "Si O2"
_cell_formula_units_Z 28
_cell_length_a 9.993347
_cell_length_b 7.589840
_cell_length_c 18.546877
_cell_angle_alpha 90.000000
_cell_angle_beta 90.000000
_cell_angle_gamma 90.000000
_cell_volume 1406.741761
_symmetry_space_group_name_H-M "P M M 2"
_symmetry_group_IT_number 25
_symmetry_cell_setting 'orthorhombic'
loop_
_space_group_symop_operation_xyz
x,y,z
-x,-y,z
-x,y,z
x,-y,z
loop_
_atom_site_type_symbol
_atom_site_label
_atom_site_fract_x
_atom_site_fract_y
_atom_site_fract_z
Si Si1 0.349386 0.792050 0.837010
Si Si2 0.848957 0.288907 0.966884
Si Si3 0.654414 0.715076 0.256313
Si Si4 0.654415 0.715076 0.417708
Si Si5 0.846228 0.284988 0.129135
Si Si6 0.846227 0.715012 0.544886
Si Si7 0.848958 0.288908 0.707137
O O1 0.500000 0.714618 0.837011
O O2 0.261212 0.748122 0.907058
O O3 0.261212 0.748115 0.766963
O O4 0.363497 0.000000 0.837008
O O5 0.858494 0.500000 0.971018
O O6 0.000000 0.224467 0.948531
O O7 0.813040 0.226583 0.047605
O O8 0.500000 0.767352 0.245953
O O9 0.656886 0.500000 0.255674
O O10 0.696850 0.769369 0.337010
O O11 0.748018 0.777249 0.191698
O O12 0.500000 0.767349 0.428068
O O13 0.656889 0.500000 0.418346
O O14 0.748018 0.777250 0.482323
O O15 0.840962 0.500000 0.129328
O O16 0.000000 0.235736 0.143440
O O17 0.840959 0.500000 0.544693
O O18 0.813040 0.773419 0.626416
O O19 0.000000 0.764261 0.530582
O O20 0.858498 0.500000 0.703000
O O21 0.000000 0.224467 0.725491
#
# Coordination Sequence:
#
# PCOD9337818 Si02
#       7
#     4   4   4   4   4   4   4
#     4  11  24  37  48  68  96 121 150 189 230 276
#     4   9  18  33  52  72  93 119 154 193 231 275
#     4   8  13  20  30  48  78 115 150 180 212 254
#     4   8  13  20  30  48  78 115 150 180 212 254
#     4   8  14  24  38  58  83 110 143 183 222 260
#     4   8  14  24  38  58  83 110 143 183 222 260
#     4   9  18  33  52  72  93 119 154 193 231 275
#
# _framework density 19.904150999999999
#
# number of rings (size 3 to 8) (size 9 to 14) (size 15 to 20)
#    0.000    3.286    0.000    3.429    0.000    5.143 
#    0.000    5.714    0.000    0.000    0.000    0.000 
#    0.000    1.143    0.000   12.571    0.000   20.571 
#
# Total GULP energy -156093.197941 kJ/mol
# GULP energy per Si atom -5574.757069 kJ/mol
# Density = 1.985885 g / cm^3
# Si number density = 19.904151 Si / 1000 Ang^3
#
#
#
# Elastic Constant Matrix: (Units=GPa)
#
#
# Indices 1 2 3 4 5 6 
#
# 1 156.7823 6.8015 158.8336 0.0000 0.0000 0.0000
# 2 6.8015 41.8844 8.7516 0.0000 0.0000 0.0000
# 3 158.8336 8.7516 218.3596 0.0000 0.0000 0.0000
# 4 0.0000 0.0000 0.0000 -45.8182 0.0000 0.0000
# 5 0.0000 0.0000 0.0000 0.0000 1156.4055 0.0000
# 6 0.0000 0.0000 0.0000 0.0000 0.0000 60.7849
#
#
#
# Elastic Compliance Matrix: (Units=1/GPa)
#
#
# Indices 1 2 3 4 5 6 
#
# 1 0.024247 -0.000254 -0.017627 0.000000 0.000000 0.000000
# 2 -0.000254 0.024080 -0.000780 0.000000 0.000000 0.000000
# 3 -0.017627 -0.000780 0.017432 0.000000 0.000000 0.000000
# 4 0.000000 0.000000 0.000000 -0.021825 0.000000 0.000000
# 5 0.000000 0.000000 0.000000 0.000000 0.000865 0.000000
# 6 0.000000 0.000000 0.000000 0.000000 0.000000 0.016451
#
#
# Mechanical properties :
#
#
# Convention : Reuss Voigt Hill
#
# Bulk Modulus (GPa) = 35.16616 85.08886 60.12751
# Shear Modulus (GPa) = 46.27479 250.45040 148.36260
#
# Velocity S-wave (km/s) = 4.82693 11.22949 8.64294
# Velocity P-wave (km/s) = 6.98368 14.52506 11.39625
#
# Compressibility (1/GPa) = 0.02843643
#
# Stress axis : x y z
#
# Youngs Moduli (GPa) = 41.24298 41.52900 57.36453
#
# Poissons Ratio (x) = 0.01056 1.01114
# Poissons Ratio (y) = 0.01049 0.04475
# Poissons Ratio (z) = 0.72697 0.03240
#
# Static dielectric constant tensor:
#      x y z
#    x 1.696370 0.000000 0.000000 
#    y 0.000000 1.744690 0.000000 
#    z 0.000000 0.000000 1.704800 
# 
# From -- ./inp_files/6409.got.cif
#   From: 2010.05.17/outbox.cif.g08.bks.cpg/sg25_4_cif.got.tgz:6409.got - 2010.06.04 01:04:00.
