data_PCOD9337537
_publ_section_title
;
Structure prediction by ZEFSAII (Michael W. Deem and Ramdas Pophale) SiO2 
 PCOD9337537
Probable space group: P M M 2
;
_chemical_formula_sum "Si O2"
_cell_formula_units_Z 24
_cell_length_a 7.530752
_cell_length_b 14.014246
_cell_length_c 12.725969
_cell_angle_alpha 90.000000
_cell_angle_beta 90.000000
_cell_angle_gamma 90.000000
_cell_volume 1343.070912
_symmetry_space_group_name_H-M "P M M 2"
_symmetry_group_IT_number 25
_symmetry_cell_setting 'orthorhombic'
loop_
_space_group_symop_operation_xyz
x,y,z
-x,-y,z
-x,y,z
x,-y,z
loop_
_atom_site_type_symbol
_atom_site_label
_atom_site_fract_x
_atom_site_fract_y
_atom_site_fract_z
Si Si1 0.000000 0.612449 0.392421
Si Si2 0.000000 0.387214 0.645693
Si Si3 0.715044 0.107699 0.522899
Si Si4 0.713745 0.892841 0.908343
Si Si5 0.790489 0.107529 0.152971
Si Si6 0.297092 0.244445 0.335217
Si Si7 0.714313 0.241379 0.720082
O O1 0.000000 0.626640 0.519058
O O2 0.170343 0.665120 0.343612
O O3 0.000000 0.500000 0.372273
O O4 0.827873 0.334774 0.694158
O O5 0.000000 0.500000 0.666133
O O6 0.500000 0.102390 0.518475
O O7 0.770221 0.168281 0.421856
O O8 0.757196 0.165959 0.627606
O O9 0.783203 0.000000 0.523122
O O10 0.500000 0.895514 0.902170
O O11 0.769109 0.810707 0.828078
O O12 0.777522 0.000000 0.879433
O O13 0.763729 0.875679 0.029113
O O14 0.708206 0.188723 0.225211
O O15 0.000000 0.107633 0.174531
O O16 0.721617 0.000000 0.176332
O O17 0.500000 0.270183 0.360904
O O18 0.500000 0.257804 0.719830
#
# Coordination Sequence:
#
# PCOD9337537 Si02
#       7
#     2   2   4   4   4   4   4
#     4  11  24  42  59  82 113 141 186 244 292 344
#     4  11  24  40  59  82 109 143 186 238 292 340
#     4   9  17  30  51  81 114 146 177 215 267 326
#     4   9  18  33  54  82 117 156 192 224 264 322
#     4  10  20  33  53  85 122 157 192 226 266 327
#     4  11  21  37  59  82 112 149 187 230 281 335
#     4  10  20  36  57  82 113 147 185 229 276 332
#
# _framework density 17.869495000000001
#
# number of rings (size 3 to 8) (size 9 to 14) (size 15 to 20)
#    0.000    2.000    2.500    1.500    1.167    4.333 
#    0.000    3.750    0.000    2.000    0.000    2.333 
#    0.000    0.000    0.000    0.000    0.000    0.000 
#
# Total GULP energy -133984.095580 kJ/mol
# GULP energy per Si atom -5582.670649 kJ/mol
# Density = 1.782882 g / cm^3
# Si number density = 17.869495 Si / 1000 Ang^3
#
#
#
# Elastic Constant Matrix: (Units=GPa)
#
#
# Indices 1 2 3 4 5 6 
#
# 1 88.4060 56.4201 22.6032 0.0000 0.0000 0.0000
# 2 56.4201 151.1687 62.3209 0.0000 0.0000 0.0000
# 3 22.6032 62.3209 78.4438 0.0000 0.0000 0.0000
# 4 0.0000 0.0000 0.0000 24.7119 0.0000 0.0000
# 5 0.0000 0.0000 0.0000 0.0000 10.4918 0.0000
# 6 0.0000 0.0000 0.0000 0.0000 0.0000 34.1447
#
#
#
# Elastic Compliance Matrix: (Units=1/GPa)
#
#
# Indices 1 2 3 4 5 6 
#
# 1 0.014850 -0.005619 0.000185 0.000000 0.000000 0.000000
# 2 -0.005619 0.011963 -0.007885 0.000000 0.000000 0.000000
# 3 0.000185 -0.007885 0.018959 0.000000 0.000000 0.000000
# 4 0.000000 0.000000 0.000000 0.040466 0.000000 0.000000
# 5 0.000000 0.000000 0.000000 0.000000 0.095313 0.000000
# 6 0.000000 0.000000 0.000000 0.000000 0.000000 0.029287
#
#
# Mechanical properties :
#
#
# Convention : Reuss Voigt Hill
#
# Bulk Modulus (GPa) = 52.26236 66.74521 59.50378
# Shear Modulus (GPa) = 20.50409 25.64796 23.07603
#
# Velocity S-wave (km/s) = 3.39106 3.79264 3.59745
# Velocity P-wave (km/s) = 6.68151 7.52405 7.11526
#
# Compressibility (1/GPa) = 0.01913423
#
# Stress axis : x y z
#
# Youngs Moduli (GPa) = 67.34039 83.59222 52.74497
#
# Poissons Ratio (x) = 0.46967 -0.00975
# Poissons Ratio (y) = 0.37836 0.41590
# Poissons Ratio (z) = -0.01245 0.65913
#
# Static dielectric constant tensor:
#      x y z
#    x 1.667280 0.000000 0.000000 
#    y 0.000000 1.579560 0.000000 
#    z 0.000000 0.000000 1.605310 
# 
# From -- ./inp_files/4000.got.cif
#   From: 2010.05.17/outbox.cif.g08.bks.cpg/sg25_2_cif.got.tgz:4000.got - 2010.06.04 01:04:00.
