data_PCOD9337111
_publ_section_title
;
Structure prediction by ZEFSAII (Michael W. Deem and Ramdas Pophale) SiO2 
 PCOD9337111
Probable space group: P M M 2
;
_chemical_formula_sum "Si O2"
_cell_formula_units_Z 32
_cell_length_a 14.790254
_cell_length_b 7.756163
_cell_length_c 16.201679
_cell_angle_alpha 90.000000
_cell_angle_beta 90.000000
_cell_angle_gamma 90.000000
_cell_volume 1858.585665
_symmetry_space_group_name_H-M "P M M 2"
_symmetry_group_IT_number 25
_symmetry_cell_setting 'orthorhombic'
loop_
_space_group_symop_operation_xyz
x,y,z
-x,-y,z
-x,y,z
x,-y,z
loop_
_atom_site_type_symbol
_atom_site_label
_atom_site_fract_x
_atom_site_fract_y
_atom_site_fract_z
Si Si1 0.605165 0.211324 0.985420
Si Si2 0.609874 0.799435 0.165152
Si Si3 0.718502 0.798512 0.499904
Si Si4 0.604751 0.787864 0.345688
Si Si5 0.603127 0.298359 0.656409
Si Si6 0.704783 0.798501 0.822387
Si Si7 0.100434 0.209055 0.577965
Si Si8 0.899468 0.704605 0.770920
O O1 0.500000 0.258893 0.973255
O O2 0.663796 0.270260 0.907829
O O3 0.607691 0.000000 0.988356
O O4 0.636549 0.274166 0.076001
O O5 0.500000 0.797745 0.164693
O O6 0.635624 0.727208 0.254651
O O7 0.638244 0.000000 0.165380
O O8 0.666450 0.726034 0.420803
O O9 0.656005 0.788245 0.581125
O O10 0.816024 0.723955 0.524391
O O11 0.733264 0.000000 0.481309
O O12 0.500000 0.738070 0.358665
O O13 0.605061 0.000000 0.344420
O O14 0.500000 0.233950 0.665353
O O15 0.599561 0.500000 0.635934
O O16 0.657686 0.280117 0.741643
O O17 0.812535 0.778661 0.816625
O O18 0.682199 0.000000 0.818612
O O19 0.113008 0.261193 0.673289
O O20 0.000000 0.265486 0.552028
O O21 0.102309 0.000000 0.576516
O O22 0.899064 0.500000 0.783686
O O23 0.000000 0.771337 0.793090
#
# Coordination Sequence:
#
# PCOD9337111 Si02
#       8
#     4   4   4   4   4   4   4   4
#     4   8  14  24  39  61  88 116 146 178 215 259
#     4   7  10  19  35  56  84 113 139 175 218 255
#     4  10  18  28  44  65  86 114 148 183 219 258
#     4   8  13  21  36  60  87 112 142 179 216 256
#     4  11  23  34  42  57  87 124 154 179 212 258
#     4  11  20  30  46  67  88 114 147 185 224 262
#     4   9  17  29  44  62  84 111 145 184 223 258
#     4  10  20  33  48  64  84 112 146 184 224 265
#
# _framework density 17.217393000000001
#
# number of rings (size 3 to 8) (size 9 to 14) (size 15 to 20)
#    0.000    2.750    1.250    3.375    0.000    2.750 
#    0.000    0.000    0.000    0.000    0.000    2.625 
#    0.000   13.000    0.000    3.375    0.000    3.125 
#
# Total GULP energy -178302.716571 kJ/mol
# GULP energy per Si atom -5571.959893 kJ/mol
# Density = 1.717821 g / cm^3
# Si number density = 17.217393 Si / 1000 Ang^3
#
#
#
# Elastic Constant Matrix: (Units=GPa)
#
#
# Indices 1 2 3 4 5 6 
#
# 1 104.6784 -5.2183 63.3480 0.0000 0.0000 0.0000
# 2 -5.2183 23.8428 -6.5272 0.0000 0.0000 0.0000
# 3 63.3480 -6.5272 135.6312 0.0000 0.0000 0.0000
# 4 0.0000 0.0000 0.0000 -28.9122 0.0000 0.0000
# 5 0.0000 0.0000 0.0000 0.0000 9.2806 0.0000
# 6 0.0000 0.0000 0.0000 0.0000 0.0000 9.6856
#
#
#
# Elastic Compliance Matrix: (Units=1/GPa)
#
#
# Indices 1 2 3 4 5 6 
#
# 1 0.013353 0.001231 -0.006177 0.000000 0.000000 0.000000
# 2 0.001231 0.042615 0.001476 0.000000 0.000000 0.000000
# 3 -0.006177 0.001476 0.010329 0.000000 0.000000 0.000000
# 4 0.000000 0.000000 0.000000 -0.034587 0.000000 0.000000
# 5 0.000000 0.000000 0.000000 0.000000 0.107751 0.000000
# 6 0.000000 0.000000 0.000000 0.000000 0.000000 0.103246
#
#
# Mechanical properties :
#
#
# Convention : Reuss Voigt Hill
#
# Bulk Modulus (GPa) = 16.84746 40.81751 28.83248
# Shear Modulus (GPa) = 18.55753 12.18080 15.36917
#
# Velocity S-wave (km/s) = 3.28660 2.66272 2.99097
# Velocity P-wave (km/s) = 4.92024 5.76299 5.35821
#
# Compressibility (1/GPa) = 0.05935613
#
# Stress axis : x y z
#
# Youngs Moduli (GPa) = 74.89097 23.46604 96.81366
#
# Poissons Ratio (x) = -0.02889 0.59805
# Poissons Ratio (y) = -0.09221 -0.14287
# Poissons Ratio (z) = 0.46262 -0.03463
#
# Static dielectric constant tensor:
#      x y z
#    x 1.588490 0.000000 0.000000 
#    y 0.000000 1.628650 0.000000 
#    z 0.000000 0.000000 1.596720 
# 
# From -- ./inp_files/5920.got.cif
#   From: 2010.05.17/outbox.cif.g08.bks.cpg/sg25_3_cif.got.tgz:5920.got - 2010.06.04 01:04:00.
