data_PCOD9337826
_publ_section_title
;
Structure prediction by ZEFSAII (Michael W. Deem and Ramdas Pophale) SiO2 
 PCOD9337826
Probable space group: P M M 2
;
_chemical_formula_sum "Si O2"
_cell_formula_units_Z 32
_cell_length_a 9.584413
_cell_length_b 7.425597
_cell_length_c 21.810242
_cell_angle_alpha 90.000000
_cell_angle_beta 90.000000
_cell_angle_gamma 90.000000
_cell_volume 1552.234671
_symmetry_space_group_name_H-M "P M M 2"
_symmetry_group_IT_number 25
_symmetry_cell_setting 'orthorhombic'
loop_
_space_group_symop_operation_xyz
x,y,z
-x,-y,z
-x,y,z
x,-y,z
loop_
_atom_site_type_symbol
_atom_site_label
_atom_site_fract_x
_atom_site_fract_y
_atom_site_fract_z
Si Si1 0.659366 0.713959 0.715070
Si Si2 0.330200 0.211915 0.980851
Si Si3 0.341152 0.215224 0.346806
Si Si4 0.160227 0.720755 0.600043
Si Si5 0.160129 0.779626 0.232144
Si Si6 0.341065 0.715129 0.485171
Si Si7 0.339383 0.216498 0.849588
Si Si8 0.661805 0.779699 0.114980
O O1 0.500000 0.786766 0.713060
O O2 0.648431 0.500000 0.706561
O O3 0.754834 0.781532 0.659997
O O4 0.721843 0.741781 0.783095
O O5 0.500000 0.223748 0.979376
O O6 0.280102 0.283613 0.914794
O O7 0.294393 0.000000 0.981924
O O8 0.289403 0.284172 0.047545
O O9 0.500000 0.285449 0.341501
O O10 0.241683 0.281415 0.292910
O O11 0.291361 0.249967 0.415975
O O12 0.348837 0.000000 0.339721
O O13 0.159855 0.500000 0.600179
O O14 0.240830 0.780699 0.538856
O O15 0.000000 0.778170 0.600955
O O16 0.242759 0.722896 0.171267
O O17 0.000000 0.722152 0.231802
O O18 0.160642 0.000000 0.232263
O O19 0.500000 0.785478 0.490651
O O20 0.348996 0.500000 0.492199
O O21 0.500000 0.282362 0.846156
O O22 0.343742 0.000000 0.854181
O O23 0.500000 0.727239 0.124085
O O24 0.662513 0.000000 0.113608
#
# Coordination Sequence:
#
# PCOD9337826 Si02
#       8
#     4   4   4   4   4   4   4   4
#     4   9  16  26  42  63  83 103 131 168 204 235
#     4   7  10  17  31  52  75  98 128 166 202 235
#     4   9  17  29  44  62  85 111 135 160 196 243
#     4   9  17  29  45  63  82 106 136 167 198 236
#     4   9  16  24  35  54  81 110 137 167 202 236
#     4   9  17  30  48  67  84 103 131 168 204 235
#     4   8  13  22  37  58  83 108 133 163 201 243
#     4   8  12  19  33  52  73  99 133 170 203 236
#
# _framework density 20.615437
#
# number of rings (size 3 to 8) (size 9 to 14) (size 15 to 20)
#    0.000    3.500    0.000    2.250    0.000    3.500 
#    0.000    0.625    0.000    4.875    0.000    2.625 
#    0.000    5.000    0.000    0.000    0.000    0.000 
#
# Total GULP energy -178314.865710 kJ/mol
# GULP energy per Si atom -5572.339553 kJ/mol
# Density = 2.056852 g / cm^3
# Si number density = 20.615437 Si / 1000 Ang^3
#
#
#
# Elastic Constant Matrix: (Units=GPa)
#
#
# Indices 1 2 3 4 5 6 
#
# 1 91.6887 5.3687 118.4181 0.0000 0.0000 0.0000
# 2 5.3687 64.9891 3.7286 0.0000 0.0000 0.0000
# 3 118.4181 3.7286 269.2069 0.0000 0.0000 0.0000
# 4 0.0000 0.0000 0.0000 20.0911 0.0000 0.0000
# 5 0.0000 0.0000 0.0000 0.0000 -12.1292 0.0000
# 6 0.0000 0.0000 0.0000 0.0000 0.0000 -2.7169
#
#
#
# Elastic Compliance Matrix: (Units=1/GPa)
#
#
# Indices 1 2 3 4 5 6 
#
# 1 0.025390 -0.001458 -0.011148 0.000000 0.000000 0.000000
# 2 -0.001458 0.015483 0.000427 0.000000 0.000000 0.000000
# 3 -0.011148 0.000427 0.008613 0.000000 0.000000 0.000000
# 4 0.000000 0.000000 0.000000 0.049773 0.000000 0.000000
# 5 0.000000 0.000000 0.000000 0.000000 -0.082446 0.000000
# 6 0.000000 0.000000 0.000000 0.000000 0.000000 -0.368068
#
#
# Mechanical properties :
#
#
# Convention : Reuss Voigt Hill
#
# Bulk Modulus (GPa) = 39.79758 75.65729 57.72743
# Shear Modulus (GPa) = -15.69758 20.94030 2.62136
#
# Velocity S-wave (km/s) = -2.76243 3.19055 1.12886
# Velocity P-wave (km/s) = 3.02853 7.09590 5.45545
#
# Compressibility (1/GPa) = 0.02512716
#
# Stress axis : x y z
#
# Youngs Moduli (GPa) = 39.38515 64.58635 116.10837
#
# Poissons Ratio (x) = 0.09416 1.29443
# Poissons Ratio (y) = 0.05742 -0.04956
# Poissons Ratio (z) = 0.43908 -0.02757
#
# Static dielectric constant tensor:
#      x y z
#    x 1.683790 0.000000 0.000000 
#    y 0.000000 1.801330 0.000000 
#    z 0.000000 0.000000 1.760560 
# 
# From -- ./inp_files/6293.got.cif
#   From: 2010.05.17/outbox.cif.g08.bks.cpg/sg25_4_cif.got.tgz:6293.got - 2010.06.04 01:04:00.
