data_PCOD9337664
_publ_section_title
;
Structure prediction by ZEFSAII (Michael W. Deem and Ramdas Pophale) SiO2 
 PCOD9337664
Probable space group: P M M 2
;
_chemical_formula_sum "Si O2"
_cell_formula_units_Z 18
_cell_length_a 14.104601
_cell_length_b 7.476110
_cell_length_c 9.580873
_cell_angle_alpha 90.000000
_cell_angle_beta 90.000000
_cell_angle_gamma 90.000000
_cell_volume 1010.279571
_symmetry_space_group_name_H-M "P M M 2"
_symmetry_group_IT_number 25
_symmetry_cell_setting 'orthorhombic'
loop_
_space_group_symop_operation_xyz
x,y,z
-x,-y,z
-x,y,z
x,-y,z
loop_
_atom_site_type_symbol
_atom_site_label
_atom_site_fract_x
_atom_site_fract_y
_atom_site_fract_z
Si Si1 0.000000 0.289507 0.657560
Si Si2 0.000000 0.000000 0.901856
Si Si3 0.708901 0.712871 0.240190
Si Si4 0.500000 0.000000 0.592116
Si Si5 0.300833 0.000000 0.731021
Si Si6 0.796154 0.710734 0.541568
Si Si7 0.208882 0.000000 0.031862
Si Si8 0.500000 0.286514 0.345626
O O1 0.093098 0.253681 0.566113
O O2 0.000000 0.500000 0.694983
O O3 0.000000 0.169207 0.796035
O O4 0.097350 0.000000 0.990852
O O5 0.718295 0.500000 0.215368
O O6 0.758590 0.756472 0.388151
O O7 0.596866 0.753208 0.261509
O O8 0.759252 0.828744 0.122225
O O9 0.410032 0.000000 0.691868
O O10 0.500000 0.830267 0.486654
O O11 0.257125 0.827392 0.655323
O O12 0.269014 0.000000 0.889764
O O13 0.778790 0.500000 0.562023
O O14 0.500000 0.500000 0.376909
#
# Coordination Sequence:
#
# PCOD9337664 Si02
#       8
#     2   1   4   1   2   4   2   2
#     4  10  20  37  65  91 117 157 204 256 304 352
#     4  12  24  40  58  88 124 166 202 238 302 374
#     4  10  22  40  64  91 121 159 201 251 304 358
#     4  12  22  34  64  96 120 154 202 256 296 350
#     4  12  23  37  59  90 126 157 197 246 299 356
#     4  10  20  38  64  90 115 153 207 257 297 345
#     4  12  26  40  58  88 130 167 195 239 304 372
#     4  10  20  39  67  91 115 155 206 254 304 356
#
# _framework density 17.816849999999999
#
# number of rings (size 3 to 8) (size 9 to 14) (size 15 to 20)
#    0.000    1.333    4.444    1.333    0.000    3.556 
#    0.000    1.111    0.000    0.000    0.000    0.000 
#    0.000    0.000    0.000    0.000    0.000    0.000 
#
# Total GULP energy -100530.259950 kJ/mol
# GULP energy per Si atom -5585.014442 kJ/mol
# Density = 1.777630 g / cm^3
# Si number density = 17.816850 Si / 1000 Ang^3
#
#
#
# Elastic Constant Matrix: (Units=GPa)
#
#
# Indices 1 2 3 4 5 6 
#
# 1 172.1833 55.2806 70.5582 0.0000 0.0000 0.0000
# 2 55.2806 68.6767 61.5269 0.0000 0.0000 0.0000
# 3 70.5582 61.5269 134.5439 0.0000 0.0000 0.0000
# 4 0.0000 0.0000 0.0000 8.4565 0.0000 0.0000
# 5 0.0000 0.0000 0.0000 0.0000 33.1993 0.0000
# 6 0.0000 0.0000 0.0000 0.0000 0.0000 14.8948
#
#
#
# Elastic Compliance Matrix: (Units=1/GPa)
#
#
# Indices 1 2 3 4 5 6 
#
# 1 0.008189 -0.004649 -0.002169 0.000000 0.000000 0.000000
# 2 -0.004649 0.027306 -0.010049 0.000000 0.000000 0.000000
# 3 -0.002169 -0.010049 0.013165 0.000000 0.000000 0.000000
# 4 0.000000 0.000000 0.000000 0.118253 0.000000 0.000000
# 5 0.000000 0.000000 0.000000 0.000000 0.030121 0.000000
# 6 0.000000 0.000000 0.000000 0.000000 0.000000 0.067138
#
#
# Mechanical properties :
#
#
# Convention : Reuss Voigt Hill
#
# Bulk Modulus (GPa) = 66.99190 83.34838 75.17014
# Shear Modulus (GPa) = 16.50820 23.84598 20.17709
#
# Velocity S-wave (km/s) = 3.04723 3.66238 3.36887
# Velocity P-wave (km/s) = 7.07550 8.04775 7.57723
#
# Compressibility (1/GPa) = 0.01492718
#
# Stress axis : x y z
#
# Youngs Moduli (GPa) = 122.11583 36.62226 75.95786
#
# Poissons Ratio (x) = 0.17025 0.16472
# Poissons Ratio (y) = 0.56769 0.76330
# Poissons Ratio (z) = 0.26482 0.36802
#
# Static dielectric constant tensor:
#      x y z
#    x 1.547520 0.000000 0.000000 
#    y 0.000000 1.625480 0.000000 
#    z 0.000000 0.000000 1.555450 
# 
# From -- ./inp_files/2574.got.cif
#   From: 2010.05.17/outbox.cif.g08.bks.cpg/sg25_2_cif.got.tgz:2574.got - 2010.06.04 01:04:00.
