data_PCOD9337755
_publ_section_title
;
Structure prediction by ZEFSAII (Michael W. Deem and Ramdas Pophale) SiO2 
 PCOD9337755
Probable space group: P M M 2
;
_chemical_formula_sum "Si O2"
_cell_formula_units_Z 32
_cell_length_a 8.898182
_cell_length_b 14.082894
_cell_length_c 13.207834
_cell_angle_alpha 90.000000
_cell_angle_beta 90.000000
_cell_angle_gamma 90.000000
_cell_volume 1655.102127
_symmetry_space_group_name_H-M "P M M 2"
_symmetry_group_IT_number 25
_symmetry_cell_setting 'orthorhombic'
loop_
_space_group_symop_operation_xyz
x,y,z
-x,-y,z
-x,y,z
x,-y,z
loop_
_atom_site_type_symbol
_atom_site_label
_atom_site_fract_x
_atom_site_fract_y
_atom_site_fract_z
Si Si1 0.321359 0.209824 0.302130
Si Si2 0.671207 0.615065 0.599786
Si Si3 0.821456 0.612417 0.813107
Si Si4 0.825238 0.114833 0.496575
Si Si5 0.319727 0.218732 0.914902
Si Si6 0.180062 0.111863 0.106031
Si Si7 0.179115 0.388799 0.387032
Si Si8 0.321659 0.887225 0.707187
O O1 0.500000 0.208913 0.293616
O O2 0.269324 0.158069 0.405159
O O3 0.247128 0.156261 0.208008
O O4 0.260213 0.317210 0.311274
O O5 0.500000 0.651026 0.593326
O O6 0.664647 0.500000 0.600786
O O7 0.747912 0.641067 0.705487
O O8 0.765205 0.638699 0.499923
O O9 0.795038 0.500000 0.827495
O O10 0.745653 0.676208 0.898815
O O11 0.000000 0.628077 0.809459
O O12 0.764451 0.145148 0.606540
O O13 0.000000 0.141027 0.484696
O O14 0.814054 0.000000 0.492448
O O15 0.500000 0.220396 0.922907
O O16 0.278266 0.163082 0.811451
O O17 0.249439 0.165898 0.010269
O O18 0.000000 0.121807 0.106360
O O19 0.216481 0.000000 0.100689
O O20 0.216621 0.500000 0.370993
O O21 0.000000 0.378582 0.380802
O O22 0.500000 0.873080 0.691703
O O23 0.295356 0.000000 0.718490
#
# Coordination Sequence:
#
# PCOD9337755 Si02
#       8
#     4   4   4   4   4   4   4   4
#     4  12  25  40  63  91 122 160 204 253 308 366
#     4   9  17  31  53  82 118 160 204 250 300 356
#     4  10  21  37  57  84 122 167 212 257 306 361
#     4  10  21  37  58  86 121 159 200 249 305 365
#     4  11  23  39  63  92 123 159 204 256 311 368
#     4  11  25  46  70  94 122 157 202 255 308 367
#     4  10  21  38  60  87 122 163 206 253 305 362
#     4   9  19  36  57  84 120 158 195 241 302 370
#
# _framework density 19.334154000000002
#
# number of rings (size 3 to 8) (size 9 to 14) (size 15 to 20)
#    0.000    1.750    0.000    4.125    1.750    7.750 
#    0.000    1.875    0.000    3.750    0.000    0.000 
#    0.000    0.000    0.000    0.000    0.000    0.000 
#
# Total GULP energy -178949.417780 kJ/mol
# GULP energy per Si atom -5592.169306 kJ/mol
# Density = 1.929015 g / cm^3
# Si number density = 19.334154 Si / 1000 Ang^3
#
#
#
# Elastic Constant Matrix: (Units=GPa)
#
#
# Indices 1 2 3 4 5 6 
#
# 1 99.9804 52.1913 57.4261 0.0000 0.0000 0.0000
# 2 52.1913 87.6675 56.8733 0.0000 0.0000 0.0000
# 3 57.4261 56.8733 118.6071 0.0000 0.0000 0.0000
# 4 0.0000 0.0000 0.0000 34.7700 0.0000 0.0000
# 5 0.0000 0.0000 0.0000 0.0000 36.3310 0.0000
# 6 0.0000 0.0000 0.0000 0.0000 0.0000 26.6608
#
#
#
# Elastic Compliance Matrix: (Units=1/GPa)
#
#
# Indices 1 2 3 4 5 6 
#
# 1 0.016100 -0.006572 -0.004644 0.000000 0.000000 0.000000
# 2 -0.006572 0.019240 -0.006044 0.000000 0.000000 0.000000
# 3 -0.004644 -0.006044 0.013578 0.000000 0.000000 0.000000
# 4 0.000000 0.000000 0.000000 0.028760 0.000000 0.000000
# 5 0.000000 0.000000 0.000000 0.000000 0.027525 0.000000
# 6 0.000000 0.000000 0.000000 0.000000 0.000000 0.037508
#
#
# Mechanical properties :
#
#
# Convention : Reuss Voigt Hill
#
# Bulk Modulus (GPa) = 69.45246 71.02625 70.23936
# Shear Modulus (GPa) = 27.46797 28.86999 28.16898
#
# Velocity S-wave (km/s) = 3.77330 3.86840 3.82115
# Velocity P-wave (km/s) = 7.41511 7.53450 7.47504
#
# Compressibility (1/GPa) = 0.01439834
#
# Stress axis : x y z
#
# Youngs Moduli (GPa) = 62.11176 51.97429 73.65081
#
# Poissons Ratio (x) = 0.34159 0.34201
# Poissons Ratio (y) = 0.40822 0.44513
# Poissons Ratio (z) = 0.28843 0.31412
#
# Static dielectric constant tensor:
#      x y z
#    x 1.644470 0.000000 0.000000 
#    y 0.000000 1.715690 0.000000 
#    z 0.000000 0.000000 1.629960 
# 
# From -- ./inp_files/4155.got.cif
#   From: 2010.05.17/outbox.cif.g08.bks.cpg/sg25_3_cif.got.tgz:4155.got - 2010.06.04 01:04:00.
