data_PCOD9337071
_publ_section_title
;
Structure prediction by ZEFSAII (Michael W. Deem and Ramdas Pophale) SiO2 
 PCOD9337071
Probable space group: I 21 21 21
;
_chemical_formula_sum "Si O2"
_cell_formula_units_Z 18
_cell_length_a 21.000000
_cell_length_b 9.000000
_cell_length_c 9.000000
_cell_angle_alpha 90.000000
_cell_angle_beta 90.000000
_cell_angle_gamma 90.000000
_cell_volume 1701.000000
_symmetry_space_group_name_H-M "I 21 21 21"
_symmetry_group_IT_number 24
_symmetry_cell_setting 'orthorhombic'
loop_
_space_group_symop_operation_xyz
x,y,z
-x,1/2-y,z
x,-y,1/2-z
1/2-x,y,-z
1/2+x,1/2+y,1/2+z
1/2-x,-y,1/2+z
1/2+x,1/2-y,-z
-x,1/2+y,1/2-z
loop_
_atom_site_type_symbol
_atom_site_label
_atom_site_fract_x
_atom_site_fract_y
_atom_site_fract_z
Si Si1 0.698129 0.159158 0.824290
Si Si2 0.016641 0.918308 0.900998
Si Si3 0.141972 0.838669 0.058056
Si Si4 0.626828 0.024450 0.424335
Si Si5 0.750000 0.586556 0.500000
O O1 0.651570 0.253996 0.715735
O O2 0.747925 0.291053 0.866033
O O3 0.719568 0.000000 0.750000
O O4 0.662906 0.093443 0.970706
O O5 0.000000 0.750000 0.856163
O O6 0.949288 0.983125 0.957636
O O7 0.037779 0.000000 0.750000
O O8 0.072448 0.905238 0.022008
O O9 0.191467 0.972214 0.025618
O O10 0.150779 0.693089 0.953722
O O11 0.633404 0.000000 0.250000
#
# Coordination Sequence:
#
# PCOD9337071 Si02
#       5
#     8   8   8   8   4
#     4  10  24  45  65  92 128 171 219 264 327 399
#     4   9  19  38  64  95 128 165 213 265 323 389
#     4  10  23  42  64  95 129 166 216 273 325 381
#     4   9  20  41  69  97 130 174 215 258 322 397
#     4  12  26  42  62  88 126 166 214 272 324 378
#
# _framework density 10.582011
#
# number of rings (size 3 to 8) (size 9 to 14) (size 15 to 20)
#    0.000    2.222    0.000    0.667    0.000   15.111 
#    0.000   17.778    0.000    0.000    0.000    0.000 
#    0.000    0.000    0.000    0.000    0.000    0.000 
#
# Total GULP energy -100344.195607 kJ/mol
# GULP energy per Si atom -5574.677534 kJ/mol
# Density = 1.055793 g / cm^3
# Si number density = 10.582011 Si / 1000 Ang^3
#
#
#
# Elastic Constant Matrix: (Units=GPa)
#
#
# Indices 1 2 3 4 5 6 
#
# 1 99.3104 80.4117 45.4518 0.0000 0.0000 0.0000
# 2 80.4117 146.9576 64.4603 0.0000 0.0000 0.0000
# 3 45.4518 64.4603 100.5385 0.0000 0.0000 0.0000
# 4 0.0000 0.0000 0.0000 43.7498 0.0000 0.0000
# 5 0.0000 0.0000 0.0000 0.0000 28.6712 0.0000
# 6 0.0000 0.0000 0.0000 0.0000 0.0000 40.7364
#
#
#
# Elastic Compliance Matrix: (Units=1/GPa)
#
#
# Indices 1 2 3 4 5 6 
#
# 1 0.018561 -0.009009 -0.002615 0.000000 0.000000 0.000000
# 2 -0.009009 0.013840 -0.004801 0.000000 0.000000 0.000000
# 3 -0.002615 -0.004801 0.014207 0.000000 0.000000 0.000000
# 4 0.000000 0.000000 0.000000 0.022857 0.000000 0.000000
# 5 0.000000 0.000000 0.000000 0.000000 0.034878 0.000000
# 6 0.000000 0.000000 0.000000 0.000000 0.000000 0.024548
#
#
# Mechanical properties :
#
#
# Convention : Reuss Voigt Hill
#
# Bulk Modulus (GPa) = 72.68433 80.82824 76.75629
# Shear Modulus (GPa) = 30.06141 33.06365 31.56253
#
# Velocity S-wave (km/s) = 3.77291 3.95683 3.86596
# Velocity P-wave (km/s) = 7.30737 7.69088 7.50158
#
# Compressibility (1/GPa) = 0.01375812
#
# Stress axis : x y z
#
# Youngs Moduli (GPa) = 53.87678 72.25451 70.39029
#
# Poissons Ratio (x) = 0.65095 0.18406
# Poissons Ratio (y) = 0.48538 0.33792
# Poissons Ratio (z) = 0.14088 0.34687
#
# Static dielectric constant tensor:
#      x y z
#    x 1.817050 0.000000 0.000000 
#    y 0.000000 1.734560 0.000000 
#    z 0.000000 0.000000 1.825190 
# 
# From -- ./inp_files/14827.got.cif
#   From: 2010.05.17/outbox.ucp.g08.bks.cvg/sg24_8_cif.got.tgz:14827.got - 2010.06.11 15:20:44.
