data_PCOD9337191
_publ_section_title
;
Structure prediction by ZEFSAII (Michael W. Deem and Ramdas Pophale) SiO2 
 PCOD9337191
Probable space group: P M M 2
;
_chemical_formula_sum "Si O2"
_cell_formula_units_Z 29
_cell_length_a 7.481227
_cell_length_b 22.530875
_cell_length_c 8.086100
_cell_angle_alpha 90.000000
_cell_angle_beta 90.000000
_cell_angle_gamma 90.000000
_cell_volume 1362.981618
_symmetry_space_group_name_H-M "P M M 2"
_symmetry_group_IT_number 25
_symmetry_cell_setting 'orthorhombic'
loop_
_space_group_symop_operation_xyz
x,y,z
-x,-y,z
-x,y,z
x,-y,z
loop_
_atom_site_type_symbol
_atom_site_label
_atom_site_fract_x
_atom_site_fract_y
_atom_site_fract_z
Si Si1 0.218213 0.315109 0.043570
Si Si2 0.780996 0.390613 0.367953
Si Si3 0.783551 0.935821 0.058608
Si Si4 0.500000 0.500000 0.383861
Si Si5 0.700212 0.808829 0.518668
Si Si6 0.213071 0.309750 0.681191
Si Si7 0.200521 0.190065 0.160068
Si Si8 0.785440 0.064827 0.666632
O O1 0.263489 0.358018 0.194605
O O2 0.283455 0.248258 0.079931
O O3 0.000000 0.313047 0.044582
O O4 0.278545 0.332350 0.859391
O O5 0.658763 0.448271 0.382503
O O6 0.731939 0.347079 0.520900
O O7 0.000000 0.400652 0.372380
O O8 0.715566 0.874810 0.136380
O O9 0.000000 0.937208 0.081151
O O10 0.717542 0.000000 0.120506
O O11 0.747319 0.932760 0.862524
O O12 0.500000 0.798134 0.462348
O O13 0.743225 0.759568 0.655153
O O14 0.813689 0.798771 0.355014
O O15 0.717315 0.875753 0.582387
O O16 0.000000 0.314161 0.685022
O O17 0.000000 0.185446 0.087273
O O18 0.000000 0.065795 0.647918
O O19 0.722817 0.000000 0.604942
#
# Coordination Sequence:
#
# PCOD9337191 Si02
#       8
#     4   4   4   1   4   4   4   4
#     4   9  18  36  64  93 120 158 209 260 307 360
#     4  10  22  43  68  99 133 171 214 257 309 366
#     4   8  15  29  52  80 105 136 191 257 310 364
#     4  12  26  44  74  98 140 178 204 256 306 370
#     4  12  24  34  50  81 122 158 199 254 312 377
#     4  10  20  39  67  92 122 163 207 261 310 358
#     4  10  18  32  55  81 112 150 199 254 304 360
#     4   9  18  35  57  77 102 145 202 258 313 375
#
# _framework density 21.276882000000001
#
# number of rings (size 3 to 8) (size 9 to 14) (size 15 to 20)
#    0.000    2.207    1.379    3.103    0.966    3.034 
#    1.241    4.828    0.000    4.138    0.000    0.000 
#    0.000    0.000    0.000    0.000    0.000    0.000 
#
# Total GULP energy -161543.112595 kJ/mol
# GULP energy per Si atom -5570.452158 kJ/mol
# Density = 2.122845 g / cm^3
# Si number density = 21.276882 Si / 1000 Ang^3
#
#
#
# Elastic Constant Matrix: (Units=GPa)
#
#
# Indices 1 2 3 4 5 6 
#
# 1 71.3059 24.4385 24.2631 0.0000 0.0000 0.0000
# 2 24.4385 152.9359 61.3786 0.0000 0.0000 0.0000
# 3 24.2631 61.3786 102.1956 0.0000 0.0000 0.0000
# 4 0.0000 0.0000 0.0000 -6.1929 0.0000 0.0000
# 5 0.0000 0.0000 0.0000 0.0000 -137.9778 0.0000
# 6 0.0000 0.0000 0.0000 0.0000 0.0000-3791.5624
#
#
#
# Elastic Compliance Matrix: (Units=1/GPa)
#
#
# Indices 1 2 3 4 5 6 
#
# 1 0.015454 -0.001314 -0.002880 0.000000 0.000000 0.000000
# 2 -0.001314 0.008727 -0.004930 0.000000 0.000000 0.000000
# 3 -0.002880 -0.004930 0.013430 0.000000 0.000000 0.000000
# 4 0.000000 0.000000 0.000000 -0.161476 0.000000 0.000000
# 5 0.000000 0.000000 0.000000 0.000000 -0.007248 0.000000
# 6 0.000000 0.000000 0.000000 0.000000 0.000000 -0.000264
#
#
# Mechanical properties :
#
#
# Convention : Reuss Voigt Hill
#
# Bulk Modulus (GPa) = 51.64149 60.73309 56.18729
# Shear Modulus (GPa) = -46.87126 -772.72280 -409.79703
#
# Velocity S-wave (km/s) = -4.69862 -19.07782 -13.89317
# Velocity P-wave (km/s) = 2.26101 21.37003 15.19524
#
# Compressibility (1/GPa) = 0.01936428
#
# Stress axis : x y z
#
# Youngs Moduli (GPa) = 64.70679 114.58690 74.46211
#
# Poissons Ratio (x) = 0.15052 0.21446
# Poissons Ratio (y) = 0.08500 0.36706
# Poissons Ratio (z) = 0.18637 0.56486
#
# Static dielectric constant tensor:
#      x y z
#    x 1.880710 0.000000 0.000000 
#    y 0.000000 1.753790 0.000000 
#    z 0.000000 0.000000 1.778670 
# 
# From -- ./inp_files/2353.got.cif
#   From: 2010.05.17/outbox.cif.g08.bks.cpg/sg25_2_cif.got.tgz:2353.got - 2010.06.04 01:04:00.
