data_PCOD9337853
_publ_section_title
;
Structure prediction by ZEFSAII (Michael W. Deem and Ramdas Pophale) SiO2 
 PCOD9337853
Probable space group: P M M 2
;
_chemical_formula_sum "Si O2"
_cell_formula_units_Z 20
_cell_length_a 9.287998
_cell_length_b 7.502779
_cell_length_c 15.532194
_cell_angle_alpha 90.000000
_cell_angle_beta 90.000000
_cell_angle_gamma 90.000000
_cell_volume 1082.373308
_symmetry_space_group_name_H-M "P M M 2"
_symmetry_group_IT_number 25
_symmetry_cell_setting 'orthorhombic'
loop_
_space_group_symop_operation_xyz
x,y,z
-x,-y,z
-x,y,z
x,-y,z
loop_
_atom_site_type_symbol
_atom_site_label
_atom_site_fract_x
_atom_site_fract_y
_atom_site_fract_z
Si Si1 0.675009 0.500000 0.542140
Si Si2 0.675935 0.500000 0.738517
Si Si3 0.333978 0.782314 0.062756
Si Si4 0.834998 0.217518 0.231609
Si Si5 0.324417 0.795878 0.872521
Si Si6 0.672340 0.209179 0.404799
O O1 0.500000 0.500000 0.545928
O O2 0.726832 0.500000 0.640251
O O3 0.716870 0.328048 0.485992
O O4 0.500000 0.500000 0.736599
O O5 0.720685 0.329168 0.794498
O O6 0.500000 0.726682 0.073654
O O7 0.240923 0.722997 0.143701
O O8 0.333958 0.000000 0.061546
O O9 0.280977 0.729257 0.967680
O O10 0.749363 0.269773 0.317293
O O11 0.000000 0.274317 0.235510
O O12 0.832203 0.000000 0.230184
O O13 0.500000 0.795856 0.874819
O O14 0.277923 0.000000 0.861118
O O15 0.500000 0.227312 0.393455
O O16 0.703412 0.000000 0.418672
#
# Coordination Sequence:
#
# PCOD9337853 Si02
#       6
#     2   2   4   4   4   4
#     4   9  18  30  44  65  90 116 151 191 228 269
#     4   9  16  26  41  63  90 114 141 185 230 261
#     4   8  13  23  40  62  90 123 153 180 216 264
#     4   9  16  26  43  68  94 120 152 187 222 263
#     4   8  14  24  39  61  89 119 147 175 214 264
#     4   9  17  30  47  66  91 122 151 182 224 270
#
# _framework density 18.477912
#
# number of rings (size 3 to 8) (size 9 to 14) (size 15 to 20)
#    0.000    3.400    0.000    1.800    0.000    3.200 
#    0.000    5.500    0.000    3.600    0.000    2.800 
#    0.000    6.400    0.000    0.000    0.000    0.000 
#
# Total GULP energy -111469.214854 kJ/mol
# GULP energy per Si atom -5573.460743 kJ/mol
# Density = 1.843586 g / cm^3
# Si number density = 18.477912 Si / 1000 Ang^3
#
#
#
# Elastic Constant Matrix: (Units=GPa)
#
#
# Indices 1 2 3 4 5 6 
#
# 1 29.8352 24.0031 52.0279 0.0000 0.0000 0.0000
# 2 24.0031 82.5254 78.7340 0.0000 0.0000 0.0000
# 3 52.0279 78.7340 230.3980 0.0000 0.0000 0.0000
# 4 0.0000 0.0000 0.0000 37.0072 0.0000 0.0000
# 5 0.0000 0.0000 0.0000 0.0000 -3.4236 0.0000
# 6 0.0000 0.0000 0.0000 0.0000 0.0000 2.0267
#
#
#
# Elastic Compliance Matrix: (Units=1/GPa)
#
#
# Indices 1 2 3 4 5 6 
#
# 1 0.057504 -0.006434 -0.010787 0.000000 0.000000 0.000000
# 2 -0.006434 0.018699 -0.004937 0.000000 0.000000 0.000000
# 3 -0.010787 -0.004937 0.008463 0.000000 0.000000 0.000000
# 4 0.000000 0.000000 0.000000 0.027022 0.000000 0.000000
# 5 0.000000 0.000000 0.000000 0.000000 -0.292090 0.000000
# 6 0.000000 0.000000 0.000000 0.000000 0.000000 0.493401
#
#
# Mechanical properties :
#
#
# Convention : Reuss Voigt Hill
#
# Bulk Modulus (GPa) = 24.78288 72.47650 48.62969
# Shear Modulus (GPa) = 13.48560 19.65498 16.57029
#
# Velocity S-wave (km/s) = 2.70445 3.26498 2.99785
# Velocity P-wave (km/s) = 4.81595 7.31587 6.19336
#
# Compressibility (1/GPa) = 0.04035043
#
# Stress axis : x y z
#
# Youngs Moduli (GPa) = 17.39005 53.47808 118.15754
#
# Poissons Ratio (x) = 0.34410 1.27452
# Poissons Ratio (y) = 0.11189 0.58336
# Poissons Ratio (z) = 0.18758 0.26403
#
# Static dielectric constant tensor:
#      x y z
#    x 1.598640 0.000000 0.000000 
#    y 0.000000 1.684180 0.000000 
#    z 0.000000 0.000000 1.622630 
# 
# From -- ./inp_files/5129.got.cif
#   From: 2010.05.17/outbox.cif.g08.bks.cpg/sg25_3_cif.got.tgz:5129.got - 2010.06.04 01:04:00.
