data_PCOD9337231
_publ_section_title
;
Structure prediction by ZEFSAII (Michael W. Deem and Ramdas Pophale) SiO2 
 PCOD9337231
Probable space group: P M M 2
;
_chemical_formula_sum "Si O2"
_cell_formula_units_Z 32
_cell_length_a 15.021836
_cell_length_b 8.936065
_cell_length_c 12.608753
_cell_angle_alpha 90.000000
_cell_angle_beta 90.000000
_cell_angle_gamma 90.000000
_cell_volume 1692.549865
_symmetry_space_group_name_H-M "P M M 2"
_symmetry_group_IT_number 25
_symmetry_cell_setting 'orthorhombic'
loop_
_space_group_symop_operation_xyz
x,y,z
-x,-y,z
-x,y,z
x,-y,z
loop_
_atom_site_type_symbol
_atom_site_label
_atom_site_fract_x
_atom_site_fract_y
_atom_site_fract_z
Si Si1 0.599636 0.179972 0.875000
Si Si2 0.363988 0.327854 0.102455
Si Si3 0.793091 0.821089 0.390701
Si Si4 0.160201 0.329892 0.175121
Si Si5 0.902327 0.173772 0.975098
Si Si6 0.781935 0.180527 0.778426
Si Si7 0.596743 0.180107 0.325336
Si Si8 0.104537 0.320260 0.588491
O O1 0.500000 0.217292 0.837852
O O2 0.678801 0.223930 0.795026
O O3 0.605783 0.000000 0.887342
O O4 0.613738 0.251037 0.991141
O O5 0.393953 0.500000 0.101528
O O6 0.258283 0.327354 0.122757
O O7 0.400449 0.242860 0.205674
O O8 0.835331 0.772905 0.278467
O O9 0.688314 0.772526 0.383635
O O10 0.848266 0.743425 0.483436
O O11 0.795602 0.000000 0.403715
O O12 0.138395 0.500000 0.205301
O O13 0.099916 0.267692 0.081787
O O14 0.829575 0.219075 0.889518
O O15 0.000000 0.184416 0.924634
O O16 0.885820 0.000000 0.002933
O O17 0.837009 0.258106 0.685818
O O18 0.787169 0.000000 0.764273
O O19 0.500000 0.222918 0.372357
O O20 0.600266 0.000000 0.320296
O O21 0.107243 0.500000 0.587804
O O22 0.000000 0.274862 0.595183
#
# Coordination Sequence:
#
# PCOD9337231 Si02
#       8
#     4   4   4   4   4   4   4   4
#     4  10  20  34  55  83 115 153 194 234 278 330
#     4  10  19  30  48  78 116 157 196 232 273 328
#     4  10  21  38  62  87 113 148 192 238 285 337
#     4  10  20  34  53  80 118 157 189 229 284 340
#     4  10  20  34  55  83 112 146 189 234 284 344
#     4  10  21  39  62  85 114 149 191 240 285 335
#     4   9  18  33  54  82 116 153 192 232 276 330
#     4  11  25  44  65  87 111 143 187 240 296 351
#
# _framework density 18.906385
#
# number of rings (size 3 to 8) (size 9 to 14) (size 15 to 20)
#    0.000    2.000    1.250    2.250    0.000    6.750 
#    0.000    0.625    0.000    3.750    0.000    0.000 
#    0.000    0.000    0.000    0.000    0.000    0.000 
#
# Total GULP energy -178540.449861 kJ/mol
# GULP energy per Si atom -5579.389058 kJ/mol
# Density = 1.886335 g / cm^3
# Si number density = 18.906385 Si / 1000 Ang^3
#
#
#
# Elastic Constant Matrix: (Units=GPa)
#
#
# Indices 1 2 3 4 5 6 
#
# 1 148.3008 44.1471 74.9192 0.0000 0.0000 0.0000
# 2 44.1471 34.8619 34.0068 0.0000 0.0000 0.0000
# 3 74.9192 34.0068 90.0234 0.0000 0.0000 0.0000
# 4 0.0000 0.0000 0.0000 250.5399 0.0000 0.0000
# 5 0.0000 0.0000 0.0000 0.0000 16.0705 0.0000
# 6 0.0000 0.0000 0.0000 0.0000 0.0000 3.1098
#
#
#
# Elastic Compliance Matrix: (Units=1/GPa)
#
#
# Indices 1 2 3 4 5 6 
#
# 1 0.013414 -0.009655 -0.007516 0.000000 0.000000 0.000000
# 2 -0.009655 0.052372 -0.011748 0.000000 0.000000 0.000000
# 3 -0.007516 -0.011748 0.021802 0.000000 0.000000 0.000000
# 4 0.000000 0.000000 0.000000 0.003991 0.000000 0.000000
# 5 0.000000 0.000000 0.000000 0.000000 0.062226 0.000000
# 6 0.000000 0.000000 0.000000 0.000000 0.000000 0.321562
#
#
# Mechanical properties :
#
#
# Convention : Reuss Voigt Hill
#
# Bulk Modulus (GPa) = 33.61623 64.37026 48.99324
# Shear Modulus (GPa) = 9.20601 61.95157 35.57879
#
# Velocity S-wave (km/s) = 2.20903 5.73050 4.34272
# Velocity P-wave (km/s) = 4.93208 8.82642 7.14951
#
# Compressibility (1/GPa) = 0.02974754
#
# Stress axis : x y z
#
# Youngs Moduli (GPa) = 74.54639 19.09428 45.86815
#
# Poissons Ratio (x) = 0.18436 0.34477
# Poissons Ratio (y) = 0.71976 0.53888
# Poissons Ratio (z) = 0.56033 0.22433
#
# Static dielectric constant tensor:
#      x y z
#    x 1.721710 0.000000 0.000000 
#    y 0.000000 1.639200 0.000000 
#    z 0.000000 0.000000 1.611300 
# 
# From -- ./inp_files/4181.got.cif
#   From: 2010.05.17/outbox.cif.g08.bks.cpg/sg25_3_cif.got.tgz:4181.got - 2010.06.04 01:04:00.
