data_PCOD9337061
_publ_section_title
;
Structure prediction by ZEFSAII (Michael W. Deem and Ramdas Pophale) SiO2 
 PCOD9337061
Probable space group: I 21 21 21
;
_chemical_formula_sum "Si O2"
_cell_formula_units_Z 24
_cell_length_a 9.000000
_cell_length_b 30.000000
_cell_length_c 9.000000
_cell_angle_alpha 90.000000
_cell_angle_beta 90.000000
_cell_angle_gamma 90.000000
_cell_volume 2430.000000
_symmetry_space_group_name_H-M "I 21 21 21"
_symmetry_group_IT_number 24
_symmetry_cell_setting 'orthorhombic'
loop_
_space_group_symop_operation_xyz
x,y,z
-x,1/2-y,z
x,-y,1/2-z
1/2-x,y,-z
1/2+x,1/2+y,1/2+z
1/2-x,-y,1/2+z
1/2+x,1/2-y,-z
-x,1/2+y,1/2-z
loop_
_atom_site_type_symbol
_atom_site_label
_atom_site_fract_x
_atom_site_fract_y
_atom_site_fract_z
Si Si1 0.023611 0.384513 0.709655
Si Si2 0.159668 0.230141 0.142967
Si Si3 0.791394 0.642585 0.171901
Si Si4 0.415320 0.402481 0.630839
Si Si5 0.293470 0.542237 0.332408
Si Si6 0.230416 0.689323 0.834207
O O1 0.075089 0.405520 0.549336
O O2 0.102306 0.414289 0.832250
O O3 0.072915 0.333068 0.696930
O O4 0.851893 0.380815 0.738341
O O5 0.155744 0.188122 0.252564
O O6 0.237427 0.272029 0.221184
O O7 0.000000 0.250000 0.102537
O O8 0.250000 0.215773 0.000000
O O9 0.919020 0.606290 0.179089
O O10 0.750000 0.652085 0.000000
O O11 0.340325 0.441723 0.723554
O O12 0.332872 0.355345 0.668309
O O13 0.364484 0.500000 0.250000
O O14 0.250000 0.531303 0.500000
O O15 0.250000 0.707543 0.000000
#
# Coordination Sequence:
#
# PCOD9337061 Si02
#       6
#     8   8   8   8   8   8
#     4   9  20  36  62  87 112 145 189 240 288 349
#     4  12  26  38  51  79 120 157 199 250 289 336
#     4  10  21  40  62  83 111 154 197 241 291 342
#     4   9  18  38  60  86 113 144 191 238 288 339
#     4  11  22  38  63  90 118 150 186 229 281 345
#     4   9  18  36  59  78 106 150 198 239 282 338
#
# _framework density 9.8765429999999999
#
# number of rings (size 3 to 8) (size 9 to 14) (size 15 to 20)
#    0.000    2.000    1.667    3.000    2.333    4.000 
#    0.000    0.833    0.000    0.000    0.000    0.000 
#    0.000    0.000    0.000    0.000    0.000    0.000 
#
# Total GULP energy -133712.740556 kJ/mol
# GULP energy per Si atom -5571.364190 kJ/mol
# Density = 0.985406 g / cm^3
# Si number density = 9.876543 Si / 1000 Ang^3
#
#
#
# Elastic Constant Matrix: (Units=GPa)
#
#
# Indices 1 2 3 4 5 6 
#
# 1 84.1216 -2.2004 5.0528 0.0009 -0.0002 -0.0007
# 2 -2.2004 33.4761 9.4349 -0.0004 0.0002 -0.0003
# 3 5.0528 9.4349 24.9160 -0.0004 0.0018 0.0004
# 4 0.0009 -0.0004 -0.0004 34.6157 0.0008 0.0012
# 5 -0.0002 0.0002 0.0018 0.0008 13.4235 -0.0007
# 6 -0.0007 -0.0003 0.0004 0.0012 -0.0007 -39.0982
#
#
#
# Elastic Compliance Matrix: (Units=1/GPa)
#
#
# Indices 1 2 3 4 5 6 
#
# 1 0.012117 0.001667 -0.003088 0.000000 0.000001 0.000000
# 2 0.001667 0.033670 -0.013088 0.000000 0.000001 0.000000
# 3 -0.003088 -0.013088 0.045717 0.000000 -0.000006 0.000001
# 4 0.000000 0.000000 0.000000 0.028889 -0.000002 0.000001
# 5 0.000001 0.000001 -0.000006 -0.000002 0.074496 -0.000001
# 6 0.000000 0.000000 0.000001 0.000001 -0.000001 -0.025577
#
#
# Mechanical properties :
#
#
# Convention : Reuss Voigt Hill
#
# Bulk Modulus (GPa) = 16.00379 18.56539 17.28459
# Shear Modulus (GPa) = 22.81443 10.46995 16.64219
#
# Velocity S-wave (km/s) = 3.40219 2.30476 2.90575
# Velocity P-wave (km/s) = 4.85311 4.06223 4.47517
#
# Compressibility (1/GPa) = 0.06248519
#
# Stress axis : x y z
#
# Youngs Moduli (GPa) = 82.53096 29.69979 21.87367
#
# Poissons Ratio (x) = -0.04951 0.06755
# Poissons Ratio (y) = -0.13757 0.28628
# Poissons Ratio (z) = 0.25489 0.38871
#
# Static dielectric constant tensor:
#      x y z
#    x 1.771900 0.000000 0.000000 
#    y 0.000000 1.635450 0.000000 
#    z 0.000000 0.000000 1.716440 
# 
# From -- ./inp_files/9720.got.cif
#   From: 2010.05.17/outbox.ucp.g08.bks.cvg/sg24_5_cif.got.tgz:9720.got - 2010.06.11 15:20:44.
