data_PCOD9337549
_publ_section_title
;
Structure prediction by ZEFSAII (Michael W. Deem and Ramdas Pophale) SiO2 
 PCOD9337549
Probable space group: P M M 2
;
_chemical_formula_sum "Si O2"
_cell_formula_units_Z 28
_cell_length_a 7.511292
_cell_length_b 9.380631
_cell_length_c 19.122624
_cell_angle_alpha 90.000000
_cell_angle_beta 90.000000
_cell_angle_gamma 90.000000
_cell_volume 1347.392681
_symmetry_space_group_name_H-M "P M M 2"
_symmetry_group_IT_number 25
_symmetry_cell_setting 'orthorhombic'
loop_
_space_group_symop_operation_xyz
x,y,z
-x,-y,z
-x,y,z
x,-y,z
loop_
_atom_site_type_symbol
_atom_site_label
_atom_site_fract_x
_atom_site_fract_y
_atom_site_fract_z
Si Si1 0.288927 0.172994 0.613420
Si Si2 0.285172 0.829475 0.463079
Si Si3 0.281794 0.663679 0.173656
Si Si4 0.714585 0.163512 0.765410
Si Si5 0.717486 0.834052 0.310689
Si Si6 0.709844 0.840197 0.040508
Si Si7 0.210295 0.660443 0.904048
O O1 0.500000 0.205999 0.612822
O O2 0.216301 0.224209 0.538327
O O3 0.218428 0.217162 0.689467
O O4 0.273953 0.000000 0.613556
O O5 0.500000 0.811416 0.464518
O O6 0.223071 0.777874 0.387094
O O7 0.252999 0.000000 0.461912
O O8 0.500000 0.663721 0.173461
O O9 0.225183 0.500000 0.171269
O O10 0.225290 0.741867 0.244730
O O11 0.218590 0.749225 0.105445
O O12 0.500000 0.156821 0.760478
O O13 0.757290 0.263277 0.830215
O O14 0.776543 0.000000 0.777079
O O15 0.500000 0.833303 0.311568
O O16 0.770070 0.000000 0.302783
O O17 0.500000 0.854034 0.054562
O O18 0.784707 0.000000 0.035833
O O19 0.724795 0.756885 0.967857
O O20 0.285290 0.500000 0.905783
O O21 0.000000 0.650390 0.913260
#
# Coordination Sequence:
#
# PCOD9337549 Si02
#       7
#     4   4   4   4   4   4   4
#     4   7  10  18  34  58  86 113 144 183 223 263
#     4   7   9  14  27  49  78 112 146 179 217 259
#     4   9  16  25  38  58  86 119 151 183 222 267
#     4   9  17  30  50  74  96 120 154 194 233 274
#     4   8  12  18  30  50  78 113 151 185 216 256
#     4  10  20  34  53  74  93 116 151 193 233 274
#     4  11  24  38  50  67  93 123 153 186 228 279
#
# _framework density 20.780875000000002
#
# number of rings (size 3 to 8) (size 9 to 14) (size 15 to 20)
#    0.000    3.286    0.000    4.286    0.000    5.714 
#    0.000    0.000    0.000    0.857    0.000    4.000 
#    0.000    1.143    0.000   10.571    0.000   12.143 
#
# Total GULP energy -156025.598804 kJ/mol
# GULP energy per Si atom -5572.342814 kJ/mol
# Density = 2.073358 g / cm^3
# Si number density = 20.780875 Si / 1000 Ang^3
#
#
#
# Elastic Constant Matrix: (Units=GPa)
#
#
# Indices 1 2 3 4 5 6 
#
# 1 51.5582 4.2031 -2.6511 0.0000 0.0000 0.0000
# 2 4.2031 121.3658 105.8009 0.0000 0.0000 0.0000
# 3 -2.6511 105.8009 240.2590 0.0000 0.0000 0.0000
# 4 0.0000 0.0000 0.0000 -0.3390 0.0000 0.0000
# 5 0.0000 0.0000 0.0000 0.0000 -45.8648 0.0000
# 6 0.0000 0.0000 0.0000 0.0000 0.0000 18.6694
#
#
#
# Elastic Compliance Matrix: (Units=1/GPa)
#
#
# Indices 1 2 3 4 5 6 
#
# 1 0.019553 -0.001404 0.000834 0.000000 0.000000 0.000000
# 2 -0.001404 0.013474 -0.005949 0.000000 0.000000 0.000000
# 3 0.000834 -0.005949 0.006791 0.000000 0.000000 0.000000
# 4 0.000000 0.000000 0.000000 -2.949511 0.000000 0.000000
# 5 0.000000 0.000000 0.000000 0.000000 -0.021803 0.000000
# 6 0.000000 0.000000 0.000000 0.000000 0.000000 0.053564
#
#
# Mechanical properties :
#
#
# Convention : Reuss Voigt Hill
#
# Bulk Modulus (GPa) = 37.34147 69.76544 53.55346
# Shear Modulus (GPa) = -1.75072 14.88179 6.56553
#
# Velocity S-wave (km/s) = -0.91886 2.67896 1.77940
# Velocity P-wave (km/s) = 4.10882 6.57373 5.48162
#
# Compressibility (1/GPa) = 0.02677988
#
# Stress axis : x y z
#
# Youngs Moduli (GPa) = 51.14320 74.21537 147.25111
#
# Poissons Ratio (x) = 0.10422 -0.12283
# Poissons Ratio (y) = 0.07182 0.87601
# Poissons Ratio (z) = -0.04266 0.44151
#
# Static dielectric constant tensor:
#      x y z
#    x 1.783560 0.000000 0.000000 
#    y 0.000000 1.700260 0.000000 
#    z 0.000000 0.000000 1.778280 
# 
# From -- ./inp_files/6410.got.cif
#   From: 2010.05.17/outbox.cif.g08.bks.cpg/sg25_4_cif.got.tgz:6410.got - 2010.06.04 01:04:00.
