data_PCOD9337801
_publ_section_title
;
Structure prediction by ZEFSAII (Michael W. Deem and Ramdas Pophale) SiO2 
 PCOD9337801
Probable space group: P M M 2
;
_chemical_formula_sum "Si O2"
_cell_formula_units_Z 32
_cell_length_a 14.426746
_cell_length_b 9.009120
_cell_length_c 15.986742
_cell_angle_alpha 90.000000
_cell_angle_beta 90.000000
_cell_angle_gamma 90.000000
_cell_volume 2077.833402
_symmetry_space_group_name_H-M "P M M 2"
_symmetry_group_IT_number 25
_symmetry_cell_setting 'orthorhombic'
loop_
_space_group_symop_operation_xyz
x,y,z
-x,-y,z
-x,y,z
x,-y,z
loop_
_atom_site_type_symbol
_atom_site_label
_atom_site_fract_x
_atom_site_fract_y
_atom_site_fract_z
Si Si1 0.393239 0.323547 0.299410
Si Si2 0.889029 0.324600 0.199676
Si Si3 0.107490 0.178204 0.872398
Si Si4 0.109908 0.679192 0.515152
Si Si5 0.789093 0.176930 0.358619
Si Si6 0.606302 0.676675 0.100042
Si Si7 0.887500 0.328286 0.701710
Si Si8 0.788968 0.178117 0.041269
O O1 0.500000 0.288496 0.320639
O O2 0.379106 0.500000 0.312936
O O3 0.316528 0.231115 0.347828
O O4 0.381661 0.297079 0.199711
O O5 0.866438 0.500000 0.201575
O O6 0.844803 0.246937 0.280450
O O7 0.846502 0.252036 0.116623
O O8 0.000000 0.308241 0.200557
O O9 0.142181 0.239874 0.783677
O O10 0.000000 0.226025 0.884004
O O11 0.107924 0.000000 0.868743
O O12 0.167183 0.223835 0.952511
O O13 0.119788 0.500000 0.508970
O O14 0.166597 0.759048 0.443089
O O15 0.140377 0.724320 0.609093
O O16 0.000000 0.711191 0.505643
O O17 0.795237 0.000000 0.356055
O O18 0.500000 0.714543 0.078727
O O19 0.618696 0.500000 0.086848
O O20 0.683831 0.767261 0.051523
O O21 0.860175 0.500000 0.710425
O O22 0.000000 0.323614 0.700419
O O23 0.794505 0.000000 0.048507
#
# Coordination Sequence:
#
# PCOD9337801 Si02
#       8
#     4   4   4   4   4   4   4   4
#     4   9  18  34  54  71  91 123 161 201 243 286
#     4  11  23  36  48  63  91 133 172 201 232 274
#     4   9  18  31  46  67  99 133 159 190 237 288
#     4   9  18  33  51  70  96 130 165 201 239 282
#     4  12  23  32  47  73 100 127 159 198 241 288
#     4   9  18  33  52  71  92 122 161 203 244 286
#     4   8  15  29  49  71  92 119 161 206 239 271
#     4  11  21  32  48  72  99 128 161 198 240 288
#
# _framework density 15.400658
#
# number of rings (size 3 to 8) (size 9 to 14) (size 15 to 20)
#    0.000    2.250    1.250    4.125    0.000    5.250 
#    0.000    3.750    0.000    0.000    0.000    0.875 
#    0.000    5.000    0.000    0.000    0.000    0.000 
#
# Total GULP energy -178494.178146 kJ/mol
# GULP energy per Si atom -5577.943067 kJ/mol
# Density = 1.536561 g / cm^3
# Si number density = 15.400658 Si / 1000 Ang^3
#
#
#
# Elastic Constant Matrix: (Units=GPa)
#
#
# Indices 1 2 3 4 5 6 
#
# 1 89.5675 54.3138 68.4620 0.0000 0.0000 0.0000
# 2 54.3138 62.6854 63.6200 0.0000 0.0000 0.0000
# 3 68.4620 63.6200 147.2022 0.0000 0.0000 0.0000
# 4 0.0000 0.0000 0.0000 63.0263 0.0000 0.0000
# 5 0.0000 0.0000 0.0000 0.0000 6.1964 0.0000
# 6 0.0000 0.0000 0.0000 0.0000 0.0000 17.6970
#
#
#
# Elastic Compliance Matrix: (Units=1/GPa)
#
#
# Indices 1 2 3 4 5 6 
#
# 1 0.024780 -0.017411 -0.004000 0.000000 0.000000 0.000000
# 2 -0.017411 0.040652 -0.009472 0.000000 0.000000 0.000000
# 3 -0.004000 -0.009472 0.012747 0.000000 0.000000 0.000000
# 4 0.000000 0.000000 0.000000 0.015866 0.000000 0.000000
# 5 0.000000 0.000000 0.000000 0.000000 0.161383 0.000000
# 6 0.000000 0.000000 0.000000 0.000000 0.000000 0.056507
#
#
# Mechanical properties :
#
#
# Convention : Reuss Voigt Hill
#
# Bulk Modulus (GPa) = 60.92578 74.69406 67.80992
# Shear Modulus (GPa) = 13.18660 24.92125 19.05392
#
# Velocity S-wave (km/s) = 2.92933 4.02704 3.52122
# Velocity P-wave (km/s) = 7.14756 8.38025 7.78833
#
# Compressibility (1/GPa) = 0.01641341
#
# Stress axis : x y z
#
# Youngs Moduli (GPa) = 40.35434 24.59931 78.44819
#
# Poissons Ratio (x) = 0.42831 0.31379
# Poissons Ratio (y) = 0.70263 0.74303
# Poissons Ratio (z) = 0.16142 0.23299
#
# Static dielectric constant tensor:
#      x y z
#    x 1.506300 0.000000 0.000000 
#    y 0.000000 1.511650 0.000000 
#    z 0.000000 0.000000 1.500550 
# 
# From -- ./inp_files/5733.got.cif
#   From: 2010.05.17/outbox.cif.g08.bks.cpg/sg25_3_cif.got.tgz:5733.got - 2010.06.04 01:04:00.
