data_PCOD9337285
_publ_section_title
;
Structure prediction by ZEFSAII (Michael W. Deem and Ramdas Pophale) SiO2 
 PCOD9337285
Probable space group: P M M 2
;
_chemical_formula_sum "Si O2"
_cell_formula_units_Z 32
_cell_length_a 8.329210
_cell_length_b 15.241696
_cell_length_c 12.641288
_cell_angle_alpha 90.000000
_cell_angle_beta 90.000000
_cell_angle_gamma 90.000000
_cell_volume 1604.827778
_symmetry_space_group_name_H-M "P M M 2"
_symmetry_group_IT_number 25
_symmetry_cell_setting 'orthorhombic'
loop_
_space_group_symop_operation_xyz
x,y,z
-x,-y,z
-x,y,z
x,-y,z
loop_
_atom_site_type_symbol
_atom_site_label
_atom_site_fract_x
_atom_site_fract_y
_atom_site_fract_z
Si Si1 0.311496 0.278475 0.775770
Si Si2 0.806670 0.403759 0.950872
Si Si3 0.304344 0.903734 0.859812
Si Si4 0.311181 0.712160 0.390809
Si Si5 0.693882 0.094979 0.330321
Si Si6 0.186023 0.336855 0.168266
Si Si7 0.809679 0.400102 0.586812
Si Si8 0.307327 0.846198 0.095707
O O1 0.500000 0.271448 0.754917
O O2 0.281329 0.329392 0.885273
O O3 0.246401 0.179792 0.792597
O O4 0.239819 0.339155 0.684868
O O5 0.770979 0.500000 0.905954
O O6 0.000000 0.390170 0.944368
O O7 0.762833 0.400924 0.074462
O O8 0.500000 0.902934 0.854564
O O9 0.248943 0.000000 0.825294
O O10 0.265758 0.889809 0.984146
O O11 0.500000 0.718420 0.411497
O O12 0.246880 0.813002 0.380491
O O13 0.282903 0.668025 0.276504
O O14 0.236964 0.652209 0.481114
O O15 0.500000 0.095680 0.343762
O O16 0.721662 0.100538 0.203732
O O17 0.753806 0.000000 0.369544
O O18 0.209046 0.242403 0.113013
O O19 0.000000 0.352732 0.194339
O O20 0.742190 0.500000 0.590716
O O21 0.000000 0.407828 0.589888
O O22 0.500000 0.826857 0.093617
#
# Coordination Sequence:
#
# PCOD9337285 Si02
#       8
#     4   4   4   4   4   4   4   4
#     4  11  22  37  60  88 115 143 186 242 289 330
#     4  10  21  36  54  78 112 155 193 225 277 348
#     4   9  17  30  52  83 117 152 190 232 281 336
#     4  10  21  37  60  88 115 144 188 242 287 328
#     4   8  14  26  49  82 116 150 186 223 269 326
#     4  10  19  32  52  79 117 158 191 227 279 340
#     4  11  25  45  66  83 105 145 191 234 291 358
#     4   9  15  27  49  77 111 152 197 237 271 315
#
# _framework density 19.939831999999999
#
# number of rings (size 3 to 8) (size 9 to 14) (size 15 to 20)
#    0.000    2.250    1.250    3.000    0.000    5.250 
#    0.000    1.875    0.000   19.500    0.000    0.000 
#    0.000    0.000    0.000    0.000    0.000    0.000 
#
# Total GULP energy -178437.243428 kJ/mol
# GULP energy per Si atom -5576.163857 kJ/mol
# Density = 1.989445 g / cm^3
# Si number density = 19.939832 Si / 1000 Ang^3
#
#
#
# Elastic Constant Matrix: (Units=GPa)
#
#
# Indices 1 2 3 4 5 6 
#
# 1 16.9607 21.4811 14.6919 0.0000 0.0000 0.0000
# 2 21.4811 164.2416 69.6825 0.0000 0.0000 0.0000
# 3 14.6919 69.6825 87.5393 0.0000 0.0000 0.0000
# 4 0.0000 0.0000 0.0000 13.3161 0.0000 0.0000
# 5 0.0000 0.0000 0.0000 0.0000 27.5785 0.0000
# 6 0.0000 0.0000 0.0000 0.0000 0.0000 31.5087
#
#
#
# Elastic Compliance Matrix: (Units=1/GPa)
#
#
# Indices 1 2 3 4 5 6 
#
# 1 0.073451 -0.006608 -0.007067 0.000000 0.000000 0.000000
# 2 -0.006608 0.009788 -0.006682 0.000000 0.000000 0.000000
# 3 -0.007067 -0.006682 0.017929 0.000000 0.000000 0.000000
# 4 0.000000 0.000000 0.000000 0.075097 0.000000 0.000000
# 5 0.000000 0.000000 0.000000 0.000000 0.036260 0.000000
# 6 0.000000 0.000000 0.000000 0.000000 0.000000 0.031737
#
#
# Mechanical properties :
#
#
# Convention : Reuss Voigt Hill
#
# Bulk Modulus (GPa) = 16.54190 53.38362 34.96276
# Shear Modulus (GPa) = 16.38653 25.33974 20.86313
#
# Velocity S-wave (km/s) = 2.86981 3.56871 3.23817
# Velocity P-wave (km/s) = 4.39261 6.61902 5.61722
#
# Compressibility (1/GPa) = 0.06045255
#
# Stress axis : x y z
#
# Youngs Moduli (GPa) = 13.61446 102.16622 55.77647
#
# Poissons Ratio (x) = 0.67515 0.39418
# Poissons Ratio (y) = 0.08997 0.37271
# Poissons Ratio (z) = 0.09622 0.68270
#
# Static dielectric constant tensor:
#      x y z
#    x 1.687680 0.000000 0.000000 
#    y 0.000000 1.760980 0.000000 
#    z 0.000000 0.000000 1.695640 
# 
# From -- ./inp_files/4280.got.cif
#   From: 2010.05.17/outbox.cif.g08.bks.cpg/sg25_3_cif.got.tgz:4280.got - 2010.06.04 01:04:00.
