data_PCOD9337082
_publ_section_title
;
Structure prediction by ZEFSAII (Michael W. Deem and Ramdas Pophale) SiO2 
 PCOD9337082
Probable space group: I 21 21 21
;
_chemical_formula_sum "Si O2"
_cell_formula_units_Z 24
_cell_length_a 18.000000
_cell_length_b 9.000000
_cell_length_c 15.000000
_cell_angle_alpha 90.000000
_cell_angle_beta 90.000000
_cell_angle_gamma 90.000000
_cell_volume 2430.000000
_symmetry_space_group_name_H-M "I 21 21 21"
_symmetry_group_IT_number 24
_symmetry_cell_setting 'orthorhombic'
loop_
_space_group_symop_operation_xyz
x,y,z
-x,1/2-y,z
x,-y,1/2-z
1/2-x,y,-z
1/2+x,1/2+y,1/2+z
1/2-x,-y,1/2+z
1/2+x,1/2-y,-z
-x,1/2+y,1/2-z
loop_
_atom_site_type_symbol
_atom_site_label
_atom_site_fract_x
_atom_site_fract_y
_atom_site_fract_z
Si Si1 0.164786 0.693813 0.032682
Si Si2 0.421993 0.166519 0.896725
Si Si3 0.046414 0.899668 0.991408
Si Si4 0.417087 0.678613 0.779770
Si Si5 0.663349 0.868355 0.473874
Si Si6 0.540383 0.907777 0.341056
O O1 0.137845 0.704601 0.136070
O O2 0.250000 0.694822 0.000000
O O3 0.126401 0.824563 0.975380
O O4 0.136881 0.527190 0.011959
O O5 0.500000 0.250000 0.902188
O O6 0.388274 0.222345 0.803905
O O7 0.372797 0.229862 0.976286
O O8 0.442179 0.998661 0.920226
O O9 0.000000 0.750000 0.005924
O O10 0.007874 0.999002 0.914863
O O11 0.500000 0.750000 0.794507
O O12 0.420722 0.500000 0.750000
O O13 0.750000 0.861549 0.500000
O O14 0.624322 0.875649 0.377092
O O15 0.500000 0.750000 0.329000
O O16 0.542272 0.000000 0.250000
#
# Coordination Sequence:
#
# PCOD9337082 Si02
#       6
#     8   8   8   8   8   8
#     4  11  25  43  66  98 142 192 232 284 359 430
#     4  11  21  41  68 100 136 181 232 293 351 417
#     4  12  22  41  74  98 142 185 236 291 357 414
#     4  11  25  40  70 108 138 175 237 296 353 424
#     4  11  22  44  69  99 138 188 235 285 363 419
#     4  12  25  46  74 106 134 183 247 300 348 429
#
# _framework density 9.8765429999999999
#
# number of rings (size 3 to 8) (size 9 to 14) (size 15 to 20)
#    0.000    0.667    6.667    1.000    7.000    0.667 
#    6.000    0.000    0.000    0.000    0.000    0.000 
#    0.000    0.000    0.000    0.000    0.000    0.000 
#
# Total GULP energy -133674.713381 kJ/mol
# GULP energy per Si atom -5569.779724 kJ/mol
# Density = 0.985406 g / cm^3
# Si number density = 9.876543 Si / 1000 Ang^3
#
#
#
# Elastic Constant Matrix: (Units=GPa)
#
#
# Indices 1 2 3 4 5 6 
#
# 1 90.5420 48.6314 52.2423 0.0000 0.0000 0.0000
# 2 48.6314 132.9454 57.8558 0.0000 0.0000 0.0000
# 3 52.2423 57.8558 131.7312 0.0000 0.0000 0.0000
# 4 0.0000 0.0000 0.0000 32.4123 0.0000 0.0000
# 5 0.0000 0.0000 0.0000 0.0000 23.9330 0.0000
# 6 0.0000 0.0000 0.0000 0.0000 0.0000 31.0747
#
#
#
# Elastic Compliance Matrix: (Units=1/GPa)
#
#
# Indices 1 2 3 4 5 6 
#
# 1 0.015702 -0.003751 -0.004580 0.000000 0.000000 0.000000
# 2 -0.003751 0.010195 -0.002990 0.000000 0.000000 0.000000
# 3 -0.004580 -0.002990 0.010721 0.000000 0.000000 0.000000
# 4 0.000000 0.000000 0.000000 0.030852 0.000000 0.000000
# 5 0.000000 0.000000 0.000000 0.000000 0.041783 0.000000
# 6 0.000000 0.000000 0.000000 0.000000 0.000000 0.032181
#
#
# Mechanical properties :
#
#
# Convention : Reuss Voigt Hill
#
# Bulk Modulus (GPa) = 71.54945 74.74195 73.14570
# Shear Modulus (GPa) = 29.63247 30.58326 30.10786
#
# Velocity S-wave (km/s) = 3.87737 3.93908 3.90835
# Velocity P-wave (km/s) = 7.50639 7.65564 7.58138
#
# Compressibility (1/GPa) = 0.01397635
#
# Stress axis : x y z
#
# Youngs Moduli (GPa) = 63.68782 98.08568 93.27695
#
# Poissons Ratio (x) = 0.36788 0.42718
# Poissons Ratio (y) = 0.23887 0.27892
# Poissons Ratio (z) = 0.29167 0.29330
#
# Static dielectric constant tensor:
#      x y z
#    x 1.768910 0.000000 0.000000 
#    y 0.000000 1.748330 0.000000 
#    z 0.000000 0.000000 1.762670 
# 
# From -- ./inp_files/27059.got.cif
#   From: 2010.05.17/outbox.ucp.g08.bks.cvg/sg24_14_cif.got.tgz:27059.got - 2010.06.11 15:20:44.
