data_PCOD9337908
_publ_section_title
;
Structure prediction by ZEFSAII (Michael W. Deem and Ramdas Pophale) SiO2 
 PCOD9337908
Probable space group: P M C 21
;
_chemical_formula_sum "Si O2"
_cell_formula_units_Z 24
_cell_length_a 11.418254
_cell_length_b 10.490138
_cell_length_c 8.145322
_cell_angle_alpha 90.000000
_cell_angle_beta 90.000000
_cell_angle_gamma 90.000000
_cell_volume 975.639014
_symmetry_space_group_name_H-M "P M C 21"
_symmetry_group_IT_number 26
_symmetry_cell_setting 'orthorhombic'
loop_
_space_group_symop_operation_xyz
x,y,z
-x,-y,1/2+z
-x,y,z
x,-y,1/2+z
loop_
_atom_site_type_symbol
_atom_site_label
_atom_site_fract_x
_atom_site_fract_y
_atom_site_fract_z
Si Si1 0.785964 0.858089 0.318440
Si Si2 0.366952 0.793476 0.008322
Si Si3 0.711332 0.510136 0.025504
Si Si4 0.733365 0.756794 0.655357
Si Si5 0.000000 0.792462 0.716430
Si Si6 0.000000 0.996010 0.926953
Si Si7 0.127864 0.580684 0.269004
O O1 0.706888 0.855644 0.156495
O O2 0.721382 0.845028 0.494077
O O3 0.864145 0.729864 0.305765
O O4 0.879685 0.968788 0.334631
O O5 0.500000 0.837470 0.014208
O O6 0.362125 0.638794 0.033878
O O7 0.314766 0.811360 0.825608
O O8 0.672146 0.376421 0.104031
O O9 0.842401 0.552201 0.081914
O O10 0.748846 0.469701 0.842378
O O11 0.873634 0.728811 0.682193
O O12 0.000000 0.912220 0.585213
O O13 0.000000 0.843351 0.905737
O O14 0.000000 0.533217 0.310917
#
# Coordination Sequence:
#
# PCOD9337908 Si02
#       7
#     4   4   4   4   2   2   4
#     4   9  21  38  61  88 125 153 202 262 322 375
#     4  11  24  40  60  87 121 173 223 254 295 360
#     4  10  20  33  49  80 119 157 205 243 288 357
#     4  10  22  41  56  93 130 162 203 259 315 374
#     4  10  24  38  69 101 128 160 199 255 337 397
#     4  10  20  42  65 101 126 154 193 263 333 397
#     4  10  17  29  50  78 111 157 186 237 306 369
#
# _framework density 24.599264000000002
#
# number of rings (size 3 to 8) (size 9 to 14) (size 15 to 20)
#    0.000    2.000    2.500    0.500    7.000    1.333 
#    1.500    0.000    0.000    1.000    0.000    0.000 
#    0.000    0.000    0.000    0.000    0.000    0.000 
#
# Total GULP energy -133837.759605 kJ/mol
# GULP energy per Si atom -5576.573317 kJ/mol
# Density = 2.454328 g / cm^3
# Si number density = 24.599264 Si / 1000 Ang^3
#
#
#
# Elastic Constant Matrix: (Units=GPa)
#
#
# Indices 1 2 3 4 5 6 
#
# 1 93.1576 -3.1160 67.5649 0.0000 0.0000 0.0000
# 2 -3.1160 43.7261 14.6854 0.0000 0.0000 0.0000
# 3 67.5649 14.6854 156.4505 0.0000 0.0000 0.0000
# 4 0.0000 0.0000 0.0000 28.0937 0.0000 0.0000
# 5 0.0000 0.0000 0.0000 0.0000 13.2524 0.0000
# 6 0.0000 0.0000 0.0000 0.0000 0.0000 17.1974
#
#
#
# Elastic Compliance Matrix: (Units=1/GPa)
#
#
# Indices 1 2 3 4 5 6 
#
# 1 0.016164 0.003610 -0.007319 0.000000 0.000000 0.000000
# 2 0.003610 0.024420 -0.003851 0.000000 0.000000 0.000000
# 3 -0.007319 -0.003851 0.009914 0.000000 0.000000 0.000000
# 4 0.000000 0.000000 0.000000 0.035595 0.000000 0.000000
# 5 0.000000 0.000000 0.000000 0.000000 0.075458 0.000000
# 6 0.000000 0.000000 0.000000 0.000000 0.000000 0.058148
#
#
# Mechanical properties :
#
#
# Convention : Reuss Voigt Hill
#
# Bulk Modulus (GPa) = 28.26679 50.17810 39.22245
# Shear Modulus (GPa) = 20.27465 25.98870 23.13167
#
# Velocity S-wave (km/s) = 2.87400 3.25388 3.06982
# Velocity P-wave (km/s) = 4.74647 5.87873 5.34268
#
# Compressibility (1/GPa) = 0.03537720
#
# Stress axis : x y z
#
# Youngs Moduli (GPa) = 61.86658 40.94949 100.86475
#
# Poissons Ratio (x) = -0.14783 0.73827
# Poissons Ratio (y) = -0.22334 0.38846
# Poissons Ratio (z) = 0.45283 0.15771
#
# Static dielectric constant tensor:
#      x y z
#    x 1.887430 0.000000 0.000000 
#    y 0.000000 2.035250 0.000000 
#    z 0.000000 0.000000 2.141460 
# 
# From -- ./inp_files/1826.got.cif
#   From: 2010.05.17/outbox.cif.g08.bks.cpg/sg26_1_cif.got.tgz:1826.got - 2010.06.04 01:07:29.
