data_PCOD9337218
_publ_section_title
;
Structure prediction by ZEFSAII (Michael W. Deem and Ramdas Pophale) SiO2 
 PCOD9337218
Probable space group: P M M 2
;
_chemical_formula_sum "Si O2"
_cell_formula_units_Z 24
_cell_length_a 19.138247
_cell_length_b 12.238071
_cell_length_c 5.239036
_cell_angle_alpha 90.000000
_cell_angle_beta 90.000000
_cell_angle_gamma 90.000000
_cell_volume 1227.061999
_symmetry_space_group_name_H-M "P M M 2"
_symmetry_group_IT_number 25
_symmetry_cell_setting 'orthorhombic'
loop_
_space_group_symop_operation_xyz
x,y,z
-x,-y,z
-x,y,z
x,-y,z
loop_
_atom_site_type_symbol
_atom_site_label
_atom_site_fract_x
_atom_site_fract_y
_atom_site_fract_z
Si Si1 0.418003 0.619733 0.086950
Si Si2 0.922462 0.739158 0.086958
Si Si3 0.117914 0.872273 0.586959
Si Si4 0.733332 0.767300 0.586951
Si Si5 0.775740 0.629803 0.086950
Si Si6 0.417546 0.235378 0.586949
O O1 0.500000 0.602283 0.086953
O O2 0.384108 0.500000 0.086947
O O3 0.407904 0.689495 0.339620
O O4 0.407906 0.689496 0.834281
O O5 0.912322 0.813906 0.336632
O O6 0.858693 0.654299 0.086947
O O7 0.000000 0.690663 0.086946
O O8 0.912320 0.813919 0.837307
O O9 0.201542 0.850199 0.586956
O O10 0.102870 0.000000 0.586943
O O11 0.744312 0.690238 0.337097
O O12 0.657298 0.827477 0.586950
O O13 0.744311 0.690236 0.836801
O O14 0.765603 0.500000 0.086953
O O15 0.500000 0.193714 0.586947
#
# Coordination Sequence:
#
# PCOD9337218 Si02
#       6
#     4   4   4   4   4   4
#     4   9  17  27  39  60  89 120 157 199 246 297
#     4  10  21  36  56  84 109 131 169 210 246 301
#     4  10  21  37  56  78 106 137 166 207 263 309
#     4  10  21  35  51  74 102 135 178 215 249 307
#     4  10  21  36  53  74 105 144 175 203 245 296
#     4  10  19  30  45  65  92 126 163 211 261 293
#
# _framework density 19.558913
#
# number of rings (size 3 to 8) (size 9 to 14) (size 15 to 20)
#    0.000    2.167    0.000    3.000    0.000    8.333 
#    0.000    0.000    0.000    6.500    0.000    0.000 
#    0.000   12.000    0.000    0.000    0.000    2.000 
#
# Total GULP energy -133663.199380 kJ/mol
# GULP energy per Si atom -5569.299974 kJ/mol
# Density = 1.951440 g / cm^3
# Si number density = 19.558913 Si / 1000 Ang^3
#
#
#
# Elastic Constant Matrix: (Units=GPa)
#
#
# Indices 1 2 3 4 5 6 
#
# 1 202.8498 5.2687 4.5480 0.0000 0.0000 0.0000
# 2 5.2687 26.6582 4.3411 0.0000 0.0000 0.0000
# 3 4.5480 4.3411 151.3356 0.0000 0.0000 0.0000
# 4 0.0000 0.0000 0.0000 -22.5637 0.0000 0.0000
# 5 0.0000 0.0000 0.0000 0.0000 29.7080 0.0000
# 6 0.0000 0.0000 0.0000 0.0000 0.0000 0.7133
#
#
#
# Elastic Compliance Matrix: (Units=1/GPa)
#
#
# Indices 1 2 3 4 5 6 
#
# 1 0.004957 -0.000960 -0.000121 0.000000 0.000000 0.000000
# 2 -0.000960 0.037874 -0.001058 0.000000 0.000000 0.000000
# 3 -0.000121 -0.001058 0.006642 0.000000 0.000000 0.000000
# 4 0.000000 0.000000 0.000000 -0.044319 0.000000 0.000000
# 5 0.000000 0.000000 0.000000 0.000000 0.033661 0.000000
# 6 0.000000 0.000000 0.000000 0.000000 0.000000 1.401933
#
#
# Mechanical properties :
#
#
# Convention : Reuss Voigt Hill
#
# Bulk Modulus (GPa) = 22.12633 45.46211 33.79422
# Shear Modulus (GPa) = 3.42444 26.01724 14.72084
#
# Velocity S-wave (km/s) = 1.32463 3.65115 2.74641
# Velocity P-wave (km/s) = 3.69821 6.40848 5.23189
#
# Compressibility (1/GPa) = 0.04519503
#
# Stress axis : x y z
#
# Youngs Moduli (GPa) = 201.71807 26.40348 150.56124
#
# Poissons Ratio (x) = 0.02535 0.01828
# Poissons Ratio (y) = 0.19365 0.15923
# Poissons Ratio (z) = 0.02450 0.02792
#
# Static dielectric constant tensor:
#      x y z
#    x 1.767740 0.000000 0.000000 
#    y 0.000000 1.694410 0.000000 
#    z 0.000000 0.000000 1.749610 
# 
# From -- ./inp_files/623.got.cif
#   From: 2010.05.17/outbox.cif.g08.bks.cpg/sg25_1_cif.got.tgz:623.got - 2010.06.04 01:04:00.
