data_PCOD9337241
_publ_section_title
;
Structure prediction by ZEFSAII (Michael W. Deem and Ramdas Pophale) SiO2 
 PCOD9337241
Probable space group: P M M 2
;
_chemical_formula_sum "Si O2"
_cell_formula_units_Z 32
_cell_length_a 8.906411
_cell_length_b 14.548269
_cell_length_c 16.039778
_cell_angle_alpha 90.000000
_cell_angle_beta 90.000000
_cell_angle_gamma 90.000000
_cell_volume 2078.319958
_symmetry_space_group_name_H-M "P M M 2"
_symmetry_group_IT_number 25
_symmetry_cell_setting 'orthorhombic'
loop_
_space_group_symop_operation_xyz
x,y,z
-x,-y,z
-x,y,z
x,-y,z
loop_
_atom_site_type_symbol
_atom_site_label
_atom_site_fract_x
_atom_site_fract_y
_atom_site_fract_z
Si Si1 0.818847 0.794612 0.827020
Si Si2 0.321194 0.394372 0.569592
Si Si3 0.318441 0.108619 0.352688
Si Si4 0.820965 0.786049 0.507902
Si Si5 0.820706 0.396588 0.751858
Si Si6 0.180428 0.893300 0.995588
Si Si7 0.673937 0.111558 0.167332
Si Si8 0.678955 0.109224 0.665747
O O1 0.784087 0.687067 0.813085
O O2 0.744580 0.850187 0.751307
O O3 0.000000 0.805549 0.821207
O O4 0.769764 0.834382 0.916065
O O5 0.500000 0.380572 0.566006
O O6 0.287853 0.500000 0.545806
O O7 0.238323 0.317961 0.515593
O O8 0.265264 0.382839 0.664865
O O9 0.500000 0.116957 0.357611
O O10 0.241608 0.165630 0.425283
O O11 0.271539 0.139378 0.259375
O O12 0.283803 0.000000 0.362426
O O13 0.755828 0.840131 0.588014
O O14 0.000000 0.788456 0.510168
O O15 0.787741 0.500000 0.782510
O O16 0.000000 0.391858 0.734691
O O17 0.238994 0.859010 0.084839
O O18 0.000000 0.892521 0.997443
O O19 0.228592 0.000000 0.984602
O O20 0.500000 0.138259 0.159458
O O21 0.679337 0.000000 0.168709
O O22 0.500000 0.124799 0.662154
O O23 0.706380 0.000000 0.661380
#
# Coordination Sequence:
#
# PCOD9337241 Si02
#       8
#     4   4   4   4   4   4   4   4
#     4  10  19  31  47  68  94 127 160 195 240 286
#     4  10  20  34  52  71  92 121 158 200 242 282
#     4   9  18  33  51  70  95 126 160 200 241 284
#     4  12  23  33  48  71  97 127 159 194 237 287
#     4   9  17  30  48  69  92 120 157 200 243 283
#     4   9  17  28  43  65  94 125 157 194 235 283
#     4   8  15  29  48  68  90 119 155 195 240 283
#     4  11  23  35  46  63  92 130 167 199 231 274
#
# _framework density 15.397050999999999
#
# number of rings (size 3 to 8) (size 9 to 14) (size 15 to 20)
#    0.000    2.250    1.250    3.375    0.000    5.000 
#    0.000    2.500    0.000    0.000    0.000    0.875 
#    0.000    3.000    0.000    0.000    0.000    0.000 
#
# Total GULP energy -178446.166953 kJ/mol
# GULP energy per Si atom -5576.442717 kJ/mol
# Density = 1.536201 g / cm^3
# Si number density = 15.397051 Si / 1000 Ang^3
#
#
#
# Elastic Constant Matrix: (Units=GPa)
#
#
# Indices 1 2 3 4 5 6 
#
# 1 43.6930 48.6126 50.0269 0.0000 0.0000 0.0000
# 2 48.6126 98.9001 72.9331 0.0000 0.0000 0.0000
# 3 50.0269 72.9331 147.0700 0.0000 0.0000 0.0000
# 4 0.0000 0.0000 0.0000 6.9107 0.0000 0.0000
# 5 0.0000 0.0000 0.0000 0.0000 27.7485 0.0000
# 6 0.0000 0.0000 0.0000 0.0000 0.0000 19.8675
#
#
#
# Elastic Compliance Matrix: (Units=1/GPa)
#
#
# Indices 1 2 3 4 5 6 
#
# 1 0.056678 -0.021507 -0.008614 0.000000 0.000000 0.000000
# 2 -0.021507 0.024102 -0.004637 0.000000 0.000000 0.000000
# 3 -0.008614 -0.004637 0.012029 0.000000 0.000000 0.000000
# 4 0.000000 0.000000 0.000000 0.144703 0.000000 0.000000
# 5 0.000000 0.000000 0.000000 0.000000 0.036038 0.000000
# 6 0.000000 0.000000 0.000000 0.000000 0.000000 0.050334
#
#
# Mechanical properties :
#
#
# Convention : Reuss Voigt Hill
#
# Bulk Modulus (GPa) = 42.92969 70.31203 56.62086
# Shear Modulus (GPa) = 12.46380 18.77803 15.62092
#
# Velocity S-wave (km/s) = 2.84825 3.49605 3.18864
# Velocity P-wave (km/s) = 6.22567 7.87791 7.10002
#
# Compressibility (1/GPa) = 0.02329390
#
# Stress axis : x y z
#
# Youngs Moduli (GPa) = 17.64361 41.49111 83.13299
#
# Poissons Ratio (x) = 0.89233 0.71611
# Poissons Ratio (y) = 0.37945 0.38545
# Poissons Ratio (z) = 0.15198 0.19238
#
# Static dielectric constant tensor:
#      x y z
#    x 1.516160 0.000000 0.000000 
#    y 0.000000 1.514760 0.000000 
#    z 0.000000 0.000000 1.496890 
# 
# From -- ./inp_files/5709.got.cif
#   From: 2010.05.17/outbox.cif.g08.bks.cpg/sg25_3_cif.got.tgz:5709.got - 2010.06.04 01:04:00.
