data_PCOD9337494
_publ_section_title
;
Structure prediction by ZEFSAII (Michael W. Deem and Ramdas Pophale) SiO2 
 PCOD9337494
Probable space group: P M M 2
;
_chemical_formula_sum "Si O2"
_cell_formula_units_Z 28
_cell_length_a 9.064275
_cell_length_b 9.350951
_cell_length_c 18.683051
_cell_angle_alpha 90.000000
_cell_angle_beta 90.000000
_cell_angle_gamma 90.000000
_cell_volume 1583.567768
_symmetry_space_group_name_H-M "P M M 2"
_symmetry_group_IT_number 25
_symmetry_cell_setting 'orthorhombic'
loop_
_space_group_symop_operation_xyz
x,y,z
-x,-y,z
-x,y,z
x,-y,z
loop_
_atom_site_type_symbol
_atom_site_label
_atom_site_fract_x
_atom_site_fract_y
_atom_site_fract_z
Si Si1 0.830252 0.326059 0.281360
Si Si2 0.179895 0.335958 0.704049
Si Si3 0.825872 0.171894 0.003819
Si Si4 0.820169 0.165129 0.843450
Si Si5 0.675757 0.330140 0.428887
Si Si6 0.177718 0.831993 0.560929
Si Si7 0.674658 0.329699 0.134709
O O1 0.827873 0.500000 0.280642
O O2 0.744487 0.283063 0.353020
O O3 0.753460 0.279982 0.207781
O O4 0.000000 0.279723 0.284011
O O5 0.228138 0.500000 0.698412
O O6 0.229495 0.262820 0.777906
O O7 0.223579 0.245153 0.634623
O O8 0.000000 0.335433 0.705367
O O9 0.737780 0.248853 0.066153
O O10 0.000000 0.206181 0.010779
O O11 0.811746 0.000000 0.008941
O O12 0.775992 0.212289 0.923288
O O13 0.000000 0.165550 0.843795
O O14 0.775379 0.000000 0.832403
O O15 0.500000 0.312480 0.427430
O O16 0.707543 0.500000 0.437939
O O17 0.746781 0.243871 0.493839
O O18 0.000000 0.817383 0.554459
O O19 0.212302 0.000000 0.563595
O O20 0.500000 0.308649 0.141302
O O21 0.702197 0.500000 0.126897
#
# Coordination Sequence:
#
# PCOD9337494 Si02
#       7
#     4   4   4   4   4   4   4
#     4   9  17  31  53  78 102 130 165 206 252 300
#     4   9  16  26  44  72 102 130 164 208 255 300
#     4   9  18  32  50  73 101 134 172 212 254 301
#     4   8  14  26  44  67  97 130 163 204 255 305
#     4  10  20  34  53  76 102 132 166 206 253 303
#     4  10  20  33  50  73 102 136 172 209 250 297
#     4  10  20  33  50  74 104 136 170 208 251 300
#
# _framework density 17.681591999999998
#
# number of rings (size 3 to 8) (size 9 to 14) (size 15 to 20)
#    0.000    2.714    0.000    3.000    0.000    6.857 
#    0.000    2.143    0.000    5.143    0.000    4.000 
#    0.000    0.000    0.000    0.000    0.000    0.000 
#
# Total GULP energy -156152.541729 kJ/mol
# GULP energy per Si atom -5576.876490 kJ/mol
# Density = 1.764135 g / cm^3
# Si number density = 17.681592 Si / 1000 Ang^3
#
#
#
# Elastic Constant Matrix: (Units=GPa)
#
#
# Indices 1 2 3 4 5 6 
#
# 1 42.8972 44.7426 63.9907 0.0000 0.0000 0.0000
# 2 44.7426 75.8146 90.8907 0.0000 0.0000 0.0000
# 3 63.9907 90.8907 211.5412 0.0000 0.0000 0.0000
# 4 0.0000 0.0000 0.0000 189.7890 0.0000 0.0000
# 5 0.0000 0.0000 0.0000 0.0000 -10.7550 0.0000
# 6 0.0000 0.0000 0.0000 0.0000 0.0000 18.3860
#
#
#
# Elastic Compliance Matrix: (Units=1/GPa)
#
#
# Indices 1 2 3 4 5 6 
#
# 1 0.064735 -0.030373 -0.006532 0.000000 0.000000 0.000000
# 2 -0.030373 0.041452 -0.008623 0.000000 0.000000 0.000000
# 3 -0.006532 -0.008623 0.010408 0.000000 0.000000 0.000000
# 4 0.000000 0.000000 0.000000 0.005269 0.000000 0.000000
# 5 0.000000 0.000000 0.000000 0.000000 -0.092980 0.000000
# 6 0.000000 0.000000 0.000000 0.000000 0.000000 0.054389
#
#
# Mechanical properties :
#
#
# Convention : Reuss Voigt Hill
#
# Bulk Modulus (GPa) = 39.15426 81.05569 60.10497
# Shear Modulus (GPa) = 27.34598 48.19261 37.76930
#
# Velocity S-wave (km/s) = 3.93692 5.22637 4.62679
# Velocity P-wave (km/s) = 6.54660 9.07531 7.91263
#
# Compressibility (1/GPa) = 0.02554001
#
# Stress axis : x y z
#
# Youngs Moduli (GPa) = 15.44749 24.12420 96.07996
#
# Poissons Ratio (x) = 0.73272 0.62762
# Poissons Ratio (y) = 0.46918 0.82846
# Poissons Ratio (z) = 0.10091 0.20801
#
# Static dielectric constant tensor:
#      x y z
#    x 1.586150 0.000000 0.000000 
#    y 0.000000 1.588540 0.000000 
#    z 0.000000 0.000000 1.586870 
# 
# From -- ./inp_files/6106.got.cif
#   From: 2010.05.17/outbox.cif.g08.bks.cpg/sg25_4_cif.got.tgz:6106.got - 2010.06.04 01:04:00.
