data_PCOD9337006
_publ_section_title
;
Structure prediction by ZEFSAII (Michael W. Deem and Ramdas Pophale) SiO2 
 PCOD9337006
Probable space group: I 21 21 21
;
_chemical_formula_sum "Si O2"
_cell_formula_units_Z 36
_cell_length_a 13.483860
_cell_length_b 20.576140
_cell_length_c 5.171085
_cell_angle_alpha 90.000000
_cell_angle_beta 90.000000
_cell_angle_gamma 90.000000
_cell_volume 1434.695769
_symmetry_space_group_name_H-M "I 21 21 21"
_symmetry_group_IT_number 24
_symmetry_cell_setting 'orthorhombic'
loop_
_space_group_symop_operation_xyz
x,y,z
-x,1/2-y,z
x,-y,1/2-z
1/2-x,y,-z
1/2+x,1/2+y,1/2+z
1/2-x,-y,1/2+z
1/2+x,1/2-y,-z
-x,1/2+y,1/2-z
loop_
_atom_site_type_symbol
_atom_site_label
_atom_site_fract_x
_atom_site_fract_y
_atom_site_fract_z
Si Si1 0.250000 0.567601 0.500000
Si Si2 0.900234 0.266793 0.664748
Si Si3 0.750000 0.159546 0.500000
Si Si4 0.576722 0.000000 0.750000
Si Si5 0.318402 0.000000 0.250000
Si Si6 0.586197 0.603481 0.904293
Si Si7 0.750000 0.649256 0.500000
O O1 0.248061 0.613961 0.250744
O O2 0.347270 0.522572 0.527129
O O3 0.937607 0.322569 0.469635
O O4 0.000000 0.250000 0.818378
O O5 0.155736 0.292881 0.531571
O O6 0.819796 0.303530 0.835525
O O7 0.503656 0.060729 0.703097
O O8 0.250000 0.993475 0.500000
O O9 0.116765 0.937606 0.836665
O O10 0.678581 0.612016 0.706275
#
# Coordination Sequence:
#
# PCOD9337006 Si02
#       7
#     4   8   4   4   4   8   4
#     4  12  30  58  88 124 169 239 300 376 440 522
#     4  12  28  50  84 124 180 232 299 366 454 540
#     4  12  27  56  89 121 173 232 300 370 438 542
#     4  12  31  57  94 126 186 226 319 371 454 538
#     4  12  29  49  80 120 176 232 285 359 436 546
#     4  12  30  50  85 128 176 237 292 370 457 534
#     4  12  27  56  79 131 178 223 304 364 456 538
#
# _framework density 25.092426
#
# number of rings (size 3 to 8) (size 9 to 14) (size 15 to 20)
#    0.000    0.000    2.222    4.667   15.556    3.556 
#    0.000    0.000    0.000    0.000    0.000    0.000 
#    0.000    0.000    0.000    0.000    0.000    0.000 
#
# Total GULP energy -100781.960846 kJ/mol
# GULP energy per Si atom -5598.997825 kJ/mol
# Density = 2.503531 g / cm^3
# Si number density = 25.092426 Si / 1000 Ang^3
#
#
#
# Elastic Constant Matrix: (Units=GPa)
#
#
# Indices 1 2 3 4 5 6 
#
# 1 219.9064 78.2814 67.8821 0.0000 0.0000 0.0000
# 2 78.2814 147.9757 70.3119 0.0000 0.0000 0.0000
# 3 67.8821 70.3119 160.7374 0.0000 0.0000 0.0005
# 4 0.0000 0.0000 0.0000 31.0577 0.0000 0.0000
# 5 0.0000 0.0000 0.0000 0.0000 25.9404 0.0002
# 6 0.0000 0.0000 0.0005 0.0000 0.0002 209.7812
#
#
#
# Elastic Compliance Matrix: (Units=1/GPa)
#
#
# Indices 1 2 3 4 5 6 
#
# 1 0.005845 -0.002423 -0.001409 0.000000 0.000000 0.000000
# 2 -0.002423 0.009535 -0.003148 0.000000 0.000000 0.000000
# 3 -0.001409 -0.003148 0.008193 0.000000 0.000000 0.000000
# 4 0.000000 0.000000 0.000000 0.032198 0.000000 0.000000
# 5 0.000000 0.000000 0.000000 0.000000 0.038550 0.000000
# 6 0.000000 0.000000 0.000000 0.000000 0.000000 0.004767
#
#
# Mechanical properties :
#
#
# Convention : Reuss Voigt Hill
#
# Bulk Modulus (GPa) = 104.00558 106.84117 105.42337
# Shear Modulus (GPa) = 43.01039 74.16546 58.58792
#
# Velocity S-wave (km/s) = 4.14463 5.44252 4.83731
# Velocity P-wave (km/s) = 8.02764 9.06456 8.56181
#
# Compressibility (1/GPa) = 0.00961487
#
# Stress axis : x y z
#
# Youngs Moduli (GPa) = 171.09901 104.87439 122.05271
#
# Poissons Ratio (x) = 0.25407 0.17192
# Poissons Ratio (y) = 0.41450 0.38421
# Poissons Ratio (z) = 0.24100 0.33014
#
# Static dielectric constant tensor:
#      x y z
#    x 2.034640 0.000000 0.000000 
#    y 0.000000 2.107380 0.000000 
#    z 0.000000 0.000000 1.994920 
# 
# From -- ./inp_files/2365.got.cif
#   From: 2010.05.17/outbox.cif.g08.bks.cpg/sg24_2_cif.got.tgz:2365.got - 2010.06.04 00:33:39.
