data_PCOD9337154
_publ_section_title
;
Structure prediction by ZEFSAII (Michael W. Deem and Ramdas Pophale) SiO2 
 PCOD9337154
Probable space group: P M M 2
;
_chemical_formula_sum "Si O2"
_cell_formula_units_Z 20
_cell_length_a 13.424833
_cell_length_b 8.143749
_cell_length_c 10.027215
_cell_angle_alpha 90.000000
_cell_angle_beta 90.000000
_cell_angle_gamma 90.000000
_cell_volume 1096.260078
_symmetry_space_group_name_H-M "P M M 2"
_symmetry_group_IT_number 25
_symmetry_cell_setting 'orthorhombic'
loop_
_space_group_symop_operation_xyz
x,y,z
-x,-y,z
-x,y,z
x,-y,z
loop_
_atom_site_type_symbol
_atom_site_label
_atom_site_fract_x
_atom_site_fract_y
_atom_site_fract_z
Si Si1 0.283881 0.798542 0.535350
Si Si2 0.290369 0.195346 0.843431
Si Si3 0.500000 0.809878 0.522131
Si Si4 0.500000 0.689811 0.818569
Si Si5 0.112907 0.303743 0.033423
Si Si6 0.112519 0.801459 0.336077
O O1 0.272546 0.748998 0.690041
O O2 0.392376 0.739739 0.484045
O O3 0.194267 0.743448 0.441640
O O4 0.285509 0.000000 0.534229
O O5 0.395773 0.271531 0.889895
O O6 0.302806 0.000000 0.841911
O O7 0.197103 0.238599 0.934940
O O8 0.500000 0.798863 0.683862
O O9 0.500000 0.000000 0.480723
O O10 0.500000 0.500000 0.778039
O O11 0.112345 0.500000 0.025336
O O12 0.134867 0.253019 0.185583
O O13 0.000000 0.244024 0.002301
O O14 0.000000 0.746069 0.368679
O O15 0.113007 0.000000 0.338523
#
# Coordination Sequence:
#
# PCOD9337154 Si02
#       6
#     4   4   2   2   4   4
#     4   8  15  28  49  74  96 121 159 206 247 289
#     4  10  19  33  54  78 102 131 169 209 250 297
#     4   8  14  28  47  68  97 130 162 198 244 294
#     4  10  18  30  49  74 105 136 164 200 250 300
#     4  10  21  36  51  70 100 136 171 209 255 303
#     4   9  17  31  50  70  94 127 165 204 249 299
#
# _framework density 18.243846000000001
#
# number of rings (size 3 to 8) (size 9 to 14) (size 15 to 20)
#    0.000    2.800    0.000    3.300    0.000    2.000 
#    0.000    8.000    0.000    4.800    0.000    0.000 
#    0.000    0.000    0.000    0.000    0.000    0.000 
#
# Total GULP energy -111434.109126 kJ/mol
# GULP energy per Si atom -5571.705456 kJ/mol
# Density = 1.820232 g / cm^3
# Si number density = 18.243846 Si / 1000 Ang^3
#
#
#
# Elastic Constant Matrix: (Units=GPa)
#
#
# Indices 1 2 3 4 5 6 
#
# 1 194.4945 20.1901 103.0894 0.0000 0.0000 0.0000
# 2 20.1901 27.5990 12.9066 0.0000 0.0000 0.0000
# 3 103.0894 12.9066 76.8350 0.0000 0.0000 0.0000
# 4 0.0000 0.0000 0.0000 -11.9621 0.0000 0.0000
# 5 0.0000 0.0000 0.0000 0.0000 -25.5268 0.0000
# 6 0.0000 0.0000 0.0000 0.0000 0.0000 18.2421
#
#
#
# Elastic Compliance Matrix: (Units=1/GPa)
#
#
# Indices 1 2 3 4 5 6 
#
# 1 0.017903 -0.002023 -0.023681 0.000000 0.000000 0.000000
# 2 -0.002023 0.039551 -0.003930 0.000000 0.000000 0.000000
# 3 -0.023681 -0.003930 0.045448 0.000000 0.000000 0.000000
# 4 0.000000 0.000000 0.000000 -0.083597 0.000000 0.000000
# 5 0.000000 0.000000 0.000000 0.000000 -0.039174 0.000000
# 6 0.000000 0.000000 0.000000 0.000000 0.000000 0.054818
#
#
# Mechanical properties :
#
#
# Convention : Reuss Voigt Hill
#
# Bulk Modulus (GPa) = 22.91746 63.47786 43.19766
# Shear Modulus (GPa) = 45.97210 7.00012 26.48611
#
# Velocity S-wave (km/s) = 5.02528 1.96094 3.81436
# Velocity P-wave (km/s) = 6.80149 6.32430 6.56723
#
# Compressibility (1/GPa) = 0.04363486
#
# Stress axis : x y z
#
# Youngs Moduli (GPa) = 55.85504 25.28397 22.00309
#
# Poissons Ratio (x) = 0.05115 0.52106
# Poissons Ratio (y) = 0.11299 0.08646
# Poissons Ratio (z) = 1.32272 0.09936
#
# Static dielectric constant tensor:
#      x y z
#    x 1.668920 0.000000 0.000000 
#    y 0.000000 1.631010 0.000000 
#    z 0.000000 0.000000 1.587530 
# 
# From -- ./inp_files/3014.got.cif
#   From: 2010.05.17/outbox.cif.g08.bks.cpg/sg25_2_cif.got.tgz:3014.got - 2010.06.04 01:04:00.
