data_PCOD9337070
_publ_section_title
;
Structure prediction by ZEFSAII (Michael W. Deem and Ramdas Pophale) SiO2 
 PCOD9337070
Probable space group: I 21 21 21
;
_chemical_formula_sum "Si O2"
_cell_formula_units_Z 26
_cell_length_a 9.000000
_cell_length_b 21.000000
_cell_length_c 15.000000
_cell_angle_alpha 90.000000
_cell_angle_beta 90.000000
_cell_angle_gamma 90.000000
_cell_volume 2835.000000
_symmetry_space_group_name_H-M "I 21 21 21"
_symmetry_group_IT_number 24
_symmetry_cell_setting 'orthorhombic'
loop_
_space_group_symop_operation_xyz
x,y,z
-x,1/2-y,z
x,-y,1/2-z
1/2-x,y,-z
1/2+x,1/2+y,1/2+z
1/2-x,-y,1/2+z
1/2+x,1/2-y,-z
-x,1/2+y,1/2-z
loop_
_atom_site_type_symbol
_atom_site_label
_atom_site_fract_x
_atom_site_fract_y
_atom_site_fract_z
Si Si1 0.294521 0.193561 0.210336
Si Si2 0.622378 0.307257 0.420681
Si Si3 0.147273 0.954195 0.912308
Si Si4 0.538351 0.618704 0.637647
Si Si5 0.846749 0.500000 0.250000
Si Si6 0.771295 0.816915 0.597326
Si Si7 0.951774 0.403455 0.929514
O O1 0.325878 0.198206 0.316182
O O2 0.126076 0.173445 0.190695
O O3 0.323976 0.262059 0.164725
O O4 0.370063 0.136924 0.149655
O O5 0.500000 0.250000 0.434629
O O6 0.750000 0.301512 0.500000
O O7 0.574578 0.383269 0.421158
O O8 0.245950 0.961190 0.821914
O O9 0.054859 0.020576 0.912943
O O10 0.250000 0.959104 0.000000
O O11 0.562246 0.552436 0.691833
O O12 0.374306 0.647041 0.630560
O O13 0.592477 0.608853 0.534088
O O14 0.750000 0.784383 0.500000
O O15 0.886965 0.872840 0.578840
#
# Coordination Sequence:
#
# PCOD9337070 Si02
#       7
#     8   8   8   8   4   8   8
#     4  12  21  39  65  89 124 170 213 252 309 387
#     4  11  26  45  64  91 122 164 221 270 321 383
#     4  11  20  39  66  90 118 162 217 261 308 371
#     4  11  22  37  60  97 127 163 209 252 318 378
#     4  12  20  38  64  96 118 166 208 268 298 384
#     4  10  23  37  57  96 137 162 193 256 324 376
#     4  11  20  38  66  95 127 160 206 262 312 377
#
# _framework density 9.1710759999999993
#
# number of rings (size 3 to 8) (size 9 to 14) (size 15 to 20)
#    0.000    0.923    4.615    3.231    0.000    3.692 
#    0.000    6.154    0.000    0.000    0.000    0.000 
#    0.000    0.000    0.000    0.000    0.000    0.000 
#
# Total GULP energy -144831.497611 kJ/mol
# GULP energy per Si atom -5570.442216 kJ/mol
# Density = 0.915020 g / cm^3
# Si number density = 9.171076 Si / 1000 Ang^3
#
#
#
# Elastic Constant Matrix: (Units=GPa)
#
#
# Indices 1 2 3 4 5 6 
#
# 1 65.9464 43.2616 42.4262 0.0000 0.0000 0.0000
# 2 43.2616 173.4064 49.2923 0.0000 0.0000 0.0000
# 3 42.4262 49.2923 150.2485 0.0000 0.0000 0.0000
# 4 0.0000 0.0000 0.0000 43.4849 0.0000 0.0000
# 5 0.0000 0.0000 0.0000 0.0000 24.6258 0.0000
# 6 0.0000 0.0000 0.0000 0.0000 0.0000 23.0254
#
#
#
# Elastic Compliance Matrix: (Units=1/GPa)
#
#
# Indices 1 2 3 4 5 6 
#
# 1 0.020623 -0.003849 -0.004561 0.000000 0.000000 0.000000
# 2 -0.003849 0.007078 -0.001235 0.000000 0.000000 0.000000
# 3 -0.004561 -0.001235 0.008349 0.000000 0.000000 0.000000
# 4 0.000000 0.000000 0.000000 0.022996 0.000000 0.000000
# 5 0.000000 0.000000 0.000000 0.000000 0.040608 0.000000
# 6 0.000000 0.000000 0.000000 0.000000 0.000000 0.043430
#
#
# Mechanical properties :
#
#
# Convention : Reuss Voigt Hill
#
# Bulk Modulus (GPa) = 59.66506 73.28460 66.47483
# Shear Modulus (GPa) = 29.76899 35.20197 32.48548
#
# Velocity S-wave (km/s) = 4.03300 4.38560 4.21299
# Velocity P-wave (km/s) = 7.36792 8.10467 7.74506
#
# Compressibility (1/GPa) = 0.01676023
#
# Stress axis : x y z
#
# Youngs Moduli (GPa) = 48.49052 141.28069 119.77823
#
# Poissons Ratio (x) = 0.54372 0.54627
# Poissons Ratio (y) = 0.18662 0.14797
# Poissons Ratio (z) = 0.22115 0.17454
#
# Static dielectric constant tensor:
#      x y z
#    x 1.728870 0.000000 0.000000 
#    y 0.000000 1.639440 0.000000 
#    z 0.000000 0.000000 1.652020 
# 
# From -- ./inp_files/25000.got.cif
#   From: 2010.05.17/outbox.ucp.g08.bks.cvg/sg24_13_cif.got.tgz:25000.got - 2010.06.11 15:20:44.
