data_PCOD9337741
_publ_section_title
;
Structure prediction by ZEFSAII (Michael W. Deem and Ramdas Pophale) SiO2 
 PCOD9337741
Probable space group: P M M 2
;
_chemical_formula_sum "Si O2"
_cell_formula_units_Z 28
_cell_length_a 8.381502
_cell_length_b 9.476959
_cell_length_c 18.902451
_cell_angle_alpha 90.000000
_cell_angle_beta 90.000000
_cell_angle_gamma 90.000000
_cell_volume 1501.443436
_symmetry_space_group_name_H-M "P M M 2"
_symmetry_group_IT_number 25
_symmetry_cell_setting 'orthorhombic'
loop_
_space_group_symop_operation_xyz
x,y,z
-x,-y,z
-x,y,z
x,-y,z
loop_
_atom_site_type_symbol
_atom_site_label
_atom_site_fract_x
_atom_site_fract_y
_atom_site_fract_z
Si Si1 0.695388 0.336132 0.092120
Si Si2 0.690715 0.338172 0.515917
Si Si3 0.685378 0.328184 0.938650
Si Si4 0.809083 0.838377 0.650139
Si Si5 0.809415 0.836259 0.382526
Si Si6 0.692534 0.835858 0.228926
Si Si7 0.693488 0.336346 0.783981
O O1 0.500000 0.330850 0.089905
O O2 0.739369 0.500000 0.100114
O O3 0.747873 0.249186 0.160222
O O4 0.753466 0.284076 0.014818
O O5 0.500000 0.340996 0.520582
O O6 0.749443 0.500000 0.517376
O O7 0.754648 0.250298 0.582307
O O8 0.739593 0.260263 0.443931
O O9 0.500000 0.282736 0.938152
O O10 0.685172 0.500000 0.939677
O O11 0.753733 0.289325 0.861986
O O12 0.749659 0.761904 0.720928
O O13 0.000000 0.840967 0.650936
O O14 0.750499 0.000000 0.646012
O O15 0.759544 0.786738 0.304256
O O16 0.000000 0.835727 0.388082
O O17 0.754352 0.000000 0.390350
O O18 0.500000 0.826503 0.232032
O O19 0.736554 0.000000 0.221039
O O20 0.500000 0.335671 0.786212
O O21 0.741847 0.500000 0.772114
#
# Coordination Sequence:
#
# PCOD9337741 Si02
#       7
#     4   4   4   4   4   4   4
#     4   8  13  23  42  68  97 129 165 206 252 299
#     4  11  24  40  59  83 106 128 161 206 253 301
#     4   7  11  22  42  69  99 128 160 204 256 302
#     4  11  24  39  54  75 105 139 172 205 246 299
#     4  10  21  37  56  77 103 137 174 208 247 299
#     4   9  17  29  46  70 100 132 167 209 254 297
#     4   9  17  31  53  79 104 132 171 216 258 302
#
# _framework density 18.648720000000001
#
# number of rings (size 3 to 8) (size 9 to 14) (size 15 to 20)
#    0.000    2.714    0.000    3.857    0.000    7.429 
#    0.000    2.143    0.000    3.429    0.000    4.000 
#    0.000    0.000    0.000    0.000    0.000    0.000 
#
# Total GULP energy -156103.342109 kJ/mol
# GULP energy per Si atom -5575.119361 kJ/mol
# Density = 1.860628 g / cm^3
# Si number density = 18.648720 Si / 1000 Ang^3
#
#
#
# Elastic Constant Matrix: (Units=GPa)
#
#
# Indices 1 2 3 4 5 6 
#
# 1 15.3537 19.5754 25.1130 0.0000 0.0000 0.0000
# 2 19.5754 100.5692 102.9653 0.0000 0.0000 0.0000
# 3 25.1130 102.9653 213.3560 0.0000 0.0000 0.0000
# 4 0.0000 0.0000 0.0000 92.0650 0.0000 0.0000
# 5 0.0000 0.0000 0.0000 0.0000 -47.2438 0.0000
# 6 0.0000 0.0000 0.0000 0.0000 0.0000 6.6913
#
#
#
# Elastic Compliance Matrix: (Units=1/GPa)
#
#
# Indices 1 2 3 4 5 6 
#
# 1 0.088455 -0.012963 -0.004156 0.000000 0.000000 0.000000
# 2 -0.012963 0.021554 -0.008876 0.000000 0.000000 0.000000
# 3 -0.004156 -0.008876 0.009460 0.000000 0.000000 0.000000
# 4 0.000000 0.000000 0.000000 0.010862 0.000000 0.000000
# 5 0.000000 0.000000 0.000000 0.000000 -0.021167 0.000000
# 6 0.000000 0.000000 0.000000 0.000000 0.000000 0.149448
#
#
# Mechanical properties :
#
#
# Convention : Reuss Voigt Hill
#
# Bulk Modulus (GPa) = 14.81930 69.39848 42.10889
# Shear Modulus (GPa) = 15.01072 22.41084 18.71078
#
# Velocity S-wave (km/s) = 2.84019 3.47037 3.17097
# Velocity P-wave (km/s) = 4.32659 7.30426 6.00298
#
# Compressibility (1/GPa) = 0.06747958
#
# Stress axis : x y z
#
# Youngs Moduli (GPa) = 11.30520 46.39434 105.70973
#
# Poissons Ratio (x) = 0.60139 0.43931
# Poissons Ratio (y) = 0.14654 0.93832
# Poissons Ratio (z) = 0.04698 0.41181
#
# Static dielectric constant tensor:
#      x y z
#    x 1.640790 0.000000 0.000000 
#    y 0.000000 1.632000 0.000000 
#    z 0.000000 0.000000 1.653930 
# 
# From -- ./inp_files/6415.got.cif
#   From: 2010.05.17/outbox.cif.g08.bks.cpg/sg25_4_cif.got.tgz:6415.got - 2010.06.04 01:04:00.
