data_PCOD9337842
_publ_section_title
;
Structure prediction by ZEFSAII (Michael W. Deem and Ramdas Pophale) SiO2 
 PCOD9337842
Probable space group: P M M 2
;
_chemical_formula_sum "Si O2"
_cell_formula_units_Z 28
_cell_length_a 9.340364
_cell_length_b 7.528651
_cell_length_c 19.166574
_cell_angle_alpha 90.000000
_cell_angle_beta 90.000000
_cell_angle_gamma 90.000000
_cell_volume 1347.800015
_symmetry_space_group_name_H-M "P M M 2"
_symmetry_group_IT_number 25
_symmetry_cell_setting 'orthorhombic'
loop_
_space_group_symop_operation_xyz
x,y,z
-x,-y,z
-x,y,z
x,-y,z
loop_
_atom_site_type_symbol
_atom_site_label
_atom_site_fract_x
_atom_site_fract_y
_atom_site_fract_z
Si Si1 0.832523 0.716593 0.509120
Si Si2 0.836878 0.710230 0.962645
Si Si3 0.664392 0.717587 0.096638
Si Si4 0.835334 0.716992 0.234490
Si Si5 0.164570 0.287624 0.661173
Si Si6 0.162751 0.790281 0.811112
Si Si7 0.335248 0.282652 0.372246
O O1 0.829655 0.500000 0.507820
O O2 0.778173 0.773693 0.586030
O O3 0.740680 0.777177 0.443493
O O4 0.000000 0.766872 0.502497
O O5 0.848832 0.500000 0.974144
O O6 0.773485 0.732773 0.884986
O O7 0.000000 0.783239 0.963158
O O8 0.741613 0.779483 0.025890
O O9 0.500000 0.774475 0.100155
O O10 0.663850 0.500000 0.096371
O O11 0.752701 0.772783 0.164798
O O12 0.835624 0.500000 0.234641
O O13 0.753006 0.773562 0.304227
O O14 0.000000 0.774414 0.234363
O O15 0.158029 0.500000 0.656977
O O16 0.233073 0.248404 0.736220
O O17 0.000000 0.219575 0.664750
O O18 0.000000 0.711906 0.809344
O O19 0.151039 0.000000 0.815066
O O20 0.500000 0.227087 0.368567
O O21 0.333978 0.500000 0.372571
#
# Coordination Sequence:
#
# PCOD9337842 Si02
#       7
#     4   4   4   4   4   4   4
#     4   8  13  21  33  49  70  99 135 169 199 237
#     4   9  16  26  41  60  82 109 140 172 208 251
#     4   9  16  25  37  54  77 105 138 174 208 243
#     4   9  15  22  33  50  75 107 139 168 201 244
#     4   8  13  22  37  56  78 106 140 175 210 249
#     4   9  16  25  39  61  86 108 134 173 216 252
#     4   9  15  21  30  47  74 106 136 166 202 242
#
# _framework density 20.774595000000001
#
# number of rings (size 3 to 8) (size 9 to 14) (size 15 to 20)
#    0.000    3.286    0.000    2.571    0.000    6.857 
#    0.000    0.000    0.000    1.286    0.000    4.000 
#    0.000    1.143    0.000    9.714    0.000   10.714 
#
# Total GULP energy -156056.474769 kJ/mol
# GULP energy per Si atom -5573.445527 kJ/mol
# Density = 2.072731 g / cm^3
# Si number density = 20.774595 Si / 1000 Ang^3
#
#
#
# Elastic Constant Matrix: (Units=GPa)
#
#
# Indices 1 2 3 4 5 6 
#
# 1 116.5742 4.4269 113.1884 0.0000 0.0000 0.0000
# 2 4.4269 51.2196 4.1982 0.0000 0.0000 0.0000
# 3 113.1884 4.1982 268.6091 0.0000 0.0000 0.0000
# 4 0.0000 0.0000 0.0000 -37.4692 0.0000 0.0000
# 5 0.0000 0.0000 0.0000 0.0000 -8.1090 0.0000
# 6 0.0000 0.0000 0.0000 0.0000 0.0000 -4.8055
#
#
#
# Elastic Compliance Matrix: (Units=1/GPa)
#
#
# Indices 1 2 3 4 5 6 
#
# 1 0.014548 -0.000756 -0.006118 0.000000 0.000000 0.000000
# 2 -0.000756 0.019588 0.000012 0.000000 0.000000 0.000000
# 3 -0.006118 0.000012 0.006301 0.000000 0.000000 0.000000
# 4 0.000000 0.000000 0.000000 -0.026689 0.000000 0.000000
# 5 0.000000 0.000000 0.000000 0.000000 -0.123320 0.000000
# 6 0.000000 0.000000 0.000000 0.000000 0.000000 -0.208094
#
#
# Mechanical properties :
#
#
# Convention : Reuss Voigt Hill
#
# Bulk Modulus (GPa) = 37.43515 75.55888 56.49702
# Shear Modulus (GPa) = -16.94695 10.89588 -3.02553
#
# Velocity S-wave (km/s) = -2.85924 2.29264 -1.20811
# Velocity P-wave (km/s) = 2.67553 6.59227 5.03073
#
# Compressibility (1/GPa) = 0.02671287
#
# Stress axis : x y z
#
# Youngs Moduli (GPa) = 68.73996 51.05139 158.70793
#
# Poissons Ratio (x) = 0.03859 0.97103
# Poissons Ratio (y) = 0.05196 -0.00196
# Poissons Ratio (z) = 0.42058 -0.00063
#
# Static dielectric constant tensor:
#      x y z
#    x 1.696830 0.000000 0.000000 
#    y 0.000000 1.762540 0.000000 
#    z 0.000000 0.000000 1.770290 
# 
# From -- ./inp_files/6245.got.cif
#   From: 2010.05.17/outbox.cif.g08.bks.cpg/sg25_4_cif.got.tgz:6245.got - 2010.06.04 01:04:00.
