data_PCOD9337014
_publ_section_title
;
Structure prediction by ZEFSAII (Michael W. Deem and Ramdas Pophale) SiO2 
 PCOD9337014
Probable space group: I 21 21 21
;
_chemical_formula_sum "Si O2"
_cell_formula_units_Z 20
_cell_length_a 5.234962
_cell_length_b 8.848491
_cell_length_c 16.422059
_cell_angle_alpha 90.000000
_cell_angle_beta 90.000000
_cell_angle_gamma 90.000000
_cell_volume 760.694638
_symmetry_space_group_name_H-M "I 21 21 21"
_symmetry_group_IT_number 24
_symmetry_cell_setting 'orthorhombic'
loop_
_space_group_symop_operation_xyz
x,y,z
-x,1/2-y,z
x,-y,1/2-z
1/2-x,y,-z
1/2+x,1/2+y,1/2+z
1/2-x,-y,1/2+z
1/2+x,1/2-y,-z
-x,1/2+y,1/2-z
loop_
_atom_site_type_symbol
_atom_site_label
_atom_site_fract_x
_atom_site_fract_y
_atom_site_fract_z
Si Si1 0.500000 0.250000 0.859523
Si Si2 0.750000 0.409364 0.500000
Si Si3 0.750000 0.885625 0.500000
Si Si4 0.500000 0.750000 0.145304
Si Si5 0.805922 0.000000 0.250000
O O1 0.267967 0.280641 0.920838
O O2 0.508749 0.103082 0.804377
O O3 0.495724 0.508897 0.504076
O O4 0.712009 0.313817 0.417629
O O5 0.372050 0.617129 0.199237
#
# Coordination Sequence:
#
# PCOD9337014 Si02
#       5
#     4   4   4   4   4
#     4  12  30  58  84 140 182 250 310 390 478 554
#     4  12  28  56  90 134 174 260 304 386 452 592
#     4  12  28  56  94 126 184 248 316 378 456 586
#     4  12  30  56  92 140 190 250 322 388 492 556
#     4  12  32  52  92 142 192 242 312 418 474 562
#
# _framework density 26.291761000000001
#
# number of rings (size 3 to 8) (size 9 to 14) (size 15 to 20)
#    0.000    0.000    4.000    2.400   11.200    1.600 
#    0.000    0.000    0.000    0.000    0.000    0.000 
#    0.000    0.000    0.000    0.000    0.000    0.000 
#
# Total GULP energy -56108.109100 kJ/mol
# GULP energy per Si atom -5610.810910 kJ/mol
# Density = 2.623192 g / cm^3
# Si number density = 26.291761 Si / 1000 Ang^3
#
#
#
# Elastic Constant Matrix: (Units=GPa)
#
#
# Indices 1 2 3 4 5 6 
#
# 1 207.8860 115.8044 73.7036 0.0000 0.0000 0.0000
# 2 115.8044 229.7820 142.8106 0.0000 0.0000 0.0000
# 3 73.7036 142.8106 209.5102 0.0000 0.0000 0.0000
# 4 0.0000 0.0000 0.0000 100.2047 0.0000 0.0000
# 5 0.0000 0.0000 0.0000 0.0000 38.2203 0.0000
# 6 0.0000 0.0000 0.0000 0.0000 0.0000 71.4035
#
#
#
# Elastic Compliance Matrix: (Units=1/GPa)
#
#
# Indices 1 2 3 4 5 6 
#
# 1 0.006689 -0.003312 -0.000096 0.000000 0.000000 0.000000
# 2 -0.003312 0.009190 -0.005099 0.000000 0.000000 0.000000
# 3 -0.000096 -0.005099 0.008283 0.000000 0.000000 0.000000
# 4 0.000000 0.000000 0.000000 0.009980 0.000000 0.000000
# 5 0.000000 0.000000 0.000000 0.000000 0.026164 0.000000
# 6 0.000000 0.000000 0.000000 0.000000 0.000000 0.014005
#
#
# Mechanical properties :
#
#
# Convention : Reuss Voigt Hill
#
# Bulk Modulus (GPa) = 139.89333 145.75726 142.82530
# Shear Modulus (GPa) = 53.35776 62.95634 58.15705
#
# Velocity S-wave (km/s) = 4.50983 4.89870 4.70828
# Velocity P-wave (km/s) = 8.96892 9.35709 9.16506
#
# Compressibility (1/GPa) = 0.00714830
#
# Stress axis : x y z
#
# Youngs Moduli (GPa) = 149.49863 108.81137 120.73269
#
# Poissons Ratio (x) = 0.36033 0.01157
# Poissons Ratio (y) = 0.49507 0.61567
# Poissons Ratio (z) = 0.01433 0.55488
#
# Static dielectric constant tensor:
#      x y z
#    x 2.020250 0.000000 0.000000 
#    y 0.000000 2.140940 0.000000 
#    z 0.000000 0.000000 2.123760 
# 
# From -- ./inp_files/627.got.cif
#   From: 2010.05.17/outbox.cif.g08.bks.cpg/sg24_1_cif.got.tgz:627.got - 2010.06.04 00:33:39.
