data_PCOD9337394
_publ_section_title
;
Structure prediction by ZEFSAII (Michael W. Deem and Ramdas Pophale) SiO2 
 PCOD9337394
Probable space group: P M M 2
;
_chemical_formula_sum "Si O2"
_cell_formula_units_Z 28
_cell_length_a 9.587823
_cell_length_b 7.484420
_cell_length_c 18.931996
_cell_angle_alpha 90.000000
_cell_angle_beta 90.000000
_cell_angle_gamma 90.000000
_cell_volume 1358.546671
_symmetry_space_group_name_H-M "P M M 2"
_symmetry_group_IT_number 25
_symmetry_cell_setting 'orthorhombic'
loop_
_space_group_symop_operation_xyz
x,y,z
-x,-y,z
-x,y,z
x,-y,z
loop_
_atom_site_type_symbol
_atom_site_label
_atom_site_fract_x
_atom_site_fract_y
_atom_site_fract_z
Si Si1 0.839507 0.281089 0.596210
Si Si2 0.338745 0.717661 0.462005
Si Si3 0.158144 0.287699 0.173479
Si Si4 0.657580 0.288253 0.728392
Si Si5 0.660823 0.718121 0.303952
Si Si6 0.838668 0.785661 0.019940
Si Si7 0.161239 0.784661 0.865511
O O1 0.840292 0.500000 0.596632
O O2 0.761976 0.224062 0.524623
O O3 0.751121 0.218768 0.663828
O O4 0.000000 0.223952 0.599583
O O5 0.500000 0.771850 0.473742
O O6 0.338652 0.500000 0.462596
O O7 0.295260 0.773178 0.382965
O O8 0.147792 0.500000 0.183481
O O9 0.245977 0.217119 0.239200
O O10 0.224168 0.263067 0.095648
O O11 0.000000 0.214335 0.172777
O O12 0.500000 0.215479 0.730525
O O13 0.645800 0.500000 0.716076
O O14 0.739395 0.265960 0.801612
O O15 0.500000 0.770732 0.294459
O O16 0.663640 0.500000 0.303416
O O17 0.000000 0.723100 0.022432
O O18 0.839554 0.000000 0.018126
O O19 0.785960 0.724486 0.943226
O O20 0.000000 0.723725 0.855491
O O21 0.156299 0.000000 0.866795
#
# Coordination Sequence:
#
# PCOD9337394 Si02
#       7
#     4   4   4   4   4   4   4
#     4   9  16  25  39  61  88 117 149 185 224 264
#     4   8  13  22  36  54  80 115 149 178 214 262
#     4   9  16  25  40  64  89 111 141 181 218 253
#     4  10  20  32  46  67  96 126 154 186 227 275
#     4   8  14  24  37  55  83 118 148 174 213 263
#     4   8  15  29  47  65  86 113 144 178 219 267
#     4   9  18  33  52  71  90 116 153 194 233 275
#
# _framework density 20.61026
#
# number of rings (size 3 to 8) (size 9 to 14) (size 15 to 20)
#    0.000    3.286    0.000    2.571    0.000    4.000 
#    0.000    5.000    0.000    3.000    0.000    1.000 
#    0.000    3.429    0.000    0.000    0.000    0.000 
#
# Total GULP energy -156081.306635 kJ/mol
# GULP energy per Si atom -5574.332380 kJ/mol
# Density = 2.056335 g / cm^3
# Si number density = 20.610260 Si / 1000 Ang^3
#
#
#
# Elastic Constant Matrix: (Units=GPa)
#
#
# Indices 1 2 3 4 5 6 
#
# 1 122.9002 5.3602 126.2236 0.0000 0.0000 0.0000
# 2 5.3602 55.0888 1.7417 0.0000 0.0000 0.0000
# 3 126.2236 1.7417 246.6387 0.0000 0.0000 0.0000
# 4 0.0000 0.0000 0.0000 52.0472 0.0000 0.0000
# 5 0.0000 0.0000 0.0000 0.0000 -742.4551 0.0000
# 6 0.0000 0.0000 0.0000 0.0000 0.0000 -0.3754
#
#
#
# Elastic Compliance Matrix: (Units=1/GPa)
#
#
# Indices 1 2 3 4 5 6 
#
# 1 0.017259 -0.001400 -0.008823 0.000000 0.000000 0.000000
# 2 -0.001400 0.018270 0.000588 0.000000 0.000000 0.000000
# 3 -0.008823 0.000588 0.008566 0.000000 0.000000 0.000000
# 4 0.000000 0.000000 0.000000 0.019213 0.000000 0.000000
# 5 0.000000 0.000000 0.000000 0.000000 -0.001347 0.000000
# 6 0.000000 0.000000 0.000000 0.000000 0.000000 -2.664162
#
#
# Mechanical properties :
#
#
# Convention : Reuss Voigt Hill
#
# Bulk Modulus (GPa) = 40.28388 76.80874 58.54631
# Shear Modulus (GPa) = -1.94201 -118.73652 -60.33926
#
# Velocity S-wave (km/s) = -0.97175 -7.59839 -5.41663
# Velocity P-wave (km/s) = 4.28123 6.29543 3.26371
#
# Compressibility (1/GPa) = 0.02482382
#
# Stress axis : x y z
#
# Youngs Moduli (GPa) = 57.93943 54.73395 116.74356
#
# Poissons Ratio (x) = 0.07665 1.03003
# Poissons Ratio (y) = 0.08114 -0.06861
# Poissons Ratio (z) = 0.51120 -0.03217
#
# Static dielectric constant tensor:
#      x y z
#    x 1.722820 0.000000 0.000000 
#    y 0.000000 1.791820 0.000000 
#    z 0.000000 0.000000 1.746370 
# 
# From -- ./inp_files/6333.got.cif
#   From: 2010.05.17/outbox.cif.g08.bks.cpg/sg25_4_cif.got.tgz:6333.got - 2010.06.04 01:04:00.
