data_PCOD9337324
_publ_section_title
;
Structure prediction by ZEFSAII (Michael W. Deem and Ramdas Pophale) SiO2 
 PCOD9337324
Probable space group: P M M 2
;
_chemical_formula_sum "Si O2"
_cell_formula_units_Z 32
_cell_length_a 15.348058
_cell_length_b 7.549380
_cell_length_c 12.716583
_cell_angle_alpha 90.000000
_cell_angle_beta 90.000000
_cell_angle_gamma 90.000000
_cell_volume 1473.449135
_symmetry_space_group_name_H-M "P M M 2"
_symmetry_group_IT_number 25
_symmetry_cell_setting 'orthorhombic'
loop_
_space_group_symop_operation_xyz
x,y,z
-x,-y,z
-x,y,z
x,-y,z
loop_
_atom_site_type_symbol
_atom_site_label
_atom_site_fract_x
_atom_site_fract_y
_atom_site_fract_z
Si Si1 0.717647 0.294957 0.900580
Si Si2 0.400561 0.289057 0.087310
Si Si3 0.406333 0.783591 0.463232
Si Si4 0.722143 0.213820 0.285319
Si Si5 0.096204 0.783291 0.367243
Si Si6 0.864013 0.792782 0.603890
Si Si7 0.093743 0.706813 0.838649
Si Si8 0.665284 0.207077 0.672966
O O1 0.731120 0.500000 0.930290
O O2 0.815139 0.216285 0.883257
O O3 0.672283 0.291755 0.786616
O O4 0.653320 0.215628 0.987320
O O5 0.500000 0.219705 0.099722
O O6 0.409396 0.500000 0.072058
O O7 0.337415 0.262854 0.186796
O O8 0.500000 0.734180 0.417958
O O9 0.329063 0.723421 0.388903
O O10 0.397680 0.722330 0.583080
O O11 0.401908 0.000000 0.466728
O O12 0.822093 0.274649 0.296283
O O13 0.724196 0.000000 0.287577
O O14 0.109220 0.725300 0.489127
O O15 0.000000 0.729257 0.331380
O O16 0.098272 0.000000 0.369418
O O17 0.900720 0.713158 0.711421
O O18 0.760194 0.780272 0.618464
O O19 0.888180 0.000000 0.606595
O O20 0.092687 0.500000 0.867756
O O21 0.000000 0.785170 0.870469
O O22 0.646370 0.000000 0.691314
#
# Coordination Sequence:
#
# PCOD9337324 Si02
#       8
#     4   4   4   4   4   4   4   4
#     4   9  19  35  52  70  96 130 166 204 251 302
#     4  10  22  40  58  74  96 130 172 219 269 313
#     4   9  16  27  46  73 103 131 157 196 253 304
#     4  10  19  34  55  78 103 132 172 215 253 302
#     4   9  16  27  47  75 106 139 171 203 246 300
#     4   9  15  26  45  70 101 136 169 197 232 288
#     4   9  17  29  46  70  99 130 165 203 244 292
#     4   9  16  28  47  73 104 132 160 199 244 293
#
# _framework density 21.717751
#
# number of rings (size 3 to 8) (size 9 to 14) (size 15 to 20)
#    0.000    2.750    1.250    0.750    0.000    2.500 
#    0.000    1.875    0.000    2.625    0.000    0.000 
#    0.000    0.000    0.000    0.000    0.000    0.000 
#
# Total GULP energy -178403.286890 kJ/mol
# GULP energy per Si atom -5575.102715 kJ/mol
# Density = 2.166832 g / cm^3
# Si number density = 21.717751 Si / 1000 Ang^3
#
#
#
# Elastic Constant Matrix: (Units=GPa)
#
#
# Indices 1 2 3 4 5 6 
#
# 1 186.9727 14.6881 87.9517 0.0000 0.0000 0.0000
# 2 14.6881 47.9907 -1.4055 0.0000 0.0000 0.0000
# 3 87.9517 -1.4055 110.3177 0.0000 0.0000 0.0000
# 4 0.0000 0.0000 0.0000 17.0631 0.0000 0.0000
# 5 0.0000 0.0000 0.0000 0.0000 13.2992 0.0000
# 6 0.0000 0.0000 0.0000 0.0000 0.0000 7.2507
#
#
#
# Elastic Compliance Matrix: (Units=1/GPa)
#
#
# Indices 1 2 3 4 5 6 
#
# 1 0.008957 -0.002952 -0.007179 0.000000 0.000000 0.000000
# 2 -0.002952 0.021818 0.002631 0.000000 0.000000 0.000000
# 3 -0.007179 0.002631 0.014822 0.000000 0.000000 0.000000
# 4 0.000000 0.000000 0.000000 0.058606 0.000000 0.000000
# 5 0.000000 0.000000 0.000000 0.000000 0.075192 0.000000
# 6 0.000000 0.000000 0.000000 0.000000 0.000000 0.137918
#
#
# Mechanical properties :
#
#
# Convention : Reuss Voigt Hill
#
# Bulk Modulus (GPa) = 32.68174 60.86110 46.77142
# Shear Modulus (GPa) = 14.59810 23.79240 19.19525
#
# Velocity S-wave (km/s) = 2.59544 3.31347 2.97619
# Velocity P-wave (km/s) = 4.90539 6.53630 5.77867
#
# Compressibility (1/GPa) = 0.03059812
#
# Stress axis : x y z
#
# Youngs Moduli (GPa) = 111.64296 45.83404 67.46926
#
# Poissons Ratio (x) = 0.13529 0.48434
# Poissons Ratio (y) = 0.32953 -0.17753
# Poissons Ratio (z) = 0.80146 -0.12060
#
# Static dielectric constant tensor:
#      x y z
#    x 1.851200 0.000000 0.000000 
#    y 0.000000 1.838490 0.000000 
#    z 0.000000 0.000000 1.757970 
# 
# From -- ./inp_files/4223.got.cif
#   From: 2010.05.17/outbox.cif.g08.bks.cpg/sg25_3_cif.got.tgz:4223.got - 2010.06.04 01:04:00.
