data_PCOD9337378
_publ_section_title
;
Structure prediction by ZEFSAII (Michael W. Deem and Ramdas Pophale) SiO2 
 PCOD9337378
Probable space group: P M M 2
;
_chemical_formula_sum "Si O2"
_cell_formula_units_Z 32
_cell_length_a 14.293598
_cell_length_b 8.122713
_cell_length_c 14.718067
_cell_angle_alpha 90.000000
_cell_angle_beta 90.000000
_cell_angle_gamma 90.000000
_cell_volume 1708.808705
_symmetry_space_group_name_H-M "P M M 2"
_symmetry_group_IT_number 25
_symmetry_cell_setting 'orthorhombic'
loop_
_space_group_symop_operation_xyz
x,y,z
-x,-y,z
-x,y,z
x,-y,z
loop_
_atom_site_type_symbol
_atom_site_label
_atom_site_fract_x
_atom_site_fract_y
_atom_site_fract_z
Si Si1 0.111352 0.190314 0.962830
Si Si2 0.895842 0.802668 0.257756
Si Si3 0.894589 0.201530 0.468072
Si Si4 0.609852 0.700345 0.964320
Si Si5 0.756116 0.314334 0.108247
Si Si6 0.111341 0.688576 0.761931
Si Si7 0.757227 0.186043 0.617482
Si Si8 0.393232 0.302510 0.760628
O O1 0.134474 0.249822 0.862173
O O2 0.000000 0.198525 0.973294
O O3 0.139397 0.000000 0.977487
O O4 0.161779 0.305657 0.033840
O O5 0.884801 0.750505 0.362644
O O6 0.807173 0.758347 0.196241
O O7 0.000000 0.743338 0.225970
O O8 0.900967 0.000000 0.257204
O O9 0.807929 0.262810 0.529076
O O10 0.000000 0.252313 0.498593
O O11 0.893438 0.000000 0.472616
O O12 0.500000 0.737678 0.974333
O O13 0.619792 0.500000 0.964879
O O14 0.638508 0.756079 0.861923
O O15 0.670758 0.763057 0.049596
O O16 0.728904 0.500000 0.131278
O O17 0.144603 0.500000 0.749232
O O18 0.158279 0.805512 0.689429
O O19 0.000000 0.690261 0.752833
O O20 0.672244 0.259848 0.675723
O O21 0.730539 0.000000 0.594636
O O22 0.500000 0.243819 0.747325
O O23 0.395895 0.500000 0.766791
#
# Coordination Sequence:
#
# PCOD9337378 Si02
#       8
#     4   4   4   4   4   4   4   4
#     4  10  20  32  45  64  94 131 165 195 232 284
#     4   9  18  34  53  70  94 131 169 202 239 289
#     4   8  16  32  52  72  95 128 169 205 239 287
#     4   8  16  32  51  69  92 126 164 196 232 284
#     4  11  20  29  48  75  98 122 156 202 252 297
#     4  10  20  32  45  65  97 133 164 196 238 291
#     4  11  20  30  50  76  99 125 161 207 254 300
#     4   9  18  34  54  73  97 132 170 205 244 296
#
# _framework density 18.726497999999999
#
# number of rings (size 3 to 8) (size 9 to 14) (size 15 to 20)
#    0.000    2.500    0.000    4.500    0.000    5.000 
#    0.000    1.875    0.000    5.250    0.000    3.500 
#    0.000    0.000    0.000    0.000    0.000    0.000 
#
# Total GULP energy -178257.853963 kJ/mol
# GULP energy per Si atom -5570.557936 kJ/mol
# Density = 1.868388 g / cm^3
# Si number density = 18.726498 Si / 1000 Ang^3
#
#
#
# Elastic Constant Matrix: (Units=GPa)
#
#
# Indices 1 2 3 4 5 6 
#
# 1 107.0847 11.0047 62.6035 0.0000 0.0000 0.0000
# 2 11.0047 16.9440 -0.8540 0.0000 0.0000 0.0000
# 3 62.6035 -0.8540 96.1351 0.0000 0.0000 0.0000
# 4 0.0000 0.0000 0.0000 18.4967 0.0000 0.0000
# 5 0.0000 0.0000 0.0000 0.0000 34.7089 0.0000
# 6 0.0000 0.0000 0.0000 0.0000 0.0000 -9.4911
#
#
#
# Elastic Compliance Matrix: (Units=1/GPa)
#
#
# Indices 1 2 3 4 5 6 
#
# 1 0.017116 -0.011683 -0.011250 0.000000 0.000000 0.000000
# 2 -0.011683 0.067020 0.008204 0.000000 0.000000 0.000000
# 3 -0.011250 0.008204 0.017801 0.000000 0.000000 0.000000
# 4 0.000000 0.000000 0.000000 0.054064 0.000000 0.000000
# 5 0.000000 0.000000 0.000000 0.000000 0.028811 0.000000
# 6 0.000000 0.000000 0.000000 0.000000 0.000000 -0.105362
#
#
# Mechanical properties :
#
#
# Convention : Reuss Voigt Hill
#
# Bulk Modulus (GPa) = 13.79743 40.63023 27.21383
# Shear Modulus (GPa) = 37.57520 18.57021 28.07271
#
# Velocity S-wave (km/s) = 4.48429 3.15247 3.87601
# Velocity P-wave (km/s) = 5.84770 5.91562 5.88176
#
# Compressibility (1/GPa) = 0.07247729
#
# Stress axis : x y z
#
# Youngs Moduli (GPa) = 58.42563 14.92101 56.17760
#
# Poissons Ratio (x) = 0.17433 0.63198
# Poissons Ratio (y) = 0.68260 -0.46086
# Poissons Ratio (z) = 0.65727 -0.12241
#
# Static dielectric constant tensor:
#      x y z
#    x 1.669980 0.000000 0.000000 
#    y 0.000000 1.702400 0.000000 
#    z 0.000000 0.000000 1.660380 
# 
# From -- ./inp_files/5660.got.cif
#   From: 2010.05.17/outbox.cif.g08.bks.cpg/sg25_3_cif.got.tgz:5660.got - 2010.06.04 01:04:00.
