data_PCOD9337561
_publ_section_title
;
Structure prediction by ZEFSAII (Michael W. Deem and Ramdas Pophale) SiO2 
 PCOD9337561
Probable space group: P M M 2
;
_chemical_formula_sum "Si O2"
_cell_formula_units_Z 20
_cell_length_a 7.555866
_cell_length_b 9.468243
_cell_length_c 13.269188
_cell_angle_alpha 90.000000
_cell_angle_beta 90.000000
_cell_angle_gamma 90.000000
_cell_volume 949.287998
_symmetry_space_group_name_H-M "P M M 2"
_symmetry_group_IT_number 25
_symmetry_cell_setting 'orthorhombic'
loop_
_space_group_symop_operation_xyz
x,y,z
-x,-y,z
-x,y,z
x,-y,z
loop_
_atom_site_type_symbol
_atom_site_label
_atom_site_fract_x
_atom_site_fract_y
_atom_site_fract_z
Si Si1 0.787378 0.340104 0.493800
Si Si2 0.712256 0.160527 0.692930
Si Si3 0.212081 0.161105 0.305222
Si Si4 0.283111 0.337616 0.886420
Si Si5 0.712128 0.838802 0.078281
O O1 0.719625 0.500000 0.504468
O O2 0.749691 0.246041 0.591408
O O3 0.719926 0.261886 0.393381
O O4 0.000000 0.348619 0.484948
O O5 0.500000 0.152057 0.702742
O O6 0.776307 0.247066 0.790141
O O7 0.780568 0.000000 0.688896
O O8 0.248900 0.210632 0.191629
O O9 0.000000 0.154145 0.315875
O O10 0.280484 0.000000 0.315019
O O11 0.500000 0.337987 0.886089
O O12 0.226517 0.500000 0.880038
O O13 0.224150 0.262096 0.989347
O O14 0.500000 0.845620 0.068652
O O15 0.780052 0.000000 0.068052
#
# Coordination Sequence:
#
# PCOD9337561 Si02
#       5
#     4   4   4   4   4
#     4  10  21  36  53  74 102 135 169 207 254 304
#     4  10  20  34  54  78 102 131 169 210 251 298
#     4   9  18  33  51  70  96 131 167 203 247 297
#     4   9  17  30  49  73 101 131 162 200 249 299
#     4   9  17  30  49  72  97 126 163 205 245 290
#
# _framework density 21.068422999999999
#
# number of rings (size 3 to 8) (size 9 to 14) (size 15 to 20)
#    0.000    2.600    0.000    1.800    0.000    6.400 
#    0.000    3.000    0.000    3.600    0.000    0.000 
#    0.000    0.000    0.000    0.000    0.000    0.000 
#
# Total GULP energy -111698.131675 kJ/mol
# GULP energy per Si atom -5584.906584 kJ/mol
# Density = 2.102047 g / cm^3
# Si number density = 21.068423 Si / 1000 Ang^3
#
#
#
# Elastic Constant Matrix: (Units=GPa)
#
#
# Indices 1 2 3 4 5 6 
#
# 1 49.7333 6.9804 -1.3627 0.0000 0.0000 0.0000
# 2 6.9804 199.1881 157.3641 0.0000 0.0000 0.0000
# 3 -1.3627 157.3641 233.0159 0.0000 0.0000 0.0000
# 4 0.0000 0.0000 0.0000 97.9516 0.0000 0.0000
# 5 0.0000 0.0000 0.0000 0.0000 29.3902 0.0000
# 6 0.0000 0.0000 0.0000 0.0000 0.0000 14.1114
#
#
#
# Elastic Compliance Matrix: (Units=1/GPa)
#
#
# Indices 1 2 3 4 5 6 
#
# 1 0.020386 -0.001733 0.001290 0.000000 0.000000 0.000000
# 2 -0.001733 0.010910 -0.007378 0.000000 0.000000 0.000000
# 3 0.001290 -0.007378 0.009282 0.000000 0.000000 0.000000
# 4 0.000000 0.000000 0.000000 0.010209 0.000000 0.000000
# 5 0.000000 0.000000 0.000000 0.000000 0.034025 0.000000
# 6 0.000000 0.000000 0.000000 0.000000 0.000000 0.070865
#
#
# Mechanical properties :
#
#
# Convention : Reuss Voigt Hill
#
# Bulk Modulus (GPa) = 40.10524 89.76677 64.93601
# Shear Modulus (GPa) = 27.83482 49.55435 38.69459
#
# Velocity S-wave (km/s) = 3.63872 4.85507 4.29022
# Velocity P-wave (km/s) = 6.06059 8.60980 7.44512
#
# Compressibility (1/GPa) = 0.02493440
#
# Stress axis : x y z
#
# Youngs Moduli (GPa) = 49.05354 91.65920 107.73830
#
# Poissons Ratio (x) = 0.15889 -0.13897
# Poissons Ratio (y) = 0.08503 0.79490
# Poissons Ratio (z) = -0.06327 0.67627
#
# Static dielectric constant tensor:
#      x y z
#    x 1.803970 0.000000 0.000000 
#    y 0.000000 1.739140 0.000000 
#    z 0.000000 0.000000 1.713320 
# 
# From -- ./inp_files/3754.got.cif
#   From: 2010.05.17/outbox.cif.g08.bks.cpg/sg25_2_cif.got.tgz:3754.got - 2010.06.04 01:04:00.
