data_PCOD9337966
_publ_section_title
;
Structure prediction by ZEFSAII (Michael W. Deem and Ramdas Pophale) SiO2 
 PCOD9337966
Probable space group: P M C 21
;
_chemical_formula_sum "Si O2"
_cell_formula_units_Z 28
_cell_length_a 11.635665
_cell_length_b 7.249572
_cell_length_c 14.044992
_cell_angle_alpha 90.000000
_cell_angle_beta 90.000000
_cell_angle_gamma 90.000000
_cell_volume 1184.745513
_symmetry_space_group_name_H-M "P M C 21"
_symmetry_group_IT_number 26
_symmetry_cell_setting 'orthorhombic'
loop_
_space_group_symop_operation_xyz
x,y,z
-x,-y,1/2+z
-x,y,z
x,-y,1/2+z
loop_
_atom_site_type_symbol
_atom_site_label
_atom_site_fract_x
_atom_site_fract_y
_atom_site_fract_z
Si Si1 0.125226 0.935081 0.029120
Si Si2 0.621499 0.055710 0.599324
Si Si3 0.126008 0.115994 0.315984
Si Si4 0.124891 0.379065 0.993275
Si Si5 0.310030 0.797932 0.289724
Si Si6 0.626223 0.661854 0.502392
Si Si7 0.127544 0.521487 0.269359
O O1 0.248615 0.886044 0.071718
O O2 0.000000 0.899056 0.075837
O O3 0.122626 0.834843 0.927283
O O4 0.126489 0.156686 0.009039
O O5 0.500000 0.123763 0.553350
O O6 0.613515 0.110120 0.709318
O O7 0.623477 0.839435 0.571551
O O8 0.145831 0.302721 0.258320
O O9 0.000000 0.043472 0.290587
O O10 0.217723 0.958472 0.307386
O O11 0.253086 0.441171 0.024378
O O12 0.121782 0.424815 0.881398
O O13 0.000000 0.442668 0.032090
O O14 0.361069 0.734541 0.391768
O O15 0.240479 0.630427 0.240878
O O16 0.500000 0.570538 0.510419
O O17 0.000000 0.566817 0.232260
#
# Coordination Sequence:
#
# PCOD9337966 Si02
#       7
#     4   4   4   4   4   4   4
#     4   9  16  31  54  82 110 143 185 226 276 334
#     4  10  20  33  55  84 111 149 191 229 277 335
#     4  10  18  31  55  84 113 144 181 230 281 333
#     4   8  13  26  48  74 103 135 171 214 261 316
#     4  11  19  33  57  79 105 152 187 225 275 336
#     4   9  17  31  52  79 106 137 183 228 268 323
#     4   9  17  29  51  82 111 140 179 226 277 329
#
# _framework density 23.633768
#
# number of rings (size 3 to 8) (size 9 to 14) (size 15 to 20)
#    0.000    2.571    4.286    0.857    0.000    1.143 
#    0.000    0.000    9.429   12.857    0.000    0.000 
#    0.000    0.000    0.000    0.000    0.000    0.000 
#
# Total GULP energy -155905.139997 kJ/mol
# GULP energy per Si atom -5568.040714 kJ/mol
# Density = 2.357998 g / cm^3
# Si number density = 23.633768 Si / 1000 Ang^3
#
#
#
# Elastic Constant Matrix: (Units=GPa)
#
#
# Indices 1 2 3 4 5 6 
#
# 1 247.6948 16.5924 19.0811 0.0000 0.0000 0.0000
# 2 16.5924 46.3541 8.7039 0.0000 0.0000 0.0000
# 3 19.0811 8.7039 66.2733 0.0000 0.0000 0.0000
# 4 0.0000 0.0000 0.0000 20.0539 0.0000 0.0000
# 5 0.0000 0.0000 0.0000 0.0000 -2.0405 0.0000
# 6 0.0000 0.0000 0.0000 0.0000 0.0000 -21.5972
#
#
#
# Elastic Compliance Matrix: (Units=1/GPa)
#
#
# Indices 1 2 3 4 5 6 
#
# 1 0.004205 -0.001310 -0.001039 0.000000 0.000000 0.000000
# 2 -0.001310 0.022527 -0.002581 0.000000 0.000000 0.000000
# 3 -0.001039 -0.002581 0.015727 0.000000 0.000000 0.000000
# 4 0.000000 0.000000 0.000000 0.049866 0.000000 0.000000
# 5 0.000000 0.000000 0.000000 0.000000 -0.490064 0.000000
# 6 0.000000 0.000000 0.000000 0.000000 0.000000 -0.046302
#
#
# Mechanical properties :
#
#
# Convention : Reuss Voigt Hill
#
# Bulk Modulus (GPa) = 30.67611 49.89746 40.28678
# Shear Modulus (GPa) = -11.81152 20.34620 4.26734
#
# Velocity S-wave (km/s) = -2.23799 2.93728 1.34519
# Velocity P-wave (km/s) = 2.51592 5.71508 4.41543
#
# Compressibility (1/GPa) = 0.03259866
#
# Stress axis : x y z
#
# Youngs Moduli (GPa) = 237.81207 44.39167 63.58457
#
# Poissons Ratio (x) = 0.05816 0.06604
# Poissons Ratio (y) = 0.31157 0.16413
# Poissons Ratio (z) = 0.24700 0.11459
#
# Static dielectric constant tensor:
#      x y z
#    x 2.019530 0.000000 0.000000 
#    y 0.000000 1.868680 0.000000 
#    z 0.000000 0.000000 1.954710 
# 
# From -- ./inp_files/5167.got.cif
#   From: 2010.05.17/outbox.cif.g08.bks.cpg/sg26_3_cif.got.tgz:5167.got - 2010.06.04 01:07:29.
