data_PCOD9337256
_publ_section_title
;
Structure prediction by ZEFSAII (Michael W. Deem and Ramdas Pophale) SiO2 
 PCOD9337256
Probable space group: P M M 2
;
_chemical_formula_sum "Si O2"
_cell_formula_units_Z 32
_cell_length_a 8.691431
_cell_length_b 14.127504
_cell_length_c 14.569193
_cell_angle_alpha 90.000000
_cell_angle_beta 90.000000
_cell_angle_gamma 90.000000
_cell_volume 1788.925366
_symmetry_space_group_name_H-M "P M M 2"
_symmetry_group_IT_number 25
_symmetry_cell_setting 'orthorhombic'
loop_
_space_group_symop_operation_xyz
x,y,z
-x,-y,z
-x,y,z
x,-y,z
loop_
_atom_site_type_symbol
_atom_site_label
_atom_site_fract_x
_atom_site_fract_y
_atom_site_fract_z
Si Si1 0.315683 0.392647 0.273260
Si Si2 0.171690 0.612673 0.603151
Si Si3 0.814332 0.110661 0.762558
Si Si4 0.331090 0.612777 0.782128
Si Si5 0.813413 0.392962 0.068211
Si Si6 0.316748 0.888597 0.563149
Si Si7 0.822586 0.257573 0.912417
Si Si8 0.820123 0.739069 0.426777
O O1 0.500000 0.389562 0.268421
O O2 0.272056 0.500000 0.306051
O O3 0.245682 0.382647 0.171676
O O4 0.257219 0.308866 0.338673
O O5 0.175658 0.500000 0.593509
O O6 0.298367 0.639625 0.677353
O O7 0.194215 0.660469 0.506283
O O8 0.000000 0.639353 0.636887
O O9 0.753191 0.141219 0.662211
O O10 0.757424 0.171750 0.850130
O O11 0.000000 0.119184 0.759917
O O12 0.774318 0.000000 0.774016
O O13 0.500000 0.646349 0.812313
O O14 0.328148 0.500000 0.787751
O O15 0.196230 0.655510 0.842277
O O16 0.766679 0.500000 0.036365
O O17 0.000000 0.391162 0.066752
O O18 0.756771 0.305760 0.004780
O O19 0.500000 0.877442 0.567578
O O20 0.252801 0.830112 0.476727
O O21 0.279928 0.000000 0.552690
O O22 0.000000 0.233637 0.931321
O O23 0.000000 0.756433 0.408341
#
# Coordination Sequence:
#
# PCOD9337256 Si02
#       8
#     4   4   4   4   4   4   4   4
#     4  10  21  36  54  77 105 136 170 210 257 309
#     4   9  18  31  45  64  94 130 163 195 236 290
#     4   9  18  33  52  75 104 136 171 212 256 303
#     4  10  20  30  41  63  96 130 161 196 240 291
#     4   9  18  33  52  73  98 130 170 214 257 304
#     4  10  21  36  53  75 105 139 174 214 260 309
#     4  10  19  31  50  73  96 128 169 209 252 301
#     4  11  21  33  53  77 100 130 170 213 256 305
#
# _framework density 17.887834999999999
#
# number of rings (size 3 to 8) (size 9 to 14) (size 15 to 20)
#    0.000    2.250    0.000    3.000    0.000    8.250 
#    0.000    2.500    0.000    0.750    0.000    1.750 
#    0.000    0.000    0.000    0.000    0.000    0.000 
#
# Total GULP energy -178308.142966 kJ/mol
# GULP energy per Si atom -5572.129468 kJ/mol
# Density = 1.784712 g / cm^3
# Si number density = 17.887835 Si / 1000 Ang^3
#
#
#
# Elastic Constant Matrix: (Units=GPa)
#
#
# Indices 1 2 3 4 5 6 
#
# 1 16.6875 22.5129 20.8682 0.0000 0.0000 0.0000
# 2 22.5129 94.5706 59.1411 0.0000 0.0000 0.0000
# 3 20.8682 59.1411 83.9587 0.0000 0.0000 0.0000
# 4 0.0000 0.0000 0.0000 36.3268 0.0000 0.0000
# 5 0.0000 0.0000 0.0000 0.0000 -5.8122 0.0000
# 6 0.0000 0.0000 0.0000 0.0000 0.0000 16.1721
#
#
#
# Elastic Compliance Matrix: (Units=1/GPa)
#
#
# Indices 1 2 3 4 5 6 
#
# 1 0.096647 -0.014272 -0.013969 0.000000 0.000000 0.000000
# 2 -0.014272 0.021007 -0.011250 0.000000 0.000000 0.000000
# 3 -0.013969 -0.011250 0.023307 0.000000 0.000000 0.000000
# 4 0.000000 0.000000 0.000000 0.027528 0.000000 0.000000
# 5 0.000000 0.000000 0.000000 0.000000 -0.172052 0.000000
# 6 0.000000 0.000000 0.000000 0.000000 0.000000 0.061835
#
#
# Mechanical properties :
#
#
# Convention : Reuss Voigt Hill
#
# Bulk Modulus (GPa) = 16.13422 44.47345 30.30383
# Shear Modulus (GPa) = 31.66294 15.51701 23.58998
#
# Velocity S-wave (km/s) = 4.21180 2.94847 3.63543
# Velocity P-wave (km/s) = 5.71765 6.04215 5.88214
#
# Compressibility (1/GPa) = 0.06198007
#
# Stress axis : x y z
#
# Youngs Moduli (GPa) = 10.34691 47.60322 42.90483
#
# Poissons Ratio (x) = 0.67937 0.59934
# Poissons Ratio (y) = 0.14767 0.48269
# Poissons Ratio (z) = 0.14454 0.53555
#
# Static dielectric constant tensor:
#      x y z
#    x 1.640200 0.000000 0.000000 
#    y 0.000000 1.639610 0.000000 
#    z 0.000000 0.000000 1.603000 
# 
# From -- ./inp_files/4294.got.cif
#   From: 2010.05.17/outbox.cif.g08.bks.cpg/sg25_3_cif.got.tgz:4294.got - 2010.06.04 01:04:00.
