data_PCOD9337851
_publ_section_title
;
Structure prediction by ZEFSAII (Michael W. Deem and Ramdas Pophale) SiO2 
 PCOD9337851
Probable space group: P M M 2
;
_chemical_formula_sum "Si O2"
_cell_formula_units_Z 32
_cell_length_a 7.468762
_cell_length_b 9.823319
_cell_length_c 21.621575
_cell_angle_alpha 90.000000
_cell_angle_beta 90.000000
_cell_angle_gamma 90.000000
_cell_volume 1586.332399
_symmetry_space_group_name_H-M "P M M 2"
_symmetry_group_IT_number 25
_symmetry_cell_setting 'orthorhombic'
loop_
_space_group_symop_operation_xyz
x,y,z
-x,-y,z
-x,y,z
x,-y,z
loop_
_atom_site_type_symbol
_atom_site_label
_atom_site_fract_x
_atom_site_fract_y
_atom_site_fract_z
Si Si1 0.713977 0.153553 0.595020
Si Si2 0.780569 0.843061 0.228296
Si Si3 0.281724 0.841752 0.731839
Si Si4 0.781832 0.657372 0.342208
Si Si5 0.788619 0.344303 0.116293
Si Si6 0.284942 0.342210 0.980243
Si Si7 0.214040 0.652808 0.480443
Si Si8 0.281347 0.341316 0.845312
O O1 0.500000 0.144858 0.600197
O O2 0.776985 0.201991 0.662853
O O3 0.749566 0.248407 0.537018
O O4 0.782317 0.000000 0.584885
O O5 0.723347 0.761384 0.289569
O O6 0.719130 0.756382 0.168842
O O7 0.000000 0.844479 0.227953
O O8 0.723076 0.000000 0.227384
O O9 0.500000 0.837092 0.733107
O O10 0.218514 0.747994 0.787840
O O11 0.231622 0.000000 0.739832
O O12 0.729027 0.500000 0.330108
O O13 0.722784 0.694791 0.411862
O O14 0.000000 0.658425 0.341207
O O15 0.714877 0.500000 0.118671
O O16 0.768007 0.285898 0.046900
O O17 0.000000 0.356669 0.127669
O O18 0.500000 0.341549 0.979349
O O19 0.224540 0.500000 0.981334
O O20 0.225287 0.287787 0.913388
O O21 0.281734 0.500000 0.492914
O O22 0.000000 0.644800 0.475458
O O23 0.500000 0.339497 0.844698
O O24 0.229492 0.500000 0.839604
#
# Coordination Sequence:
#
# PCOD9337851 Si02
#       8
#     4   4   4   4   4   4   4   4
#     4   9  18  31  46  66  92 121 152 184 219 263
#     4   9  16  25  39  61  86 109 136 172 210 246
#     4   8  14  25  40  59  84 111 140 176 213 248
#     4   8  14  26  43  62  85 111 139 174 213 251
#     4   9  16  26  42  62  82 107 138 169 203 245
#     4   8  14  25  41  61  84 108 135 169 207 247
#     4   9  18  31  47  69  94 117 145 184 226 266
#     4   8  13  22  38  59  79 101 135 176 211 244
#
# _framework density 20.172317
#
# number of rings (size 3 to 8) (size 9 to 14) (size 15 to 20)
#    0.000    3.500    0.000    2.625    0.000    3.000 
#    0.000    3.125    0.000    2.625    0.000    3.500 
#    0.000    0.000    0.000    0.000    0.000    0.000 
#
# Total GULP energy -178287.646142 kJ/mol
# GULP energy per Si atom -5571.488942 kJ/mol
# Density = 2.012640 g / cm^3
# Si number density = 20.172317 Si / 1000 Ang^3
#
#
#
# Elastic Constant Matrix: (Units=GPa)
#
#
# Indices 1 2 3 4 5 6 
#
# 1 54.1506 4.0796 5.0251 0.0000 0.0000 0.0000
# 2 4.0796 106.8650 131.6701 0.0000 0.0000 0.0000
# 3 5.0251 131.6701 249.1026 0.0000 0.0000 0.0000
# 4 0.0000 0.0000 0.0000 -27.2542 0.0000 0.0000
# 5 0.0000 0.0000 0.0000 0.0000 17.8309 0.0000
# 6 0.0000 0.0000 0.0000 0.0000 0.0000 3.1599
#
#
#
# Elastic Compliance Matrix: (Units=1/GPa)
#
#
# Indices 1 2 3 4 5 6 
#
# 1 0.018520 -0.000707 0.000000 0.000000 0.000000 0.000000
# 2 -0.000707 0.026860 -0.014184 0.000000 0.000000 0.000000
# 3 0.000000 -0.014184 0.011511 0.000000 0.000000 0.000000
# 4 0.000000 0.000000 0.000000 -0.036692 0.000000 0.000000
# 5 0.000000 0.000000 0.000000 0.000000 0.056082 0.000000
# 6 0.000000 0.000000 0.000000 0.000000 0.000000 0.316470
#
#
# Mechanical properties :
#
#
# Convention : Reuss Voigt Hill
#
# Bulk Modulus (GPa) = 36.88551 76.85200 56.86875
# Shear Modulus (GPa) = 11.58558 16.70354 14.14456
#
# Velocity S-wave (km/s) = 2.39912 2.88069 2.65087
# Velocity P-wave (km/s) = 5.09895 7.01748 6.13369
#
# Compressibility (1/GPa) = 0.02711092
#
# Stress axis : x y z
#
# Youngs Moduli (GPa) = 53.99485 37.22960 86.86967
#
# Poissons Ratio (x) = 0.02634 -0.00003
# Poissons Ratio (y) = 0.03820 1.23212
# Poissons Ratio (z) = -0.00002 0.52805
#
# Static dielectric constant tensor:
#      x y z
#    x 1.794400 0.000000 0.000000 
#    y 0.000000 1.686660 0.000000 
#    z 0.000000 0.000000 1.731490 
# 
# From -- ./inp_files/6288.got.cif
#   From: 2010.05.17/outbox.cif.g08.bks.cpg/sg25_4_cif.got.tgz:6288.got - 2010.06.04 01:04:00.
