data_PCOD9337915
_publ_section_title
;
Structure prediction by ZEFSAII (Michael W. Deem and Ramdas Pophale) SiO2 
 PCOD9337915
Probable space group: P M C 21
;
_chemical_formula_sum "Si O2"
_cell_formula_units_Z 32
_cell_length_a 7.581696
_cell_length_b 12.317658
_cell_length_c 15.929497
_cell_angle_alpha 90.000000
_cell_angle_beta 90.000000
_cell_angle_gamma 90.000000
_cell_volume 1487.635628
_symmetry_space_group_name_H-M "P M C 21"
_symmetry_group_IT_number 26
_symmetry_cell_setting 'orthorhombic'
loop_
_space_group_symop_operation_xyz
x,y,z
-x,-y,1/2+z
-x,y,z
x,-y,1/2+z
loop_
_atom_site_type_symbol
_atom_site_label
_atom_site_fract_x
_atom_site_fract_y
_atom_site_fract_z
Si Si1 0.702381 0.615292 0.949810
Si Si2 0.715303 0.003775 0.858999
Si Si3 0.713134 0.005929 0.554019
Si Si4 0.283912 0.767032 0.801376
Si Si5 0.712162 0.236145 0.795847
Si Si6 0.799395 0.248502 0.606085
Si Si7 0.716462 0.371145 0.958044
Si Si8 0.284637 0.772601 0.615801
O O1 0.500000 0.596254 0.923766
O O2 0.780440 0.689206 0.875708
O O3 0.778207 0.495344 0.961473
O O4 0.698602 0.683512 0.035661
O O5 0.500000 0.005042 0.857056
O O6 0.775770 0.113251 0.813484
O O7 0.772265 0.890866 0.818351
O O8 0.767021 0.003726 0.956731
O O9 0.500000 0.007612 0.556015
O O10 0.771468 0.120091 0.591893
O O11 0.771122 0.897333 0.601474
O O12 0.500000 0.768561 0.804337
O O13 0.231007 0.733349 0.707879
O O14 0.500000 0.232918 0.800080
O O15 0.758407 0.273588 0.702601
O O16 0.771791 0.312988 0.871748
O O17 0.000000 0.275411 0.588840
O O18 0.500000 0.369004 0.960161
O O19 0.774285 0.301501 0.038533
O O20 0.500000 0.773058 0.614201
#
# Coordination Sequence:
#
# PCOD9337915 Si02
#       8
#     4   4   4   4   4   4   4   4
#     4  10  20  36  57  80 110 147 187 233 279 324
#     4   9  15  27  53  84 108 137 176 218 276 339
#     4  10  17  32  59  83 108 143 179 225 282 336
#     4   9  16  26  46  77 108 138 172 213 266 326
#     4  10  19  35  59  86 113 143 181 231 284 337
#     4  12  25  38  53  79 114 154 194 231 272 327
#     4   9  18  32  55  87 114 138 178 232 281 327
#     4   9  16  28  52  86 115 134 167 223 284 340
#
# _framework density 21.510643000000002
#
# number of rings (size 3 to 8) (size 9 to 14) (size 15 to 20)
#    0.000    2.250    2.500    1.875    0.000    3.000 
#    0.000    5.000    0.000    0.750    0.000    0.000 
#    0.000    0.000    0.000    0.000    0.000    0.000 
#
# Total GULP energy -178741.268148 kJ/mol
# GULP energy per Si atom -5585.664630 kJ/mol
# Density = 2.146168 g / cm^3
# Si number density = 21.510643 Si / 1000 Ang^3
#
#
#
# Elastic Constant Matrix: (Units=GPa)
#
#
# Indices 1 2 3 4 5 6 
#
# 1 46.6161 -0.0275 -2.8825 0.0000 0.0000 0.0000
# 2 -0.0275 137.2641 51.0639 0.0000 0.0000 0.0000
# 3 -2.8825 51.0639 138.5983 0.0000 0.0000 0.0000
# 4 0.0000 0.0000 0.0000 1.2194 0.0000 0.0000
# 5 0.0000 0.0000 0.0000 0.0000 -30.2483 0.0000
# 6 0.0000 0.0000 0.0000 0.0000 0.0000 -44.7439
#
#
#
# Elastic Compliance Matrix: (Units=1/GPa)
#
#
# Indices 1 2 3 4 5 6 
#
# 1 0.021484 -0.000188 0.000516 0.000000 0.000000 0.000000
# 2 -0.000188 0.008444 -0.003115 0.000000 0.000000 0.000000
# 3 0.000516 -0.003115 0.008373 0.000000 0.000000 0.000000
# 4 0.000000 0.000000 0.000000 0.820048 0.000000 0.000000
# 5 0.000000 0.000000 0.000000 0.000000 -0.033060 0.000000
# 6 0.000000 0.000000 0.000000 0.000000 0.000000 -0.022349
#
#
# Mechanical properties :
#
#
# Convention : Reuss Voigt Hill
#
# Bulk Modulus (GPa) = 30.55504 46.53180 38.54342
# Shear Modulus (GPa) = 6.10186 3.53376 4.81781
#
# Velocity S-wave (km/s) = 1.68607 1.28311 1.49820
# Velocity P-wave (km/s) = 4.24569 4.88611 4.57712
#
# Compressibility (1/GPa) = 0.03272782
#
# Stress axis : x y z
#
# Youngs Moduli (GPa) = 46.54711 118.42767 119.42497
#
# Poissons Ratio (x) = 0.02222 -0.06162
# Poissons Ratio (y) = 0.00873 0.37200
# Poissons Ratio (z) = -0.02402 0.36889
#
# Static dielectric constant tensor:
#      x y z
#    x 1.810270 0.000000 0.000000 
#    y 0.000000 1.749400 0.000000 
#    z 0.000000 0.000000 1.760250 
# 
# From -- ./inp_files/4290.got.cif
#   From: 2010.05.17/outbox.cif.g08.bks.cpg/sg26_3_cif.got.tgz:4290.got - 2010.06.04 01:07:29.
