data_PCOD9337107
_publ_section_title
;
Structure prediction by ZEFSAII (Michael W. Deem and Ramdas Pophale) SiO2 
 PCOD9337107
Probable space group: P M M 2
;
_chemical_formula_sum "Si O2"
_cell_formula_units_Z 32
_cell_length_a 14.827187
_cell_length_b 7.681012
_cell_length_c 16.292409
_cell_angle_alpha 90.000000
_cell_angle_beta 90.000000
_cell_angle_gamma 90.000000
_cell_volume 1855.506638
_symmetry_space_group_name_H-M "P M M 2"
_symmetry_group_IT_number 25
_symmetry_cell_setting 'orthorhombic'
loop_
_space_group_symop_operation_xyz
x,y,z
-x,-y,z
-x,y,z
x,-y,z
loop_
_atom_site_type_symbol
_atom_site_label
_atom_site_fract_x
_atom_site_fract_y
_atom_site_fract_z
Si Si1 0.100791 0.787187 0.581060
Si Si2 0.603315 0.289876 0.489329
Si Si3 0.100205 0.209716 0.391162
Si Si4 0.708644 0.706904 0.328547
Si Si5 0.397896 0.291970 0.812218
Si Si6 0.604850 0.286360 0.168652
Si Si7 0.285124 0.206099 0.652749
Si Si8 0.609707 0.298415 0.989519
O O1 0.114703 0.734224 0.485940
O O2 0.184803 0.723438 0.634402
O O3 0.000000 0.732606 0.606222
O O4 0.101300 0.000000 0.581595
O O5 0.500000 0.227568 0.488585
O O6 0.600914 0.500000 0.484731
O O7 0.658896 0.223789 0.410362
O O8 0.653310 0.245593 0.573689
O O9 0.184931 0.265456 0.337729
O O10 0.000000 0.269337 0.365762
O O11 0.099134 0.000000 0.391719
O O12 0.692335 0.500000 0.328118
O O13 0.665043 0.774405 0.244576
O O14 0.500000 0.226683 0.795074
O O15 0.405228 0.500000 0.822991
O O16 0.333090 0.264039 0.735803
O O17 0.365212 0.221272 0.900844
O O18 0.500000 0.238776 0.181797
O O19 0.606794 0.500000 0.165954
O O20 0.635070 0.223185 0.078269
O O21 0.276791 0.000000 0.658456
O O22 0.500000 0.299017 0.989283
O O23 0.640143 0.500000 0.990413
#
# Coordination Sequence:
#
# PCOD9337107 Si02
#       8
#     4   4   4   4   4   4   4   4
#     4   8  15  29  46  60  76 103 140 179 215 251
#     4  10  20  31  40  55  87 125 148 163 197 250
#     4   9  17  31  48  61  79 112 148 179 215 258
#     4  10  18  27  43  67  90 111 140 180 217 244
#     4   9  17  29  44  62  87 117 144 172 210 255
#     4   8  13  23  41  65  90 114 143 176 208 248
#     4  11  20  29  44  64  83 108 145 183 213 246
#     4   7  11  22  41  62  82 109 145 177 204 244
#
# _framework density 17.245961999999999
#
# number of rings (size 3 to 8) (size 9 to 14) (size 15 to 20)
#    0.000    3.000    1.250    3.375    0.000    3.750 
#    0.000    0.000    0.000    3.375    0.000    2.625 
#    0.000    5.000    0.000    0.000    0.000    0.000 
#
# Total GULP energy -178267.907664 kJ/mol
# GULP energy per Si atom -5570.872114 kJ/mol
# Density = 1.720671 g / cm^3
# Si number density = 17.245962 Si / 1000 Ang^3
#
#
#
# Elastic Constant Matrix: (Units=GPa)
#
#
# Indices 1 2 3 4 5 6 
#
# 1 120.9744 -0.2775 90.7365 0.0000 0.0000 0.0000
# 2 -0.2775 28.0398 6.0674 0.0000 0.0000 0.0000
# 3 90.7365 6.0674 171.3028 0.0000 0.0000 0.0000
# 4 0.0000 0.0000 0.0000 -15.1956 0.0000 0.0000
# 5 0.0000 0.0000 0.0000 0.0000 8.6795 0.0000
# 6 0.0000 0.0000 0.0000 0.0000 0.0000 16.1914
#
#
#
# Elastic Compliance Matrix: (Units=1/GPa)
#
#
# Indices 1 2 3 4 5 6 
#
# 1 0.013798 0.001731 -0.007370 0.000000 0.000000 0.000000
# 2 0.001731 0.036156 -0.002198 0.000000 0.000000 0.000000
# 3 -0.007370 -0.002198 0.009819 0.000000 0.000000 0.000000
# 4 0.000000 0.000000 0.000000 -0.065809 0.000000 0.000000
# 5 0.000000 0.000000 0.000000 0.000000 0.115214 0.000000
# 6 0.000000 0.000000 0.000000 0.000000 0.000000 0.061761
#
#
# Mechanical properties :
#
#
# Convention : Reuss Voigt Hill
#
# Bulk Modulus (GPa) = 22.67533 57.04111 39.85822
# Shear Modulus (GPa) = 24.83697 16.85444 20.84570
#
# Velocity S-wave (km/s) = 3.79906 3.12957 3.48045
# Velocity P-wave (km/s) = 5.69391 6.79748 6.27002
#
# Compressibility (1/GPa) = 0.04410078
#
# Stress axis : x y z
#
# Youngs Moduli (GPa) = 72.47460 27.65777 101.84163
#
# Poissons Ratio (x) = -0.04788 0.75056
# Poissons Ratio (y) = -0.12547 0.22381
# Poissons Ratio (z) = 0.53413 0.06078
#
# Static dielectric constant tensor:
#      x y z
#    x 1.589940 0.000000 0.000000 
#    y 0.000000 1.652760 0.000000 
#    z 0.000000 0.000000 1.617260 
# 
# From -- ./inp_files/5725.got.cif
#   From: 2010.05.17/outbox.cif.g08.bks.cpg/sg25_3_cif.got.tgz:5725.got - 2010.06.04 01:04:00.
