data_PCOD9337262
_publ_section_title
;
Structure prediction by ZEFSAII (Michael W. Deem and Ramdas Pophale) SiO2 
 PCOD9337262
Probable space group: P M M 2
;
_chemical_formula_sum "Si O2"
_cell_formula_units_Z 32
_cell_length_a 8.900068
_cell_length_b 15.027993
_cell_length_c 12.796599
_cell_angle_alpha 90.000000
_cell_angle_beta 90.000000
_cell_angle_gamma 90.000000
_cell_volume 1711.547159
_symmetry_space_group_name_H-M "P M M 2"
_symmetry_group_IT_number 25
_symmetry_cell_setting 'orthorhombic'
loop_
_space_group_symop_operation_xyz
x,y,z
-x,-y,z
-x,y,z
x,-y,z
loop_
_atom_site_type_symbol
_atom_site_label
_atom_site_fract_x
_atom_site_fract_y
_atom_site_fract_z
Si Si1 0.327273 0.136779 0.527900
Si Si2 0.328818 0.343261 0.466091
Si Si3 0.179443 0.405119 0.666725
Si Si4 0.179873 0.901203 0.306912
Si Si5 0.181729 0.720290 0.849992
Si Si6 0.180677 0.900325 0.752691
Si Si7 0.681429 0.604185 0.036271
Si Si8 0.681850 0.716552 0.242098
O O1 0.500000 0.105993 0.524920
O O2 0.329205 0.242900 0.510926
O O3 0.237873 0.102078 0.426836
O O4 0.253417 0.113923 0.638609
O O5 0.500000 0.376394 0.463103
O O6 0.234818 0.397201 0.549175
O O7 0.270640 0.334064 0.348375
O O8 0.228756 0.500000 0.711996
O O9 0.230597 0.326689 0.741846
O O10 0.000000 0.402007 0.666299
O O11 0.250780 0.816151 0.247939
O O12 0.000000 0.892233 0.306102
O O13 0.218940 0.000000 0.264908
O O14 0.225581 0.823234 0.834066
O O15 0.000000 0.715763 0.859230
O O16 0.251780 0.663001 0.942634
O O17 0.000000 0.893183 0.739313
O O18 0.216579 0.000000 0.788797
O O19 0.500000 0.604157 0.029122
O O20 0.729888 0.500000 0.035159
O O21 0.721885 0.656813 0.142686
O O22 0.500000 0.725183 0.247145
#
# Coordination Sequence:
#
# PCOD9337262 Si02
#       8
#     4   4   4   4   4   4   4   4
#     4  10  19  31  50  78 113 152 190 228 270 323
#     4   9  18  32  51  77 109 144 179 217 269 329
#     4  10  20  33  51  77 108 143 180 220 274 335
#     4  10  20  33  52  81 116 153 191 228 269 324
#     4  10  21  38  58  80 112 148 184 232 283 333
#     4  10  20  34  54  80 110 148 190 229 276 331
#     4  10  22  41  64  86 108 140 186 238 287 338
#     4   9  20  38  58  82 111 144 184 233 285 332
#
# _framework density 18.696534
#
# number of rings (size 3 to 8) (size 9 to 14) (size 15 to 20)
#    0.000    2.250    1.250    2.250    0.000    7.750 
#    0.000    1.875    0.000    2.250    0.000    0.000 
#    0.000    0.000    0.000    0.000    0.000    0.000 
#
# Total GULP energy -178423.687940 kJ/mol
# GULP energy per Si atom -5575.740248 kJ/mol
# Density = 1.865398 g / cm^3
# Si number density = 18.696534 Si / 1000 Ang^3
#
#
#
# Elastic Constant Matrix: (Units=GPa)
#
#
# Indices 1 2 3 4 5 6 
#
# 1 18.9226 36.3994 25.4914 0.0000 0.0000 0.0000
# 2 36.3994 151.7704 79.4908 0.0000 0.0000 0.0000
# 3 25.4914 79.4908 116.7340 0.0000 0.0000 0.0000
# 4 0.0000 0.0000 0.0000 16.9835 0.0000 0.0000
# 5 0.0000 0.0000 0.0000 0.0000 -1.9229 0.0000
# 6 0.0000 0.0000 0.0000 0.0000 0.0000 -10.0994
#
#
#
# Elastic Compliance Matrix: (Units=1/GPa)
#
#
# Indices 1 2 3 4 5 6 
#
# 1 0.103704 -0.020223 -0.008875 0.000000 0.000000 0.000000
# 2 -0.020223 0.014185 -0.005243 0.000000 0.000000 0.000000
# 3 -0.008875 -0.005243 0.014075 0.000000 0.000000 0.000000
# 4 0.000000 0.000000 0.000000 0.058881 0.000000 0.000000
# 5 0.000000 0.000000 0.000000 0.000000 -0.520054 0.000000
# 6 0.000000 0.000000 0.000000 0.000000 0.000000 -0.099016
#
#
# Mechanical properties :
#
#
# Convention : Reuss Voigt Hill
#
# Bulk Modulus (GPa) = 15.80242 63.35444 39.57843
# Shear Modulus (GPa) = -14.77335 10.72860 -2.02237
#
# Velocity S-wave (km/s) = -2.81404 2.39807 -1.04117
# Velocity P-wave (km/s) = 1.44499 6.45189 4.44628
#
# Compressibility (1/GPa) = 0.06328144
#
# Stress axis : x y z
#
# Youngs Moduli (GPa) = 9.64281 70.49501 71.04775
#
# Poissons Ratio (x) = 1.42565 0.63053
# Poissons Ratio (y) = 0.19501 0.37253
# Poissons Ratio (z) = 0.08558 0.36964
#
# Static dielectric constant tensor:
#      x y z
#    x 1.639730 0.000000 0.000000 
#    y 0.000000 1.690510 0.000000 
#    z 0.000000 0.000000 1.620260 
# 
# From -- ./inp_files/4257.got.cif
#   From: 2010.05.17/outbox.cif.g08.bks.cpg/sg25_3_cif.got.tgz:4257.got - 2010.06.04 01:04:00.
