data_PCOD9337210
_publ_section_title
;
Structure prediction by ZEFSAII (Michael W. Deem and Ramdas Pophale) SiO2 
 PCOD9337210
Probable space group: P M M 2
;
_chemical_formula_sum "Si O2"
_cell_formula_units_Z 28
_cell_length_a 15.095579
_cell_length_b 7.596571
_cell_length_c 13.140131
_cell_angle_alpha 90.000000
_cell_angle_beta 90.000000
_cell_angle_gamma 90.000000
_cell_volume 1506.839761
_symmetry_space_group_name_H-M "P M M 2"
_symmetry_group_IT_number 25
_symmetry_cell_setting 'orthorhombic'
loop_
_space_group_symop_operation_xyz
x,y,z
-x,-y,z
-x,y,z
x,-y,z
loop_
_atom_site_type_symbol
_atom_site_label
_atom_site_fract_x
_atom_site_fract_y
_atom_site_fract_z
Si Si1 0.400303 0.207841 0.485480
Si Si2 0.097796 0.290536 0.356025
Si Si3 0.902087 0.787324 0.595075
Si Si4 0.285218 0.292823 0.290090
Si Si5 0.600462 0.787738 0.095823
Si Si6 0.283356 0.216081 0.675512
Si Si7 0.398630 0.785360 0.865214
O O1 0.500000 0.281451 0.480840
O O2 0.348933 0.224752 0.379331
O O3 0.341168 0.276875 0.578576
O O4 0.408514 0.000000 0.505249
O O5 0.093915 0.500000 0.337134
O O6 0.110616 0.263121 0.476941
O O7 0.185599 0.218907 0.301350
O O8 0.000000 0.217821 0.329732
O O9 0.817764 0.726210 0.659146
O O10 0.000000 0.724922 0.626693
O O11 0.902747 0.000000 0.598711
O O12 0.278671 0.500000 0.308566
O O13 0.330355 0.264797 0.181488
O O14 0.500000 0.727903 0.120884
O O15 0.598319 0.000000 0.094389
O O16 0.621526 0.728839 0.980764
O O17 0.330639 0.273415 0.779135
O O18 0.282944 0.000000 0.675305
O O19 0.500000 0.733274 0.841081
O O20 0.397706 0.000000 0.864970
#
# Coordination Sequence:
#
# PCOD9337210 Si02
#       7
#     4   4   4   4   4   4   4
#     4  10  19  29  43  66  95 124 150 178 218 271
#     4   9  18  32  47  63  86 118 154 187 221 267
#     4   9  16  26  43  68  94 118 146 182 224 268
#     4  11  21  31  46  67  91 119 150 187 232 274
#     4   9  18  32  49  67  88 119 159 195 223 260
#     4   9  15  25  43  67  93 118 146 183 223 263
#     4   8  14  26  45  67  88 115 154 191 219 255
#
# _framework density 18.581937
#
# number of rings (size 3 to 8) (size 9 to 14) (size 15 to 20)
#    0.000    2.714    1.429    2.143    0.000    4.571 
#    0.000    0.000    0.000    2.571    0.000    4.000 
#    0.000    0.000    0.000    0.000    0.000    0.000 
#
# Total GULP energy -156138.430582 kJ/mol
# GULP energy per Si atom -5576.372521 kJ/mol
# Density = 1.853964 g / cm^3
# Si number density = 18.581937 Si / 1000 Ang^3
#
#
#
# Elastic Constant Matrix: (Units=GPa)
#
#
# Indices 1 2 3 4 5 6 
#
# 1 206.0425 3.6574 102.5414 0.0000 0.0000 0.0000
# 2 3.6574 36.6891 -8.5317 0.0000 0.0000 0.0000
# 3 102.5414 -8.5317 103.8202 0.0000 0.0000 0.0000
# 4 0.0000 0.0000 0.0000 -212.3752 0.0000 0.0000
# 5 0.0000 0.0000 0.0000 0.0000 21.6638 0.0000
# 6 0.0000 0.0000 0.0000 0.0000 0.0000 7.2768
#
#
#
# Elastic Compliance Matrix: (Units=1/GPa)
#
#
# Indices 1 2 3 4 5 6 
#
# 1 0.009930 -0.003334 -0.010082 0.000000 0.000000 0.000000
# 2 -0.003334 0.028907 0.005669 0.000000 0.000000 0.000000
# 3 -0.010082 0.005669 0.020055 0.000000 0.000000 0.000000
# 4 0.000000 0.000000 0.000000 -0.004709 0.000000 0.000000
# 5 0.000000 0.000000 0.000000 0.000000 0.046160 0.000000
# 6 0.000000 0.000000 0.000000 0.000000 0.000000 0.137423
#
#
# Mechanical properties :
#
#
# Convention : Reuss Voigt Hill
#
# Bulk Modulus (GPa) = 23.04287 60.20957 41.62622
# Shear Modulus (GPa) = 18.67578 -20.09462 -0.70942
#
# Velocity S-wave (km/s) = 3.17369 -3.29204 -0.61855
# Velocity P-wave (km/s) = 5.08501 4.24529 4.68401
#
# Compressibility (1/GPa) = 0.04339738
#
# Stress axis : x y z
#
# Youngs Moduli (GPa) = 100.70652 34.59421 49.86230
#
# Poissons Ratio (x) = 0.11534 0.50269
# Poissons Ratio (y) = 0.33578 -0.28265
# Poissons Ratio (z) = 1.01528 -0.19610
#
# Static dielectric constant tensor:
#      x y z
#    x 1.676950 0.000000 0.000000 
#    y 0.000000 1.720440 0.000000 
#    z 0.000000 0.000000 1.599270 
# 
# From -- ./inp_files/5887.got.cif
#   From: 2010.05.17/outbox.cif.g08.bks.cpg/sg25_3_cif.got.tgz:5887.got - 2010.06.04 01:04:00.
