data_PCOD9337316
_publ_section_title
;
Structure prediction by ZEFSAII (Michael W. Deem and Ramdas Pophale) SiO2 
 PCOD9337316
Probable space group: P M M 2
;
_chemical_formula_sum "Si O2"
_cell_formula_units_Z 28
_cell_length_a 8.512816
_cell_length_b 18.407435
_cell_length_c 9.743354
_cell_angle_alpha 90.000000
_cell_angle_beta 90.000000
_cell_angle_gamma 90.000000
_cell_volume 1526.774873
_symmetry_space_group_name_H-M "P M M 2"
_symmetry_group_IT_number 25
_symmetry_cell_setting 'orthorhombic'
loop_
_space_group_symop_operation_xyz
x,y,z
-x,-y,z
-x,y,z
x,-y,z
loop_
_atom_site_type_symbol
_atom_site_label
_atom_site_fract_x
_atom_site_fract_y
_atom_site_fract_z
Si Si1 0.185294 0.739736 0.775760
Si Si2 0.689948 0.583735 0.828997
Si Si3 0.312001 0.203793 0.062530
Si Si4 0.322439 0.414759 0.147284
Si Si5 0.178808 0.299416 0.303848
Si Si6 0.690752 0.917514 0.270627
Si Si7 0.683165 0.805974 0.506400
O O1 0.245634 0.656240 0.755759
O O2 0.225866 0.789890 0.645549
O O3 0.000000 0.736449 0.797709
O O4 0.265264 0.776543 0.908627
O O5 0.500000 0.584636 0.820381
O O6 0.738928 0.500000 0.791817
O O7 0.731468 0.595885 0.990019
O O8 0.500000 0.212379 0.077183
O O9 0.221193 0.258591 0.162542
O O10 0.270796 0.125603 0.130142
O O11 0.500000 0.383943 0.159048
O O12 0.332384 0.500000 0.165469
O O13 0.213236 0.381220 0.262629
O O14 0.293988 0.266490 0.416004
O O15 0.000000 0.286409 0.345300
O O16 0.500000 0.918990 0.277488
O O17 0.741048 0.869654 0.402988
O O18 0.748440 0.000000 0.273417
O O19 0.500000 0.818498 0.536372
#
# Coordination Sequence:
#
# PCOD9337316 Si02
#       7
#     4   4   4   4   4   4   4
#     4  12  23  35  53  81 115 147 185 234 274 319
#     4   9  18  33  54  78 106 143 186 230 278 330
#     4  10  19  33  56  81 108 142 179 218 266 324
#     4   9  17  30  50  75 103 138 181 227 274 324
#     4  11  20  32  51  78 108 137 175 225 270 317
#     4   8  16  34  61  89 109 132 178 232 272 316
#     4  10  21  37  58  79 107 148 184 219 271 334
#
# _framework density 18.339310999999999
#
# number of rings (size 3 to 8) (size 9 to 14) (size 15 to 20)
#    0.000    2.143    1.429    5.143    0.000    0.571 
#    0.000    2.857    0.000   24.000    0.000    0.000 
#    0.000    0.000    0.000    0.000    0.000    0.000 
#
# Total GULP energy -156003.679423 kJ/mol
# GULP energy per Si atom -5571.559979 kJ/mol
# Density = 1.829757 g / cm^3
# Si number density = 18.339311 Si / 1000 Ang^3
#
#
#
# Elastic Constant Matrix: (Units=GPa)
#
#
# Indices 1 2 3 4 5 6 
#
# 1 34.1501 19.1198 -4.1714 0.0000 0.0000 0.0000
# 2 19.1198 107.7012 35.9454 0.0000 0.0000 0.0000
# 3 -4.1714 35.9454 63.4764 0.0000 0.0000 0.0000
# 4 0.0000 0.0000 0.0000 19.0102 0.0000 0.0000
# 5 0.0000 0.0000 0.0000 0.0000 17.3078 0.0000
# 6 0.0000 0.0000 0.0000 0.0000 0.0000 -5.7827
#
#
#
# Elastic Compliance Matrix: (Units=1/GPa)
#
#
# Indices 1 2 3 4 5 6 
#
# 1 0.034974 -0.008602 0.007169 0.000000 0.000000 0.000000
# 2 -0.008602 0.013564 -0.008246 0.000000 0.000000 0.000000
# 3 0.007169 -0.008246 0.020895 0.000000 0.000000 0.000000
# 4 0.000000 0.000000 0.000000 0.052603 0.000000 0.000000
# 5 0.000000 0.000000 0.000000 0.000000 0.057777 0.000000
# 6 0.000000 0.000000 0.000000 0.000000 0.000000 -0.172930
#
#
# Mechanical properties :
#
#
# Convention : Reuss Voigt Hill
#
# Bulk Modulus (GPa) = 19.96978 34.12391 27.04684
# Shear Modulus (GPa) = 116.46117 16.40266 66.43191
#
# Velocity S-wave (km/s) = 7.97756 2.99389 6.02515
# Velocity P-wave (km/s) = 9.78611 5.53160 7.94879
#
# Compressibility (1/GPa) = 0.05007566
#
# Stress axis : x y z
#
# Youngs Moduli (GPa) = 28.59261 73.72356 47.85882
#
# Poissons Ratio (x) = 0.63414 -0.34311
# Poissons Ratio (y) = 0.24594 0.39466
# Poissons Ratio (z) = -0.20499 0.60795
#
# Static dielectric constant tensor:
#      x y z
#    x 1.650990 0.000000 0.000000 
#    y 0.000000 1.683980 0.000000 
#    z 0.000000 0.000000 1.624230 
# 
# From -- ./inp_files/2325.got.cif
#   From: 2010.05.17/outbox.cif.g08.bks.cpg/sg25_2_cif.got.tgz:2325.got - 2010.06.04 01:04:00.
