data_PCOD9337362
_publ_section_title
;
Structure prediction by ZEFSAII (Michael W. Deem and Ramdas Pophale) SiO2 
 PCOD9337362
Probable space group: P M M 2
;
_chemical_formula_sum "Si O2"
_cell_formula_units_Z 32
_cell_length_a 7.450518
_cell_length_b 21.737596
_cell_length_c 9.665366
_cell_angle_alpha 90.000000
_cell_angle_beta 90.000000
_cell_angle_gamma 90.000000
_cell_volume 1565.367401
_symmetry_space_group_name_H-M "P M M 2"
_symmetry_group_IT_number 25
_symmetry_cell_setting 'orthorhombic'
loop_
_space_group_symop_operation_xyz
x,y,z
-x,-y,z
-x,y,z
x,-y,z
loop_
_atom_site_type_symbol
_atom_site_label
_atom_site_fract_x
_atom_site_fract_y
_atom_site_fract_z
Si Si1 0.713946 0.066170 0.808320
Si Si2 0.218963 0.430536 0.800141
Si Si3 0.781037 0.569464 0.482204
Si Si4 0.284002 0.199900 0.482732
Si Si5 0.286054 0.933829 0.474023
Si Si6 0.284002 0.199900 0.799611
Si Si7 0.786062 0.318220 0.985344
Si Si8 0.213937 0.318220 0.297000
O O1 0.500000 0.065096 0.836378
O O2 0.733956 0.066824 0.641172
O O3 0.782706 0.133113 0.852916
O O4 0.786665 0.000000 0.857881
O O5 0.273565 0.500000 0.838265
O O6 0.273163 0.418785 0.641172
O O7 0.283816 0.377156 0.901095
O O8 0.000000 0.429904 0.801061
O O9 0.726435 0.500000 0.444080
O O10 0.716183 0.622844 0.381249
O O11 0.000000 0.570096 0.481283
O O12 0.500000 0.195359 0.489855
O O13 0.217294 0.133113 0.429427
O O14 0.220501 0.210181 0.641172
O O15 0.241630 0.256452 0.384480
O O16 0.500000 0.934904 0.445966
O O17 0.213335 0.000000 0.424462
O O18 0.500000 0.195358 0.792488
O O19 0.241631 0.256452 0.897863
O O20 0.000000 0.326786 0.995086
O O21 0.714805 0.313581 0.141172
O O22 0.000000 0.326787 0.287258
#
# Coordination Sequence:
#
# PCOD9337362 Si02
#       8
#     4   4   4   4   4   4   4   4
#     4   7  10  19  38  64  89 109 135 178 227 267
#     4   8  14  26  45  67  88 111 143 184 226 264
#     4   8  14  26  45  67  88 111 143 184 226 264
#     4   9  17  29  47  70  92 116 148 185 226 270
#     4   7  10  19  38  64  89 109 135 178 227 267
#     4   9  17  29  47  70  92 116 148 185 226 270
#     4  10  20  31  44  65  93 124 154 182 216 261
#     4  10  20  31  44  65  93 124 154 182 216 261
#
# _framework density 20.442484
#
# number of rings (size 3 to 8) (size 9 to 14) (size 15 to 20)
#    0.000    3.500    0.000    3.750    0.000    2.500 
#    0.000    2.500    0.000    2.250    0.000   14.000 
#    0.000    0.000    0.000    0.000    0.000    0.000 
#
# Total GULP energy -178279.941478 kJ/mol
# GULP energy per Si atom -5571.248171 kJ/mol
# Density = 2.039596 g / cm^3
# Si number density = 20.442484 Si / 1000 Ang^3
#
#
#
# Elastic Constant Matrix: (Units=GPa)
#
#
# Indices 1 2 3 4 5 6 
#
# 1 60.1818 5.2343 5.2385 0.0000 0.0000 0.0000
# 2 5.2343 250.2893 127.1085 0.0000 0.0000 0.0000
# 3 5.2385 127.1085 109.6141 0.0000 0.0000 0.0000
# 4 0.0000 0.0000 0.0000 -6.7055 0.0000 0.0000
# 5 0.0000 0.0000 0.0000 0.0000 9.6970 0.0000
# 6 0.0000 0.0000 0.0000 0.0000 0.0000 17.3347
#
#
#
# Elastic Compliance Matrix: (Units=1/GPa)
#
#
# Indices 1 2 3 4 5 6 
#
# 1 0.016688 0.000136 -0.000956 0.000000 0.000000 0.000000
# 2 0.000136 0.009720 -0.011278 0.000000 0.000000 0.000000
# 3 -0.000956 -0.011278 0.022246 0.000000 0.000000 0.000000
# 4 0.000000 0.000000 0.000000 -0.149132 0.000000 0.000000
# 5 0.000000 0.000000 0.000000 0.000000 0.103125 0.000000
# 6 0.000000 0.000000 0.000000 0.000000 0.000000 0.057688
#
#
# Mechanical properties :
#
#
# Convention : Reuss Voigt Hill
#
# Bulk Modulus (GPa) = 40.88337 77.24973 59.06655
# Shear Modulus (GPa) = 53.94806 22.89883 38.42345
#
# Velocity S-wave (km/s) = 5.14271 3.35051 4.34012
# Velocity P-wave (km/s) = 7.43679 7.26903 7.35339
#
# Compressibility (1/GPa) = 0.02445982
#
# Stress axis : x y z
#
# Youngs Moduli (GPa) = 59.92459 102.88264 44.95174
#
# Poissons Ratio (x) = -0.01402 0.04295
# Poissons Ratio (y) = -0.00817 0.50695
# Poissons Ratio (z) = 0.05726 1.16027
#
# Static dielectric constant tensor:
#      x y z
#    x 1.822920 0.000000 0.000000 
#    y 0.000000 1.762960 0.000000 
#    z 0.000000 0.000000 1.683930 
# 
# From -- ./inp_files/2887.got.cif
#   From: 2010.05.17/outbox.cif.g08.bks.cpg/sg25_2_cif.got.tgz:2887.got - 2010.06.04 01:04:00.
