data_PCOD9337691
_publ_section_title
;
Structure prediction by ZEFSAII (Michael W. Deem and Ramdas Pophale) SiO2 
 PCOD9337691
Probable space group: P M M 2
;
_chemical_formula_sum "Si O2"
_cell_formula_units_Z 32
_cell_length_a 7.795479
_cell_length_b 10.282071
_cell_length_c 20.909817
_cell_angle_alpha 90.000000
_cell_angle_beta 90.000000
_cell_angle_gamma 90.000000
_cell_volume 1675.998541
_symmetry_space_group_name_H-M "P M M 2"
_symmetry_group_IT_number 25
_symmetry_cell_setting 'orthorhombic'
loop_
_space_group_symop_operation_xyz
x,y,z
-x,-y,z
-x,y,z
x,-y,z
loop_
_atom_site_type_symbol
_atom_site_label
_atom_site_fract_x
_atom_site_fract_y
_atom_site_fract_z
Si Si1 0.704449 0.852902 0.079030
Si Si2 0.793511 0.852039 0.432057
Si Si3 0.206793 0.648035 0.327276
Si Si4 0.290360 0.648881 0.682644
Si Si5 0.796069 0.146924 0.935632
Si Si6 0.293298 0.851963 0.576959
Si Si7 0.293656 0.646892 0.827505
Si Si8 0.293352 0.647735 0.182171
O O1 0.500000 0.860433 0.089204
O O2 0.773402 0.749878 0.130120
O O3 0.774498 0.000000 0.086085
O O4 0.731740 0.811706 0.005654
O O5 0.728544 0.750090 0.379682
O O6 0.751288 0.812684 0.504622
O O7 0.000000 0.856221 0.426626
O O8 0.729078 0.000000 0.422456
O O9 0.270020 0.500000 0.337514
O O10 0.251449 0.686519 0.254822
O O11 0.000000 0.644585 0.331964
O O12 0.500000 0.651179 0.682034
O O13 0.239472 0.500000 0.668531
O O14 0.229487 0.751404 0.630121
O O15 0.235574 0.680103 0.755313
O O16 0.753038 0.247653 0.880141
O O17 0.000000 0.139474 0.939823
O O18 0.728988 0.000000 0.922993
O O19 0.500000 0.855226 0.581551
O O20 0.230059 0.000000 0.586761
O O21 0.500000 0.641767 0.825320
O O22 0.232556 0.500000 0.842734
O O23 0.500000 0.643198 0.176535
O O24 0.228793 0.500000 0.172365
#
# Coordination Sequence:
#
# PCOD9337691 Si02
#       8
#     4   4   4   4   4   4   4   4
#     4   9  18  33  51  70  94 125 159 194 234 281
#     4   9  18  32  47  64  90 123 155 187 226 272
#     4   9  18  32  48  66  90 120 153 188 226 272
#     4   8  15  29  48  70  95 121 152 192 235 279
#     4  10  21  35  50  72 102 132 163 201 243 287
#     4   9  17  29  46  69  94 119 151 191 231 272
#     4   9  18  33  53  75  98 127 164 203 243 290
#     4   9  18  32  49  70  95 120 149 189 234 278
#
# _framework density 19.093097
#
# number of rings (size 3 to 8) (size 9 to 14) (size 15 to 20)
#    0.000    3.000    0.000    1.125    0.000    4.000 
#    0.000    3.125    0.000    2.250    0.000    0.000 
#    0.000    0.000    0.000    0.000    0.000    0.000 
#
# Total GULP energy -178416.057589 kJ/mol
# GULP energy per Si atom -5575.501800 kJ/mol
# Density = 1.904964 g / cm^3
# Si number density = 19.093097 Si / 1000 Ang^3
#
#
#
# Elastic Constant Matrix: (Units=GPa)
#
#
# Indices 1 2 3 4 5 6 
#
# 1 22.2522 5.3603 0.2100 0.0000 0.0000 0.0000
# 2 5.3603 130.7156 142.6136 0.0000 0.0000 0.0000
# 3 0.2100 142.6136 187.6325 0.0000 0.0000 0.0000
# 4 0.0000 0.0000 0.0000 39.2893 0.0000 0.0000
# 5 0.0000 0.0000 0.0000 0.0000 39.0167 0.0000
# 6 0.0000 0.0000 0.0000 0.0000 0.0000 2.8979
#
#
#
# Elastic Compliance Matrix: (Units=1/GPa)
#
#
# Indices 1 2 3 4 5 6 
#
# 1 0.047528 -0.011075 0.008364 0.000000 0.000000 0.000000
# 2 -0.011075 0.047385 -0.036003 0.000000 0.000000 0.000000
# 3 0.008364 -0.036003 0.032685 0.000000 0.000000 0.000000
# 4 0.000000 0.000000 0.000000 0.025452 0.000000 0.000000
# 5 0.000000 0.000000 0.000000 0.000000 0.025630 0.000000
# 6 0.000000 0.000000 0.000000 0.000000 0.000000 0.345081
#
#
# Mechanical properties :
#
#
# Convention : Reuss Voigt Hill
#
# Bulk Modulus (GPa) = 19.93186 70.77424 45.35305
# Shear Modulus (GPa) = 8.09177 29.06852 18.58014
#
# Velocity S-wave (km/s) = 2.06089 3.90611 3.12289
# Velocity P-wave (km/s) = 4.01559 7.58235 6.06700
#
# Compressibility (1/GPa) = 0.05017093
#
# Stress axis : x y z
#
# Youngs Moduli (GPa) = 21.04010 21.10392 30.59502
#
# Poissons Ratio (x) = 0.23372 -0.25591
# Poissons Ratio (y) = 0.23301 1.10152
# Poissons Ratio (z) = -0.17599 0.75981
#
# Static dielectric constant tensor:
#      x y z
#    x 1.690650 0.000000 0.000000 
#    y 0.000000 1.683980 0.000000 
#    z 0.000000 0.000000 1.631580 
# 
# From -- ./inp_files/5571.got.cif
#   From: 2010.05.17/outbox.cif.g08.bks.cpg/sg25_3_cif.got.tgz:5571.got - 2010.06.04 01:04:00.
