data_PCOD9337230
_publ_section_title
;
Structure prediction by ZEFSAII (Michael W. Deem and Ramdas Pophale) SiO2 
 PCOD9337230
Probable space group: P M M 2
;
_chemical_formula_sum "Si O2"
_cell_formula_units_Z 32
_cell_length_a 13.168151
_cell_length_b 7.399862
_cell_length_c 12.989253
_cell_angle_alpha 90.000000
_cell_angle_beta 90.000000
_cell_angle_gamma 90.000000
_cell_volume 1265.705288
_symmetry_space_group_name_H-M "P M M 2"
_symmetry_group_IT_number 25
_symmetry_cell_setting 'orthorhombic'
loop_
_space_group_symop_operation_xyz
x,y,z
-x,-y,z
-x,y,z
x,-y,z
loop_
_atom_site_type_symbol
_atom_site_label
_atom_site_fract_x
_atom_site_fract_y
_atom_site_fract_z
Si Si1 0.671349 0.785603 0.335540
Si Si2 0.108916 0.279905 0.052966
Si Si3 0.109249 0.793032 0.376067
Si Si4 0.671253 0.284076 0.113058
Si Si5 0.608321 0.279715 0.888602
Si Si6 0.839201 0.707741 0.604863
Si Si7 0.390291 0.780942 0.559187
Si Si8 0.829408 0.279365 0.824908
O O1 0.786239 0.707755 0.336196
O O2 0.625121 0.757676 0.223617
O O3 0.615821 0.724175 0.438566
O O4 0.680682 0.000000 0.349736
O O5 0.110123 0.500000 0.056865
O O6 0.118378 0.229414 0.932157
O O7 0.000000 0.219089 0.094193
O O8 0.211994 0.216599 0.106815
O O9 0.123328 0.797117 0.500159
O O10 0.000000 0.709258 0.351458
O O11 0.106588 0.000000 0.339848
O O12 0.674191 0.500000 0.105475
O O13 0.617480 0.223873 0.008539
O O14 0.500000 0.218148 0.846719
O O15 0.609350 0.500000 0.885477
O O16 0.711877 0.220666 0.835328
O O17 0.871476 0.500000 0.596937
O O18 0.715671 0.713802 0.605400
O O19 0.872429 0.781799 0.715590
O O20 0.500000 0.720810 0.600905
O O21 0.387613 0.000000 0.565193
O O22 0.831189 0.500000 0.821930
#
# Coordination Sequence:
#
# PCOD9337230 Si02
#       8
#     4   4   4   4   4   4   4   4
#     4   9  18  32  49  68  90 119 155 195 237 279
#     4   8  14  26  43  63  90 122 152 182 219 269
#     4   9  19  36  53  67  90 129 169 196 227 283
#     4   9  17  28  44  68  92 115 149 189 228 273
#     4   8  14  26  43  63  90 122 152 182 219 269
#     4  10  19  30  48  77 104 121 149 200 250 281
#     4   9  19  36  53  67  90 129 169 196 227 283
#     4   8  15  26  41  65  94 121 149 182 225 277
#
# _framework density 25.282346
#
# number of rings (size 3 to 8) (size 9 to 14) (size 15 to 20)
#    0.000    3.250    0.000    2.625    0.000    4.500 
#    0.000    2.500    0.000    6.000    0.000    0.000 
#    0.000    0.000    0.000    0.000    0.000    0.000 
#
# Total GULP energy -178705.492949 kJ/mol
# GULP energy per Si atom -5584.546655 kJ/mol
# Density = 2.522480 g / cm^3
# Si number density = 25.282346 Si / 1000 Ang^3
#
#
#
# Elastic Constant Matrix: (Units=GPa)
#
#
# Indices 1 2 3 4 5 6 
#
# 1 129.9314 0.7219 -5.8790 0.0000 0.0000 0.0000
# 2 0.7219 89.4379 -10.9197 0.0000 0.0000 0.0000
# 3 -5.8790 -10.9197 125.3352 0.0000 0.0000 0.0000
# 4 0.0000 0.0000 0.0000 15.6075 0.0000 0.0000
# 5 0.0000 0.0000 0.0000 0.0000 -18.2892 0.0000
# 6 0.0000 0.0000 0.0000 0.0000 0.0000 -4.9664
#
#
#
# Elastic Compliance Matrix: (Units=1/GPa)
#
#
# Indices 1 2 3 4 5 6 
#
# 1 0.007713 -0.000018 0.000360 0.000000 0.000000 0.000000
# 2 -0.000018 0.011301 0.000984 0.000000 0.000000 0.000000
# 3 0.000360 0.000984 0.008081 0.000000 0.000000 0.000000
# 4 0.000000 0.000000 0.000000 0.064072 0.000000 0.000000
# 5 0.000000 0.000000 0.000000 0.000000 -0.054677 0.000000
# 6 0.000000 0.000000 0.000000 0.000000 0.000000 -0.201354
#
#
# Mechanical properties :
#
#
# Convention : Reuss Voigt Hill
#
# Bulk Modulus (GPa) = 33.61744 34.72789 34.17266
# Shear Modulus (GPa) = -31.72587 22.52246 -4.60171
#
# Velocity S-wave (km/s) = -3.54625 2.98793 -1.35058
# Velocity P-wave (km/s) = 1.85531 5.06650 3.33371
#
# Compressibility (1/GPa) = 0.02974647
#
# Stress axis : x y z
#
# Youngs Moduli (GPa) = 129.65516 88.48624 123.74391
#
# Poissons Ratio (x) = 0.00162 -0.04457
# Poissons Ratio (y) = 0.00237 -0.12173
# Poissons Ratio (z) = -0.04670 -0.08705
#
# Static dielectric constant tensor:
#      x y z
#    x 2.001140 0.000000 0.000000 
#    y 0.000000 1.961540 0.000000 
#    z 0.000000 0.000000 1.966930 
# 
# From -- ./inp_files/5943.got.cif
#   From: 2010.05.17/outbox.cif.g08.bks.cpg/sg25_3_cif.got.tgz:5943.got - 2010.06.04 01:04:00.
