data_PCOD9337659
_publ_section_title
;
Structure prediction by ZEFSAII (Michael W. Deem and Ramdas Pophale) SiO2 
 PCOD9337659
Probable space group: P M M 2
;
_chemical_formula_sum "Si O2"
_cell_formula_units_Z 17
_cell_length_a 7.351844
_cell_length_b 7.850770
_cell_length_c 14.292772
_cell_angle_alpha 90.000000
_cell_angle_beta 90.000000
_cell_angle_gamma 90.000000
_cell_volume 824.945016
_symmetry_space_group_name_H-M "P M M 2"
_symmetry_group_IT_number 25
_symmetry_cell_setting 'orthorhombic'
loop_
_space_group_symop_operation_xyz
x,y,z
-x,-y,z
-x,y,z
x,-y,z
loop_
_atom_site_type_symbol
_atom_site_label
_atom_site_fract_x
_atom_site_fract_y
_atom_site_fract_z
Si Si1 0.500000 0.314011 0.291380
Si Si2 0.211179 0.201169 0.438457
Si Si3 0.500000 0.000000 0.150506
Si Si4 0.221812 0.303826 0.847605
Si Si5 0.789590 0.294534 0.641882
Si Si6 0.780850 0.000000 0.986103
O O1 0.500000 0.500000 0.247080
O O2 0.328342 0.293197 0.360384
O O3 0.500000 0.164941 0.216157
O O4 0.285630 0.231373 0.543446
O O5 0.000000 0.256882 0.436823
O O6 0.218642 0.000000 0.419521
O O7 0.325194 0.000000 0.083028
O O8 0.278074 0.500000 0.865194
O O9 0.285780 0.248308 0.743763
O O10 0.000000 0.306121 0.843233
O O11 0.270760 0.167131 0.925734
O O12 0.786817 0.500000 0.639551
O O13 0.000000 0.235653 0.641787
O O14 0.000000 0.000000 0.998064
#
# Coordination Sequence:
#
# PCOD9337659 Si02
#       6
#     2   4   1   4   4   2
#     4  12  26  46  67  85 118 159 199 258 315 362
#     4  10  20  36  62  94 128 163 200 242 291 357
#     4  12  28  48  60  90 114 136 206 268 316 366
#     4   8  15  30  55  89 124 157 194 232 278 346
#     4   8  14  26  49  86 127 161 195 230 271 340
#     4  10  22  40  65  85 113 155 192 244 307 358
#
# _framework density 20.607433
#
# number of rings (size 3 to 8) (size 9 to 14) (size 15 to 20)
#    0.000    2.588    1.176    2.118    1.647    3.294 
#    0.000    1.176    0.000    2.824    0.000    0.000 
#    0.000    0.000    0.000    0.000    0.000    0.000 
#
# Total GULP energy -94913.984221 kJ/mol
# GULP energy per Si atom -5583.175542 kJ/mol
# Density = 2.056053 g / cm^3
# Si number density = 20.607433 Si / 1000 Ang^3
#
#
#
# Elastic Constant Matrix: (Units=GPa)
#
#
# Indices 1 2 3 4 5 6 
#
# 1 93.3996 27.3906 42.0948 0.0000 0.0000 0.0000
# 2 27.3906 115.7065 81.4520 0.0000 0.0000 0.0000
# 3 42.0948 81.4520 148.8854 0.0000 0.0000 0.0000
# 4 0.0000 0.0000 0.0000 -180.9968 0.0000 0.0000
# 5 0.0000 0.0000 0.0000 0.0000 44.6478 0.0000
# 6 0.0000 0.0000 0.0000 0.0000 0.0000 -9.9189
#
#
#
# Elastic Compliance Matrix: (Units=1/GPa)
#
#
# Indices 1 2 3 4 5 6 
#
# 1 0.012311 -0.000755 -0.003068 0.000000 0.000000 0.000000
# 2 -0.000755 0.014102 -0.007501 0.000000 0.000000 0.000000
# 3 -0.003068 -0.007501 0.011688 0.000000 0.000000 0.000000
# 4 0.000000 0.000000 0.000000 -0.005525 0.000000 0.000000
# 5 0.000000 0.000000 0.000000 0.000000 0.022398 0.000000
# 6 0.000000 0.000000 0.000000 0.000000 0.000000 -0.100818
#
#
# Mechanical properties :
#
#
# Convention : Reuss Voigt Hill
#
# Bulk Modulus (GPa) = 64.71427 73.31847 69.01637
# Shear Modulus (GPa) = -277.06324 -15.44997 -146.25660
#
# Velocity S-wave (km/s) = -11.60776 -2.74109 -8.43367
# Velocity P-wave (km/s) = 12.17300 5.06338 7.82765
#
# Compressibility (1/GPa) = 0.01545254
#
# Stress axis : x y z
#
# Youngs Moduli (GPa) = 81.23068 70.91243 85.55917
#
# Poissons Ratio (x) = 0.05352 0.26247
# Poissons Ratio (y) = 0.06130 0.64182
# Poissons Ratio (z) = 0.24919 0.53195
#
# Static dielectric constant tensor:
#      x y z
#    x 1.796470 0.000000 0.000000 
#    y 0.000000 1.718890 0.000000 
#    z 0.000000 0.000000 1.703060 
# 
# From -- ./inp_files/3713.got.cif
#   From: 2010.05.17/outbox.cif.g08.bks.cpg/sg25_2_cif.got.tgz:3713.got - 2010.06.04 01:04:00.
