data_PCOD9337813
_publ_section_title
;
Structure prediction by ZEFSAII (Michael W. Deem and Ramdas Pophale) SiO2 
 PCOD9337813
Probable space group: P M M 2
;
_chemical_formula_sum "Si O2"
_cell_formula_units_Z 20
_cell_length_a 9.349222
_cell_length_b 7.444111
_cell_length_c 15.525831
_cell_angle_alpha 90.000000
_cell_angle_beta 90.000000
_cell_angle_gamma 90.000000
_cell_volume 1080.545769
_symmetry_space_group_name_H-M "P M M 2"
_symmetry_group_IT_number 25
_symmetry_cell_setting 'orthorhombic'
loop_
_space_group_symop_operation_xyz
x,y,z
-x,-y,z
-x,y,z
x,-y,z
loop_
_atom_site_type_symbol
_atom_site_label
_atom_site_fract_x
_atom_site_fract_y
_atom_site_fract_z
Si Si1 0.825319 0.293884 0.173950
Si Si2 0.835413 0.719444 0.363149
Si Si3 0.827290 0.000000 0.839256
Si Si4 0.826085 0.000000 0.038839
Si Si5 0.664143 0.281267 0.529899
Si Si6 0.671418 0.714230 0.723342
O O1 0.781132 0.500000 0.162748
O O2 0.778988 0.227065 0.268749
O O3 0.779522 0.171317 0.094866
O O4 0.000000 0.291456 0.176954
O O5 0.833289 0.500000 0.362015
O O6 0.751654 0.780345 0.447297
O O7 0.000000 0.775126 0.370225
O O8 0.760235 0.171760 0.791243
O O9 0.783494 0.000000 0.939652
O O10 0.000000 0.000000 0.833644
O O11 0.000000 0.000000 0.038889
O O12 0.500000 0.225008 0.521512
O O13 0.666144 0.500000 0.529130
O O14 0.714550 0.231207 0.625655
O O15 0.500000 0.746902 0.731149
O O16 0.693287 0.500000 0.732775
#
# Coordination Sequence:
#
# PCOD9337813 Si02
#       6
#     4   4   2   2   4   4
#     4   8  14  26  44  65  92 128 164 193 230 291
#     4   8  13  22  40  67  96 126 158 193 237 286
#     4  11  23  35  52  81 108 130 167 225 280 311
#     4   9  18  31  46  67  96 128 161 201 252 303
#     4   8  14  26  46  71  97 128 165 200 238 290
#     4   9  19  37  58  76 100 141 183 211 248 312
#
# _framework density 18.509164999999999
#
# number of rings (size 3 to 8) (size 9 to 14) (size 15 to 20)
#    0.000    3.400    0.000    2.700    0.000    2.000 
#    0.000    5.000    0.000    3.600    0.000    2.800 
#    0.000    0.000    0.000    0.000    0.000    0.000 
#
# Total GULP energy -111449.969300 kJ/mol
# GULP energy per Si atom -5572.498465 kJ/mol
# Density = 1.846704 g / cm^3
# Si number density = 18.509165 Si / 1000 Ang^3
#
#
#
# Elastic Constant Matrix: (Units=GPa)
#
#
# Indices 1 2 3 4 5 6 
#
# 1 33.5115 26.6147 64.8806 0.0000 0.0000 0.0000
# 2 26.6147 85.9160 73.9915 0.0000 0.0000 0.0000
# 3 64.8806 73.9915 230.9906 0.0000 0.0000 0.0000
# 4 0.0000 0.0000 0.0000 37.5044 0.0000 0.0000
# 5 0.0000 0.0000 0.0000 0.0000 -27.3324 0.0000
# 6 0.0000 0.0000 0.0000 0.0000 0.0000 14.3890
#
#
#
# Elastic Compliance Matrix: (Units=1/GPa)
#
#
# Indices 1 2 3 4 5 6 
#
# 1 0.067837 -0.006359 -0.017017 0.000000 0.000000 0.000000
# 2 -0.006359 0.016669 -0.003553 0.000000 0.000000 0.000000
# 3 -0.017017 -0.003553 0.010247 0.000000 0.000000 0.000000
# 4 0.000000 0.000000 0.000000 0.026664 0.000000 0.000000
# 5 0.000000 0.000000 0.000000 0.000000 -0.036587 0.000000
# 6 0.000000 0.000000 0.000000 0.000000 0.000000 0.069498
#
#
# Mechanical properties :
#
#
# Convention : Reuss Voigt Hill
#
# Bulk Modulus (GPa) = 24.45321 75.71019 50.08170
# Shear Modulus (GPa) = 22.54093 17.24096 19.89095
#
# Velocity S-wave (km/s) = 3.49352 3.05533 3.28175
# Velocity P-wave (km/s) = 5.43259 7.31025 6.44021
#
# Compressibility (1/GPa) = 0.04089443
#
# Stress axis : x y z
#
# Youngs Moduli (GPa) = 14.74122 59.99009 97.58769
#
# Poissons Ratio (x) = 0.38148 1.66066
# Poissons Ratio (y) = 0.09374 0.34678
# Poissons Ratio (z) = 0.25085 0.21317
#
# Static dielectric constant tensor:
#      x y z
#    x 1.611590 0.000000 0.000000 
#    y 0.000000 1.688640 0.000000 
#    z 0.000000 0.000000 1.637360 
# 
# From -- ./inp_files/5144.got.cif
#   From: 2010.05.17/outbox.cif.g08.bks.cpg/sg25_3_cif.got.tgz:5144.got - 2010.06.04 01:04:00.
