data_PCOD9337756
_publ_section_title
;
Structure prediction by ZEFSAII (Michael W. Deem and Ramdas Pophale) SiO2 
 PCOD9337756
Probable space group: P M M 2
;
_chemical_formula_sum "Si O2"
_cell_formula_units_Z 24
_cell_length_a 19.662681
_cell_length_b 7.755495
_cell_length_c 7.839721
_cell_angle_alpha 90.000000
_cell_angle_beta 90.000000
_cell_angle_gamma 90.000000
_cell_volume 1195.509036
_symmetry_space_group_name_H-M "P M M 2"
_symmetry_group_IT_number 25
_symmetry_cell_setting 'orthorhombic'
loop_
_space_group_symop_operation_xyz
x,y,z
-x,-y,z
-x,y,z
x,-y,z
loop_
_atom_site_type_symbol
_atom_site_label
_atom_site_fract_x
_atom_site_fract_y
_atom_site_fract_z
Si Si1 0.578087 0.288491 0.075020
Si Si2 0.328618 0.288598 0.384912
Si Si3 0.172461 0.795858 0.755245
Si Si4 0.825022 0.706280 0.363650
Si Si5 0.672238 0.295251 0.768627
Si Si6 0.923080 0.293402 0.067340
O O1 0.500000 0.233586 0.065399
O O2 0.578451 0.500000 0.073848
O O3 0.615712 0.234713 0.248333
O O4 0.623449 0.227121 0.915876
O O5 0.327823 0.500000 0.387162
O O6 0.252337 0.231371 0.335186
O O7 0.341447 0.228126 0.577968
O O8 0.157230 0.739715 0.561121
O O9 0.247685 0.729033 0.804038
O O10 0.117043 0.738208 0.892184
O O11 0.175847 0.000000 0.756840
O O12 0.822747 0.500000 0.342293
O O13 0.878242 0.775263 0.225615
O O14 0.660335 0.500000 0.762192
O O15 0.927470 0.500000 0.088435
O O16 0.000000 0.225029 0.064172
#
# Coordination Sequence:
#
# PCOD9337756 Si02
#       6
#     4   4   4   4   4   4
#     4   9  16  25  42  72 104 129 159 208 266 312
#     4   8  14  25  43  66  93 125 161 205 253 297
#     4  11  22  35  54  80 109 141 176 217 264 311
#     4   9  18  35  57  78 102 137 181 223 260 304
#     4   9  17  31  50  71  97 132 174 215 254 302
#     4  10  21  37  58  82 107 138 175 214 259 314
#
# _framework density 20.075129
#
# number of rings (size 3 to 8) (size 9 to 14) (size 15 to 20)
#    0.000    2.667    0.000    3.500    0.000    5.000 
#    0.000    5.000    0.000    0.500    0.000    0.000 
#    0.000    0.000    0.000    0.000    0.000    0.000 
#
# Total GULP energy -133936.638200 kJ/mol
# GULP energy per Si atom -5580.693258 kJ/mol
# Density = 2.002944 g / cm^3
# Si number density = 20.075129 Si / 1000 Ang^3
#
#
#
# Elastic Constant Matrix: (Units=GPa)
#
#
# Indices 1 2 3 4 5 6 
#
# 1 165.0340 -6.0362 136.4305 0.0000 0.0000 0.0000
# 2 -6.0362 23.0351 -8.9216 0.0000 0.0000 0.0000
# 3 136.4305 -8.9216 180.2873 0.0000 0.0000 0.0000
# 4 0.0000 0.0000 0.0000 -96.5223 0.0000 0.0000
# 5 0.0000 0.0000 0.0000 0.0000 -9.8029 0.0000
# 6 0.0000 0.0000 0.0000 0.0000 0.0000 -14.4420
#
#
#
# Elastic Compliance Matrix: (Units=1/GPa)
#
#
# Indices 1 2 3 4 5 6 
#
# 1 0.016189 -0.000512 -0.012276 0.000000 0.000000 0.000000
# 2 -0.000512 0.044277 0.002579 0.000000 0.000000 0.000000
# 3 -0.012276 0.002579 0.014964 0.000000 0.000000 0.000000
# 4 0.000000 0.000000 0.000000 -0.010360 0.000000 0.000000
# 5 0.000000 0.000000 0.000000 0.000000 -0.102011 0.000000
# 6 0.000000 0.000000 0.000000 0.000000 0.000000 -0.069243
#
#
# Mechanical properties :
#
#
# Convention : Reuss Voigt Hill
#
# Bulk Modulus (GPa) = 18.17845 67.92239 43.05042
# Shear Modulus (GPa) = -74.15480 -7.69452 -40.92466
#
# Velocity S-wave (km/s) = -6.08431 -1.95989 -4.51996
# Velocity P-wave (km/s) = 6.34693 5.36526 2.39767
#
# Compressibility (1/GPa) = 0.05501021
#
# Stress axis : x y z
#
# Youngs Moduli (GPa) = 61.76903 22.58530 66.82526
#
# Poissons Ratio (x) = 0.01157 0.82038
# Poissons Ratio (y) = 0.03165 -0.17233
# Poissons Ratio (z) = 0.75831 -0.05824
#
# Static dielectric constant tensor:
#      x y z
#    x 1.670070 0.000000 0.000000 
#    y 0.000000 1.745320 0.000000 
#    z 0.000000 0.000000 1.704700 
# 
# From -- ./inp_files/3345.got.cif
#   From: 2010.05.17/outbox.cif.g08.bks.cpg/sg25_2_cif.got.tgz:3345.got - 2010.06.04 01:04:00.
