data_PCOD9337850
_publ_section_title
;
Structure prediction by ZEFSAII (Michael W. Deem and Ramdas Pophale) SiO2 
 PCOD9337850
Probable space group: P M M 2
;
_chemical_formula_sum "Si O2"
_cell_formula_units_Z 28
_cell_length_a 7.427591
_cell_length_b 9.975583
_cell_length_c 18.476885
_cell_angle_alpha 90.000000
_cell_angle_beta 90.000000
_cell_angle_gamma 90.000000
_cell_volume 1369.036489
_symmetry_space_group_name_H-M "P M M 2"
_symmetry_group_IT_number 25
_symmetry_cell_setting 'orthorhombic'
loop_
_space_group_symop_operation_xyz
x,y,z
-x,-y,z
-x,y,z
x,-y,z
loop_
_atom_site_type_symbol
_atom_site_label
_atom_site_fract_x
_atom_site_fract_y
_atom_site_fract_z
Si Si1 0.215572 0.347552 0.709660
Si Si2 0.715249 0.652333 0.547190
Si Si3 0.220376 0.654573 0.129632
Si Si4 0.219636 0.846873 0.835599
Si Si5 0.219232 0.153610 0.999954
Si Si6 0.785355 0.847375 0.257474
Si Si7 0.715990 0.151890 0.422802
O O1 0.285339 0.500000 0.714259
O O2 0.251464 0.296608 0.628524
O O3 0.283555 0.253525 0.773772
O O4 0.000000 0.353838 0.717373
O O5 0.500000 0.644787 0.538510
O O6 0.786124 0.500000 0.542725
O O7 0.785291 0.747954 0.484028
O O8 0.278767 0.500000 0.129864
O O9 0.277180 0.738522 0.058978
O O10 0.280723 0.739786 0.199456
O O11 0.000000 0.652649 0.129826
O O12 0.000000 0.844501 0.835305
O O13 0.273386 0.000000 0.820620
O O14 0.274805 0.813675 0.917774
O O15 0.000000 0.152894 0.000809
O O16 0.274440 0.000000 0.016845
O O17 0.753302 0.805990 0.340380
O O18 0.000000 0.855409 0.247098
O O19 0.714804 0.000000 0.247740
O O20 0.500000 0.146464 0.430226
O O21 0.784940 0.000000 0.431551
#
# Coordination Sequence:
#
# PCOD9337850 Si02
#       7
#     4   4   4   4   4   4   4
#     4   9  17  28  42  62  87 112 139 173 211 248
#     4   9  18  32  47  62  83 112 142 170 206 254
#     4   9  16  24  36  58  86 113 142 175 208 243
#     4   8  14  24  38  58  84 113 143 173 207 248
#     4   8  13  22  36  54  80 114 145 171 205 249
#     4   9  17  29  44  62  86 114 140 168 208 255
#     4   9  18  32  48  65  84 107 139 177 211 245
#
# _framework density 20.452341000000001
#
# number of rings (size 3 to 8) (size 9 to 14) (size 15 to 20)
#    0.000    3.286    0.000    1.286    0.000    4.000 
#    0.000    2.857    0.000    0.000    0.000    1.000 
#    0.000    1.143    0.000    0.000    0.000    0.000 
#
# Total GULP energy -156191.319274 kJ/mol
# GULP energy per Si atom -5578.261403 kJ/mol
# Density = 2.040579 g / cm^3
# Si number density = 20.452341 Si / 1000 Ang^3
#
#
#
# Elastic Constant Matrix: (Units=GPa)
#
#
# Indices 1 2 3 4 5 6 
#
# 1 65.2583 5.3762 0.1006 0.0000 0.0000 0.0000
# 2 5.3762 144.4759 152.6963 0.0000 0.0000 0.0000
# 3 0.1006 152.6963 215.2404 0.0000 0.0000 0.0000
# 4 0.0000 0.0000 0.0000 44.9565 0.0000 0.0000
# 5 0.0000 0.0000 0.0000 0.0000 35.4891 0.0000
# 6 0.0000 0.0000 0.0000 0.0000 0.0000 -16.8450
#
#
#
# Elastic Compliance Matrix: (Units=1/GPa)
#
#
# Indices 1 2 3 4 5 6 
#
# 1 0.015509 -0.002276 0.001607 0.000000 0.000000 0.000000
# 2 -0.002276 0.027997 -0.019860 0.000000 0.000000 0.000000
# 3 0.001607 -0.019860 0.018735 0.000000 0.000000 0.000000
# 4 0.000000 0.000000 0.000000 0.022244 0.000000 0.000000
# 5 0.000000 0.000000 0.000000 0.000000 0.028178 0.000000
# 6 0.000000 0.000000 0.000000 0.000000 0.000000 -0.059365
#
#
# Mechanical properties :
#
#
# Convention : Reuss Voigt Hill
#
# Bulk Modulus (GPa) = 47.20961 82.36898 64.78930
# Shear Modulus (GPa) = 49.30223 30.50688 39.90455
#
# Velocity S-wave (km/s) = 4.91510 3.86632 4.42192
# Velocity P-wave (km/s) = 7.43934 7.76481 7.60382
#
# Compressibility (1/GPa) = 0.02118213
#
# Stress axis : x y z
#
# Youngs Moduli (GPa) = 64.47977 35.71848 53.37705
#
# Poissons Ratio (x) = 0.08129 -0.08579
# Poissons Ratio (y) = 0.14675 1.06009
# Poissons Ratio (z) = -0.10364 0.70938
#
# Static dielectric constant tensor:
#      x y z
#    x 1.778110 0.000000 0.000000 
#    y 0.000000 1.708130 0.000000 
#    z 0.000000 0.000000 1.697200 
# 
# From -- ./inp_files/6050.got.cif
#   From: 2010.05.17/outbox.cif.g08.bks.cpg/sg25_4_cif.got.tgz:6050.got - 2010.06.04 01:04:00.
