data_PCOD9337043
_publ_section_title
;
Structure prediction by ZEFSAII (Michael W. Deem and Ramdas Pophale) SiO2 
 PCOD9337043
Probable space group: I 21 21 21
;
_chemical_formula_sum "Si O2"
_cell_formula_units_Z 22
_cell_length_a 18.000000
_cell_length_b 9.000000
_cell_length_c 15.000000
_cell_angle_alpha 90.000000
_cell_angle_beta 90.000000
_cell_angle_gamma 90.000000
_cell_volume 2430.000000
_symmetry_space_group_name_H-M "I 21 21 21"
_symmetry_group_IT_number 24
_symmetry_cell_setting 'orthorhombic'
loop_
_space_group_symop_operation_xyz
x,y,z
-x,1/2-y,z
x,-y,1/2-z
1/2-x,y,-z
1/2+x,1/2+y,1/2+z
1/2-x,-y,1/2+z
1/2+x,1/2-y,-z
-x,1/2+y,1/2-z
loop_
_atom_site_type_symbol
_atom_site_label
_atom_site_fract_x
_atom_site_fract_y
_atom_site_fract_z
Si Si1 0.644674 0.000000 0.750000
Si Si2 0.774610 0.448831 0.100221
Si Si3 0.750000 0.968017 0.000000
Si Si4 0.380294 0.670517 0.579984
Si Si5 0.500000 0.250000 0.063816
Si Si6 0.629845 0.346580 0.198266
Si Si7 0.263489 0.726352 0.168009
O O1 0.600057 0.917864 0.670998
O O2 0.700123 0.872147 0.785724
O O3 0.846202 0.337633 0.098632
O O4 0.705081 0.359631 0.140616
O O5 0.771245 0.608033 0.151567
O O6 0.750000 0.484263 0.000000
O O7 0.780049 0.859047 0.923482
O O8 0.687383 0.075223 0.960576
O O9 0.446148 0.666876 0.507429
O O10 0.561263 0.316673 0.132631
O O11 0.615345 0.500000 0.250000
O O12 0.660323 0.235607 0.274865
#
# Coordination Sequence:
#
# PCOD9337043 Si02
#       7
#     4   8   4   8   4   8   8
#     4  10  22  40  62  96 112 154 214 276 304 350
#     4  11  18  38  63  89 117 156 210 254 298 376
#     4  10  20  36  60  92 118 158 204 266 304 348
#     4  11  22  38  61  86 123 163 209 251 314 366
#     4  12  24  38  58  88 132 178 192 252 316 392
#     4  10  22  37  59  93 121 162 205 249 312 377
#     4  10  21  35  64  93 120 148 209 267 308 352
#
# _framework density 9.0534979999999994
#
# number of rings (size 3 to 8) (size 9 to 14) (size 15 to 20)
#    0.000    1.455    5.455    0.000    2.545    1.455 
#    0.000    1.818    0.000    7.636    0.000    0.000 
#    0.000    0.000    0.000    0.000    0.000    0.000 
#
# Total GULP energy -122472.123025 kJ/mol
# GULP energy per Si atom -5566.914683 kJ/mol
# Density = 0.903289 g / cm^3
# Si number density = 9.053498 Si / 1000 Ang^3
#
#
#
# Elastic Constant Matrix: (Units=GPa)
#
#
# Indices 1 2 3 4 5 6 
#
# 1 59.4830 23.1604 42.4652 0.0000 0.0000 0.0000
# 2 23.1604 85.7942 35.5894 0.0000 0.0000 0.0000
# 3 42.4652 35.5894 126.9630 0.0000 0.0000 0.0000
# 4 0.0000 0.0000 0.0000 23.7042 0.0000 0.0000
# 5 0.0000 0.0000 0.0000 0.0000 46.8062 0.0000
# 6 0.0000 0.0000 0.0000 0.0000 0.0000 6.4307
#
#
#
# Elastic Compliance Matrix: (Units=1/GPa)
#
#
# Indices 1 2 3 4 5 6 
#
# 1 0.022931 -0.003405 -0.006715 0.000000 0.000000 0.000000
# 2 -0.003405 0.013695 -0.002700 0.000000 0.000000 0.000000
# 3 -0.006715 -0.002700 0.010879 0.000000 0.000000 0.000000
# 4 0.000000 0.000000 0.000000 0.042187 0.000000 0.000000
# 5 0.000000 0.000000 0.000000 0.000000 0.021365 0.000000
# 6 0.000000 0.000000 0.000000 0.000000 0.000000 0.155505
#
#
# Mechanical properties :
#
#
# Convention : Reuss Voigt Hill
#
# Bulk Modulus (GPa) = 45.73492 52.74115 49.23803
# Shear Modulus (GPa) = 16.69499 26.78988 21.74243
#
# Velocity S-wave (km/s) = 3.03977 3.85064 3.46898
# Velocity P-wave (km/s) = 6.13459 6.99719 6.58004
#
# Compressibility (1/GPa) = 0.02186513
#
# Stress axis : x y z
#
# Youngs Moduli (GPa) = 43.60837 73.01948 91.91757
#
# Poissons Ratio (x) = 0.24861 0.61727
# Poissons Ratio (y) = 0.14847 0.24819
# Poissons Ratio (z) = 0.29285 0.19716
#
# Static dielectric constant tensor:
#      x y z
#    x 1.588310 0.000000 0.000000 
#    y 0.000000 1.645830 0.000000 
#    z 0.000000 0.000000 1.749340 
# 
# From -- ./inp_files/12730.got.cif
#   From: 2010.05.17/outbox.ucp.g08.bks.cvg/sg24_7_cif.got.tgz:12730.got - 2010.06.11 15:20:44.
