data_PCOD9337815
_publ_section_title
;
Structure prediction by ZEFSAII (Michael W. Deem and Ramdas Pophale) SiO2 
 PCOD9337815
Probable space group: P M M 2
;
_chemical_formula_sum "Si O2"
_cell_formula_units_Z 22
_cell_length_a 8.522898
_cell_length_b 7.731496
_cell_length_c 14.991652
_cell_angle_alpha 90.000000
_cell_angle_beta 90.000000
_cell_angle_gamma 90.000000
_cell_volume 987.871188
_symmetry_space_group_name_H-M "P M M 2"
_symmetry_group_IT_number 25
_symmetry_cell_setting 'orthorhombic'
loop_
_space_group_symop_operation_xyz
x,y,z
-x,-y,z
-x,y,z
x,-y,z
loop_
_atom_site_type_symbol
_atom_site_label
_atom_site_fract_x
_atom_site_fract_y
_atom_site_fract_z
Si Si1 0.321453 0.206958 0.876220
Si Si2 0.178143 0.295102 0.686105
Si Si3 0.821857 0.704898 0.066335
Si Si4 0.315421 0.196768 0.247856
Si Si5 0.684579 0.196768 0.504584
Si Si6 0.786019 0.500000 0.376220
O O1 0.500000 0.272950 0.876220
O O2 0.236324 0.263367 0.786047
O O3 0.325118 0.000000 0.876220
O O4 0.236324 0.263367 0.966393
O O5 0.179689 0.500000 0.670967
O O6 0.285146 0.212374 0.610009
O O7 0.000000 0.230800 0.676026
O O8 0.820311 0.500000 0.081473
O O9 0.714854 0.787626 0.142431
O O10 0.000000 0.769200 0.076414
O O11 0.500000 0.227725 0.267197
O O12 0.222452 0.346311 0.453188
O O13 0.222452 0.346311 0.299252
O O14 0.276880 0.000000 0.274394
O O15 0.500000 0.227725 0.485243
O O16 0.723120 0.000000 0.478046
#
# Coordination Sequence:
#
# PCOD9337815 Si02
#       6
#     4   4   4   4   4   2
#     4  11  24  41  64  96 130 167 214 264 317 381
#     4  11  24  42  64  93 130 172 216 261 318 385
#     4  11  24  42  64  93 130 172 216 261 318 385
#     4  11  23  40  66  98 129 168 218 267 323 387
#     4  11  23  40  66  98 129 168 218 267 323 387
#     4  12  23  42  69  96 131 168 211 276 333 376
#
# _framework density 22.270109999999999
#
# number of rings (size 3 to 8) (size 9 to 14) (size 15 to 20)
#    0.000    0.909    1.818    5.455    0.000   12.364 
#    0.000    1.818    0.000    2.182    0.000    0.000 
#    0.000    0.000    0.000    0.000    0.000    0.000 
#
# Total GULP energy -122603.204364 kJ/mol
# GULP energy per Si atom -5572.872926 kJ/mol
# Density = 2.221942 g / cm^3
# Si number density = 22.270110 Si / 1000 Ang^3
#
#
#
# Elastic Constant Matrix: (Units=GPa)
#
#
# Indices 1 2 3 4 5 6 
#
# 1 49.7368 14.6356 10.4934 0.0000 0.0000 0.0000
# 2 14.6356 128.0796 29.6433 0.0000 0.0000 0.0000
# 3 10.4934 29.6433 171.4334 0.0000 0.0000 0.0000
# 4 0.0000 0.0000 0.0000 55.7593 0.0000 0.0000
# 5 0.0000 0.0000 0.0000 0.0000 -453.3792 0.0000
# 6 0.0000 0.0000 0.0000 0.0000 0.0000 15.4010
#
#
#
# Elastic Compliance Matrix: (Units=1/GPa)
#
#
# Indices 1 2 3 4 5 6 
#
# 1 0.020939 -0.002183 -0.000904 0.000000 0.000000 0.000000
# 2 -0.002183 0.008361 -0.001312 0.000000 0.000000 0.000000
# 3 -0.000904 -0.001312 0.006115 0.000000 0.000000 0.000000
# 4 0.000000 0.000000 0.000000 0.017934 0.000000 0.000000
# 5 0.000000 0.000000 0.000000 0.000000 -0.002206 0.000000
# 6 0.000000 0.000000 0.000000 0.000000 0.000000 0.064931
#
#
# Mechanical properties :
#
#
# Convention : Reuss Voigt Hill
#
# Bulk Modulus (GPa) = 37.57134 50.97714 44.27424
# Shear Modulus (GPa) = 37.38427 -56.81195 -9.71384
#
# Velocity S-wave (km/s) = 4.10161 -5.05626 -2.09077
# Velocity P-wave (km/s) = 6.27202 3.33881 3.75437
#
# Compressibility (1/GPa) = 0.02661603
#
# Stress axis : x y z
#
# Youngs Moduli (GPa) = 47.75761 119.60557 163.52199
#
# Poissons Ratio (x) = 0.26115 0.14784
# Poissons Ratio (y) = 0.10428 0.21455
# Poissons Ratio (z) = 0.04318 0.15693
#
# Static dielectric constant tensor:
#      x y z
#    x 1.848460 0.000000 0.000000 
#    y 0.000000 1.794130 0.000000 
#    z 0.000000 0.000000 1.801050 
# 
# From -- ./inp_files/5223.got.cif
#   From: 2010.05.17/outbox.cif.g08.bks.cpg/sg25_3_cif.got.tgz:5223.got - 2010.06.04 01:04:00.
