data_PCOD9337068
_publ_section_title
;
Structure prediction by ZEFSAII (Michael W. Deem and Ramdas Pophale) SiO2 
 PCOD9337068
Probable space group: I 21 21 21
;
_chemical_formula_sum "Si O2"
_cell_formula_units_Z 28
_cell_length_a 15.000000
_cell_length_b 21.000000
_cell_length_c 9.000000
_cell_angle_alpha 90.000000
_cell_angle_beta 90.000000
_cell_angle_gamma 90.000000
_cell_volume 2835.000000
_symmetry_space_group_name_H-M "I 21 21 21"
_symmetry_group_IT_number 24
_symmetry_cell_setting 'orthorhombic'
loop_
_space_group_symop_operation_xyz
x,y,z
-x,1/2-y,z
x,-y,1/2-z
1/2-x,y,-z
1/2+x,1/2+y,1/2+z
1/2-x,-y,1/2+z
1/2+x,1/2-y,-z
-x,1/2+y,1/2-z
loop_
_atom_site_type_symbol
_atom_site_label
_atom_site_fract_x
_atom_site_fract_y
_atom_site_fract_z
Si Si1 0.356196 0.500000 0.750000
Si Si2 0.760936 0.869384 0.323176
Si Si3 0.077797 0.664546 0.828391
Si Si4 0.000335 0.431780 0.446487
Si Si5 0.000000 0.750000 0.559779
Si Si6 0.840537 0.526330 0.413864
Si Si7 0.162518 0.735389 0.100519
Si Si8 0.416585 0.156267 0.809150
O O1 0.300906 0.439853 0.809129
O O2 0.416798 0.472798 0.615421
O O3 0.750000 0.852778 0.500000
O O4 0.668828 0.866871 0.231405
O O5 0.820099 0.818930 0.226726
O O6 0.047274 0.703497 0.681853
O O7 0.095942 0.710654 0.971268
O O8 0.018419 0.609711 0.905967
O O9 0.921078 0.482338 0.473280
O O10 0.978306 0.384877 0.305542
O O11 0.045643 0.798527 0.440715
O O12 0.826269 0.500000 0.250000
O O13 0.750000 0.517641 0.500000
O O14 0.864048 0.600596 0.395194
O O15 0.134441 0.797057 0.194352
O O16 0.250000 0.747510 0.000000
#
# Coordination Sequence:
#
# PCOD9337068 Si02
#       8
#     4   8   8   8   4   8   8   8
#     4  12  24  44  72  96 136 182 228 274 348 408
#     4  11  26  41  67 102 138 175 227 287 336 415
#     4  11  24  43  65 102 135 181 227 280 340 411
#     4  11  23  45  71  95 134 181 232 275 350 415
#     4  12  26  40  66 100 142 176 236 276 346 412
#     4  10  24  44  67  99 130 173 225 282 339 403
#     4  10  22  42  67  94 134 177 226 276 347 412
#     4  11  23  41  67  97 132 184 218 291 341 402
#
# _framework density 9.8765429999999999
#
# number of rings (size 3 to 8) (size 9 to 14) (size 15 to 20)
#    0.000    1.143    3.571    2.571    4.000    6.286 
#    0.000    0.000    0.000    0.000    0.000    0.000 
#    0.000    0.000    0.000    0.000    0.000    0.000 
#
# Total GULP energy -156145.423943 kJ/mol
# GULP energy per Si atom -5576.622284 kJ/mol
# Density = 0.985406 g / cm^3
# Si number density = 9.876543 Si / 1000 Ang^3
#
#
#
# Elastic Constant Matrix: (Units=GPa)
#
#
# Indices 1 2 3 4 5 6 
#
# 1 89.0255 73.0138 44.3743 0.0000 0.0000 0.0000
# 2 73.0138 164.0308 61.3459 0.0000 0.0000 0.0000
# 3 44.3743 61.3459 119.5603 0.0000 0.0000 0.0000
# 4 0.0000 0.0000 0.0000 -693.0697 0.0000 0.0000
# 5 0.0000 0.0000 0.0000 0.0000 36.2671 0.0000
# 6 0.0000 0.0000 0.0000 0.0000 0.0000 23.6343
#
#
#
# Elastic Compliance Matrix: (Units=1/GPa)
#
#
# Indices 1 2 3 4 5 6 
#
# 1 0.018688 -0.007084 -0.003301 0.000000 0.000000 0.000000
# 2 -0.007084 0.010229 -0.002619 0.000000 0.000000 0.000000
# 3 -0.003301 -0.002619 0.010933 0.000000 0.000000 0.000000
# 4 0.000000 0.000000 0.000000 -0.001443 0.000000 0.000000
# 5 0.000000 0.000000 0.000000 0.000000 0.027573 0.000000
# 6 0.000000 0.000000 0.000000 0.000000 0.000000 0.042311
#
#
# Mechanical properties :
#
#
# Convention : Reuss Voigt Hill
#
# Bulk Modulus (GPa) = 72.24706 81.12051 76.68379
# Shear Modulus (GPa) = 35.99317 -113.70818 -38.85750
#
# Velocity S-wave (km/s) = 4.27330 -7.59538 -4.44008
# Velocity P-wave (km/s) = 7.81042 5.98024 3.55242
#
# Compressibility (1/GPa) = 0.01384139
#
# Stress axis : x y z
#
# Youngs Moduli (GPa) = 53.51027 97.75909 91.46385
#
# Poissons Ratio (x) = 0.69251 0.30195
# Poissons Ratio (y) = 0.37906 0.23959
# Poissons Ratio (z) = 0.17665 0.25608
#
# Static dielectric constant tensor:
#      x y z
#    x 2.167920 0.000000 0.000000 
#    y 0.000000 1.717700 0.000000 
#    z 0.000000 0.000000 1.647380 
# 
# From -- ./inp_files/13207.got.cif
#   From: 2010.05.17/outbox.ucp.g08.bks.cvg/sg24_7_cif.got.tgz:13207.got - 2010.06.11 15:20:44.
