data_PCOD9337684
_publ_section_title
;
Structure prediction by ZEFSAII (Michael W. Deem and Ramdas Pophale) SiO2 
 PCOD9337684
Probable space group: P M M 2
;
_chemical_formula_sum "Si O2"
_cell_formula_units_Z 28
_cell_length_a 10.002529
_cell_length_b 7.509712
_cell_length_c 18.478111
_cell_angle_alpha 90.000000
_cell_angle_beta 90.000000
_cell_angle_gamma 90.000000
_cell_volume 1388.003857
_symmetry_space_group_name_H-M "P M M 2"
_symmetry_group_IT_number 25
_symmetry_cell_setting 'orthorhombic'
loop_
_space_group_symop_operation_xyz
x,y,z
-x,-y,z
-x,y,z
x,-y,z
loop_
_atom_site_type_symbol
_atom_site_label
_atom_site_fract_x
_atom_site_fract_y
_atom_site_fract_z
Si Si1 0.653906 0.281751 0.783820
Si Si2 0.651368 0.286553 0.202042
Si Si3 0.849979 0.210702 0.071608
Si Si4 0.848572 0.291238 0.909010
Si Si5 0.153168 0.283078 0.654660
Si Si6 0.152927 0.282797 0.490431
Si Si7 0.345406 0.717226 0.363205
O O1 0.500000 0.222950 0.783632
O O2 0.650683 0.500000 0.784045
O O3 0.738637 0.220295 0.853633
O O4 0.738862 0.226103 0.713517
O O5 0.500000 0.220838 0.188625
O O6 0.643833 0.500000 0.206464
O O7 0.750719 0.246309 0.137162
O O8 0.695250 0.224824 0.282152
O O9 0.000000 0.281583 0.086046
O O10 0.858939 0.000000 0.064057
O O11 0.806572 0.278170 0.992759
O O12 0.860011 0.500000 0.891539
O O13 0.000000 0.215854 0.902437
O O14 0.152340 0.500000 0.655324
O O15 0.185807 0.227361 0.572521
O O16 0.000000 0.228267 0.671692
O O17 0.156460 0.500000 0.490404
O O18 0.251856 0.220000 0.428005
O O19 0.000000 0.230730 0.475489
O O20 0.500000 0.767890 0.373767
O O21 0.341061 0.500000 0.364128
#
# Coordination Sequence:
#
# PCOD9337684 Si02
#       7
#     4   4   4   4   4   4   4
#     4   9  16  24  36  57  82 108 143 184 219 254
#     4   9  18  32  49  69  93 122 156 191 228 274
#     4  10  21  35  50  70  94 118 149 190 233 278
#     4   9  17  30  47  64  85 116 149 180 221 271
#     4   8  13  21  32  48  76 113 146 175 212 258
#     4   8  13  20  31  50  77 110 146 179 212 254
#     4   8  14  24  37  55  81 112 145 181 219 258
#
# _framework density 20.172854999999998
#
# number of rings (size 3 to 8) (size 9 to 14) (size 15 to 20)
#    0.000    3.286    0.000    2.571    0.000    4.571 
#    0.000    5.714    0.000    0.000    0.000    0.000 
#    0.000    1.143    0.000   10.286    0.000   15.429 
#
# Total GULP energy -156129.961665 kJ/mol
# GULP energy per Si atom -5576.070059 kJ/mol
# Density = 2.012694 g / cm^3
# Si number density = 20.172855 Si / 1000 Ang^3
#
#
#
# Elastic Constant Matrix: (Units=GPa)
#
#
# Indices 1 2 3 4 5 6 
#
# 1 153.8434 4.4239 154.4829 0.0000 0.0000 0.0000
# 2 4.4239 50.7001 -0.5574 0.0000 0.0000 0.0000
# 3 154.4829 -0.5574 202.9940 0.0000 0.0000 0.0000
# 4 0.0000 0.0000 0.0000 -37.2856 0.0000 0.0000
# 5 0.0000 0.0000 0.0000 0.0000 27.2231 0.0000
# 6 0.0000 0.0000 0.0000 0.0000 0.0000 -6.3280
#
#
#
# Elastic Compliance Matrix: (Units=1/GPa)
#
#
# Indices 1 2 3 4 5 6 
#
# 1 0.027921 -0.002670 -0.021256 0.000000 0.000000 0.000000
# 2 -0.002670 0.019980 0.002087 0.000000 0.000000 0.000000
# 3 -0.021256 0.002087 0.021108 0.000000 0.000000 0.000000
# 4 0.000000 0.000000 0.000000 -0.026820 0.000000 0.000000
# 5 0.000000 0.000000 0.000000 0.000000 0.036733 0.000000
# 6 0.000000 0.000000 0.000000 0.000000 0.000000 -0.158028
#
#
# Mechanical properties :
#
#
# Convention : Reuss Voigt Hill
#
# Bulk Modulus (GPa) = 39.47761 80.47069 59.97415
# Shear Modulus (GPa) = -185.30386 13.33446 -85.98470
#
# Velocity S-wave (km/s) = -9.59466 2.57380 -6.53579
# Velocity P-wave (km/s) = 10.15535 6.98640 5.21159
#
# Compressibility (1/GPa) = 0.02533082
#
# Stress axis : x y z
#
# Youngs Moduli (GPa) = 35.81493 50.05071 47.37469
#
# Poissons Ratio (x) = 0.13364 1.00700
# Poissons Ratio (y) = 0.09563 -0.09886
# Poissons Ratio (z) = 0.76128 -0.10445
#
# Static dielectric constant tensor:
#      x y z
#    x 1.700460 0.000000 0.000000 
#    y 0.000000 1.752240 0.000000 
#    z 0.000000 0.000000 1.699840 
# 
# From -- ./inp_files/6233.got.cif
#   From: 2010.05.17/outbox.cif.g08.bks.cpg/sg25_4_cif.got.tgz:6233.got - 2010.06.04 01:04:00.
