data_PCOD9337719
_publ_section_title
;
Structure prediction by ZEFSAII (Michael W. Deem and Ramdas Pophale) SiO2 
 PCOD9337719
Probable space group: P M M 2
;
_chemical_formula_sum "Si O2"
_cell_formula_units_Z 28
_cell_length_a 9.362810
_cell_length_b 7.929260
_cell_length_c 18.585090
_cell_angle_alpha 90.000000
_cell_angle_beta 90.000000
_cell_angle_gamma 90.000000
_cell_volume 1379.759959
_symmetry_space_group_name_H-M "P M M 2"
_symmetry_group_IT_number 25
_symmetry_cell_setting 'orthorhombic'
loop_
_space_group_symop_operation_xyz
x,y,z
-x,-y,z
-x,y,z
x,-y,z
loop_
_atom_site_type_symbol
_atom_site_label
_atom_site_fract_x
_atom_site_fract_y
_atom_site_fract_z
Si Si1 0.336896 0.703437 0.965690
Si Si2 0.837676 0.703433 0.387829
Si Si3 0.663802 0.703123 0.525747
Si Si4 0.662697 0.798533 0.246168
Si Si5 0.162690 0.702795 0.104466
Si Si6 0.663831 0.203137 0.685374
Si Si7 0.837374 0.796242 0.823703
O O1 0.500000 0.766144 0.965627
O O2 0.342193 0.500000 0.970424
O O3 0.255654 0.748440 0.892688
O O4 0.248779 0.766496 0.034844
O O5 0.843841 0.500000 0.392151
O O6 0.761849 0.765643 0.460750
O O7 0.743368 0.746498 0.318697
O O8 0.000000 0.766223 0.380605
O O9 0.500000 0.765036 0.518035
O O10 0.659830 0.500000 0.521552
O O11 0.714743 0.749621 0.605598
O O12 0.500000 0.732077 0.244525
O O13 0.751683 0.741378 0.176905
O O14 0.656365 0.000000 0.244599
O O15 0.154931 0.500000 0.098216
O O16 0.000000 0.767432 0.106960
O O17 0.500000 0.264901 0.693193
O O18 0.761776 0.264857 0.750520
O O19 0.659991 0.000000 0.689241
O O20 0.000000 0.734553 0.830238
O O21 0.841713 0.000000 0.820412
#
# Coordination Sequence:
#
# PCOD9337719 Si02
#       7
#     4   4   4   4   4   4   4
#     4  10  21  37  58  83 109 140 180 223 267 317
#     4  10  21  37  57  81 109 142 180 221 268 321
#     4   9  18  33  53  77 105 138 177 220 265 315
#     4  11  24  39  56  81 111 143 181 222 264 314
#     4  10  21  38  60  84 110 141 177 218 267 321
#     4   9  18  33  52  74 103 140 180 221 265 315
#     4  10  21  36  54  78 109 145 183 222 268 321
#
# _framework density 20.293384
#
# number of rings (size 3 to 8) (size 9 to 14) (size 15 to 20)
#    0.000    2.143    0.000    2.571    0.000    8.571 
#    0.000    2.857    0.000    0.000    0.000    0.000 
#    0.000    0.000    0.000    0.000    0.000    0.000 
#
# Total GULP energy -156421.699455 kJ/mol
# GULP energy per Si atom -5586.489266 kJ/mol
# Density = 2.024720 g / cm^3
# Si number density = 20.293384 Si / 1000 Ang^3
#
#
#
# Elastic Constant Matrix: (Units=GPa)
#
#
# Indices 1 2 3 4 5 6 
#
# 1 204.0468 11.3679 141.5604 0.0000 0.0000 0.0000
# 2 11.3679 16.3905 2.2329 0.0000 0.0000 0.0000
# 3 141.5604 2.2329 220.2429 0.0000 0.0000 0.0000
# 4 0.0000 0.0000 0.0000 38.3067 0.0000 0.0000
# 5 0.0000 0.0000 0.0000 0.0000 1.3942 0.0000
# 6 0.0000 0.0000 0.0000 0.0000 0.0000 19.4737
#
#
#
# Elastic Compliance Matrix: (Units=1/GPa)
#
#
# Indices 1 2 3 4 5 6 
#
# 1 0.009343 -0.005670 -0.005948 0.000000 0.000000 0.000000
# 2 -0.005670 0.064536 0.002990 0.000000 0.000000 0.000000
# 3 -0.005948 0.002990 0.008333 0.000000 0.000000 0.000000
# 4 0.000000 0.000000 0.000000 0.026105 0.000000 0.000000
# 5 0.000000 0.000000 0.000000 0.000000 0.717275 0.000000
# 6 0.000000 0.000000 0.000000 0.000000 0.000000 0.051351
#
#
# Mechanical properties :
#
#
# Convention : Reuss Voigt Hill
#
# Bulk Modulus (GPa) = 15.39480 83.44473 49.41976
# Shear Modulus (GPa) = 5.45940 30.86950 18.16445
#
# Velocity S-wave (km/s) = 1.64197 3.90444 2.99505
# Velocity P-wave (km/s) = 3.34624 7.84440 6.03042
#
# Compressibility (1/GPa) = 0.06495701
#
# Stress axis : x y z
#
# Youngs Moduli (GPa) = 107.03162 15.49521 120.00467
#
# Poissons Ratio (x) = 0.08785 0.71375
# Poissons Ratio (y) = 0.60684 -0.35881
# Poissons Ratio (z) = 0.63659 -0.04633
#
# Static dielectric constant tensor:
#      x y z
#    x 1.717120 0.000000 0.000000 
#    y 0.000000 1.737170 0.000000 
#    z 0.000000 0.000000 1.673980 
# 
# From -- ./inp_files/6076.got.cif
#   From: 2010.05.17/outbox.cif.g08.bks.cpg/sg25_4_cif.got.tgz:6076.got - 2010.06.04 01:04:00.
