data_PCOD9337415
_publ_section_title
;
Structure prediction by ZEFSAII (Michael W. Deem and Ramdas Pophale) SiO2 
 PCOD9337415
Probable space group: P M M 2
;
_chemical_formula_sum "Si O2"
_cell_formula_units_Z 28
_cell_length_a 7.467434
_cell_length_b 9.390102
_cell_length_c 19.117695
_cell_angle_alpha 90.000000
_cell_angle_beta 90.000000
_cell_angle_gamma 90.000000
_cell_volume 1340.532141
_symmetry_space_group_name_H-M "P M M 2"
_symmetry_group_IT_number 25
_symmetry_cell_setting 'orthorhombic'
loop_
_space_group_symop_operation_xyz
x,y,z
-x,-y,z
-x,y,z
x,-y,z
loop_
_atom_site_type_symbol
_atom_site_label
_atom_site_fract_x
_atom_site_fract_y
_atom_site_fract_z
Si Si1 0.715768 0.163232 0.013510
Si Si2 0.785695 0.160964 0.743026
Si Si3 0.714951 0.338658 0.603399
Si Si4 0.281006 0.165951 0.468528
Si Si5 0.283781 0.829921 0.315884
Si Si6 0.712604 0.827294 0.165505
Si Si7 0.786677 0.660525 0.874727
O O1 0.500000 0.157028 0.018440
O O2 0.782683 0.217532 0.089436
O O3 0.778338 0.000000 0.002268
O O4 0.759712 0.261305 0.948272
O O5 0.752941 0.248083 0.672469
O O6 0.714952 0.245498 0.810534
O O7 0.000000 0.150926 0.751117
O O8 0.715299 0.000000 0.738628
O O9 0.500000 0.345864 0.597018
O O10 0.782837 0.500000 0.609489
O O11 0.780879 0.258607 0.533881
O O12 0.500000 0.166837 0.468121
O O13 0.222280 0.221855 0.391954
O O14 0.228575 0.000000 0.476462
O O15 0.500000 0.813183 0.314544
O O16 0.215196 0.775609 0.240661
O O17 0.249660 0.000000 0.316979
O O18 0.500000 0.795731 0.166202
O O19 0.729425 0.000000 0.165360
O O20 0.714426 0.500000 0.874902
O O21 0.000000 0.650395 0.864268
#
# Coordination Sequence:
#
# PCOD9337415 Si02
#       7
#     4   4   4   4   4   4   4
#     4   9  17  29  47  72  99 125 154 190 232 275
#     4  10  21  37  56  74  90 113 150 194 236 277
#     4  10  20  32  47  70 100 130 156 184 224 274
#     4   8  13  22  38  61  89 121 156 192 228 265
#     4   7   9  15  31  56  85 117 151 186 225 265
#     4   7  10  18  34  59  90 119 148 185 227 268
#     4  10  21  36  52  69  91 121 155 189 228 276
#
# _framework density 20.887226999999999
#
# number of rings (size 3 to 8) (size 9 to 14) (size 15 to 20)
#    0.000    3.286    0.000    3.857    0.000    3.429 
#    0.000    0.000    0.000    0.857    0.000    5.000 
#    0.000    3.429    0.000    0.000    0.000    0.000 
#
# Total GULP energy -156051.363755 kJ/mol
# GULP energy per Si atom -5573.262991 kJ/mol
# Density = 2.083969 g / cm^3
# Si number density = 20.887227 Si / 1000 Ang^3
#
#
#
# Elastic Constant Matrix: (Units=GPa)
#
#
# Indices 1 2 3 4 5 6 
#
# 1 59.2381 6.6960 2.5206 0.0000 0.0000 0.0000
# 2 6.6960 126.8876 115.0748 0.0000 0.0000 0.0000
# 3 2.5206 115.0748 265.1781 0.0000 0.0000 0.0000
# 4 0.0000 0.0000 0.0000 -36.8820 0.0000 0.0000
# 5 0.0000 0.0000 0.0000 0.0000 42.3796 0.0000
# 6 0.0000 0.0000 0.0000 0.0000 0.0000 18.7212
#
#
#
# Elastic Compliance Matrix: (Units=1/GPa)
#
#
# Indices 1 2 3 4 5 6 
#
# 1 0.017005 -0.001238 0.000376 0.000000 0.000000 0.000000
# 2 -0.001238 0.013085 -0.005667 0.000000 0.000000 0.000000
# 3 0.000376 -0.005667 0.006227 0.000000 0.000000 0.000000
# 4 0.000000 0.000000 0.000000 -0.027113 0.000000 0.000000
# 5 0.000000 0.000000 0.000000 0.000000 0.023596 0.000000
# 6 0.000000 0.000000 0.000000 0.000000 0.000000 0.053415
#
#
# Mechanical properties :
#
#
# Convention : Reuss Voigt Hill
#
# Bulk Modulus (GPa) = 42.99449 77.76517 60.37983
# Shear Modulus (GPa) = 46.71744 26.64457 36.68101
#
# Velocity S-wave (km/s) = 4.73446 3.57548 4.19519
# Velocity P-wave (km/s) = 7.10743 7.37274 7.24130
#
# Compressibility (1/GPa) = 0.02325880
#
# Stress axis : x y z
#
# Youngs Moduli (GPa) = 58.80630 76.42055 160.60212
#
# Poissons Ratio (x) = 0.09461 -0.06032
# Poissons Ratio (y) = 0.07280 0.91009
# Poissons Ratio (z) = -0.02209 0.43305
#
# Static dielectric constant tensor:
#      x y z
#    x 1.813550 0.000000 0.000000 
#    y 0.000000 1.714980 0.000000 
#    z 0.000000 0.000000 1.776980 
# 
# From -- ./inp_files/6411.got.cif
#   From: 2010.05.17/outbox.cif.g08.bks.cpg/sg25_4_cif.got.tgz:6411.got - 2010.06.04 01:04:00.
