data_PCOD9337715
_publ_section_title
;
Structure prediction by ZEFSAII (Michael W. Deem and Ramdas Pophale) SiO2 
 PCOD9337715
Probable space group: P M M 2
;
_chemical_formula_sum "Si O2"
_cell_formula_units_Z 28
_cell_length_a 9.855896
_cell_length_b 8.247867
_cell_length_c 18.517799
_cell_angle_alpha 90.000000
_cell_angle_beta 90.000000
_cell_angle_gamma 90.000000
_cell_volume 1505.314091
_symmetry_space_group_name_H-M "P M M 2"
_symmetry_group_IT_number 25
_symmetry_cell_setting 'orthorhombic'
loop_
_space_group_symop_operation_xyz
x,y,z
-x,-y,z
-x,y,z
x,-y,z
loop_
_atom_site_type_symbol
_atom_site_label
_atom_site_fract_x
_atom_site_fract_y
_atom_site_fract_z
Si Si1 0.657278 0.695698 0.990870
Si Si2 0.656705 0.697860 0.152447
Si Si3 0.844044 0.195581 0.442911
Si Si4 0.155646 0.307324 0.701781
Si Si5 0.654975 0.805011 0.573170
Si Si6 0.154933 0.193130 0.860998
Si Si7 0.844015 0.304010 0.283252
O O1 0.500000 0.744192 0.981239
O O2 0.661662 0.500000 0.989469
O O3 0.749609 0.759620 0.926901
O O4 0.700290 0.748191 0.071721
O O5 0.500000 0.745956 0.162695
O O6 0.659358 0.500000 0.152855
O O7 0.750493 0.754494 0.217771
O O8 0.741891 0.255410 0.504492
O O9 0.800931 0.246517 0.362592
O O10 0.000000 0.252688 0.454651
O O11 0.846652 0.000000 0.445900
O O12 0.153369 0.500000 0.692568
O O13 0.259984 0.235547 0.644591
O O14 0.195882 0.267430 0.783997
O O15 0.000000 0.245814 0.691074
O O16 0.500000 0.743659 0.574989
O O17 0.648402 0.000000 0.567340
O O18 0.000000 0.247354 0.875495
O O19 0.155361 0.000000 0.852843
O O20 0.841619 0.500000 0.283077
O O21 0.000000 0.251581 0.272814
#
# Coordination Sequence:
#
# PCOD9337715 Si02
#       7
#     4   4   4   4   4   4   4
#     4   9  18  33  53  76 102 134 172 212 254 301
#     4   8  15  29  48  70  97 129 164 202 247 298
#     4   9  18  33  51  70  97 134 169 202 247 300
#     4  10  21  37  57  79 102 131 168 208 251 300
#     4  10  21  36  54  77 104 134 169 208 251 300
#     4  10  21  36  54  77 104 134 169 208 251 300
#     4   9  17  29  47  72  98 125 163 208 249 292
#
# _framework density 18.600767999999999
#
# number of rings (size 3 to 8) (size 9 to 14) (size 15 to 20)
#    0.000    2.714    0.000    2.143    0.000    5.143 
#    0.000    3.571    0.000    2.571    0.000    0.000 
#    0.000    0.000    0.000    0.000    0.000    0.000 
#
# Total GULP energy -156176.320521 kJ/mol
# GULP energy per Si atom -5577.725733 kJ/mol
# Density = 1.855843 g / cm^3
# Si number density = 18.600768 Si / 1000 Ang^3
#
#
#
# Elastic Constant Matrix: (Units=GPa)
#
#
# Indices 1 2 3 4 5 6 
#
# 1 104.8523 13.1096 112.9752 0.0000 0.0000 0.0000
# 2 13.1096 6.2620 9.3338 0.0000 0.0000 0.0000
# 3 112.9752 9.3338 172.3120 0.0000 0.0000 0.0000
# 4 0.0000 0.0000 0.0000 35.6713 0.0000 0.0000
# 5 0.0000 0.0000 0.0000 0.0000 130.7455 0.0000
# 6 0.0000 0.0000 0.0000 0.0000 0.0000 17.1091
#
#
#
# Elastic Compliance Matrix: (Units=1/GPa)
#
#
# Indices 1 2 3 4 5 6 
#
# 1 0.044857 -0.054470 -0.026460 0.000000 0.000000 0.000000
# 2 -0.054470 0.239864 0.022720 0.000000 0.000000 0.000000
# 3 -0.026460 0.022720 0.021921 0.000000 0.000000 0.000000
# 4 0.000000 0.000000 0.000000 0.028034 0.000000 0.000000
# 5 0.000000 0.000000 0.000000 0.000000 0.007648 0.000000
# 6 0.000000 0.000000 0.000000 0.000000 0.000000 0.058448
#
#
# Mechanical properties :
#
#
# Convention : Reuss Voigt Hill
#
# Bulk Modulus (GPa) = 5.25702 61.58483 33.42092
# Shear Modulus (GPa) = 8.61178 46.57235 27.59206
#
# Velocity S-wave (km/s) = 2.15403 5.00921 3.85565
# Velocity P-wave (km/s) = 3.00314 8.16314 6.15044
#
# Compressibility (1/GPa) = 0.19022196
#
# Stress axis : x y z
#
# Youngs Moduli (GPa) = 22.29287 4.16904 45.61838
#
# Poissons Ratio (x) = 0.22709 1.20706
# Poissons Ratio (y) = 1.21430 -1.03646
# Poissons Ratio (z) = 0.58987 -0.09472
#
# Static dielectric constant tensor:
#      x y z
#    x 1.637820 0.000000 0.000000 
#    y 0.000000 1.653780 0.000000 
#    z 0.000000 0.000000 1.618910 
# 
# From -- ./inp_files/6134.got.cif
#   From: 2010.05.17/outbox.cif.g08.bks.cpg/sg25_4_cif.got.tgz:6134.got - 2010.06.04 01:04:00.
