data_PCOD9337441
_publ_section_title
;
Structure prediction by ZEFSAII (Michael W. Deem and Ramdas Pophale) SiO2 
 PCOD9337441
Probable space group: P M M 2
;
_chemical_formula_sum "Si O2"
_cell_formula_units_Z 32
_cell_length_a 7.847501
_cell_length_b 9.764099
_cell_length_c 21.514739
_cell_angle_alpha 90.000000
_cell_angle_beta 90.000000
_cell_angle_gamma 90.000000
_cell_volume 1648.540556
_symmetry_space_group_name_H-M "P M M 2"
_symmetry_group_IT_number 25
_symmetry_cell_setting 'orthorhombic'
loop_
_space_group_symop_operation_xyz
x,y,z
-x,-y,z
-x,y,z
x,-y,z
loop_
_atom_site_type_symbol
_atom_site_label
_atom_site_fract_x
_atom_site_fract_y
_atom_site_fract_z
Si Si1 0.701759 0.657179 0.567510
Si Si2 0.203122 0.656776 0.702850
Si Si3 0.208291 0.342025 0.340036
Si Si4 0.796663 0.845012 0.452436
Si Si5 0.791979 0.657541 0.199999
Si Si6 0.205428 0.156530 0.086962
Si Si7 0.295677 0.343349 0.837205
Si Si8 0.705139 0.843313 0.949567
O O1 0.500000 0.648667 0.560209
O O2 0.771415 0.500000 0.563083
O O3 0.739149 0.713771 0.636642
O O4 0.768667 0.755638 0.514029
O O5 0.271843 0.500000 0.703502
O O6 0.257798 0.717210 0.768899
O O7 0.000000 0.652667 0.702194
O O8 0.259855 0.500000 0.351686
O O9 0.270542 0.240067 0.393250
O O10 0.260368 0.302623 0.269956
O O11 0.000000 0.341643 0.340978
O O12 0.000000 0.855229 0.443815
O O13 0.728738 0.000000 0.457096
O O14 0.741395 0.500000 0.189991
O O15 0.731276 0.753208 0.144313
O O16 0.000000 0.660699 0.199541
O O17 0.000000 0.153439 0.090503
O O18 0.268311 0.000000 0.091354
O O19 0.251688 0.209385 0.018440
O O20 0.500000 0.350716 0.842910
O O21 0.228732 0.500000 0.839794
O O22 0.230245 0.251510 0.893800
O O23 0.500000 0.848158 0.944900
O O24 0.769289 0.000000 0.944733
#
# Coordination Sequence:
#
# PCOD9337441 Si02
#       8
#     4   4   4   4   4   4   4   4
#     4  10  20  34  53  74  96 128 167 201 237 286
#     4   9  17  30  50  75  99 122 152 193 238 282
#     4   8  14  26  45  68  94 124 157 194 237 284
#     4  10  20  32  48  73 102 129 160 201 246 289
#     4   8  14  25  42  66  94 121 151 190 235 279
#     4   9  17  28  43  64  89 117 151 192 233 272
#     4   9  17  30  48  69  92 118 151 191 231 273
#     4   9  18  32  47  63  88 123 157 186 223 276
#
# _framework density 19.411107000000001
#
# number of rings (size 3 to 8) (size 9 to 14) (size 15 to 20)
#    0.000    3.000    0.000    1.875    0.000    4.500 
#    0.000    3.125    0.000    3.000    0.000    3.500 
#    0.000    0.000    0.000    0.000    0.000    0.000 
#
# Total GULP energy -178359.985462 kJ/mol
# GULP energy per Si atom -5573.749546 kJ/mol
# Density = 1.936693 g / cm^3
# Si number density = 19.411107 Si / 1000 Ang^3
#
#
#
# Elastic Constant Matrix: (Units=GPa)
#
#
# Indices 1 2 3 4 5 6 
#
# 1 21.4148 6.1682 0.4359 0.0000 0.0000 0.0000
# 2 6.1682 88.4087 106.0303 0.0000 0.0000 0.0000
# 3 0.4359 106.0303 213.7602 0.0000 0.0000 0.0000
# 4 0.0000 0.0000 0.0000 20.7888 0.0000 0.0000
# 5 0.0000 0.0000 0.0000 0.0000 43.7286 0.0000
# 6 0.0000 0.0000 0.0000 0.0000 0.0000 7.7276
#
#
#
# Elastic Compliance Matrix: (Units=1/GPa)
#
#
# Indices 1 2 3 4 5 6 
#
# 1 0.048960 -0.008137 0.003936 0.000000 0.000000 0.000000
# 2 -0.008137 0.029273 -0.014504 0.000000 0.000000 0.000000
# 3 0.003936 -0.014504 0.011864 0.000000 0.000000 0.000000
# 4 0.000000 0.000000 0.000000 0.048103 0.000000 0.000000
# 5 0.000000 0.000000 0.000000 0.000000 0.022868 0.000000
# 6 0.000000 0.000000 0.000000 0.000000 0.000000 0.129407
#
#
# Mechanical properties :
#
#
# Convention : Reuss Voigt Hill
#
# Bulk Modulus (GPa) = 18.97912 60.98362 39.98137
# Shear Modulus (GPa) = 14.47397 28.51227 21.49312
#
# Velocity S-wave (km/s) = 2.73363 3.83673 3.33116
# Velocity P-wave (km/s) = 4.44548 7.14930 5.95293
#
# Compressibility (1/GPa) = 0.05268949
#
# Stress axis : x y z
#
# Youngs Moduli (GPa) = 20.42477 34.16064 84.28622
#
# Poissons Ratio (x) = 0.27795 -0.33176
# Poissons Ratio (y) = 0.16619 1.22247
# Poissons Ratio (z) = -0.08039 0.49546
#
# Static dielectric constant tensor:
#      x y z
#    x 1.703380 0.000000 0.000000 
#    y 0.000000 1.669760 0.000000 
#    z 0.000000 0.000000 1.680610 
# 
# From -- ./inp_files/6559.got.cif
#   From: 2010.05.17/outbox.cif.g08.bks.cpg/sg25_4_cif.got.tgz:6559.got - 2010.06.04 01:04:00.
