data_PCOD9337980
_publ_section_title
;
Structure prediction by ZEFSAII (Michael W. Deem and Ramdas Pophale) SiO2 
 PCOD9337980
Probable space group: P M C 21
;
_chemical_formula_sum "Si O2"
_cell_formula_units_Z 32
_cell_length_a 7.606054
_cell_length_b 16.355570
_cell_length_c 11.498328
_cell_angle_alpha 90.000000
_cell_angle_beta 90.000000
_cell_angle_gamma 90.000000
_cell_volume 1430.407510
_symmetry_space_group_name_H-M "P M C 21"
_symmetry_group_IT_number 26
_symmetry_cell_setting 'orthorhombic'
loop_
_space_group_symop_operation_xyz
x,y,z
-x,-y,1/2+z
-x,y,z
x,-y,1/2+z
loop_
_atom_site_type_symbol
_atom_site_label
_atom_site_fract_x
_atom_site_fract_y
_atom_site_fract_z
Si Si1 0.696840 0.144542 0.790300
Si Si2 0.198538 0.730965 0.477588
Si Si3 0.286044 0.838008 0.920427
Si Si4 0.714598 0.975452 0.100639
Si Si5 0.786037 0.464894 0.649987
Si Si6 0.785136 0.446849 0.910125
Si Si7 0.795628 0.722115 0.112248
Si Si8 0.295181 0.148873 0.161966
O O1 0.500000 0.126505 0.834667
O O2 0.796182 0.192934 0.889555
O O3 0.767287 0.064847 0.724627
O O4 0.691300 0.212293 0.688227
O O5 0.269997 0.648838 0.418407
O O6 0.284554 0.767166 0.592186
O O7 0.000000 0.711024 0.509361
O O8 0.500000 0.836347 0.921324
O O9 0.219110 0.844517 0.790024
O O10 0.226866 0.915577 0.997820
O O11 0.221438 0.755657 0.982325
O O12 0.500000 0.971255 0.098171
O O13 0.774987 0.068757 0.095294
O O14 0.728676 0.483568 0.784001
O O15 0.728182 0.513444 0.533568
O O16 0.737945 0.370231 0.628828
O O17 0.000000 0.470703 0.650003
O O18 0.000000 0.450764 0.907124
O O19 0.000000 0.726750 0.149756
O O20 0.500000 0.130296 0.177911
#
# Coordination Sequence:
#
# PCOD9337980 Si02
#       8
#     4   4   4   4   4   4   4   4
#     4  10  19  34  59  82 104 142 188 226 267 330
#     4  11  22  36  54  82 116 146 180 233 288 336
#     4   9  19  35  53  78 110 143 185 231 273 329
#     4   8  17  33  56  80 100 136 190 232 261 314
#     4   9  17  31  53  81 109 144 187 233 279 332
#     4   9  18  33  53  79 112 145 187 234 280 338
#     4  10  18  32  56  83 109 138 178 228 281 329
#     4  10  21  36  56  79 108 146 189 233 273 328
#
# _framework density 22.371247
#
# number of rings (size 3 to 8) (size 9 to 14) (size 15 to 20)
#    0.000    2.500    1.250    1.875    1.750    1.500 
#    0.000    5.625    0.000    3.000    0.000    0.000 
#    0.000    0.000    0.000    0.000    0.000    0.000 
#
# Total GULP energy -178438.900177 kJ/mol
# GULP energy per Si atom -5576.215631 kJ/mol
# Density = 2.232033 g / cm^3
# Si number density = 22.371247 Si / 1000 Ang^3
#
#
#
# Elastic Constant Matrix: (Units=GPa)
#
#
# Indices 1 2 3 4 5 6 
#
# 1 44.2829 -0.1554 -1.7007 0.0000 0.0000 0.0000
# 2 -0.1554 70.5776 52.5042 0.0000 0.0000 0.0000
# 3 -1.7007 52.5042 156.9765 0.0000 0.0000 0.0000
# 4 0.0000 0.0000 0.0000 24.5134 0.0000 0.0000
# 5 0.0000 0.0000 0.0000 0.0000 5.1817 0.0000
# 6 0.0000 0.0000 0.0000 0.0000 0.0000 12.2047
#
#
#
# Elastic Compliance Matrix: (Units=1/GPa)
#
#
# Indices 1 2 3 4 5 6 
#
# 1 0.022593 -0.000176 0.000304 0.000000 0.000000 0.000000
# 2 -0.000176 0.018863 -0.006311 0.000000 0.000000 0.000000
# 3 0.000304 -0.006311 0.008485 0.000000 0.000000 0.000000
# 4 0.000000 0.000000 0.000000 0.040794 0.000000 0.000000
# 5 0.000000 0.000000 0.000000 0.000000 0.192987 0.000000
# 6 0.000000 0.000000 0.000000 0.000000 0.000000 0.081936
#
#
# Mechanical properties :
#
#
# Convention : Reuss Voigt Hill
#
# Bulk Modulus (GPa) = 26.61427 41.45924 34.03676
# Shear Modulus (GPa) = 12.80246 23.12588 17.96417
#
# Velocity S-wave (km/s) = 2.39482 3.21866 2.83680
# Velocity P-wave (km/s) = 4.42372 5.69084 5.09681
#
# Compressibility (1/GPa) = 0.03757383
#
# Stress axis : x y z
#
# Youngs Moduli (GPa) = 44.26122 53.01252 117.86071
#
# Poissons Ratio (x) = 0.00934 -0.03580
# Poissons Ratio (y) = 0.00780 0.74384
# Poissons Ratio (z) = -0.01344 0.33457
#
# Static dielectric constant tensor:
#      x y z
#    x 1.837260 0.000000 0.000000 
#    y 0.000000 1.799290 0.000000 
#    z 0.000000 0.000000 1.867950 
# 
# From -- ./inp_files/3021.got.cif
#   From: 2010.05.17/outbox.cif.g08.bks.cpg/sg26_2_cif.got.tgz:3021.got - 2010.06.04 01:07:29.
