data_PCOD9337899
_publ_section_title
;
Structure prediction by ZEFSAII (Michael W. Deem and Ramdas Pophale) SiO2 
 PCOD9337899
Probable space group: P M C 21
;
_chemical_formula_sum "Si O2"
_cell_formula_units_Z 32
_cell_length_a 7.974423
_cell_length_b 6.949558
_cell_length_c 22.327775
_cell_angle_alpha 90.000000
_cell_angle_beta 90.000000
_cell_angle_gamma 90.000000
_cell_volume 1237.376603
_symmetry_space_group_name_H-M "P M C 21"
_symmetry_group_IT_number 26
_symmetry_cell_setting 'orthorhombic'
loop_
_space_group_symop_operation_xyz
x,y,z
-x,-y,1/2+z
-x,y,z
x,-y,1/2+z
loop_
_atom_site_type_symbol
_atom_site_label
_atom_site_fract_x
_atom_site_fract_y
_atom_site_fract_z
Si Si1 0.794401 0.930107 0.467840
Si Si2 0.304017 0.607380 0.315195
Si Si3 0.807303 0.383685 0.559671
Si Si4 0.797432 0.490676 0.436705
Si Si5 0.687730 0.938028 0.716715
Si Si6 0.808910 0.828594 0.593670
Si Si7 0.805365 0.041342 0.341425
Si Si8 0.810982 0.337464 0.688784
O O1 0.743702 0.711281 0.450585
O O2 0.742621 0.956900 0.537652
O O3 0.741502 0.054335 0.409956
O O4 0.000000 0.935926 0.468393
O O5 0.500000 0.644649 0.321329
O O6 0.251803 0.461582 0.367805
O O7 0.209200 0.809363 0.328631
O O8 0.268244 0.557413 0.245874
O O9 0.734739 0.364420 0.493006
O O10 0.817062 0.614457 0.567807
O O11 0.727529 0.328046 0.623146
O O12 0.000000 0.308397 0.558554
O O13 0.000000 0.481767 0.439762
O O14 0.500000 0.018082 0.715949
O O15 0.717078 0.864650 0.783861
O O16 0.812273 0.115320 0.707383
O O17 0.712416 0.817562 0.656358
O O18 0.000000 0.888351 0.606423
O O19 0.000000 0.096475 0.340717
O O20 0.000000 0.414537 0.681378
#
# Coordination Sequence:
#
# PCOD9337899 Si02
#       8
#     4   4   4   4   4   4   4   4
#     4   7  12  23  44  68  87 107 142 187 231 269
#     4  10  17  25  39  65  95 122 150 186 227 275
#     4   8  16  30  52  75  92 113 154 200 235 270
#     4   8  13  26  45  66  89 114 145 189 233 272
#     4  11  21  31  43  68 100 129 156 186 224 277
#     4   9  16  31  51  71  93 119 149 190 234 276
#     4   9  15  27  46  66  86 116 154 196 235 266
#     4  10  18  31  50  71  92 122 158 196 235 271
#
# _framework density 25.861166999999998
#
# number of rings (size 3 to 8) (size 9 to 14) (size 15 to 20)
#    0.000    3.000    0.000    6.750    0.000    0.000 
#    0.000    8.750    0.000    1.500    0.000    5.250 
#    0.000    0.000    0.000    0.000    0.000    0.000 
#
# Total GULP energy -178547.419949 kJ/mol
# GULP energy per Si atom -5579.606873 kJ/mol
# Density = 2.580231 g / cm^3
# Si number density = 25.861167 Si / 1000 Ang^3
#
#
#
# Elastic Constant Matrix: (Units=GPa)
#
#
# Indices 1 2 3 4 5 6 
#
# 1 56.7323 -2.5654 24.2803 0.0000 0.0000 0.0000
# 2 -2.5654 61.9080 47.2457 0.0000 0.0000 0.0000
# 3 24.2803 47.2457 310.0763 0.0000 0.0000 0.0000
# 4 0.0000 0.0000 0.0000 59.5217 0.0000 0.0000
# 5 0.0000 0.0000 0.0000 0.0000 -24.8287 0.0000
# 6 0.0000 0.0000 0.0000 0.0000 0.0000 47.1923
#
#
#
# Elastic Compliance Matrix: (Units=1/GPa)
#
#
# Indices 1 2 3 4 5 6 
#
# 1 0.018480 0.002116 -0.001769 0.000000 0.000000 0.000000
# 2 0.002116 0.018521 -0.002988 0.000000 0.000000 0.000000
# 3 -0.001769 -0.002988 0.003819 0.000000 0.000000 0.000000
# 4 0.000000 0.000000 0.000000 0.016801 0.000000 0.000000
# 5 0.000000 0.000000 0.000000 0.000000 -0.040276 0.000000
# 6 0.000000 0.000000 0.000000 0.000000 0.000000 0.021190
#
#
# Mechanical properties :
#
#
# Convention : Reuss Voigt Hill
#
# Bulk Modulus (GPa) = 28.13951 62.95975 45.54963
# Shear Modulus (GPa) = 89.82901 40.36081 65.09491
#
# Velocity S-wave (km/s) = 5.90004 3.95482 5.02250
# Velocity P-wave (km/s) = 7.57091 6.72698 7.16139
#
# Compressibility (1/GPa) = 0.03553722
#
# Stress axis : x y z
#
# Youngs Moduli (GPa) = 54.11364 53.99350 261.86277
#
# Poissons Ratio (x) = -0.11426 0.46336
# Poissons Ratio (y) = -0.11451 0.78236
# Poissons Ratio (z) = 0.09575 0.16131
#
# Static dielectric constant tensor:
#      x y z
#    x 1.891500 0.000000 0.000000 
#    y 0.000000 2.132040 0.000000 
#    z 0.000000 0.000000 2.166450 
# 
# From -- ./inp_files/5366.got.cif
#   From: 2010.05.17/outbox.cif.g08.bks.cpg/sg26_3_cif.got.tgz:5366.got - 2010.06.04 01:07:29.
