data_PCOD9337381
_publ_section_title
;
Structure prediction by ZEFSAII (Michael W. Deem and Ramdas Pophale) SiO2 
 PCOD9337381
Probable space group: P M M 2
;
_chemical_formula_sum "Si O2"
_cell_formula_units_Z 28
_cell_length_a 15.760718
_cell_length_b 9.073586
_cell_length_c 12.707931
_cell_angle_alpha 90.000000
_cell_angle_beta 90.000000
_cell_angle_gamma 90.000000
_cell_volume 1817.313306
_symmetry_space_group_name_H-M "P M M 2"
_symmetry_group_IT_number 25
_symmetry_cell_setting 'orthorhombic'
loop_
_space_group_symop_operation_xyz
x,y,z
-x,-y,z
-x,y,z
x,-y,z
loop_
_atom_site_type_symbol
_atom_site_label
_atom_site_fract_x
_atom_site_fract_y
_atom_site_fract_z
Si Si1 0.399554 0.175885 0.354180
Si Si2 0.722558 0.325837 0.759175
Si Si3 0.906183 0.175936 0.514633
Si Si4 0.267423 0.675580 0.508089
Si Si5 0.400149 0.175267 0.920241
Si Si6 0.397028 0.330836 0.136545
Si Si7 0.908284 0.674531 0.741770
O O1 0.500000 0.207723 0.369161
O O2 0.343050 0.250562 0.443582
O O3 0.373064 0.241634 0.240976
O O4 0.388956 0.000000 0.354887
O O5 0.705823 0.500000 0.773988
O O6 0.721709 0.296224 0.633596
O O7 0.655010 0.233300 0.823588
O O8 0.819166 0.293879 0.797355
O O9 0.822832 0.256750 0.471680
O O10 0.909240 0.229494 0.635976
O O11 0.000000 0.213197 0.469847
O O12 0.895599 0.000000 0.509339
O O13 0.266970 0.500000 0.493530
O O14 0.500000 0.209903 0.904138
O O15 0.392580 0.000000 0.931725
O O16 0.371055 0.253841 0.027973
O O17 0.500000 0.331302 0.135257
O O18 0.368167 0.500000 0.141755
O O19 0.903434 0.500000 0.711701
O O20 0.000000 0.696116 0.795623
#
# Coordination Sequence:
#
# PCOD9337381 Si02
#       7
#     4   4   4   4   4   4   4
#     4  10  20  33  49  69  94 122 152 189 231 273
#     4   9  18  30  44  65  92 122 154 186 222 267
#     4   9  16  26  42  64  89 117 150 189 231 272
#     4  10  20  32  46  66  94 127 160 191 225 272
#     4  10  20  32  46  65  90 120 153 189 228 268
#     4   9  17  31  51  70  87 111 148 192 231 268
#     4   8  14  26  43  62  86 116 149 185 225 269
#
# _framework density 15.407360000000001
#
# number of rings (size 3 to 8) (size 9 to 14) (size 15 to 20)
#    0.000    2.714    0.000    3.000    0.000    7.714 
#    0.000    2.857    0.000    0.000    0.000    1.000 
#    0.000    5.714    0.000    0.000    0.000    0.000 
#
# Total GULP energy -155879.260910 kJ/mol
# GULP energy per Si atom -5567.116461 kJ/mol
# Density = 1.537229 g / cm^3
# Si number density = 15.407360 Si / 1000 Ang^3
#
#
#
# Elastic Constant Matrix: (Units=GPa)
#
#
# Indices 1 2 3 4 5 6 
#
# 1 101.3886 62.6391 50.7960 0.0000 0.0000 0.0000
# 2 62.6391 75.5984 44.3493 0.0000 0.0000 0.0000
# 3 50.7960 44.3493 58.6952 0.0000 0.0000 0.0000
# 4 0.0000 0.0000 0.0000 24.8263 0.0000 0.0000
# 5 0.0000 0.0000 0.0000 0.0000 -2.1158 0.0000
# 6 0.0000 0.0000 0.0000 0.0000 0.0000 25.4113
#
#
#
# Elastic Compliance Matrix: (Units=1/GPa)
#
#
# Indices 1 2 3 4 5 6 
#
# 1 0.023016 -0.013266 -0.009895 0.000000 0.000000 0.000000
# 2 -0.013266 0.031405 -0.012249 0.000000 0.000000 0.000000
# 3 -0.009895 -0.012249 0.034856 0.000000 0.000000 0.000000
# 4 0.000000 0.000000 0.000000 0.040280 0.000000 0.000000
# 5 0.000000 0.000000 0.000000 0.000000 -0.472646 0.000000
# 6 0.000000 0.000000 0.000000 0.000000 0.000000 0.039352
#
#
# Mechanical properties :
#
#
# Convention : Reuss Voigt Hill
#
# Bulk Modulus (GPa) = 54.17876 61.25011 57.71443
# Shear Modulus (GPa) = -22.04949 14.81756 -3.61597
#
# Velocity S-wave (km/s) = -3.78709 3.10453 -1.53362
# Velocity P-wave (km/s) = 4.01469 7.25885 5.86552
#
# Compressibility (1/GPa) = 0.01845742
#
# Stress axis : x y z
#
# Youngs Moduli (GPa) = 43.44710 31.84173 28.68946
#
# Poissons Ratio (x) = 0.42241 0.28389
# Poissons Ratio (y) = 0.57636 0.35141
# Poissons Ratio (z) = 0.42993 0.39003
#
# Static dielectric constant tensor:
#      x y z
#    x 1.543500 0.000000 0.000000 
#    y 0.000000 1.512860 0.000000 
#    z 0.000000 0.000000 1.483400 
# 
# From -- ./inp_files/4998.got.cif
#   From: 2010.05.17/outbox.cif.g08.bks.cpg/sg25_3_cif.got.tgz:4998.got - 2010.06.04 01:04:00.
