data_PCOD9337182
_publ_section_title
;
Structure prediction by ZEFSAII (Michael W. Deem and Ramdas Pophale) SiO2 
 PCOD9337182
Probable space group: P M M 2
;
_chemical_formula_sum "Si O2"
_cell_formula_units_Z 24
_cell_length_a 8.161324
_cell_length_b 13.123078
_cell_length_c 12.183444
_cell_angle_alpha 90.000000
_cell_angle_beta 90.000000
_cell_angle_gamma 90.000000
_cell_volume 1304.867460
_symmetry_space_group_name_H-M "P M M 2"
_symmetry_group_IT_number 25
_symmetry_cell_setting 'orthorhombic'
loop_
_space_group_symop_operation_xyz
x,y,z
-x,-y,z
-x,y,z
x,-y,z
loop_
_atom_site_type_symbol
_atom_site_label
_atom_site_fract_x
_atom_site_fract_y
_atom_site_fract_z
Si Si1 0.799591 0.500000 0.260291
Si Si2 0.195754 0.500000 0.009495
Si Si3 0.799939 0.884000 0.249128
Si Si4 0.304680 0.690951 0.864296
Si Si5 0.197905 0.698048 0.396391
Si Si6 0.302244 0.382340 0.627397
Si Si7 0.802461 0.115742 0.998608
O O1 0.742916 0.500000 0.134693
O O2 0.746711 0.399449 0.325347
O O3 0.000000 0.500000 0.259335
O O4 0.000000 0.500000 0.013919
O O5 0.249977 0.600243 0.944503
O O6 0.743603 0.800594 0.336412
O O7 0.000000 0.883011 0.249604
O O8 0.748891 0.000000 0.273185
O O9 0.749845 0.858861 0.123811
O O10 0.500000 0.689000 0.859499
O O11 0.242305 0.665979 0.741745
O O12 0.252057 0.798775 0.913933
O O13 0.250989 0.680739 0.520931
O O14 0.000000 0.699041 0.394032
O O15 0.500000 0.385235 0.630664
O O16 0.244429 0.500000 0.617974
O O17 0.000000 0.114788 0.999444
O O18 0.747120 0.000000 0.973896
#
# Coordination Sequence:
#
# PCOD9337182 Si02
#       7
#     2   2   4   4   4   4   4
#     4   9  18  30  47  76 106 129 158 211 274 317
#     4  11  21  34  55  80 108 139 174 219 270 323
#     4   8  15  30  53  79 108 139 167 207 265 316
#     4  11  22  37  54  76 109 144 180 221 270 322
#     4  10  18  31  53  78 102 129 173 218 255 308
#     4  10  21  38  53  68 101 145 179 213 263 315
#     4   9  18  35  59  84 109 140 179 219 263 319
#
# _framework density 18.392672999999998
#
# number of rings (size 3 to 8) (size 9 to 14) (size 15 to 20)
#    0.000    2.333    1.667    2.750    0.000    4.333 
#    0.000    5.000    0.000    4.500    0.000    0.000 
#    0.000    0.000    0.000    0.000    0.000    0.000 
#
# Total GULP energy -133929.991389 kJ/mol
# GULP energy per Si atom -5580.416308 kJ/mol
# Density = 1.835081 g / cm^3
# Si number density = 18.392673 Si / 1000 Ang^3
#
#
#
# Elastic Constant Matrix: (Units=GPa)
#
#
# Indices 1 2 3 4 5 6 
#
# 1 11.8300 14.2647 11.8493 0.0000 0.0000 0.0000
# 2 14.2647 133.9938 94.1440 0.0000 0.0000 0.0000
# 3 11.8493 94.1440 168.1917 0.0000 0.0000 0.0000
# 4 0.0000 0.0000 0.0000 24.4860 0.0000 0.0000
# 5 0.0000 0.0000 0.0000 0.0000 35.7634 0.0000
# 6 0.0000 0.0000 0.0000 0.0000 0.0000 0.0149
#
#
#
# Elastic Compliance Matrix: (Units=1/GPa)
#
#
# Indices 1 2 3 4 5 6 
#
# 1 0.097289 -0.009133 -0.001742 0.000000 0.000000 0.000000
# 2 -0.009133 0.013158 -0.006722 0.000000 0.000000 0.000000
# 3 -0.001742 -0.006722 0.009831 0.000000 0.000000 0.000000
# 4 0.000000 0.000000 0.000000 0.040840 0.000000 0.000000
# 5 0.000000 0.000000 0.000000 0.000000 0.027962 0.000000
# 6 0.000000 0.000000 0.000000 0.000000 0.000000 67.284691
#
#
# Mechanical properties :
#
#
# Convention : Reuss Voigt Hill
#
# Bulk Modulus (GPa) = 11.75313 61.61461 36.68387
# Shear Modulus (GPa) = 0.07403 24.97001 12.52202
#
# Velocity S-wave (km/s) = 0.20085 3.68857 2.61208
# Velocity P-wave (km/s) = 2.54121 7.19117 5.39309
#
# Compressibility (1/GPa) = 0.08508372
#
# Stress axis : x y z
#
# Youngs Moduli (GPa) = 10.27870 75.99975 101.72245
#
# Poissons Ratio (x) = 0.69413 0.17718
# Poissons Ratio (y) = 0.09388 0.68374
# Poissons Ratio (z) = 0.01790 0.51084
#
# Static dielectric constant tensor:
#      x y z
#    x 1.651630 0.000000 0.000000 
#    y 0.000000 1.614000 0.000000 
#    z 0.000000 0.000000 1.619680 
# 
# From -- ./inp_files/3953.got.cif
#   From: 2010.05.17/outbox.cif.g08.bks.cpg/sg25_2_cif.got.tgz:3953.got - 2010.06.04 01:04:00.
