data_PCOD9337979
_publ_section_title
;
Structure prediction by ZEFSAII (Michael W. Deem and Ramdas Pophale) SiO2 
 PCOD9337979
Probable space group: P M C 21
;
_chemical_formula_sum "Si O2"
_cell_formula_units_Z 32
_cell_length_a 8.209476
_cell_length_b 8.446274
_cell_length_c 20.162320
_cell_angle_alpha 90.000000
_cell_angle_beta 90.000000
_cell_angle_gamma 90.000000
_cell_volume 1398.044859
_symmetry_space_group_name_H-M "P M C 21"
_symmetry_group_IT_number 26
_symmetry_cell_setting 'orthorhombic'
loop_
_space_group_symop_operation_xyz
x,y,z
-x,-y,1/2+z
-x,y,z
x,-y,1/2+z
loop_
_atom_site_type_symbol
_atom_site_label
_atom_site_fract_x
_atom_site_fract_y
_atom_site_fract_z
Si Si1 0.181284 0.173795 0.194600
Si Si2 0.321502 0.488170 0.205969
Si Si3 0.196452 0.508612 0.975422
Si Si4 0.688348 0.947688 0.282180
Si Si5 0.183426 0.138597 0.498933
Si Si6 0.187729 0.645108 0.333292
Si Si7 0.684927 0.193535 0.634504
Si Si8 0.200676 0.812547 0.545417
O O1 0.182370 0.362362 0.197384
O O2 0.257054 0.149214 0.120848
O O3 0.000000 0.106545 0.194176
O O4 0.259805 0.124686 0.265270
O O5 0.500000 0.410599 0.202720
O O6 0.301281 0.576026 0.275929
O O7 0.311938 0.620925 0.150187
O O8 0.223604 0.435264 0.902862
O O9 0.000000 0.522330 0.986307
O O10 0.260024 0.691107 0.977880
O O11 0.252978 0.364307 0.023479
O O12 0.500000 0.936489 0.299098
O O13 0.786869 0.834828 0.330557
O O14 0.713768 0.885517 0.206047
O O15 0.185503 0.159330 0.578574
O O16 0.000000 0.132628 0.471365
O O17 0.252218 0.957810 0.496368
O O18 0.000000 0.613182 0.316411
O O19 0.500000 0.153316 0.612796
O O20 0.000000 0.813239 0.545502
#
# Coordination Sequence:
#
# PCOD9337979 Si02
#       8
#     4   4   4   4   4   4   4   4
#     4  11  20  33  56  89 117 142 185 236 283 345
#     4  10  21  36  54  79 112 150 183 228 293 346
#     4   9  19  35  54  81 114 148 189 238 287 333
#     4  10  20  35  55  78 113 152 181 225 289 343
#     4  10  18  32  56  80 109 148 184 229 288 338
#     4  10  20  37  57  79 107 146 199 243 275 332
#     4   9  18  32  51  76 107 143 179 218 276 340
#     4   9  18  32  53  86 119 145 182 233 287 343
#
# _framework density 22.889109000000001
#
# number of rings (size 3 to 8) (size 9 to 14) (size 15 to 20)
#    0.000    2.250    1.250    3.000    0.000    3.500 
#    2.250    1.250    0.000    4.500    0.000    0.000 
#    0.000    0.000    0.000    0.000    0.000    0.000 
#
# Total GULP energy -178189.521524 kJ/mol
# GULP energy per Si atom -5568.422548 kJ/mol
# Density = 2.283701 g / cm^3
# Si number density = 22.889109 Si / 1000 Ang^3
#
#
#
# Elastic Constant Matrix: (Units=GPa)
#
#
# Indices 1 2 3 4 5 6 
#
# 1 42.0856 -5.9101 3.3164 0.0000 0.0000 0.0000
# 2 -5.9101 60.6116 0.8551 0.0000 0.0000 0.0000
# 3 3.3164 0.8551 23.5169 0.0000 0.0000 0.0000
# 4 0.0000 0.0000 0.0000 25.5688 0.0000 0.0000
# 5 0.0000 0.0000 0.0000 0.0000 0.7856 0.0000
# 6 0.0000 0.0000 0.0000 0.0000 0.0000 18.4283
#
#
#
# Elastic Compliance Matrix: (Units=1/GPa)
#
#
# Indices 1 2 3 4 5 6 
#
# 1 0.024380 0.002427 -0.003526 0.000000 0.000000 0.000000
# 2 0.002427 0.016749 -0.000951 0.000000 0.000000 0.000000
# 3 -0.003526 -0.000951 0.043055 0.000000 0.000000 0.000000
# 4 0.000000 0.000000 0.000000 0.039110 0.000000 0.000000
# 5 0.000000 0.000000 0.000000 0.000000 1.272866 0.000000
# 6 0.000000 0.000000 0.000000 0.000000 0.000000 0.054264
#
#
# Mechanical properties :
#
#
# Convention : Reuss Voigt Hill
#
# Bulk Modulus (GPa) = 12.48726 13.63743 13.06234
# Shear Modulus (GPa) = 3.37560 17.48671 10.43115
#
# Velocity S-wave (km/s) = 1.21572 2.76701 2.13709
# Velocity P-wave (km/s) = 2.72727 4.02237 3.43638
#
# Compressibility (1/GPa) = 0.08008164
#
# Stress axis : x y z
#
# Youngs Moduli (GPa) = 41.01756 59.70659 23.22633
#
# Poissons Ratio (x) = -0.14491 0.08191
# Poissons Ratio (y) = -0.09955 0.02209
# Poissons Ratio (z) = 0.14464 0.05680
#
# Static dielectric constant tensor:
#      x y z
#    x 1.840990 0.000000 0.000000 
#    y 0.000000 2.049980 0.000000 
#    z 0.000000 0.000000 1.834310 
# 
# From -- ./inp_files/5569.got.cif
#   From: 2010.05.17/outbox.cif.g08.bks.cpg/sg26_3_cif.got.tgz:5569.got - 2010.06.04 01:07:29.
