data_PCOD9337614
_publ_section_title
;
Structure prediction by ZEFSAII (Michael W. Deem and Ramdas Pophale) SiO2 
 PCOD9337614
Probable space group: P M M 2
;
_chemical_formula_sum "Si O2"
_cell_formula_units_Z 24
_cell_length_a 19.265601
_cell_length_b 7.602092
_cell_length_c 7.783967
_cell_angle_alpha 90.000000
_cell_angle_beta 90.000000
_cell_angle_gamma 90.000000
_cell_volume 1140.031021
_symmetry_space_group_name_H-M "P M M 2"
_symmetry_group_IT_number 25
_symmetry_cell_setting 'orthorhombic'
loop_
_space_group_symop_operation_xyz
x,y,z
-x,-y,z
-x,y,z
x,-y,z
loop_
_atom_site_type_symbol
_atom_site_label
_atom_site_fract_x
_atom_site_fract_y
_atom_site_fract_z
Si Si1 0.686255 0.705810 0.410670
Si Si2 0.660557 0.210401 0.023280
Si Si3 0.183744 0.215480 0.966428
Si Si4 0.422427 0.290491 0.690633
Si Si5 0.157588 0.796304 0.343733
Si Si6 0.921054 0.215890 0.671081
O O1 0.697889 0.500000 0.444744
O O2 0.654582 0.723939 0.218891
O O3 0.634444 0.779044 0.555198
O O4 0.762515 0.790526 0.407174
O O5 0.735949 0.270120 0.951980
O O6 0.661744 0.000000 0.034003
O O7 0.603344 0.262919 0.885001
O O8 0.157814 0.279223 0.152494
O O9 0.184042 0.000000 0.967487
O O10 0.133152 0.272866 0.816090
O O11 0.500000 0.219233 0.665418
O O12 0.425447 0.500000 0.660643
O O13 0.107479 0.720793 0.487715
O O14 0.137449 0.000000 0.324601
O O15 0.000000 0.269239 0.703463
O O16 0.919730 0.000000 0.670378
#
# Coordination Sequence:
#
# PCOD9337614 Si02
#       6
#     4   4   4   4   4   4
#     4  10  20  35  56  79 103 137 178 216 258 311
#     4  10  20  35  56  80 105 135 173 219 265 306
#     4   8  15  27  43  65  94 125 157 199 250 298
#     4  10  22  38  54  75 105 139 172 209 257 313
#     4   9  17  30  48  71  98 128 166 214 260 299
#     4   9  16  25  41  68  99 129 162 204 256 308
#
# _framework density 21.052057000000001
#
# number of rings (size 3 to 8) (size 9 to 14) (size 15 to 20)
#    0.000    2.667    0.000    3.000    0.000    4.333 
#    0.000    5.000    0.000    0.500    0.000    0.000 
#    0.000    0.000    0.000    0.000    0.000    0.000 
#
# Total GULP energy -133963.799026 kJ/mol
# GULP energy per Si atom -5581.824959 kJ/mol
# Density = 2.100414 g / cm^3
# Si number density = 21.052057 Si / 1000 Ang^3
#
#
#
# Elastic Constant Matrix: (Units=GPa)
#
#
# Indices 1 2 3 4 5 6 
#
# 1 36.4016 -10.0475 22.0853 0.0000 0.0000 0.0000
# 2 -10.0475 46.3552 -11.5318 0.0000 0.0000 0.0000
# 3 22.0853 -11.5318 47.6945 0.0000 0.0000 0.0000
# 4 0.0000 0.0000 0.0000 12.1364 0.0000 0.0000
# 5 0.0000 0.0000 0.0000 0.0000 -2.4156 0.0000
# 6 0.0000 0.0000 0.0000 0.0000 0.0000 9.5798
#
#
#
# Elastic Compliance Matrix: (Units=1/GPa)
#
#
# Indices 1 2 3 4 5 6 
#
# 1 0.038962 0.004210 -0.017024 0.000000 0.000000 0.000000
# 2 0.004210 0.023408 0.003710 0.000000 0.000000 0.000000
# 3 -0.017024 0.003710 0.029747 0.000000 0.000000 0.000000
# 4 0.000000 0.000000 0.000000 0.082396 0.000000 0.000000
# 5 0.000000 0.000000 0.000000 0.000000 -0.413984 0.000000
# 6 0.000000 0.000000 0.000000 0.000000 0.000000 0.104387
#
#
# Mechanical properties :
#
#
# Convention : Reuss Voigt Hill
#
# Bulk Modulus (GPa) = 13.53000 14.60704 14.06852
# Shear Modulus (GPa) = -54.20628 12.52315 -20.84157
#
# Velocity S-wave (km/s) = -5.07982 2.44163 -3.14984
# Velocity P-wave (km/s) = 5.28822 3.86036 2.55567
#
# Compressibility (1/GPa) = 0.07390984
#
# Stress axis : x y z
#
# Youngs Moduli (GPa) = 25.66613 42.72035 33.61708
#
# Poissons Ratio (x) = -0.17985 0.57229
# Poissons Ratio (y) = -0.10806 -0.12473
# Poissons Ratio (z) = 0.43693 -0.15850
#
# Static dielectric constant tensor:
#      x y z
#    x 1.732690 0.000000 0.000000 
#    y 0.000000 1.806620 0.000000 
#    z 0.000000 0.000000 1.744030 
# 
# From -- ./inp_files/3344.got.cif
#   From: 2010.05.17/outbox.cif.g08.bks.cpg/sg25_2_cif.got.tgz:3344.got - 2010.06.04 01:04:00.
