data_PCOD9337641
_publ_section_title
;
Structure prediction by ZEFSAII (Michael W. Deem and Ramdas Pophale) SiO2 
 PCOD9337641
Probable space group: P M M 2
;
_chemical_formula_sum "Si O2"
_cell_formula_units_Z 24
_cell_length_a 7.396630
_cell_length_b 8.323743
_cell_length_c 17.172863
_cell_angle_alpha 90.000000
_cell_angle_beta 90.000000
_cell_angle_gamma 90.000000
_cell_volume 1057.292770
_symmetry_space_group_name_H-M "P M M 2"
_symmetry_group_IT_number 25
_symmetry_cell_setting 'orthorhombic'
loop_
_space_group_symop_operation_xyz
x,y,z
-x,-y,z
-x,y,z
x,-y,z
loop_
_atom_site_type_symbol
_atom_site_label
_atom_site_fract_x
_atom_site_fract_y
_atom_site_fract_z
Si Si1 0.295573 0.500000 0.410030
Si Si2 0.779203 0.175249 0.658976
Si Si3 0.217963 0.822934 0.312953
Si Si4 0.203159 0.500000 0.582839
Si Si5 0.220469 0.813984 0.985597
Si Si6 0.779682 0.683012 0.151848
Si Si7 0.780247 0.681836 0.820022
O O1 0.500000 0.500000 0.436840
O O2 0.265971 0.663084 0.361087
O O3 0.188823 0.500000 0.490239
O O4 0.715854 0.331801 0.611922
O O5 0.727998 0.203744 0.749116
O O6 0.000000 0.172442 0.654778
O O7 0.717570 0.000000 0.631613
O O8 0.277590 0.793342 0.223727
O O9 0.000000 0.826781 0.313270
O O10 0.279956 0.000000 0.340371
O O11 0.000000 0.500000 0.617753
O O12 0.281186 0.735228 0.066308
O O13 0.000000 0.805493 0.985757
O O14 0.270706 0.000000 0.984743
O O15 0.281652 0.731852 0.905805
O O16 0.726058 0.500000 0.167978
O O17 0.000000 0.687534 0.150768
O O18 0.724909 0.500000 0.801989
O O19 0.000000 0.684549 0.822151
#
# Coordination Sequence:
#
# PCOD9337641 Si02
#       7
#     2   4   4   2   4   4   4
#     4  12  26  42  60  83 114 146 178 227 286 348
#     4   9  16  27  45  69  97 132 172 214 261 314
#     4  10  20  37  62  87 112 146 189 233 277 330
#     4  10  20  36  56  77 102 132 174 225 270 326
#     4   9  15  20  29  54  94 138 178 211 252 309
#     4   9  15  25  43  68 100 137 178 222 265 313
#     4   9  14  21  33  54  91 137 175 207 252 310
#
# _framework density 22.699484000000002
#
# number of rings (size 3 to 8) (size 9 to 14) (size 15 to 20)
#    0.000    2.500    1.667    2.250    0.000    7.000 
#    0.000    1.667    0.000    0.000    0.000    0.000 
#    0.000    2.667    0.000    1.667    0.000    0.333 
#
# Total GULP energy -134029.354233 kJ/mol
# GULP energy per Si atom -5584.556426 kJ/mol
# Density = 2.264782 g / cm^3
# Si number density = 22.699484 Si / 1000 Ang^3
#
#
#
# Elastic Constant Matrix: (Units=GPa)
#
#
# Indices 1 2 3 4 5 6 
#
# 1 79.7786 5.8290 -2.6558 0.0000 0.0000 0.0000
# 2 5.8290 202.0453 68.6365 0.0000 0.0000 0.0000
# 3 -2.6558 68.6365 117.2737 0.0000 0.0000 0.0000
# 4 0.0000 0.0000 0.0000 13.4861 0.0000 0.0000
# 5 0.0000 0.0000 0.0000 0.0000 -74.7677 0.0000
# 6 0.0000 0.0000 0.0000 0.0000 0.0000 -38.7628
#
#
#
# Elastic Compliance Matrix: (Units=1/GPa)
#
#
# Indices 1 2 3 4 5 6 
#
# 1 0.012597 -0.000575 0.000622 0.000000 0.000000 0.000000
# 2 -0.000575 0.006204 -0.003644 0.000000 0.000000 0.000000
# 3 0.000622 -0.003644 0.010674 0.000000 0.000000 0.000000
# 4 0.000000 0.000000 0.000000 0.074150 0.000000 0.000000
# 5 0.000000 0.000000 0.000000 0.000000 -0.013375 0.000000
# 6 0.000000 0.000000 0.000000 0.000000 0.000000 -0.025798
#
#
# Mechanical properties :
#
#
# Convention : Reuss Voigt Hill
#
# Bulk Modulus (GPa) = 44.88099 60.30187 52.59143
# Shear Modulus (GPa) = 63.23215 1.81031 32.52123
#
# Velocity S-wave (km/s) = 5.28362 0.89400 3.78919
# Velocity P-wave (km/s) = 7.55228 5.26200 6.50867
#
# Compressibility (1/GPa) = 0.02228115
#
# Stress axis : x y z
#
# Youngs Moduli (GPa) = 79.38167 161.19080 93.68735
#
# Poissons Ratio (x) = 0.09262 -0.05823
# Poissons Ratio (y) = 0.04561 0.34139
# Poissons Ratio (z) = -0.04934 0.58736
#
# Static dielectric constant tensor:
#      x y z
#    x 1.917970 0.000000 0.000000 
#    y 0.000000 1.823260 0.000000 
#    z 0.000000 0.000000 1.804000 
# 
# From -- ./inp_files/6008.got.cif
#   From: 2010.05.17/outbox.cif.g08.bks.cpg/sg25_4_cif.got.tgz:6008.got - 2010.06.04 01:04:00.
