data_PCOD9337610
_publ_section_title
;
Structure prediction by ZEFSAII (Michael W. Deem and Ramdas Pophale) SiO2 
 PCOD9337610
Probable space group: P M M 2
;
_chemical_formula_sum "Si O2"
_cell_formula_units_Z 20
_cell_length_a 13.284218
_cell_length_b 7.995758
_cell_length_c 9.420831
_cell_angle_alpha 90.000000
_cell_angle_beta 90.000000
_cell_angle_gamma 90.000000
_cell_volume 1000.656103
_symmetry_space_group_name_H-M "P M M 2"
_symmetry_group_IT_number 25
_symmetry_cell_setting 'orthorhombic'
loop_
_space_group_symop_operation_xyz
x,y,z
-x,-y,z
-x,y,z
x,-y,z
loop_
_atom_site_type_symbol
_atom_site_label
_atom_site_fract_x
_atom_site_fract_y
_atom_site_fract_z
Si Si1 0.695407 0.799434 0.091620
Si Si2 0.303166 0.699373 0.765925
Si Si3 0.500000 0.794712 0.264204
Si Si4 0.112762 0.798253 0.261467
Si Si5 0.113652 0.297872 0.586914
Si Si6 0.500000 0.799949 0.590191
O O1 0.599407 0.738030 0.180648
O O2 0.799476 0.734521 0.159065
O O3 0.696450 0.000000 0.107737
O O4 0.686252 0.761842 0.926071
O O5 0.295859 0.500000 0.771454
O O6 0.201485 0.764555 0.690180
O O7 0.400347 0.744504 0.673088
O O8 0.500000 0.739194 0.427508
O O9 0.500000 0.000000 0.264059
O O10 0.135131 0.753584 0.424799
O O11 0.000000 0.735668 0.228064
O O12 0.110404 0.000000 0.251517
O O13 0.113148 0.500000 0.592051
O O14 0.000000 0.239796 0.622423
O O15 0.500000 0.000000 0.586538
#
# Coordination Sequence:
#
# PCOD9337610 Si02
#       6
#     4   4   2   4   4   2
#     4  10  20  35  54  77 107 141 177 218 268 323
#     4  11  23  37  54  81 114 144 180 225 269 318
#     4   9  19  35  56  78  98 129 174 217 258 316
#     4   9  18  33  54  80 108 139 181 230 271 313
#     4   9  19  36  56  78 108 147 187 226 270 320
#     4  11  22  39  62  82 104 139 180 221 274 332
#
# _framework density 19.986885999999998
#
# number of rings (size 3 to 8) (size 9 to 14) (size 15 to 20)
#    0.000    2.200    0.000    2.700    0.000    5.600 
#    0.000    2.000    0.000    0.000    0.000    0.000 
#    0.000    0.000    0.000    0.000    0.000    0.000 
#
# Total GULP energy -111697.343271 kJ/mol
# GULP energy per Si atom -5584.867164 kJ/mol
# Density = 1.994139 g / cm^3
# Si number density = 19.986886 Si / 1000 Ang^3
#
#
#
# Elastic Constant Matrix: (Units=GPa)
#
#
# Indices 1 2 3 4 5 6 
#
# 1 180.1501 6.1484 132.2016 0.0000 0.0000 0.0000
# 2 6.1484 10.3669 -6.0296 0.0000 0.0000 0.0000
# 3 132.2016 -6.0296 173.8371 0.0000 0.0000 0.0000
# 4 0.0000 0.0000 0.0000 69.3481 0.0000 0.0000
# 5 0.0000 0.0000 0.0000 0.0000 5.4614 0.0000
# 6 0.0000 0.0000 0.0000 0.0000 0.0000 0.1257
#
#
#
# Elastic Compliance Matrix: (Units=1/GPa)
#
#
# Indices 1 2 3 4 5 6 
#
# 1 0.014648 -0.015479 -0.011676 0.000000 0.000000 0.000000
# 2 -0.015479 0.114803 0.015753 0.000000 0.000000 0.000000
# 3 -0.011676 0.015753 0.015179 0.000000 0.000000 0.000000
# 4 0.000000 0.000000 0.000000 0.014420 0.000000 0.000000
# 5 0.000000 0.000000 0.000000 0.000000 0.183102 0.000000
# 6 0.000000 0.000000 0.000000 0.000000 0.000000 7.953527
#
#
# Mechanical properties :
#
#
# Convention : Reuss Voigt Hill
#
# Bulk Modulus (GPa) = 8.20839 69.88834 39.04837
# Shear Modulus (GPa) = 0.59815 30.45597 15.52706
#
# Velocity S-wave (km/s) = 0.54765 3.90782 2.79025
# Velocity P-wave (km/s) = 2.12502 7.44341 5.47358
#
# Compressibility (1/GPa) = 0.12182650
#
# Stress axis : x y z
#
# Youngs Moduli (GPa) = 68.26934 8.71055 65.88155
#
# Poissons Ratio (x) = 0.13483 0.76926
# Poissons Ratio (y) = 1.05672 -1.03785
# Poissons Ratio (z) = 0.79714 -0.13722
#
# Static dielectric constant tensor:
#      x y z
#    x 1.716790 0.000000 0.000000 
#    y 0.000000 1.705140 0.000000 
#    z 0.000000 0.000000 1.658290 
# 
# From -- ./inp_files/2551.got.cif
#   From: 2010.05.17/outbox.cif.g08.bks.cpg/sg25_2_cif.got.tgz:2551.got - 2010.06.04 01:04:00.
