data_PCOD9337776
_publ_section_title
;
Structure prediction by ZEFSAII (Michael W. Deem and Ramdas Pophale) SiO2 
 PCOD9337776
Probable space group: P M M 2
;
_chemical_formula_sum "Si O2"
_cell_formula_units_Z 32
_cell_length_a 14.736103
_cell_length_b 9.051488
_cell_length_c 12.501837
_cell_angle_alpha 90.000000
_cell_angle_beta 90.000000
_cell_angle_gamma 90.000000
_cell_volume 1667.540769
_symmetry_space_group_name_H-M "P M M 2"
_symmetry_group_IT_number 25
_symmetry_cell_setting 'orthorhombic'
loop_
_space_group_symop_operation_xyz
x,y,z
-x,-y,z
-x,y,z
x,-y,z
loop_
_atom_site_type_symbol
_atom_site_label
_atom_site_fract_x
_atom_site_fract_y
_atom_site_fract_z
Si Si1 0.750665 0.823791 0.979620
Si Si2 0.891423 0.325712 0.134848
Si Si3 0.608016 0.823563 0.589298
Si Si4 0.254242 0.323790 0.748238
Si Si5 0.610163 0.169942 0.349246
Si Si6 0.893833 0.675572 0.572266
Si Si7 0.608615 0.326472 0.131971
Si Si8 0.110289 0.831062 0.354306
O O1 0.749628 0.757586 0.861009
O O2 0.752065 0.000000 0.977359
O O3 0.836619 0.760841 0.044743
O O4 0.663246 0.765368 0.044521
O O5 0.872427 0.500000 0.128127
O O6 0.863439 0.263474 0.251025
O O7 0.000000 0.304802 0.123744
O O8 0.500000 0.799624 0.598285
O O9 0.661873 0.734087 0.677876
O O10 0.637595 0.781784 0.468328
O O11 0.623927 0.000000 0.600446
O O12 0.259533 0.500000 0.764218
O O13 0.166105 0.290498 0.675492
O O14 0.500000 0.168715 0.351490
O O15 0.636864 0.270817 0.250007
O O16 0.638856 0.000000 0.331572
O O17 0.886882 0.500000 0.550910
O O18 0.861468 0.762063 0.467111
O O19 0.000000 0.709831 0.590376
O O20 0.500000 0.304890 0.121907
O O21 0.627920 0.500000 0.120095
O O22 0.000000 0.830115 0.355867
O O23 0.140472 0.000000 0.343618
#
# Coordination Sequence:
#
# PCOD9337776 Si02
#       8
#     4   4   4   4   4   4   4   4
#     4  12  26  42  60  82 112 151 196 243 286 338
#     4  10  21  39  63  88 117 152 188 232 286 341
#     4   9  19  37  60  85 115 151 187 226 278 339
#     4  11  24  40  58  82 111 146 193 243 286 333
#     4   8  15  31  56  85 116 149 186 228 279 341
#     4   9  19  37  59  82 112 151 190 229 279 337
#     4  10  21  38  61  88 118 151 189 236 287 340
#     4   9  17  31  55  88 121 150 185 229 277 333
#
# _framework density 19.189935999999999
#
# number of rings (size 3 to 8) (size 9 to 14) (size 15 to 20)
#    0.000    2.250    0.000    3.375    0.000    6.750 
#    0.000    5.000    0.000    0.000    0.000    0.000 
#    0.000    0.000    0.000    0.000    0.000    0.000 
#
# Total GULP energy -178792.349784 kJ/mol
# GULP energy per Si atom -5587.260931 kJ/mol
# Density = 1.914626 g / cm^3
# Si number density = 19.189936 Si / 1000 Ang^3
#
#
#
# Elastic Constant Matrix: (Units=GPa)
#
#
# Indices 1 2 3 4 5 6 
#
# 1 84.6498 61.3061 62.0833 0.0000 0.0000 0.0000
# 2 61.3061 136.4100 114.6156 0.0000 0.0000 0.0000
# 3 62.0833 114.6156 191.3103 0.0000 0.0000 0.0000
# 4 0.0000 0.0000 0.0000 40.2548 0.0000 0.0000
# 5 0.0000 0.0000 0.0000 0.0000 29.8986 0.0000
# 6 0.0000 0.0000 0.0000 0.0000 0.0000 23.5351
#
#
#
# Elastic Compliance Matrix: (Units=1/GPa)
#
#
# Indices 1 2 3 4 5 6 
#
# 1 0.017882 -0.006365 -0.001990 0.000000 0.000000 0.000000
# 2 -0.006365 0.017027 -0.008136 0.000000 0.000000 0.000000
# 3 -0.001990 -0.008136 0.010747 0.000000 0.000000 0.000000
# 4 0.000000 0.000000 0.000000 0.024842 0.000000 0.000000
# 5 0.000000 0.000000 0.000000 0.000000 0.033446 0.000000
# 6 0.000000 0.000000 0.000000 0.000000 0.000000 0.042490
#
#
# Mechanical properties :
#
#
# Convention : Reuss Voigt Hill
#
# Bulk Modulus (GPa) = 78.89026 98.70889 88.79957
# Shear Modulus (GPa) = 27.22712 30.36202 28.79457
#
# Velocity S-wave (km/s) = 3.77081 3.98198 3.87784
# Velocity P-wave (km/s) = 7.75617 8.52591 8.15013
#
# Compressibility (1/GPa) = 0.01267584
#
# Stress axis : x y z
#
# Youngs Moduli (GPa) = 55.92082 58.72987 93.04952
#
# Poissons Ratio (x) = 0.37381 0.18516
# Poissons Ratio (y) = 0.35593 0.75701
# Poissons Ratio (z) = 0.11128 0.47780
#
# Static dielectric constant tensor:
#      x y z
#    x 1.698550 0.000000 0.000000 
#    y 0.000000 1.640390 0.000000 
#    z 0.000000 0.000000 1.628780 
# 
# From -- ./inp_files/4937.got.cif
#   From: 2010.05.17/outbox.cif.g08.bks.cpg/sg25_3_cif.got.tgz:4937.got - 2010.06.04 01:04:00.
