data_PCOD9337245
_publ_section_title
;
Structure prediction by ZEFSAII (Michael W. Deem and Ramdas Pophale) SiO2 
 PCOD9337245
Probable space group: P M M 2
;
_chemical_formula_sum "Si O2"
_cell_formula_units_Z 32
_cell_length_a 17.973631
_cell_length_b 9.262450
_cell_length_c 11.753668
_cell_angle_alpha 90.000000
_cell_angle_beta 90.000000
_cell_angle_gamma 90.000000
_cell_volume 1956.748985
_symmetry_space_group_name_H-M "P M M 2"
_symmetry_group_IT_number 25
_symmetry_cell_setting 'orthorhombic'
loop_
_space_group_symop_operation_xyz
x,y,z
-x,-y,z
-x,y,z
x,-y,z
loop_
_atom_site_type_symbol
_atom_site_label
_atom_site_fract_x
_atom_site_fract_y
_atom_site_fract_z
Si Si1 0.862439 0.336543 0.226870
Si Si2 0.770670 0.827811 0.551802
Si Si3 0.196311 0.163804 0.026805
Si Si4 0.720749 0.173111 0.809895
Si Si5 0.300987 0.333788 0.345518
Si Si6 0.083503 0.325911 0.465967
Si Si7 0.584440 0.329109 0.924275
Si Si8 0.638720 0.166012 0.140974
O O1 0.885235 0.500000 0.202752
O O2 0.857392 0.250393 0.110077
O O3 0.778981 0.338249 0.280563
O O4 0.910536 0.281044 0.332850
O O5 0.744418 0.803263 0.680649
O O6 0.715770 0.751074 0.461664
O O7 0.851598 0.757256 0.531252
O O8 0.773254 0.000000 0.530246
O O9 0.277350 0.162377 0.088614
O O10 0.169742 0.000000 0.017476
O O11 0.215939 0.220163 0.900911
O O12 0.645398 0.254574 0.843982
O O13 0.710327 0.000000 0.827684
O O14 0.323496 0.500000 0.364319
O O15 0.355288 0.247991 0.260846
O O16 0.097508 0.500000 0.469043
O O17 0.000000 0.299366 0.507855
O O18 0.500000 0.309466 0.883233
O O19 0.599560 0.500000 0.934461
O O20 0.592806 0.254421 0.047656
O O21 0.614100 0.000000 0.152247
#
# Coordination Sequence:
#
# PCOD9337245 Si02
#       8
#     4   4   4   4   4   4   4   4
#     4   8  14  24  40  63  87 112 142 178 225 276
#     4  10  19  31  48  71  97 126 166 210 248 291
#     4   8  14  25  41  62  87 113 143 181 223 268
#     4   9  19  33  48  68  95 129 167 204 243 290
#     4   9  16  27  44  67  94 121 150 188 234 280
#     4   9  18  32  48  67  94 126 158 197 249 305
#     4  10  20  32  48  72  99 126 159 201 248 296
#     4   9  16  27  45  68  93 121 151 185 230 282
#
# _framework density 16.353656000000001
#
# number of rings (size 3 to 8) (size 9 to 14) (size 15 to 20)
#    0.000    3.000    0.000    3.000    0.000    8.250 
#    0.000    0.000    0.000    1.500    0.000    7.000 
#    0.000    0.000    0.000    0.000    0.000    0.000 
#
# Total GULP energy -178146.972914 kJ/mol
# GULP energy per Si atom -5567.092904 kJ/mol
# Density = 1.631643 g / cm^3
# Si number density = 16.353656 Si / 1000 Ang^3
#
#
#
# Elastic Constant Matrix: (Units=GPa)
#
#
# Indices 1 2 3 4 5 6 
#
# 1 53.2112 41.3710 39.2262 0.0000 0.0000 0.0000
# 2 41.3710 92.6439 71.0784 0.0000 0.0000 0.0000
# 3 39.2262 71.0784 125.3404 0.0000 0.0000 0.0000
# 4 0.0000 0.0000 0.0000 18.8797 0.0000 0.0000
# 5 0.0000 0.0000 0.0000 0.0000 11.4575 0.0000
# 6 0.0000 0.0000 0.0000 0.0000 0.0000 10.8964
#
#
#
# Elastic Compliance Matrix: (Units=1/GPa)
#
#
# Indices 1 2 3 4 5 6 
#
# 1 0.029459 -0.010766 -0.003114 0.000000 0.000000 0.000000
# 2 -0.010766 0.023042 -0.009697 0.000000 0.000000 0.000000
# 3 -0.003114 -0.009697 0.014452 0.000000 0.000000 0.000000
# 4 0.000000 0.000000 0.000000 0.052967 0.000000 0.000000
# 5 0.000000 0.000000 0.000000 0.000000 0.087279 0.000000
# 6 0.000000 0.000000 0.000000 0.000000 0.000000 0.091773
#
#
# Mechanical properties :
#
#
# Convention : Reuss Voigt Hill
#
# Bulk Modulus (GPa) = 50.51035 63.83853 57.17444
# Shear Modulus (GPa) = 14.17531 16.21473 15.19502
#
# Velocity S-wave (km/s) = 2.94734 3.15223 3.05150
# Velocity P-wave (km/s) = 6.52194 7.23669 6.88859
#
# Compressibility (1/GPa) = 0.01979792
#
# Stress axis : x y z
#
# Youngs Moduli (GPa) = 33.94529 43.39982 69.19449
#
# Poissons Ratio (x) = 0.46724 0.21549
# Poissons Ratio (y) = 0.36545 0.67099
# Poissons Ratio (z) = 0.10571 0.42086
#
# Static dielectric constant tensor:
#      x y z
#    x 1.552870 0.000000 0.000000 
#    y 0.000000 1.559360 0.000000 
#    z 0.000000 0.000000 1.551080 
# 
# From -- ./inp_files/4488.got.cif
#   From: 2010.05.17/outbox.cif.g08.bks.cpg/sg25_3_cif.got.tgz:4488.got - 2010.06.04 01:04:00.
