data_PCOD9337960
_publ_section_title
;
Structure prediction by ZEFSAII (Michael W. Deem and Ramdas Pophale) SiO2 
 PCOD9337960
Probable space group: P M C 21
;
_chemical_formula_sum "Si O2"
_cell_formula_units_Z 32
_cell_length_a 7.954961
_cell_length_b 11.933130
_cell_length_c 16.673901
_cell_angle_alpha 90.000000
_cell_angle_beta 90.000000
_cell_angle_gamma 90.000000
_cell_volume 1582.813134
_symmetry_space_group_name_H-M "P M C 21"
_symmetry_group_IT_number 26
_symmetry_cell_setting 'orthorhombic'
loop_
_space_group_symop_operation_xyz
x,y,z
-x,-y,1/2+z
-x,y,z
x,-y,1/2+z
loop_
_atom_site_type_symbol
_atom_site_label
_atom_site_fract_x
_atom_site_fract_y
_atom_site_fract_z
Si Si1 0.703902 0.559786 0.381270
Si Si2 0.800736 0.215136 0.262841
Si Si3 0.310900 0.252554 0.996184
Si Si4 0.201111 0.307582 0.429535
Si Si5 0.702510 0.934126 0.612865
Si Si6 0.296593 0.382720 0.702258
Si Si7 0.297878 0.186842 0.595123
Si Si8 0.806140 0.603659 0.632683
O O1 0.500000 0.563915 0.384419
O O2 0.769373 0.670019 0.428167
O O3 0.752111 0.438704 0.417097
O O4 0.759102 0.578051 0.289854
O O5 0.732892 0.235466 0.352534
O O6 0.737688 0.121627 0.199810
O O7 0.774245 0.332658 0.216247
O O8 0.000000 0.196340 0.269319
O O9 0.500000 0.221526 0.969736
O O10 0.231216 0.145358 0.040499
O O11 0.315162 0.340560 0.069163
O O12 0.256714 0.251212 0.512639
O O13 0.000000 0.303468 0.427013
O O14 0.500000 0.933427 0.604986
O O15 0.766541 0.060056 0.602021
O O16 0.500000 0.387019 0.701216
O O17 0.241832 0.262080 0.670504
O O18 0.226873 0.473816 0.640851
O O19 0.500000 0.180119 0.599227
O O20 0.000000 0.625574 0.610194
#
# Coordination Sequence:
#
# PCOD9337960 Si02
#       8
#     4   4   4   4   4   4   4   4
#     4  10  20  34  54  80 109 142 177 223 278 331
#     4   9  19  35  55  79 108 140 178 226 270 320
#     4   9  18  33  53  78 105 136 177 222 269 322
#     4  11  22  37  57  83 113 145 183 228 277 332
#     4   9  19  37  58  80 107 142 186 227 269 324
#     4  10  20  34  52  75 110 145 175 218 274 328
#     4  10  22  39  55  81 114 147 187 230 272 325
#     4  10  18  31  52  78 106 137 173 216 269 322
#
# _framework density 20.217168000000001
#
# number of rings (size 3 to 8) (size 9 to 14) (size 15 to 20)
#    0.000    2.250    1.250    1.500    0.000    6.000 
#    2.250    0.000    0.000    0.000    0.000    0.000 
#    0.000    0.000    0.000    0.000    0.000    0.000 
#
# Total GULP energy -178337.011624 kJ/mol
# GULP energy per Si atom -5573.031613 kJ/mol
# Density = 2.017115 g / cm^3
# Si number density = 20.217168 Si / 1000 Ang^3
#
#
#
# Elastic Constant Matrix: (Units=GPa)
#
#
# Indices 1 2 3 4 5 6 
#
# 1 9.6229 6.7230 3.7604 0.0000 0.0000 0.0000
# 2 6.7230 169.7291 54.4495 0.0000 0.0000 0.0000
# 3 3.7604 54.4495 72.3385 0.0000 0.0000 0.0000
# 4 0.0000 0.0000 0.0000 26.2303 0.0000 0.0000
# 5 0.0000 0.0000 0.0000 0.0000 13.2831 0.0000
# 6 0.0000 0.0000 0.0000 0.0000 0.0000 -28.5684
#
#
#
# Elastic Compliance Matrix: (Units=1/GPa)
#
#
# Indices 1 2 3 4 5 6 
#
# 1 0.107414 -0.003248 -0.003139 0.000000 0.000000 0.000000
# 2 -0.003248 0.007866 -0.005752 0.000000 0.000000 0.000000
# 3 -0.003139 -0.005752 0.018316 0.000000 0.000000 0.000000
# 4 0.000000 0.000000 0.000000 0.038124 0.000000 0.000000
# 5 0.000000 0.000000 0.000000 0.000000 0.075284 0.000000
# 6 0.000000 0.000000 0.000000 0.000000 0.000000 -0.035004
#
#
# Mechanical properties :
#
#
# Convention : Reuss Voigt Hill
#
# Bulk Modulus (GPa) = 9.14753 42.39515 25.77134
# Shear Modulus (GPa) = 18.33405 14.63949 16.48677
#
# Velocity S-wave (km/s) = 3.01467 2.69385 2.85877
# Velocity P-wave (km/s) = 4.08070 5.53996 4.86535
#
# Compressibility (1/GPa) = 0.10931911
#
# Stress axis : x y z
#
# Youngs Moduli (GPa) = 9.30976 127.13742 54.59611
#
# Poissons Ratio (x) = 0.41290 0.17139
# Poissons Ratio (y) = 0.03023 0.31401
# Poissons Ratio (z) = 0.02923 0.73124
#
# Static dielectric constant tensor:
#      x y z
#    x 1.739950 0.000000 0.000000 
#    y 0.000000 1.728170 0.000000 
#    z 0.000000 0.000000 1.769730 
# 
# From -- ./inp_files/5060.got.cif
#   From: 2010.05.17/outbox.cif.g08.bks.cpg/sg26_3_cif.got.tgz:5060.got - 2010.06.04 01:07:29.
