data_PCOD9337645
_publ_section_title
;
Structure prediction by ZEFSAII (Michael W. Deem and Ramdas Pophale) SiO2 
 PCOD9337645
Probable space group: P M M 2
;
_chemical_formula_sum "Si O2"
_cell_formula_units_Z 32
_cell_length_a 8.607962
_cell_length_b 25.495431
_cell_length_c 7.554169
_cell_angle_alpha 90.000000
_cell_angle_beta 90.000000
_cell_angle_gamma 90.000000
_cell_volume 1657.865888
_symmetry_space_group_name_H-M "P M M 2"
_symmetry_group_IT_number 25
_symmetry_cell_setting 'orthorhombic'
loop_
_space_group_symop_operation_xyz
x,y,z
-x,-y,z
-x,y,z
x,-y,z
loop_
_atom_site_type_symbol
_atom_site_label
_atom_site_fract_x
_atom_site_fract_y
_atom_site_fract_z
Si Si1 0.813551 0.942972 0.566380
Si Si2 0.312518 0.635319 0.268973
Si Si3 0.184725 0.166626 0.972035
Si Si4 0.687248 0.440520 0.581233
Si Si5 0.814390 0.440727 0.974245
Si Si6 0.312002 0.755832 0.262713
Si Si7 0.313432 0.057004 0.969545
Si Si8 0.314205 0.833693 0.573118
O O1 0.754308 0.943980 0.769807
O O2 0.740465 0.889670 0.494119
O O3 0.000000 0.938894 0.564247
O O4 0.769132 0.000000 0.489103
O O5 0.500000 0.635638 0.270733
O O6 0.260254 0.602609 0.440727
O O7 0.260068 0.695523 0.268170
O O8 0.257215 0.602884 0.099937
O O9 0.246801 0.110737 0.046188
O O10 0.244550 0.172393 0.769896
O O11 0.000000 0.165285 0.970326
O O12 0.246054 0.213029 0.095175
O O13 0.500000 0.437547 0.598159
O O14 0.725469 0.500000 0.521291
O O15 0.761317 0.432589 0.772774
O O16 0.762919 0.500000 0.025602
O O17 0.000000 0.438881 0.985007
O O18 0.500000 0.756859 0.252277
O O19 0.267509 0.787470 0.440128
O O20 0.500000 0.060656 0.961903
O O21 0.272093 0.000000 0.049630
O O22 0.500000 0.834517 0.589581
#
# Coordination Sequence:
#
# PCOD9337645 Si02
#       8
#     4   4   4   4   4   4   4   4
#     4   9  16  27  47  76 107 137 173 220 275 334
#     4  10  21  38  60  83 109 145 190 237 277 316
#     4  11  22  36  57  82 111 146 181 225 280 335
#     4   9  18  34  58  87 115 145 185 229 273 324
#     4  10  21  36  56  86 122 154 182 218 271 331
#     4  10  23  41  58  79 108 145 191 236 275 321
#     4   9  16  28  50  78 106 138 178 223 272 329
#     4  10  20  36  58  80 107 144 184 228 277 330
#
# _framework density 19.301922999999999
#
# number of rings (size 3 to 8) (size 9 to 14) (size 15 to 20)
#    0.000    2.250    0.000    4.500    0.000    5.750 
#    0.000    4.375    0.000    0.750    0.000    0.000 
#    0.000    0.000    0.000    0.000    0.000    0.000 
#
# Total GULP energy -178613.499707 kJ/mol
# GULP energy per Si atom -5581.671866 kJ/mol
# Density = 1.925799 g / cm^3
# Si number density = 19.301923 Si / 1000 Ang^3
#
#
#
# Elastic Constant Matrix: (Units=GPa)
#
#
# Indices 1 2 3 4 5 6 
#
# 1 37.0398 45.3825 23.3249 0.0000 0.0000 0.0000
# 2 45.3825 219.6496 91.4853 0.0000 0.0000 0.0000
# 3 23.3249 91.4853 93.2247 0.0000 0.0000 0.0000
# 4 0.0000 0.0000 0.0000 -52.7373 0.0000 0.0000
# 5 0.0000 0.0000 0.0000 0.0000 98.3712 0.0000
# 6 0.0000 0.0000 0.0000 0.0000 0.0000 1.0941
#
#
#
# Elastic Compliance Matrix: (Units=1/GPa)
#
#
# Indices 1 2 3 4 5 6 
#
# 1 0.036619 -0.006342 -0.002938 0.000000 0.000000 0.000000
# 2 -0.006342 0.008798 -0.007047 0.000000 0.000000 0.000000
# 3 -0.002938 -0.007047 0.018378 0.000000 0.000000 0.000000
# 4 0.000000 0.000000 0.000000 -0.018962 0.000000 0.000000
# 5 0.000000 0.000000 0.000000 0.000000 0.010166 0.000000
# 6 0.000000 0.000000 0.000000 0.000000 0.000000 0.914030
#
#
# Mechanical properties :
#
#
# Convention : Reuss Voigt Hill
#
# Bulk Modulus (GPa) = 32.11352 74.47771 53.29562
# Shear Modulus (GPa) = 4.94040 21.99370 13.46705
#
# Velocity S-wave (km/s) = 1.60159 3.37925 2.64428
# Velocity P-wave (km/s) = 4.48260 7.34133 6.08230
#
# Compressibility (1/GPa) = 0.03113953
#
# Stress axis : x y z
#
# Youngs Moduli (GPa) = 27.30827 113.65756 54.41337
#
# Poissons Ratio (x) = 0.72083 0.15988
# Poissons Ratio (y) = 0.17319 0.38347
# Poissons Ratio (z) = 0.08024 0.80099
#
# Static dielectric constant tensor:
#      x y z
#    x 1.647810 0.000000 0.000000 
#    y 0.000000 1.694730 0.000000 
#    z 0.000000 0.000000 1.676290 
# 
# From -- ./inp_files/2403.got.cif
#   From: 2010.05.17/outbox.cif.g08.bks.cpg/sg25_2_cif.got.tgz:2403.got - 2010.06.04 01:04:00.
