data_PCOD9337619
_publ_section_title
;
Structure prediction by ZEFSAII (Michael W. Deem and Ramdas Pophale) SiO2 
 PCOD9337619
Probable space group: P M M 2
;
_chemical_formula_sum "Si O2"
_cell_formula_units_Z 32
_cell_length_a 9.525020
_cell_length_b 29.536528
_cell_length_c 5.335223
_cell_angle_alpha 90.000000
_cell_angle_beta 90.000000
_cell_angle_gamma 90.000000
_cell_volume 1500.990404
_symmetry_space_group_name_H-M "P M M 2"
_symmetry_group_IT_number 25
_symmetry_cell_setting 'orthorhombic'
loop_
_space_group_symop_operation_xyz
x,y,z
-x,-y,z
-x,y,z
x,-y,z
loop_
_atom_site_type_symbol
_atom_site_label
_atom_site_fract_x
_atom_site_fract_y
_atom_site_fract_z
Si Si1 0.160876 0.741552 0.545100
Si Si2 0.649019 0.100219 0.550105
Si Si3 0.838056 0.681757 0.047867
Si Si4 0.149889 0.951374 0.827062
Si Si5 0.833101 0.445606 0.567096
Si Si6 0.653888 0.807630 0.823766
Si Si7 0.327809 0.409449 0.067079
Si Si8 0.155122 0.141461 0.144592
O O1 0.179286 0.714874 0.285875
O O2 0.278184 0.779297 0.599722
O O3 0.000000 0.759226 0.554974
O O4 0.174594 0.707729 0.783633
O O5 0.500000 0.092545 0.425604
O O6 0.716155 0.054935 0.654100
O O7 0.633878 0.139497 0.756275
O O8 0.756038 0.123737 0.370159
O O9 0.722021 0.642766 0.063125
O O10 0.000000 0.663798 0.061893
O O11 0.146308 0.904603 0.978527
O O12 0.000000 0.951691 0.685791
O O13 0.157899 0.000000 0.963004
O O14 0.836147 0.500000 0.564980
O O15 0.747283 0.429509 0.318754
O O16 0.000000 0.430347 0.567846
O O17 0.747506 0.430131 0.816935
O O18 0.500000 0.789898 0.896858
O O19 0.773440 0.814039 0.029560
O O20 0.500000 0.414705 0.067265
O O21 0.000000 0.153758 0.219520
#
# Coordination Sequence:
#
# PCOD9337619 Si02
#       8
#     4   4   4   4   4   4   4   4
#     4  10  22  39  61  90 119 158 211 262 309 370
#     4  10  21  36  54  80 111 144 181 224 287 351
#     4  10  22  41  63  89 125 169 215 261 316 386
#     4   9  19  36  55  77 105 139 182 228 274 332
#     4  11  24  43  68  97 132 180 231 275 328 397
#     4  10  22  38  56  80 113 149 185 239 298 354
#     4  12  25  41  66  99 136 175 218 278 341 393
#     4  10  20  35  57  81 107 143 185 232 284 345
#
# _framework density 21.319258000000001
#
# number of rings (size 3 to 8) (size 9 to 14) (size 15 to 20)
#    0.000    1.750    0.000    3.750    1.750    7.250 
#    0.000    1.250    0.000    0.000    0.000    0.000 
#    0.000    0.000    0.000    0.000    0.000    0.000 
#
# Total GULP energy -178269.839172 kJ/mol
# GULP energy per Si atom -5570.932474 kJ/mol
# Density = 2.127073 g / cm^3
# Si number density = 21.319258 Si / 1000 Ang^3
#
#
#
# Elastic Constant Matrix: (Units=GPa)
#
#
# Indices 1 2 3 4 5 6 
#
# 1 193.1181 50.0042 55.2999 0.0000 0.0000 0.0000
# 2 50.0042 86.8372 31.0495 0.0000 0.0000 0.0000
# 3 55.2999 31.0495 106.8608 0.0000 0.0000 0.0000
# 4 0.0000 0.0000 0.0000 22.4037 0.0000 0.0000
# 5 0.0000 0.0000 0.0000 0.0000 32.0320 0.0000
# 6 0.0000 0.0000 0.0000 0.0000 0.0000 28.0446
#
#
#
# Elastic Compliance Matrix: (Units=1/GPa)
#
#
# Indices 1 2 3 4 5 6 
#
# 1 0.006680 -0.002913 -0.002610 0.000000 0.000000 0.000000
# 2 -0.002913 0.014121 -0.002596 0.000000 0.000000 0.000000
# 3 -0.002610 -0.002596 0.011463 0.000000 0.000000 0.000000
# 4 0.000000 0.000000 0.000000 0.044635 0.000000 0.000000
# 5 0.000000 0.000000 0.000000 0.000000 0.031219 0.000000
# 6 0.000000 0.000000 0.000000 0.000000 0.000000 0.035657
#
#
# Mechanical properties :
#
#
# Convention : Reuss Voigt Hill
#
# Bulk Modulus (GPa) = 62.39830 73.28035 67.83932
# Shear Modulus (GPa) = 30.23771 33.19358 31.71564
#
# Velocity S-wave (km/s) = 3.77016 3.95013 3.86119
# Velocity P-wave (km/s) = 6.94868 7.43318 7.19501
#
# Compressibility (1/GPa) = 0.01602608
#
# Stress axis : x y z
#
# Youngs Moduli (GPa) = 149.70075 70.81449 87.23725
#
# Poissons Ratio (x) = 0.20630 0.22772
# Poissons Ratio (y) = 0.43611 0.22643
# Poissons Ratio (z) = 0.39078 0.18380
#
# Static dielectric constant tensor:
#      x y z
#    x 1.871190 0.000000 0.000000 
#    y 0.000000 1.803980 0.000000 
#    z 0.000000 0.000000 1.866260 
# 
# From -- ./inp_files/379.got.cif
#   From: 2010.05.17/outbox.cif.g08.bks.cpg/sg25_1_cif.got.tgz:379.got - 2010.06.04 01:04:00.
