data_PCOD9337934
_publ_section_title
;
Structure prediction by ZEFSAII (Michael W. Deem and Ramdas Pophale) SiO2 
 PCOD9337934
Probable space group: P M C 21
;
_chemical_formula_sum "Si O2"
_cell_formula_units_Z 24
_cell_length_a 8.434724
_cell_length_b 9.433835
_cell_length_c 17.049504
_cell_angle_alpha 90.000000
_cell_angle_beta 90.000000
_cell_angle_gamma 90.000000
_cell_volume 1356.659628
_symmetry_space_group_name_H-M "P M C 21"
_symmetry_group_IT_number 26
_symmetry_cell_setting 'orthorhombic'
loop_
_space_group_symop_operation_xyz
x,y,z
-x,-y,1/2+z
-x,y,z
x,-y,1/2+z
loop_
_atom_site_type_symbol
_atom_site_label
_atom_site_fract_x
_atom_site_fract_y
_atom_site_fract_z
Si Si1 0.812536 0.925958 0.347420
Si Si2 0.186972 0.650127 0.790580
Si Si3 0.689093 0.335591 0.770604
Si Si4 0.307098 0.173547 0.613700
Si Si5 0.690725 0.172057 0.439351
Si Si6 0.686548 0.903163 0.699465
O O1 0.769387 0.761862 0.337406
O O2 0.000000 0.947236 0.335928
O O3 0.756411 0.014000 0.422549
O O4 0.716024 0.002008 0.277182
O O5 0.268338 0.499058 0.779392
O O6 0.246349 0.727015 0.870168
O O7 0.227717 0.756777 0.718967
O O8 0.000000 0.631639 0.795464
O O9 0.500000 0.316934 0.775598
O O10 0.744033 0.273640 0.685762
O O11 0.500000 0.173015 0.615586
O O12 0.259282 0.218061 0.526608
O O13 0.257488 0.011018 0.632023
O O14 0.500000 0.169561 0.435106
O O15 0.500000 0.875452 0.690247
#
# Coordination Sequence:
#
# PCOD9337934 Si02
#       6
#     4   4   4   4   4   4
#     4  10  18  30  48  74 101 128 161 202 243 291
#     4  11  21  33  49  76 106 135 168 207 250 301
#     4  10  19  35  55  75  98 133 172 209 250 301
#     4   8  17  32  54  78  98 123 169 216 250 291
#     4  10  18  33  54  76 100 133 169 207 250 298
#     4   9  16  31  52  73  95 128 167 203 239 290
#
# _framework density 17.690511000000001
#
# number of rings (size 3 to 8) (size 9 to 14) (size 15 to 20)
#    0.000    2.333    0.000    7.500    0.000    0.000 
#    0.000   11.667    0.000    4.000    0.000    0.000 
#    0.000    0.000    0.000    0.000    0.000    0.000 
#
# Total GULP energy -133714.135580 kJ/mol
# GULP energy per Si atom -5571.422316 kJ/mol
# Density = 1.765025 g / cm^3
# Si number density = 17.690511 Si / 1000 Ang^3
#
#
#
# Elastic Constant Matrix: (Units=GPa)
#
#
# Indices 1 2 3 4 5 6 
#
# 1 53.1105 6.2480 17.0836 0.0000 0.0000 0.0000
# 2 6.2480 99.5304 30.1698 0.0000 0.0000 0.0000
# 3 17.0836 30.1698 78.3291 0.0000 0.0000 0.0000
# 4 0.0000 0.0000 0.0000 18.0513 0.0000 0.0000
# 5 0.0000 0.0000 0.0000 0.0000 -9.4774 0.0000
# 6 0.0000 0.0000 0.0000 0.0000 0.0000 18.3523
#
#
#
# Elastic Compliance Matrix: (Units=1/GPa)
#
#
# Indices 1 2 3 4 5 6 
#
# 1 0.020250 0.000076 -0.004446 0.000000 0.000000 0.000000
# 2 0.000076 0.011376 -0.004398 0.000000 0.000000 0.000000
# 3 -0.004446 -0.004398 0.015430 0.000000 0.000000 0.000000
# 4 0.000000 0.000000 0.000000 0.055398 0.000000 0.000000
# 5 0.000000 0.000000 0.000000 0.000000 -0.105514 0.000000
# 6 0.000000 0.000000 0.000000 0.000000 0.000000 0.054489
#
#
# Mechanical properties :
#
#
# Convention : Reuss Voigt Hill
#
# Bulk Modulus (GPa) = 33.87488 37.55253 35.71371
# Shear Modulus (GPa) = 63.44884 17.21650 40.33267
#
# Velocity S-wave (km/s) = 5.99532 3.12301 4.78001
# Velocity P-wave (km/s) = 8.19240 5.85473 7.12015
#
# Compressibility (1/GPa) = 0.02952040
#
# Stress axis : x y z
#
# Youngs Moduli (GPa) = 49.38334 87.90777 64.80744
#
# Poissons Ratio (x) = -0.00672 0.28813
# Poissons Ratio (y) = -0.00378 0.28503
# Poissons Ratio (z) = 0.21955 0.38663
#
# Static dielectric constant tensor:
#      x y z
#    x 1.599170 0.000000 0.000000 
#    y 0.000000 1.618030 0.000000 
#    z 0.000000 0.000000 1.633400 
# 
# From -- ./inp_files/4865.got.cif
#   From: 2010.05.17/outbox.cif.g08.bks.cpg/sg26_3_cif.got.tgz:4865.got - 2010.06.04 01:07:29.
