data_PCOD9337009
_publ_section_title
;
Structure prediction by ZEFSAII (Michael W. Deem and Ramdas Pophale) SiO2 
 PCOD9337009
Probable space group: I 21 21 21
;
_chemical_formula_sum "Si O2"
_cell_formula_units_Z 32
_cell_length_a 27.291997
_cell_length_b 5.401975
_cell_length_c 8.625149
_cell_angle_alpha 90.000000
_cell_angle_beta 90.000000
_cell_angle_gamma 90.000000
_cell_volume 1271.611630
_symmetry_space_group_name_H-M "I 21 21 21"
_symmetry_group_IT_number 24
_symmetry_cell_setting 'orthorhombic'
loop_
_space_group_symop_operation_xyz
x,y,z
-x,1/2-y,z
x,-y,1/2-z
1/2-x,y,-z
1/2+x,1/2+y,1/2+z
1/2-x,-y,1/2+z
1/2+x,1/2-y,-z
-x,1/2+y,1/2-z
loop_
_atom_site_type_symbol
_atom_site_label
_atom_site_fract_x
_atom_site_fract_y
_atom_site_fract_z
Si Si1 0.396158 0.000000 0.250000
Si Si2 0.460885 0.500000 0.250000
Si Si3 0.842027 0.228293 0.478178
Si Si4 0.727252 0.500000 0.750000
Si Si5 0.250000 0.369140 0.000000
Si Si6 0.422047 0.500000 0.750000
Si Si7 0.500000 0.750000 0.534958
O O1 0.427776 0.746025 0.271567
O O2 0.362620 0.097135 0.388346
O O3 0.492812 0.522975 0.409749
O O4 0.808672 0.402393 0.377789
O O5 0.801462 0.016628 0.507187
O O6 0.887193 0.123606 0.378583
O O7 0.754174 0.714199 0.659205
O O8 0.455349 0.698429 0.654941
#
# Coordination Sequence:
#
# PCOD9337009 Si02
#       7
#     4   4   8   4   4   4   4
#     4  12  31  55  90 135 187 250 310 404 482 596
#     4  12  29  58  86 136 184 245 319 396 491 580
#     4  12  29  57  87 136 196 247 326 404 499 590
#     4  12  28  50  89 124 190 248 328 404 489 592
#     4  12  28  56  84 140 186 256 324 410 486 602
#     4  12  28  57  93 141 191 259 327 416 494 578
#     4  12  30  54  92 134 190 250 320 408 484 586
#
# _framework density 25.164912999999999
#
# number of rings (size 3 to 8) (size 9 to 14) (size 15 to 20)
#    0.000    0.000    5.000    1.500   10.500    7.000 
#    0.000    1.250    0.000    0.000    0.000    0.000 
#    0.000    0.000    0.000    0.000    0.000    0.000 
#
# Total GULP energy -89364.535867 kJ/mol
# GULP energy per Si atom -5585.283492 kJ/mol
# Density = 2.510764 g / cm^3
# Si number density = 25.164913 Si / 1000 Ang^3
#
#
#
# Elastic Constant Matrix: (Units=GPa)
#
#
# Indices 1 2 3 4 5 6 
#
# 1 155.6930 89.5272 99.3157 0.0000 0.0000 0.0000
# 2 89.5272 167.3129 91.7052 0.0000 0.0000 0.0000
# 3 99.3157 91.7052 187.9873 0.0000 0.0000 0.0000
# 4 0.0000 0.0000 0.0000 80.0329 0.0000 0.0000
# 5 0.0000 0.0000 0.0000 0.0000 77.1868 0.0000
# 6 0.0000 0.0000 0.0000 0.0000 0.0000 183.5609
#
#
#
# Elastic Compliance Matrix: (Units=1/GPa)
#
#
# Indices 1 2 3 4 5 6 
#
# 1 0.011179 -0.003746 -0.004078 0.000000 0.000000 0.000000
# 2 -0.003746 0.009414 -0.002613 0.000000 0.000000 0.000000
# 3 -0.004078 -0.002613 0.008749 0.000000 0.000000 0.000000
# 4 0.000000 0.000000 0.000000 0.012495 0.000000 0.000000
# 5 0.000000 0.000000 0.000000 0.000000 0.012956 0.000000
# 6 0.000000 0.000000 0.000000 0.000000 0.000000 0.005448
#
#
# Mechanical properties :
#
#
# Convention : Reuss Voigt Hill
#
# Bulk Modulus (GPa) = 118.12009 119.12103 118.62056
# Shear Modulus (GPa) = 59.56909 83.51914 71.54412
#
# Velocity S-wave (km/s) = 4.87061 5.76722 5.33777
# Velocity P-wave (km/s) = 8.86966 9.58053 9.23194
#
# Compressibility (1/GPa) = 0.00846596
#
# Stress axis : x y z
#
# Youngs Moduli (GPa) = 89.45708 106.22927 114.30137
#
# Poissons Ratio (x) = 0.39796 0.46615
# Poissons Ratio (y) = 0.33512 0.29867
# Poissons Ratio (z) = 0.36483 0.27758
#
# Static dielectric constant tensor:
#      x y z
#    x 2.009570 0.000000 0.000000 
#    y 0.000000 2.075480 0.000000 
#    z 0.000000 0.000000 1.947890 
# 
# From -- ./inp_files/16617.got.cif
#   From: 2010.05.17/outbox.cif.g08.bks.cpg/sg24_9_cif.got.tgz:16617.got - 2010.06.04 00:33:39.
