data_PCOD9337272
_publ_section_title
;
Structure prediction by ZEFSAII (Michael W. Deem and Ramdas Pophale) SiO2 
 PCOD9337272
Probable space group: P M M 2
;
_chemical_formula_sum "Si O2"
_cell_formula_units_Z 32
_cell_length_a 18.297336
_cell_length_b 9.109684
_cell_length_c 11.579109
_cell_angle_alpha 90.000000
_cell_angle_beta 90.000000
_cell_angle_gamma 90.000000
_cell_volume 1930.040035
_symmetry_space_group_name_H-M "P M M 2"
_symmetry_group_IT_number 25
_symmetry_cell_setting 'orthorhombic'
loop_
_space_group_symop_operation_xyz
x,y,z
-x,-y,z
-x,y,z
x,-y,z
loop_
_atom_site_type_symbol
_atom_site_label
_atom_site_fract_x
_atom_site_fract_y
_atom_site_fract_z
Si Si1 0.917784 0.823618 0.830010
Si Si2 0.580414 0.175142 0.290310
Si Si3 0.202224 0.667109 0.383699
Si Si4 0.225791 0.675818 0.929145
Si Si5 0.703348 0.831632 0.715921
Si Si6 0.268129 0.175902 0.169226
Si Si7 0.361055 0.667715 0.509531
Si Si8 0.138839 0.167059 0.587160
O O1 0.854602 0.736907 0.895797
O O2 0.911716 0.785752 0.693656
O O3 0.000000 0.795441 0.871272
O O4 0.903419 0.000000 0.837858
O O5 0.500000 0.209351 0.242192
O O6 0.649081 0.214068 0.209669
O O7 0.590373 0.253787 0.413165
O O8 0.585176 0.000000 0.309034
O O9 0.185255 0.500000 0.350481
O O10 0.215879 0.768201 0.272601
O O11 0.279985 0.665430 0.451544
O O12 0.144811 0.732107 0.475147
O O13 0.226405 0.500000 0.929324
O O14 0.279813 0.738845 0.830231
O O15 0.248419 0.742412 0.051785
O O16 0.646807 0.756347 0.628420
O O17 0.780594 0.835360 0.646471
O O18 0.684138 0.000000 0.743104
O O19 0.262760 0.000000 0.156265
O O20 0.383365 0.500000 0.529302
O O21 0.120655 0.000000 0.553848
#
# Coordination Sequence:
#
# PCOD9337272 Si02
#       8
#     4   4   4   4   4   4   4   4
#     4   9  18  33  52  73  98 129 165 203 245 298
#     4   9  18  32  50  72  97 127 164 205 249 299
#     4   9  16  26  42  66  94 120 149 189 234 279
#     4  11  21  32  48  72 101 130 166 211 253 296
#     4   9  16  28  46  67  92 122 156 193 233 280
#     4  10  19  32  50  70  95 129 169 210 249 294
#     4   9  16  26  43  69  97 122 149 187 238 288
#     4   8  14  25  43  67  92 118 148 184 229 279
#
# _framework density 16.579967
#
# number of rings (size 3 to 8) (size 9 to 14) (size 15 to 20)
#    0.000    2.750    0.000    3.375    0.000    7.000 
#    0.000    0.000    0.000    1.500    0.000    3.500 
#    0.000    0.000    0.000    0.000    0.000    0.000 
#
# Total GULP energy -178259.545255 kJ/mol
# GULP energy per Si atom -5570.610789 kJ/mol
# Density = 1.654223 g / cm^3
# Si number density = 16.579967 Si / 1000 Ang^3
#
#
#
# Elastic Constant Matrix: (Units=GPa)
#
#
# Indices 1 2 3 4 5 6 
#
# 1 57.9895 40.5812 42.7780 0.0000 0.0000 0.0000
# 2 40.5812 104.8997 73.0568 0.0000 0.0000 0.0000
# 3 42.7780 73.0568 115.2540 0.0000 0.0000 0.0000
# 4 0.0000 0.0000 0.0000 25.7193 0.0000 0.0000
# 5 0.0000 0.0000 0.0000 0.0000 12.5397 0.0000
# 6 0.0000 0.0000 0.0000 0.0000 0.0000 8.3674
#
#
#
# Elastic Compliance Matrix: (Units=1/GPa)
#
#
# Indices 1 2 3 4 5 6 
#
# 1 0.025630 -0.005890 -0.005779 0.000000 0.000000 0.000000
# 2 -0.005890 0.018421 -0.009491 0.000000 0.000000 0.000000
# 3 -0.005779 -0.009491 0.016837 0.000000 0.000000 0.000000
# 4 0.000000 0.000000 0.000000 0.038881 0.000000 0.000000
# 5 0.000000 0.000000 0.000000 0.000000 0.079747 0.000000
# 6 0.000000 0.000000 0.000000 0.000000 0.000000 0.119511
#
#
# Mechanical properties :
#
#
# Convention : Reuss Voigt Hill
#
# Bulk Modulus (GPa) = 53.85477 65.66392 59.75935
# Shear Modulus (GPa) = 14.38698 17.44043 15.91370
#
# Velocity S-wave (km/s) = 2.94893 3.24682 3.10145
# Velocity P-wave (km/s) = 6.64434 7.33117 6.99619
#
# Compressibility (1/GPa) = 0.01856846
#
# Stress axis : x y z
#
# Youngs Moduli (GPa) = 39.01735 54.28527 59.39182
#
# Poissons Ratio (x) = 0.31975 0.34323
# Poissons Ratio (y) = 0.22982 0.56366
# Poissons Ratio (z) = 0.22549 0.51520
#
# Static dielectric constant tensor:
#      x y z
#    x 1.575460 0.000000 0.000000 
#    y 0.000000 1.559580 0.000000 
#    z 0.000000 0.000000 1.542470 
# 
# From -- ./inp_files/5050.got.cif
#   From: 2010.05.17/outbox.cif.g08.bks.cpg/sg25_3_cif.got.tgz:5050.got - 2010.06.04 01:04:00.
