data_PCOD9337757
_publ_section_title
;
Structure prediction by ZEFSAII (Michael W. Deem and Ramdas Pophale) SiO2 
 PCOD9337757
Probable space group: P M M 2
;
_chemical_formula_sum "Si O2"
_cell_formula_units_Z 24
_cell_length_a 19.321667
_cell_length_b 8.979136
_cell_length_c 7.632022
_cell_angle_alpha 90.000000
_cell_angle_beta 90.000000
_cell_angle_gamma 90.000000
_cell_volume 1324.093812
_symmetry_space_group_name_H-M "P M M 2"
_symmetry_group_IT_number 25
_symmetry_cell_setting 'orthorhombic'
loop_
_space_group_symop_operation_xyz
x,y,z
-x,-y,z
-x,y,z
x,-y,z
loop_
_atom_site_type_symbol
_atom_site_label
_atom_site_fract_x
_atom_site_fract_y
_atom_site_fract_z
Si Si1 0.676094 0.678184 0.464730
Si Si2 0.671953 0.177320 0.089608
Si Si3 0.179740 0.322596 0.054730
Si Si4 0.419032 0.321840 0.795647
Si Si5 0.163813 0.676231 0.464450
Si Si6 0.919111 0.177544 0.768485
O O1 0.672325 0.500000 0.430926
O O2 0.659368 0.763220 0.285997
O O3 0.624859 0.715767 0.622225
O O4 0.756148 0.710197 0.512538
O O5 0.745536 0.246901 0.030916
O O6 0.676001 0.000000 0.087718
O O7 0.613555 0.236442 0.959005
O O8 0.187148 0.500000 0.031053
O O9 0.157630 0.295589 0.256643
O O10 0.124924 0.257311 0.919615
O O11 0.500000 0.289422 0.772673
O O12 0.411428 0.500000 0.823983
O O13 0.152539 0.500000 0.494891
O O14 0.112592 0.769316 0.584149
O O15 0.000000 0.216539 0.779991
O O16 0.912145 0.000000 0.785596
#
# Coordination Sequence:
#
# PCOD9337757 Si02
#       6
#     4   4   4   4   4   4
#     4   9  19  37  59  83 110 143 188 236 277 324
#     4  11  22  36  58  86 115 147 182 228 285 337
#     4  10  21  39  62  84 108 144 191 237 275 321
#     4  10  21  37  58  83 113 152 193 231 273 325
#     4   9  19  36  59  83 107 142 188 234 276 323
#     4  11  24  38  54  82 119 153 182 221 278 337
#
# _framework density 18.125603999999999
#
# number of rings (size 3 to 8) (size 9 to 14) (size 15 to 20)
#    0.000    2.000    0.000    4.500    0.000    8.333 
#    0.000    5.000    0.000    0.000    0.000    0.000 
#    0.000    0.000    0.000    0.000    0.000    0.000 
#
# Total GULP energy -134097.547054 kJ/mol
# GULP energy per Si atom -5587.397794 kJ/mol
# Density = 1.808435 g / cm^3
# Si number density = 18.125604 Si / 1000 Ang^3
#
#
#
# Elastic Constant Matrix: (Units=GPa)
#
#
# Indices 1 2 3 4 5 6 
#
# 1 48.4931 26.5765 23.8926 0.0000 0.0000 0.0000
# 2 26.5765 45.3381 26.7136 0.0000 0.0000 0.0000
# 3 23.8926 26.7136 37.1154 0.0000 0.0000 0.0000
# 4 0.0000 0.0000 0.0000 -3.8106 0.0000 0.0000
# 5 0.0000 0.0000 0.0000 0.0000 -11.0754 0.0000
# 6 0.0000 0.0000 0.0000 0.0000 0.0000 -15.5951
#
#
#
# Elastic Compliance Matrix: (Units=1/GPa)
#
#
# Indices 1 2 3 4 5 6 
#
# 1 0.033621 -0.012078 -0.012950 0.000000 0.000000 0.000000
# 2 -0.012078 0.042637 -0.022912 0.000000 0.000000 0.000000
# 3 -0.012950 -0.022912 0.051771 0.000000 0.000000 0.000000
# 4 0.000000 0.000000 0.000000 -0.262429 0.000000 0.000000
# 5 0.000000 0.000000 0.000000 0.000000 -0.090290 0.000000
# 6 0.000000 0.000000 0.000000 0.000000 0.000000 -0.064123
#
#
# Mechanical properties :
#
#
# Convention : Reuss Voigt Hill
#
# Bulk Modulus (GPa) = 31.10680 31.70132 31.40406
# Shear Modulus (GPa) = -27.43997 -2.51195 -14.97596
#
# Velocity S-wave (km/s) = -3.89508 -1.17850 -2.87754
# Velocity P-wave (km/s) = 1.74064 3.95929 2.51457
#
# Compressibility (1/GPa) = 0.03214731
#
# Stress axis : x y z
#
# Youngs Moduli (GPa) = 29.74292 23.45407 19.31598
#
# Poissons Ratio (x) = 0.28328 0.25015
# Poissons Ratio (y) = 0.35923 0.44257
# Poissons Ratio (z) = 0.38518 0.53739
#
# Static dielectric constant tensor:
#      x y z
#    x 1.597540 0.000000 0.000000 
#    y 0.000000 1.603050 0.000000 
#    z 0.000000 0.000000 1.605300 
# 
# From -- ./inp_files/3343.got.cif
#   From: 2010.05.17/outbox.cif.g08.bks.cpg/sg25_2_cif.got.tgz:3343.got - 2010.06.04 01:04:00.
