data_PCOD9337943
_publ_section_title
;
Structure prediction by ZEFSAII (Michael W. Deem and Ramdas Pophale) SiO2 
 PCOD9337943
Probable space group: P M C 21
;
_chemical_formula_sum "Si O2"
_cell_formula_units_Z 24
_cell_length_a 30.281087
_cell_length_b 6.931551
_cell_length_c 5.202801
_cell_angle_alpha 90.000000
_cell_angle_beta 90.000000
_cell_angle_gamma 90.000000
_cell_volume 1092.041390
_symmetry_space_group_name_H-M "P M C 21"
_symmetry_group_IT_number 26
_symmetry_cell_setting 'orthorhombic'
loop_
_space_group_symop_operation_xyz
x,y,z
-x,-y,1/2+z
-x,y,z
x,-y,1/2+z
loop_
_atom_site_type_symbol
_atom_site_label
_atom_site_fract_x
_atom_site_fract_y
_atom_site_fract_z
Si Si1 0.087075 0.287225 0.747110
Si Si2 0.050683 0.721082 0.746579
Si Si3 0.177877 0.867192 0.398020
Si Si4 0.272751 0.130331 0.801897
Si Si5 0.365489 0.124301 0.921514
Si Si6 0.548897 0.372778 0.806756
O O1 0.068678 0.502881 0.704836
O O2 0.081763 0.195602 0.467206
O O3 0.136668 0.271840 0.848055
O O4 0.055887 0.195038 0.963068
O O5 0.000000 0.719431 0.829682
O O6 0.225897 0.770147 0.356396
O O7 0.175629 0.966517 0.677412
O O8 0.319272 0.233164 0.859558
O O9 0.272804 0.044817 0.513317
O O10 0.409837 0.238362 0.863441
O O11 0.364946 0.949365 0.714205
O O12 0.500000 0.281441 0.838155
O O13 0.551307 0.458259 0.520167
#
# Coordination Sequence:
#
# PCOD9337943 Si02
#       6
#     4   4   4   4   4   4
#     4  10  18  30  51  71  91 117 157 195 229 283
#     4  10  19  33  53  69  87 122 160 199 238 279
#     4  10  19  32  50  72  99 129 157 189 241 305
#     4   8  16  30  49  72  96 127 164 203 247 292
#     4  10  19  33  56  81 103 135 188 236 260 304
#     4  10  21  36  53  75 112 152 180 214 279 341
#
# _framework density 21.977187000000001
#
# number of rings (size 3 to 8) (size 9 to 14) (size 15 to 20)
#    0.000    2.333    0.000    4.500    0.000    0.667 
#    0.000    0.000    7.333   17.000    0.000    0.000 
#    0.000    0.000    0.000    0.000    0.000    0.000 
#
# Total GULP energy -133819.029073 kJ/mol
# GULP energy per Si atom -5575.792878 kJ/mol
# Density = 2.192717 g / cm^3
# Si number density = 21.977187 Si / 1000 Ang^3
#
#
#
# Elastic Constant Matrix: (Units=GPa)
#
#
# Indices 1 2 3 4 5 6 
#
# 1 186.3048 3.9552 -13.2405 0.0000 0.0000 0.0000
# 2 3.9552 22.5302 -13.5523 0.0000 0.0000 0.0000
# 3 -13.2405 -13.5523 118.6703 0.0000 0.0000 0.0000
# 4 0.0000 0.0000 0.0000 12.6168 0.0000 0.0000
# 5 0.0000 0.0000 0.0000 0.0000 35.2417 0.0000
# 6 0.0000 0.0000 0.0000 0.0000 0.0000 652.7257
#
#
#
# Elastic Compliance Matrix: (Units=1/GPa)
#
#
# Indices 1 2 3 4 5 6 
#
# 1 0.005419 -0.000631 0.000533 0.000000 0.000000 0.000000
# 2 -0.000631 0.047732 0.005381 0.000000 0.000000 0.000000
# 3 0.000533 0.005381 0.009101 0.000000 0.000000 0.000000
# 4 0.000000 0.000000 0.000000 0.079260 0.000000 0.000000
# 5 0.000000 0.000000 0.000000 0.000000 0.028375 0.000000
# 6 0.000000 0.000000 0.000000 0.000000 0.000000 0.001532
#
#
# Mechanical properties :
#
#
# Convention : Reuss Voigt Hill
#
# Bulk Modulus (GPa) = 13.73323 31.31447 22.52385
# Shear Modulus (GPa) = 27.00862 163.47303 95.24083
#
# Velocity S-wave (km/s) = 3.50943 8.63392 6.59017
# Velocity P-wave (km/s) = 4.76276 10.66172 8.25700
#
# Compressibility (1/GPa) = 0.07281608
#
# Stress axis : x y z
#
# Youngs Moduli (GPa) = 184.54307 20.95025 109.88275
#
# Poissons Ratio (x) = 0.01322 -0.05852
# Poissons Ratio (y) = 0.11644 -0.59124
# Poissons Ratio (z) = -0.09828 -0.11273
#
# Static dielectric constant tensor:
#      x y z
#    x 1.850350 0.000000 0.000000 
#    y 0.000000 1.257500 0.000000 
#    z 0.000000 0.000000 1.865710 
# 
# From -- ./inp_files/943.got.cif
#   From: 2010.05.17/outbox.cif.g08.bks.cpg/sg26_1_cif.got.tgz:943.got - 2010.06.04 01:07:29.
