data_PCOD9337508
_publ_section_title
;
Structure prediction by ZEFSAII (Michael W. Deem and Ramdas Pophale) SiO2 
 PCOD9337508
Probable space group: P M M 2
;
_chemical_formula_sum "Si O2"
_cell_formula_units_Z 32
_cell_length_a 7.947973
_cell_length_b 9.304573
_cell_length_c 21.969535
_cell_angle_alpha 90.000000
_cell_angle_beta 90.000000
_cell_angle_gamma 90.000000
_cell_volume 1624.701927
_symmetry_space_group_name_H-M "P M M 2"
_symmetry_group_IT_number 25
_symmetry_cell_setting 'orthorhombic'
loop_
_space_group_symop_operation_xyz
x,y,z
-x,-y,z
-x,y,z
x,-y,z
loop_
_atom_site_type_symbol
_atom_site_label
_atom_site_fract_x
_atom_site_fract_y
_atom_site_fract_z
Si Si1 0.297239 0.166384 0.144870
Si Si2 0.297125 0.336901 0.762749
Si Si3 0.297376 0.337126 0.522484
Si Si4 0.697764 0.175219 0.014311
Si Si5 0.701950 0.164817 0.405208
Si Si6 0.706307 0.167134 0.881507
Si Si7 0.799046 0.836964 0.642555
Si Si8 0.799942 0.835182 0.274264
O O1 0.500000 0.163124 0.141456
O O2 0.251181 0.233427 0.209837
O O3 0.236505 0.000000 0.147521
O O4 0.233821 0.225899 0.079843
O O5 0.500000 0.341935 0.766460
O O6 0.234560 0.500000 0.757217
O O7 0.257622 0.248213 0.582860
O O8 0.236569 0.261113 0.824649
O O9 0.500000 0.343946 0.517668
O O10 0.233201 0.500000 0.526870
O O11 0.233852 0.256673 0.461986
O O12 0.500000 0.214216 0.013539
O O13 0.767267 0.217746 0.948316
O O14 0.705174 0.000000 0.015333
O O15 0.500000 0.157942 0.409933
O O16 0.742762 0.227861 0.338645
O O17 0.766907 0.000000 0.408186
O O18 0.500000 0.170070 0.882970
O O19 0.746636 0.245079 0.703576
O O20 0.753603 0.000000 0.873079
O O21 0.000000 0.843082 0.641549
O O22 0.731988 0.000000 0.642211
O O23 0.000000 0.842501 0.275083
O O24 0.729661 0.000000 0.274224
#
# Coordination Sequence:
#
# PCOD9337508 Si02
#       8
#     4   4   4   4   4   4   4   4
#     4   8  12  19  33  54  81 113 150 193 240 288
#     4  10  20  33  51  76 103 131 164 201 242 290
#     4  10  21  37  57  80 103 127 158 197 241 290
#     4   7  10  17  32  56  83 111 148 194 240 285
#     4   9  17  30  48  69  94 125 158 191 231 281
#     4   8  13  23  41  65  92 122 157 198 242 285
#     4  11  24  39  55  76 101 130 164 200 238 283
#     4   9  16  24  36  58  89 122 155 194 238 281
#
# _framework density 19.695920999999998
#
# number of rings (size 3 to 8) (size 9 to 14) (size 15 to 20)
#    0.000    3.000    0.000    3.375    0.000    6.000 
#    0.000    1.250    0.000    0.750    0.000    4.375 
#    0.000    5.000    0.000    0.000    0.000    0.000 
#
# Total GULP energy -178260.314640 kJ/mol
# GULP energy per Si atom -5570.634832 kJ/mol
# Density = 1.965109 g / cm^3
# Si number density = 19.695921 Si / 1000 Ang^3
#
#
#
# Elastic Constant Matrix: (Units=GPa)
#
#
# Indices 1 2 3 4 5 6 
#
# 1 16.9034 7.9305 8.4437 0.0000 0.0000 0.0000
# 2 7.9305 90.2544 88.5943 0.0000 0.0000 0.0000
# 3 8.4437 88.5943 250.5835 0.0000 0.0000 0.0000
# 4 0.0000 0.0000 0.0000 -0.2928 0.0000 0.0000
# 5 0.0000 0.0000 0.0000 0.0000 -49.2764 0.0000
# 6 0.0000 0.0000 0.0000 0.0000 0.0000 7.0944
#
#
#
# Elastic Compliance Matrix: (Units=1/GPa)
#
#
# Indices 1 2 3 4 5 6 
#
# 1 0.061713 -0.005179 -0.000249 0.000000 0.000000 0.000000
# 2 -0.005179 0.017403 -0.005978 0.000000 0.000000 0.000000
# 3 -0.000249 -0.005978 0.006113 0.000000 0.000000 0.000000
# 4 0.000000 0.000000 0.000000 -3.414781 0.000000 0.000000
# 5 0.000000 0.000000 0.000000 0.000000 -0.020294 0.000000
# 6 0.000000 0.000000 0.000000 0.000000 0.000000 0.140956
#
#
# Mechanical properties :
#
#
# Convention : Reuss Voigt Hill
#
# Bulk Modulus (GPa) = 16.02098 63.07535 39.54817
# Shear Modulus (GPa) = -1.57964 8.35656 3.38846
#
# Velocity S-wave (km/s) = -0.89652 2.06204 1.31306
# Velocity P-wave (km/s) = 2.66085 6.14520 4.73517
#
# Compressibility (1/GPa) = 0.06241814
#
# Stress axis : x y z
#
# Youngs Moduli (GPa) = 16.20393 57.46012 163.59187
#
# Poissons Ratio (x) = 0.29757 0.04066
# Poissons Ratio (y) = 0.08391 0.97803
# Poissons Ratio (z) = 0.00403 0.34353
#
# Static dielectric constant tensor:
#      x y z
#    x 1.699760 0.000000 0.000000 
#    y 0.000000 1.673280 0.000000 
#    z 0.000000 0.000000 1.732430 
# 
# From -- ./inp_files/6318.got.cif
#   From: 2010.05.17/outbox.cif.g08.bks.cpg/sg25_4_cif.got.tgz:6318.got - 2010.06.04 01:04:00.
