data_PCOD9337400
_publ_section_title
;
Structure prediction by ZEFSAII (Michael W. Deem and Ramdas Pophale) SiO2 
 PCOD9337400
Probable space group: P M M 2
;
_chemical_formula_sum "Si O2"
_cell_formula_units_Z 32
_cell_length_a 7.463933
_cell_length_b 9.653396
_cell_length_c 21.759110
_cell_angle_alpha 90.000000
_cell_angle_beta 90.000000
_cell_angle_gamma 90.000000
_cell_volume 1567.793942
_symmetry_space_group_name_H-M "P M M 2"
_symmetry_group_IT_number 25
_symmetry_cell_setting 'orthorhombic'
loop_
_space_group_symop_operation_xyz
x,y,z
-x,-y,z
-x,y,z
x,-y,z
loop_
_atom_site_type_symbol
_atom_site_label
_atom_site_fract_x
_atom_site_fract_y
_atom_site_fract_z
Si Si1 0.780662 0.340686 0.260950
Si Si2 0.781552 0.161731 0.377246
Si Si3 0.781677 0.840736 0.145950
Si Si4 0.784479 0.157015 0.007532
Si Si5 0.213868 0.158771 0.511467
Si Si6 0.713832 0.841225 0.643660
Si Si7 0.287281 0.655726 0.890917
Si Si8 0.281208 0.161421 0.777869
O O1 0.724354 0.500000 0.262440
O O2 0.721322 0.255469 0.320861
O O3 0.722113 0.262052 0.199205
O O4 0.000000 0.339489 0.261012
O O5 0.724462 0.213545 0.445195
O O6 0.000000 0.163061 0.375841
O O7 0.729414 0.000000 0.370539
O O8 0.000000 0.838569 0.146166
O O9 0.729312 0.000000 0.158653
O O10 0.723773 0.805374 0.076525
O O11 0.735714 0.262937 0.954504
O O12 0.000000 0.152214 0.009577
O O13 0.721732 0.000000 0.993639
O O14 0.249829 0.226926 0.577570
O O15 0.000000 0.151238 0.507281
O O16 0.283798 0.000000 0.514755
O O17 0.500000 0.848923 0.647650
O O18 0.774803 0.785973 0.709918
O O19 0.783977 0.000000 0.640517
O O20 0.500000 0.645171 0.880733
O O21 0.214355 0.500000 0.893490
O O22 0.215515 0.746279 0.834153
O O23 0.500000 0.162010 0.779400
O O24 0.228376 0.000000 0.784240
#
# Coordination Sequence:
#
# PCOD9337400 Si02
#       8
#     4   4   4   4   4   4   4   4
#     4   9  15  21  32  53  79 106 137 171 205 243
#     4   8  13  21  33  49  72 103 134 164 202 246
#     4   8  14  25  40  58  82 110 138 171 212 255
#     4   9  18  32  49  69  92 118 148 182 223 269
#     4   8  13  21  34  54  79 104 130 163 205 250
#     4   8  13  22  38  59  79 100 131 172 214 251
#     4  10  20  32  47  68  92 119 151 184 219 262
#     4   8  14  26  44  63  83 109 141 178 218 256
#
# _framework density 20.410845999999999
#
# number of rings (size 3 to 8) (size 9 to 14) (size 15 to 20)
#    0.000    3.500    0.000    3.000    0.000    3.000 
#    0.000    1.875    0.000    3.000    0.000    0.875 
#    0.000    5.000    0.000    0.000    0.000    0.000 
#
# Total GULP energy -178265.156083 kJ/mol
# GULP energy per Si atom -5570.786128 kJ/mol
# Density = 2.036439 g / cm^3
# Si number density = 20.410846 Si / 1000 Ang^3
#
#
#
# Elastic Constant Matrix: (Units=GPa)
#
#
# Indices 1 2 3 4 5 6 
#
# 1 57.0097 4.3073 4.6021 0.0000 0.0000 0.0000
# 2 4.3073 108.2473 125.2727 0.0000 0.0000 0.0000
# 3 4.6021 125.2727 240.9529 0.0000 0.0000 0.0000
# 4 0.0000 0.0000 0.0000 -4.6403 0.0000 0.0000
# 5 0.0000 0.0000 0.0000 0.0000 19.7713 0.0000
# 6 0.0000 0.0000 0.0000 0.0000 0.0000 1.3538
#
#
#
# Elastic Compliance Matrix: (Units=1/GPa)
#
#
# Indices 1 2 3 4 5 6 
#
# 1 0.017594 -0.000781 0.000070 0.000000 0.000000 0.000000
# 2 -0.000781 0.023227 -0.012061 0.000000 0.000000 0.000000
# 3 0.000070 -0.012061 0.010419 0.000000 0.000000 0.000000
# 4 0.000000 0.000000 0.000000 -0.215501 0.000000 0.000000
# 5 0.000000 0.000000 0.000000 0.000000 0.050578 0.000000
# 6 0.000000 0.000000 0.000000 0.000000 0.000000 0.738635
#
#
# Mechanical properties :
#
#
# Convention : Reuss Voigt Hill
#
# Bulk Modulus (GPa) = 38.91572 74.95270 56.93421
# Shear Modulus (GPa) = 7.58653 21.43215 14.50934
#
# Velocity S-wave (km/s) = 1.93002 3.24394 2.66910
# Velocity P-wave (km/s) = 4.90655 7.12970 6.11992
#
# Compressibility (1/GPa) = 0.02569656
#
# Stress axis : x y z
#
# Youngs Moduli (GPa) = 56.83679 43.05294 95.97443
#
# Poissons Ratio (x) = 0.03364 -0.00673
# Poissons Ratio (y) = 0.04441 1.15755
# Poissons Ratio (z) = -0.00399 0.51926
#
# Static dielectric constant tensor:
#      x y z
#    x 1.796760 0.000000 0.000000 
#    y 0.000000 1.678480 0.000000 
#    z 0.000000 0.000000 1.758800 
# 
# From -- ./inp_files/6377.got.cif
#   From: 2010.05.17/outbox.cif.g08.bks.cpg/sg25_4_cif.got.tgz:6377.got - 2010.06.04 01:04:00.
