data_PCOD9337825
_publ_section_title
;
Structure prediction by ZEFSAII (Michael W. Deem and Ramdas Pophale) SiO2 
 PCOD9337825
Probable space group: P M M 2
;
_chemical_formula_sum "Si O2"
_cell_formula_units_Z 32
_cell_length_a 9.801644
_cell_length_b 7.421830
_cell_length_c 21.581658
_cell_angle_alpha 90.000000
_cell_angle_beta 90.000000
_cell_angle_gamma 90.000000
_cell_volume 1569.982217
_symmetry_space_group_name_H-M "P M M 2"
_symmetry_group_IT_number 25
_symmetry_cell_setting 'orthorhombic'
loop_
_space_group_symop_operation_xyz
x,y,z
-x,-y,z
-x,y,z
x,-y,z
loop_
_atom_site_type_symbol
_atom_site_label
_atom_site_fract_x
_atom_site_fract_y
_atom_site_fract_z
Si Si1 0.342050 0.220474 0.139410
Si Si2 0.154971 0.284573 0.617465
Si Si3 0.345172 0.284048 0.507667
Si Si4 0.665851 0.208806 0.003579
Si Si5 0.655692 0.214960 0.367462
Si Si6 0.657893 0.220960 0.868504
Si Si7 0.844612 0.784478 0.756035
Si Si8 0.842879 0.779603 0.254812
O O1 0.500000 0.273586 0.150663
O O2 0.241660 0.275816 0.194036
O O3 0.342730 0.000000 0.137735
O O4 0.297297 0.284401 0.070882
O O5 0.147285 0.500000 0.610239
O O6 0.248673 0.214508 0.562108
O O7 0.208825 0.251262 0.686789
O O8 0.000000 0.213546 0.614593
O O9 0.500000 0.214334 0.512739
O O10 0.351465 0.500000 0.514151
O O11 0.297030 0.247841 0.437739
O O12 0.500000 0.210537 0.002753
O O13 0.707067 0.283554 0.936628
O O14 0.709999 0.000000 0.004041
O O15 0.500000 0.285419 0.361120
O O16 0.759264 0.281334 0.315346
O O17 0.647342 0.000000 0.359263
O O18 0.500000 0.273406 0.860081
O O19 0.750380 0.282100 0.811638
O O20 0.659311 0.000000 0.870015
O O21 0.000000 0.714547 0.759380
O O22 0.851135 0.000000 0.762661
O O23 0.000000 0.721391 0.254496
O O24 0.843984 0.000000 0.255106
#
# Coordination Sequence:
#
# PCOD9337825 Si02
#       8
#     4   4   4   4   4   4   4   4
#     4   8  12  19  32  48  69 102 139 168 197 238
#     4   9  18  32  47  61  80 108 137 162 194 241
#     4   9  18  32  48  65  84 104 129 166 206 237
#     4   7  10  17  30  48  70  99 135 168 196 233
#     4   9  17  29  44  61  82 109 137 162 194 241
#     4   8  13  22  36  54  77 105 136 168 201 238
#     4   9  17  28  41  59  83 108 134 166 202 237
#     4   9  16  24  34  52  79 107 135 169 204 234
#
# _framework density 20.382396
#
# number of rings (size 3 to 8) (size 9 to 14) (size 15 to 20)
#    0.000    3.500    0.000    1.875    0.000    3.000 
#    0.000    0.625    0.000    3.750    0.000    0.000 
#    0.000    1.000    0.000    4.750    0.000    6.250 
#
# Total GULP energy -178362.850186 kJ/mol
# GULP energy per Si atom -5573.839068 kJ/mol
# Density = 2.033600 g / cm^3
# Si number density = 20.382396 Si / 1000 Ang^3
#
#
#
# Elastic Constant Matrix: (Units=GPa)
#
#
# Indices 1 2 3 4 5 6 
#
# 1 96.8946 4.7011 124.5471 0.0000 0.0000 0.0000
# 2 4.7011 65.5652 2.7431 0.0000 0.0000 0.0000
# 3 124.5471 2.7431 253.9050 0.0000 0.0000 0.0000
# 4 0.0000 0.0000 0.0000 42.4467 0.0000 0.0000
# 5 0.0000 0.0000 0.0000 0.0000 -172.2945 0.0000
# 6 0.0000 0.0000 0.0000 0.0000 0.0000 -11.0171
#
#
#
# Elastic Compliance Matrix: (Units=1/GPa)
#
#
# Indices 1 2 3 4 5 6 
#
# 1 0.028067 -0.001437 -0.013752 0.000000 0.000000 0.000000
# 2 -0.001437 0.015332 0.000539 0.000000 0.000000 0.000000
# 3 -0.013752 0.000539 0.010678 0.000000 0.000000 0.000000
# 4 0.000000 0.000000 0.000000 0.023559 0.000000 0.000000
# 5 0.000000 0.000000 0.000000 0.000000 -0.005804 0.000000
# 6 0.000000 0.000000 0.000000 0.000000 0.000000 -0.090768
#
#
# Mechanical properties :
#
#
# Convention : Reuss Voigt Hill
#
# Bulk Modulus (GPa) = 40.35824 75.59417 57.97621
# Shear Modulus (GPa) = 268.47301 -9.21475 129.62913
#
# Velocity S-wave (km/s) = 11.48930 -2.12856 7.98352
# Velocity P-wave (km/s) = 13.99460 5.57920 10.65308
#
# Compressibility (1/GPa) = 0.02477809
#
# Stress axis : x y z
#
# Youngs Moduli (GPa) = 35.62916 65.22108 93.64712
#
# Poissons Ratio (x) = 0.09373 1.28784
# Poissons Ratio (y) = 0.05120 -0.05050
# Poissons Ratio (z) = 0.48997 -0.03517
#
# Static dielectric constant tensor:
#      x y z
#    x 1.692680 0.000000 0.000000 
#    y 0.000000 1.778990 0.000000 
#    z 0.000000 0.000000 1.726500 
# 
# From -- ./inp_files/6263.got.cif
#   From: 2010.05.17/outbox.cif.g08.bks.cpg/sg25_4_cif.got.tgz:6263.got - 2010.06.04 01:04:00.
