data_PCOD9337642
_publ_section_title
;
Structure prediction by ZEFSAII (Michael W. Deem and Ramdas Pophale) SiO2 
 PCOD9337642
Probable space group: P M M 2
;
_chemical_formula_sum "Si O2"
_cell_formula_units_Z 24
_cell_length_a 13.045460
_cell_length_b 8.584587
_cell_length_c 12.112840
_cell_angle_alpha 90.000000
_cell_angle_beta 90.000000
_cell_angle_gamma 90.000000
_cell_volume 1356.515575
_symmetry_space_group_name_H-M "P M M 2"
_symmetry_group_IT_number 25
_symmetry_cell_setting 'orthorhombic'
loop_
_space_group_symop_operation_xyz
x,y,z
-x,-y,z
-x,y,z
x,-y,z
loop_
_atom_site_type_symbol
_atom_site_label
_atom_site_fract_x
_atom_site_fract_y
_atom_site_fract_z
Si Si1 0.305881 0.186874 0.105500
Si Si2 0.619765 0.688062 0.334325
Si Si3 0.312446 0.688784 0.578387
Si Si4 0.500000 0.185647 0.723059
Si Si5 0.116604 0.687966 0.714429
Si Si6 0.500000 0.314205 0.970818
Si Si7 0.883086 0.188053 0.957672
O O1 0.320673 0.244884 0.229904
O O2 0.309716 0.000000 0.103817
O O3 0.400128 0.251347 0.033781
O O4 0.200128 0.238215 0.047608
O O5 0.500000 0.735774 0.328975
O O6 0.622106 0.500000 0.328450
O O7 0.666372 0.735541 0.452195
O O8 0.319579 0.500000 0.583045
O O9 0.400725 0.757203 0.655989
O O10 0.202005 0.736225 0.626225
O O11 0.500000 0.257248 0.845060
O O12 0.500000 0.000000 0.731286
O O13 0.116557 0.500000 0.718196
O O14 0.144135 0.749410 0.836160
O O15 0.000000 0.739656 0.689620
O O16 0.500000 0.500000 0.974914
O O17 0.000000 0.238026 0.982095
O O18 0.881883 0.000000 0.953262
#
# Coordination Sequence:
#
# PCOD9337642 Si02
#       7
#     4   4   4   2   4   2   4
#     4  11  22  36  56  81 108 138 182 229 269 317
#     4  10  20  36  56  77 107 148 186 219 266 325
#     4  10  20  37  57  77 108 146 182 218 266 326
#     4  12  24  35  52  81 112 137 175 227 271 318
#     4   9  18  33  56  84 109 137 176 222 267 315
#     4  12  24  37  54  77 110 145 175 215 273 332
#     4   9  19  36  56  78 108 144 176 215 270 326
#
# _framework density 17.692388000000001
#
# number of rings (size 3 to 8) (size 9 to 14) (size 15 to 20)
#    0.000    1.833    1.667    3.000    0.000    5.333 
#    0.000    0.833    0.000    1.000    0.000    0.000 
#    0.000    0.000    0.000    0.000    0.000    0.000 
#
# Total GULP energy -134027.603302 kJ/mol
# GULP energy per Si atom -5584.483471 kJ/mol
# Density = 1.765212 g / cm^3
# Si number density = 17.692388 Si / 1000 Ang^3
#
#
#
# Elastic Constant Matrix: (Units=GPa)
#
#
# Indices 1 2 3 4 5 6 
#
# 1 122.8803 25.1450 88.3532 0.0000 0.0000 0.0000
# 2 25.1450 21.2259 28.9260 0.0000 0.0000 0.0000
# 3 88.3532 28.9260 155.6433 0.0000 0.0000 0.0000
# 4 0.0000 0.0000 0.0000 55.6811 0.0000 0.0000
# 5 0.0000 0.0000 0.0000 0.0000 20.1274 0.0000
# 6 0.0000 0.0000 0.0000 0.0000 0.0000 6.0057
#
#
#
# Elastic Compliance Matrix: (Units=1/GPa)
#
#
# Indices 1 2 3 4 5 6 
#
# 1 0.014723 -0.008104 -0.006851 0.000000 0.000000 0.000000
# 2 -0.008104 0.067552 -0.007954 0.000000 0.000000 0.000000
# 3 -0.006851 -0.007954 0.011792 0.000000 0.000000 0.000000
# 4 0.000000 0.000000 0.000000 0.017959 0.000000 0.000000
# 5 0.000000 0.000000 0.000000 0.000000 0.049684 0.000000
# 6 0.000000 0.000000 0.000000 0.000000 0.000000 0.166508
#
#
# Mechanical properties :
#
#
# Convention : Reuss Voigt Hill
#
# Bulk Modulus (GPa) = 20.72610 64.95532 42.84071
# Shear Modulus (GPa) = 12.81656 26.85119 19.83387
#
# Velocity S-wave (km/s) = 2.69441 3.89995 3.35183
# Velocity P-wave (km/s) = 4.62816 7.55466 6.26470
#
# Compressibility (1/GPa) = 0.04824835
#
# Stress axis : x y z
#
# Youngs Moduli (GPa) = 67.92274 14.80333 84.80000
#
# Poissons Ratio (x) = 0.11997 0.58100
# Poissons Ratio (y) = 0.55046 0.67450
# Poissons Ratio (z) = 0.46536 0.11775
#
# Static dielectric constant tensor:
#      x y z
#    x 1.604220 0.000000 0.000000 
#    y 0.000000 1.599450 0.000000 
#    z 0.000000 0.000000 1.571230 
# 
# From -- ./inp_files/4009.got.cif
#   From: 2010.05.17/outbox.cif.g08.bks.cpg/sg25_3_cif.got.tgz:4009.got - 2010.06.04 01:04:00.
