data_PCOD9337190
_publ_section_title
;
Structure prediction by ZEFSAII (Michael W. Deem and Ramdas Pophale) SiO2 
 PCOD9337190
Probable space group: P M M 2
;
_chemical_formula_sum "Si O2"
_cell_formula_units_Z 20
_cell_length_a 13.659115
_cell_length_b 8.607837
_cell_length_c 9.245260
_cell_angle_alpha 90.000000
_cell_angle_beta 90.000000
_cell_angle_gamma 90.000000
_cell_volume 1087.015471
_symmetry_space_group_name_H-M "P M M 2"
_symmetry_group_IT_number 25
_symmetry_cell_setting 'orthorhombic'
loop_
_space_group_symop_operation_xyz
x,y,z
-x,-y,z
-x,y,z
x,-y,z
loop_
_atom_site_type_symbol
_atom_site_label
_atom_site_fract_x
_atom_site_fract_y
_atom_site_fract_z
Si Si1 0.691260 0.813440 0.873950
Si Si2 0.893036 0.186386 0.201372
Si Si3 0.500000 0.188997 0.698152
Si Si4 0.689249 0.314845 0.201225
Si Si5 0.893408 0.313736 0.872107
Si Si6 0.500000 0.813024 0.364977
O O1 0.597904 0.761602 0.781467
O O2 0.794471 0.756874 0.807794
O O3 0.692254 0.000000 0.883237
O O4 0.682768 0.746607 0.036122
O O5 0.885345 0.500000 0.876882
O O6 0.793397 0.256219 0.264676
O O7 0.000000 0.227207 0.265878
O O8 0.895271 0.249462 0.036539
O O9 0.500000 0.237414 0.532009
O O10 0.500000 0.000000 0.700105
O O11 0.688255 0.500000 0.199745
O O12 0.596945 0.249419 0.287192
O O13 0.000000 0.273248 0.807026
O O14 0.885058 0.000000 0.197983
O O15 0.500000 0.000000 0.357858
#
# Coordination Sequence:
#
# PCOD9337190 Si02
#       6
#     4   4   2   4   4   2
#     4  10  18  32  54  78 102 131 168 207 249 297
#     4   9  16  27  46  73 102 133 168 204 245 292
#     4   9  21  37  54  74  96 127 168 213 256 296
#     4  11  21  33  51  79 108 134 167 205 251 303
#     4   9  16  26  42  69 104 135 162 199 247 293
#     4  11  22  39  56  70  96 133 172 215 258 298
#
# _framework density 18.399001999999999
#
# number of rings (size 3 to 8) (size 9 to 14) (size 15 to 20)
#    0.000    2.200    0.000    6.900    0.000    3.200 
#    0.000    5.500    0.000    1.200    0.000    2.800 
#    0.000    0.000    0.000    0.000    0.000    0.000 
#
# Total GULP energy -111506.968627 kJ/mol
# GULP energy per Si atom -5575.348431 kJ/mol
# Density = 1.835713 g / cm^3
# Si number density = 18.399002 Si / 1000 Ang^3
#
#
#
# Elastic Constant Matrix: (Units=GPa)
#
#
# Indices 1 2 3 4 5 6 
#
# 1 242.9412 66.3123 65.0865 0.0000 0.0000 0.0000
# 2 66.3123 98.1329 23.8402 0.0000 0.0000 0.0000
# 3 65.0865 23.8402 50.9473 0.0000 0.0000 0.0000
# 4 0.0000 0.0000 0.0000-4416.7070 0.0000 0.0000
# 5 0.0000 0.0000 0.0000 0.0000 -4.3137 0.0000
# 6 0.0000 0.0000 0.0000 0.0000 0.0000 27.0635
#
#
#
# Elastic Compliance Matrix: (Units=1/GPa)
#
#
# Indices 1 2 3 4 5 6 
#
# 1 0.006896 -0.002843 -0.007480 0.000000 0.000000 0.000000
# 2 -0.002843 0.012669 -0.002297 0.000000 0.000000 0.000000
# 3 -0.007480 -0.002297 0.030258 0.000000 0.000000 0.000000
# 4 0.000000 0.000000 0.000000 -0.000226 0.000000 0.000000
# 5 0.000000 0.000000 0.000000 0.000000 -0.231818 0.000000
# 6 0.000000 0.000000 0.000000 0.000000 0.000000 0.036950
#
#
# Mechanical properties :
#
#
# Convention : Reuss Voigt Hill
#
# Bulk Modulus (GPa) = 40.67466 78.05550 59.36508
# Shear Modulus (GPa) = -44.70776 -863.00595 -453.85686
#
# Velocity S-wave (km/s) = -4.93475 -21.68107 -15.72292
# Velocity P-wave (km/s) = 3.21155 24.17111 17.24176
#
# Compressibility (1/GPa) = 0.02458533
#
# Stress axis : x y z
#
# Youngs Moduli (GPa) = 145.01014 78.93140 33.04889
#
# Poissons Ratio (x) = 0.22439 0.24719
# Poissons Ratio (y) = 0.41224 0.07590
# Poissons Ratio (z) = 1.08462 0.18127
#
# Static dielectric constant tensor:
#      x y z
#    x 1.699030 0.000000 0.000000 
#    y 0.000000 1.617460 0.000000 
#    z 0.000000 0.000000 1.592810 
# 
# From -- ./inp_files/1867.got.cif
#   From: 2010.05.17/outbox.cif.g08.bks.cpg/sg25_1_cif.got.tgz:1867.got - 2010.06.04 01:04:00.
