data_PCOD9337178
_publ_section_title
;
Structure prediction by ZEFSAII (Michael W. Deem and Ramdas Pophale) SiO2 
 PCOD9337178
Probable space group: P M M 2
;
_chemical_formula_sum "Si O2"
_cell_formula_units_Z 32
_cell_length_a 8.160762
_cell_length_b 15.229974
_cell_length_c 12.747796
_cell_angle_alpha 90.000000
_cell_angle_beta 90.000000
_cell_angle_gamma 90.000000
_cell_volume 1584.400531
_symmetry_space_group_name_H-M "P M M 2"
_symmetry_group_IT_number 25
_symmetry_cell_setting 'orthorhombic'
loop_
_space_group_symop_operation_xyz
x,y,z
-x,-y,z
-x,y,z
x,-y,z
loop_
_atom_site_type_symbol
_atom_site_label
_atom_site_fract_x
_atom_site_fract_y
_atom_site_fract_z
Si Si1 0.695024 0.902706 0.827900
Si Si2 0.198057 0.274301 0.739367
Si Si3 0.197341 0.095139 0.284866
Si Si4 0.313337 0.657649 0.120947
Si Si5 0.200540 0.602008 0.545524
Si Si6 0.194875 0.592913 0.909826
Si Si7 0.804046 0.288128 0.344471
Si Si8 0.807840 0.158586 0.054207
O O1 0.500000 0.901549 0.841209
O O2 0.742149 0.825053 0.748722
O O3 0.746018 0.000000 0.792516
O O4 0.771915 0.884553 0.942738
O O5 0.248845 0.335818 0.642715
O O6 0.257527 0.324914 0.843951
O O7 0.000000 0.270506 0.738638
O O8 0.259546 0.187087 0.334482
O O9 0.221178 0.101769 0.158835
O O10 0.000000 0.095040 0.300717
O O11 0.260977 0.000000 0.321763
O O12 0.500000 0.630273 0.132416
O O13 0.232163 0.664617 0.234366
O O14 0.299583 0.755339 0.072582
O O15 0.227649 0.600380 0.032558
O O16 0.253932 0.500000 0.552210
O O17 0.256273 0.652534 0.440412
O O18 0.000000 0.599615 0.545226
O O19 0.261051 0.500000 0.869452
O O20 0.000000 0.592758 0.893550
O O21 0.000000 0.281220 0.355866
O O22 0.000000 0.185527 0.056078
#
# Coordination Sequence:
#
# PCOD9337178 Si02
#       8
#     4   4   4   4   4   4   4   4
#     4  11  23  36  52  79 116 155 189 225 277 338
#     4  10  20  36  59  83 109 143 188 240 286 334
#     4   8  14  25  44  72 104 137 176 221 268 319
#     4  11  21  33  51  78 116 153 184 227 282 337
#     4   9  18  35  60  87 110 138 185 243 294 338
#     4  10  20  34  54  80 109 144 185 230 286 348
#     4   9  18  33  54  79 108 144 187 232 283 340
#     4  10  18  31  52  77 106 146 193 235 277 326
#
# _framework density 20.196914
#
# number of rings (size 3 to 8) (size 9 to 14) (size 15 to 20)
#    0.000    2.250    1.250    3.375    0.000    3.750 
#    0.000    2.500    0.000    7.500    0.000    0.000 
#    0.000    0.000    0.000    0.000    0.000    0.000 
#
# Total GULP energy -178433.624005 kJ/mol
# GULP energy per Si atom -5576.050750 kJ/mol
# Density = 2.015095 g / cm^3
# Si number density = 20.196914 Si / 1000 Ang^3
#
#
#
# Elastic Constant Matrix: (Units=GPa)
#
#
# Indices 1 2 3 4 5 6 
#
# 1 15.2913 10.6175 3.4670 0.0000 0.0000 0.0000
# 2 10.6175 149.0576 73.7218 0.0000 0.0000 0.0000
# 3 3.4670 73.7218 112.2977 0.0000 0.0000 0.0000
# 4 0.0000 0.0000 0.0000 21.4551 0.0000 0.0000
# 5 0.0000 0.0000 0.0000 0.0000 -3.7625 0.0000
# 6 0.0000 0.0000 0.0000 0.0000 0.0000 -21.7273
#
#
#
# Elastic Compliance Matrix: (Units=1/GPa)
#
#
# Indices 1 2 3 4 5 6 
#
# 1 0.068998 -0.005718 0.001623 0.000000 0.000000 0.000000
# 2 -0.005718 0.010408 -0.006656 0.000000 0.000000 0.000000
# 3 0.001623 -0.006656 0.013225 0.000000 0.000000 0.000000
# 4 0.000000 0.000000 0.000000 0.046609 0.000000 0.000000
# 5 0.000000 0.000000 0.000000 0.000000 -0.265782 0.000000
# 6 0.000000 0.000000 0.000000 0.000000 0.000000 -0.046025
#
#
# Mechanical properties :
#
#
# Convention : Reuss Voigt Hill
#
# Bulk Modulus (GPa) = 14.05876 50.25103 32.15490
# Shear Modulus (GPa) = -39.26006 11.78244 -13.73881
#
# Velocity S-wave (km/s) = -4.41371 2.41794 -2.61098
# Velocity P-wave (km/s) = 4.35873 5.72100 2.62024
#
# Compressibility (1/GPa) = 0.07113001
#
# Stress axis : x y z
#
# Youngs Moduli (GPa) = 14.49307 96.07796 75.61693
#
# Poissons Ratio (x) = 0.54935 -0.12276
# Poissons Ratio (y) = 0.08287 0.50333
# Poissons Ratio (z) = -0.02353 0.63953
#
# Static dielectric constant tensor:
#      x y z
#    x 1.712570 0.000000 0.000000 
#    y 0.000000 1.764040 0.000000 
#    z 0.000000 0.000000 1.703660 
# 
# From -- ./inp_files/4195.got.cif
#   From: 2010.05.17/outbox.cif.g08.bks.cpg/sg25_3_cif.got.tgz:4195.got - 2010.06.04 01:04:00.
