data_PCOD9337159
_publ_section_title
;
Structure prediction by ZEFSAII (Michael W. Deem and Ramdas Pophale) SiO2 
 PCOD9337159
Probable space group: P M M 2
;
_chemical_formula_sum "Si O2"
_cell_formula_units_Z 32
_cell_length_a 15.227025
_cell_length_b 7.805636
_cell_length_c 12.688474
_cell_angle_alpha 90.000000
_cell_angle_beta 90.000000
_cell_angle_gamma 90.000000
_cell_volume 1508.109063
_symmetry_space_group_name_H-M "P M M 2"
_symmetry_group_IT_number 25
_symmetry_cell_setting 'orthorhombic'
loop_
_space_group_symop_operation_xyz
x,y,z
-x,-y,z
-x,y,z
x,-y,z
loop_
_atom_site_type_symbol
_atom_site_label
_atom_site_fract_x
_atom_site_fract_y
_atom_site_fract_z
Si Si1 0.398399 0.210333 0.914490
Si Si2 0.727106 0.802838 0.729220
Si Si3 0.343948 0.195525 0.348000
Si Si4 0.904015 0.792725 0.635079
Si Si5 0.594932 0.301411 0.563595
Si Si6 0.095099 0.705681 0.169936
Si Si7 0.152461 0.704105 0.401735
Si Si8 0.292689 0.205373 0.121071
O O1 0.500000 0.266220 0.908981
O O2 0.337786 0.270826 0.817468
O O3 0.400366 0.000000 0.912524
O O4 0.348260 0.264196 0.020974
O O5 0.821985 0.725032 0.703028
O O6 0.672529 0.796786 0.620918
O O7 0.742404 0.000000 0.760610
O O8 0.398346 0.288457 0.437856
O O9 0.244681 0.200439 0.391901
O O10 0.333857 0.271792 0.231040
O O11 0.375558 0.000000 0.341109
O O12 0.891966 0.744453 0.512505
O O13 0.000000 0.734936 0.671306
O O14 0.901216 0.000000 0.639511
O O15 0.500000 0.234980 0.598711
O O16 0.602967 0.500000 0.593141
O O17 0.093961 0.500000 0.162915
O O18 0.101426 0.749707 0.294609
O O19 0.187904 0.759852 0.118985
O O20 0.000000 0.769505 0.129286
O O21 0.169613 0.500000 0.398418
O O22 0.300830 0.000000 0.126031
#
# Coordination Sequence:
#
# PCOD9337159 Si02
#       8
#     4   4   4   4   4   4   4   4
#     4   9  18  35  59  83 105 135 180 231 278 324
#     4  10  20  36  58  80 106 141 181 223 271 327
#     4  10  19  32  51  77 110 145 178 217 272 328
#     4  10  20  32  48  75 110 144 179 221 267 317
#     4  11  23  36  52  78 111 144 177 220 274 327
#     4   9  18  32  50  75 109 148 185 218 261 320
#     4  10  18  30  50  75 106 144 184 222 263 315
#     4   9  19  34  54  81 109 137 179 231 275 315
#
# _framework density 21.218623999999998
#
# number of rings (size 3 to 8) (size 9 to 14) (size 15 to 20)
#    0.000    2.250    1.250    1.875    0.000    4.000 
#    0.000    2.500    0.000    3.375    0.000    0.000 
#    0.000    0.000    0.000    0.000    0.000    0.000 
#
# Total GULP energy -178510.811760 kJ/mol
# GULP energy per Si atom -5578.462868 kJ/mol
# Density = 2.117033 g / cm^3
# Si number density = 21.218624 Si / 1000 Ang^3
#
#
#
# Elastic Constant Matrix: (Units=GPa)
#
#
# Indices 1 2 3 4 5 6 
#
# 1 166.2273 6.0737 75.4628 0.0000 0.0000 0.0000
# 2 6.0737 31.5970 1.2659 0.0000 0.0000 0.0000
# 3 75.4628 1.2659 114.3029 0.0000 0.0000 0.0000
# 4 0.0000 0.0000 0.0000 2.0376 0.0000 0.0000
# 5 0.0000 0.0000 0.0000 0.0000 16.6015 0.0000
# 6 0.0000 0.0000 0.0000 0.0000 0.0000 5.0841
#
#
#
# Elastic Compliance Matrix: (Units=1/GPa)
#
#
# Indices 1 2 3 4 5 6 
#
# 1 0.008655 -0.001435 -0.005698 0.000000 0.000000 0.000000
# 2 -0.001435 0.031901 0.000594 0.000000 0.000000 0.000000
# 3 -0.005698 0.000594 0.012504 0.000000 0.000000 0.000000
# 4 0.000000 0.000000 0.000000 0.490784 0.000000 0.000000
# 5 0.000000 0.000000 0.000000 0.000000 0.060236 0.000000
# 6 0.000000 0.000000 0.000000 0.000000 0.000000 0.196692
#
#
# Mechanical properties :
#
#
# Convention : Reuss Voigt Hill
#
# Bulk Modulus (GPa) = 25.01168 53.08133 39.04650
# Shear Modulus (GPa) = 6.04465 20.03293 13.03879
#
# Velocity S-wave (km/s) = 1.68965 3.07599 2.48160
# Velocity P-wave (km/s) = 3.95219 6.13892 5.16266
#
# Compressibility (1/GPa) = 0.03998133
#
# Stress axis : x y z
#
# Youngs Moduli (GPa) = 115.53801 31.34728 79.97387
#
# Poissons Ratio (x) = 0.04500 0.45571
# Poissons Ratio (y) = 0.16585 -0.04753
# Poissons Ratio (z) = 0.65836 -0.01863
#
# Static dielectric constant tensor:
#      x y z
#    x 1.786720 0.000000 0.000000 
#    y 0.000000 1.765310 0.000000 
#    z 0.000000 0.000000 1.767360 
# 
# From -- ./inp_files/4166.got.cif
#   From: 2010.05.17/outbox.cif.g08.bks.cpg/sg25_3_cif.got.tgz:4166.got - 2010.06.04 01:04:00.
