data_PCOD9337384
_publ_section_title
;
Structure prediction by ZEFSAII (Michael W. Deem and Ramdas Pophale) SiO2 
 PCOD9337384
Probable space group: P M M 2
;
_chemical_formula_sum "Si O2"
_cell_formula_units_Z 32
_cell_length_a 7.523301
_cell_length_b 9.467431
_cell_length_c 21.971383
_cell_angle_alpha 90.000000
_cell_angle_beta 90.000000
_cell_angle_gamma 90.000000
_cell_volume 1564.941044
_symmetry_space_group_name_H-M "P M M 2"
_symmetry_group_IT_number 25
_symmetry_cell_setting 'orthorhombic'
loop_
_space_group_symop_operation_xyz
x,y,z
-x,-y,z
-x,y,z
x,-y,z
loop_
_atom_site_type_symbol
_atom_site_label
_atom_site_fract_x
_atom_site_fract_y
_atom_site_fract_z
Si Si1 0.282749 0.662363 0.559430
Si Si2 0.282229 0.836273 0.677144
Si Si3 0.716822 0.334856 0.323026
Si Si4 0.717490 0.837356 0.440852
Si Si5 0.712695 0.662319 0.190183
Si Si6 0.209600 0.340973 0.058458
Si Si7 0.293795 0.172241 0.810166
Si Si8 0.711710 0.840940 0.940726
O O1 0.500000 0.662725 0.559444
O O2 0.225800 0.500000 0.556237
O O3 0.225809 0.739007 0.621429
O O4 0.226596 0.750809 0.500404
O O5 0.500000 0.835170 0.678676
O O6 0.218282 0.788732 0.744179
O O7 0.231071 0.000000 0.667383
O O8 0.500000 0.332976 0.324160
O O9 0.767871 0.500000 0.329369
O O10 0.776880 0.241276 0.379463
O O11 0.773902 0.281811 0.255830
O O12 0.500000 0.836848 0.440577
O O13 0.773708 0.000000 0.443066
O O14 0.500000 0.657177 0.193731
O O15 0.779569 0.500000 0.186963
O O16 0.753322 0.727489 0.124569
O O17 0.288636 0.500000 0.057344
O O18 0.000000 0.354064 0.054744
O O19 0.264000 0.253039 0.999882
O O20 0.500000 0.218323 0.808669
O O21 0.216760 0.215758 0.875711
O O22 0.291615 0.000000 0.811271
O O23 0.500000 0.852145 0.931553
O O24 0.780872 0.000000 0.951001
#
# Coordination Sequence:
#
# PCOD9337384 Si02
#       8
#     4   4   4   4   4   4   4   4
#     4   9  15  20  26  39  63  96 131 163 194 233
#     4   8  12  19  31  45  63  91 127 164 201 241
#     4   8  13  22  36  51  66  89 125 167 207 245
#     4   9  15  21  29  43  65  93 125 161 200 241
#     4   8  14  26  44  62  80 107 143 179 215 257
#     4  10  20  32  46  66  92 120 148 179 218 265
#     4   7  11  21  37  55  74  98 131 171 212 253
#     4   9  17  30  48  68  88 113 148 187 225 266
#
# _framework density 20.448055
#
# number of rings (size 3 to 8) (size 9 to 14) (size 15 to 20)
#    0.000    3.500    0.000    3.375    0.000    4.000 
#    0.000    1.250    0.000    4.500    0.000    0.000 
#    0.000    0.000    0.000    1.125    0.000   17.750 
#
# Total GULP energy -178237.114675 kJ/mol
# GULP energy per Si atom -5569.909834 kJ/mol
# Density = 2.040151 g / cm^3
# Si number density = 20.448055 Si / 1000 Ang^3
#
#
#
# Elastic Constant Matrix: (Units=GPa)
#
#
# Indices 1 2 3 4 5 6 
#
# 1 50.8812 3.0350 7.9390 0.0000 0.0000 0.0000
# 2 3.0350 95.7476 108.7336 0.0000 0.0000 0.0000
# 3 7.9390 108.7336 273.7307 0.0000 0.0000 0.0000
# 4 0.0000 0.0000 0.0000 30.9480 0.0000 0.0000
# 5 0.0000 0.0000 0.0000 0.0000 -36.9046 0.0000
# 6 0.0000 0.0000 0.0000 0.0000 0.0000 4.3275
#
#
#
# Elastic Compliance Matrix: (Units=1/GPa)
#
#
# Indices 1 2 3 4 5 6 
#
# 1 0.019743 0.000045 -0.000590 0.000000 0.000000 0.000000
# 2 0.000045 0.019028 -0.007560 0.000000 0.000000 0.000000
# 3 -0.000590 -0.007560 0.006673 0.000000 0.000000 0.000000
# 4 0.000000 0.000000 0.000000 0.032312 0.000000 0.000000
# 5 0.000000 0.000000 0.000000 0.000000 -0.027097 0.000000
# 6 0.000000 0.000000 0.000000 0.000000 0.000000 0.231081
#
#
# Mechanical properties :
#
#
# Convention : Reuss Voigt Hill
#
# Bulk Modulus (GPa) = 34.20767 73.30829 53.75798
# Shear Modulus (GPa) = 16.24985 19.71764 17.98375
#
# Velocity S-wave (km/s) = 2.82208 3.10865 2.96883
# Velocity P-wave (km/s) = 5.23300 6.98669 6.17244
#
# Compressibility (1/GPa) = 0.02923321
#
# Stress axis : x y z
#
# Youngs Moduli (GPa) = 50.65064 52.55525 149.85251
#
# Poissons Ratio (x) = -0.00234 0.08846
# Poissons Ratio (y) = -0.00226 1.13282
# Poissons Ratio (z) = 0.02990 0.39730
#
# Static dielectric constant tensor:
#      x y z
#    x 1.760440 0.000000 0.000000 
#    y 0.000000 1.849600 0.000000 
#    z 0.000000 0.000000 1.770930 
# 
# From -- ./inp_files/6562.got.cif
#   From: 2010.05.17/outbox.cif.g08.bks.cpg/sg25_4_cif.got.tgz:6562.got - 2010.06.04 01:04:00.
