data_PCOD9337013
_publ_section_title
;
Structure prediction by ZEFSAII (Michael W. Deem and Ramdas Pophale) SiO2 
 PCOD9337013
Probable space group: I 21 21 21
;
_chemical_formula_sum "Si O2"
_cell_formula_units_Z 16
_cell_length_a 9.626718
_cell_length_b 10.896069
_cell_length_c 5.319393
_cell_angle_alpha 90.000000
_cell_angle_beta 90.000000
_cell_angle_gamma 90.000000
_cell_volume 557.969130
_symmetry_space_group_name_H-M "I 21 21 21"
_symmetry_group_IT_number 24
_symmetry_cell_setting 'orthorhombic'
loop_
_space_group_symop_operation_xyz
x,y,z
-x,1/2-y,z
x,-y,1/2-z
1/2-x,y,-z
1/2+x,1/2+y,1/2+z
1/2-x,-y,1/2+z
1/2+x,1/2-y,-z
-x,1/2+y,1/2-z
loop_
_atom_site_type_symbol
_atom_site_label
_atom_site_fract_x
_atom_site_fract_y
_atom_site_fract_z
Si Si1 0.405290 0.359780 0.604695
Si Si2 0.409842 0.000000 0.250000
Si Si3 0.750000 0.285799 0.000000
O O1 0.500000 0.250000 0.497832
O O2 0.250000 0.378970 0.500000
O O3 0.494222 0.473576 0.494453
O O4 0.363332 0.302414 0.875031
O O5 0.313504 0.882542 0.302548
#
# Coordination Sequence:
#
# PCOD9337013 Si02
#       3
#     8   4   4
#     4  12  28  55  85 131 178 230 302 371 439 544
#     4  12  28  56  94 126 182 244 288 376 466 518
#     4  12  28  58  88 132 184 234 298 378 450 538
#
# _framework density 28.675422999999999
#
# number of rings (size 3 to 8) (size 9 to 14) (size 15 to 20)
#    0.000    0.000    5.000    3.000    7.000    4.000 
#    0.000    0.000    0.000    0.000    0.000    0.000 
#    0.000    0.000    0.000    0.000    0.000    0.000 
#
# Total GULP energy -44692.873661 kJ/mol
# GULP energy per Si atom -5586.609208 kJ/mol
# Density = 2.861016 g / cm^3
# Si number density = 28.675423 Si / 1000 Ang^3
#
#
#
# Elastic Constant Matrix: (Units=GPa)
#
#
# Indices 1 2 3 4 5 6 
#
# 1 147.7589 59.1516 44.2991 0.0000 0.0000 0.0000
# 2 59.1516 210.0487 55.3124 0.0000 0.0000 0.0000
# 3 44.2991 55.3124 145.1585 0.0000 0.0000 0.0000
# 4 0.0000 0.0000 0.0000 8.3537 0.0000 0.0000
# 5 0.0000 0.0000 0.0000 0.0000 48.8929 0.0000
# 6 0.0000 0.0000 0.0000 0.0000 0.0000 43.6394
#
#
#
# Elastic Compliance Matrix: (Units=1/GPa)
#
#
# Indices 1 2 3 4 5 6 
#
# 1 0.008014 -0.001793 -0.001763 0.000000 0.000000 0.000000
# 2 -0.001793 0.005693 -0.001622 0.000000 0.000000 0.000000
# 3 -0.001763 -0.001622 0.008045 0.000000 0.000000 0.000000
# 4 0.000000 0.000000 0.000000 0.119707 0.000000 0.000000
# 5 0.000000 0.000000 0.000000 0.000000 0.020453 0.000000
# 6 0.000000 0.000000 0.000000 0.000000 0.000000 0.022915
#
#
# Mechanical properties :
#
#
# Convention : Reuss Voigt Hill
#
# Bulk Modulus (GPa) = 87.74269 91.16582 89.45425
# Shear Modulus (GPa) = 25.12810 43.12408 34.12609
#
# Velocity S-wave (km/s) = 2.96344 3.88218 3.45350
# Velocity P-wave (km/s) = 6.50955 7.20808 6.86770
#
# Compressibility (1/GPa) = 0.01139696
#
# Stress axis : x y z
#
# Youngs Moduli (GPa) = 124.78407 175.66092 124.30024
#
# Poissons Ratio (x) = 0.31490 0.21909
# Poissons Ratio (y) = 0.22369 0.20163
# Poissons Ratio (z) = 0.21994 0.28495
#
# Static dielectric constant tensor:
#      x y z
#    x 2.140520 0.000000 0.000000 
#    y 0.000000 2.175390 0.000000 
#    z 0.000000 0.000000 2.378120 
# 
# From -- ./inp_files/473.got.cif
#   From: 2010.05.17/outbox.cif.g08.bks.cpg/sg24_1_cif.got.tgz:473.got - 2010.06.04 00:33:39.
