data_PCOD9337538
_publ_section_title
;
Structure prediction by ZEFSAII (Michael W. Deem and Ramdas Pophale) SiO2 
 PCOD9337538
Probable space group: P M M 2
;
_chemical_formula_sum "Si O2"
_cell_formula_units_Z 32
_cell_length_a 7.749270
_cell_length_b 14.529509
_cell_length_c 13.440083
_cell_angle_alpha 90.000000
_cell_angle_beta 90.000000
_cell_angle_gamma 90.000000
_cell_volume 1513.260451
_symmetry_space_group_name_H-M "P M M 2"
_symmetry_group_IT_number 25
_symmetry_cell_setting 'orthorhombic'
loop_
_space_group_symop_operation_xyz
x,y,z
-x,-y,z
-x,y,z
x,-y,z
loop_
_atom_site_type_symbol
_atom_site_label
_atom_site_fract_x
_atom_site_fract_y
_atom_site_fract_z
Si Si1 0.703048 0.102873 0.803670
Si Si2 0.794918 0.605824 0.911436
Si Si3 0.293203 0.289399 0.326059
Si Si4 0.292106 0.393544 0.130088
Si Si5 0.792033 0.895514 0.239555
Si Si6 0.711914 0.606170 0.523768
Si Si7 0.802913 0.111936 0.023592
Si Si8 0.703513 0.715567 0.715788
O O1 0.500000 0.095943 0.781711
O O2 0.779340 0.183086 0.735575
O O3 0.778547 0.000000 0.794650
O O4 0.716394 0.133708 0.919094
O O5 0.730164 0.500000 0.910230
O O6 0.720331 0.660391 0.818728
O O7 0.000000 0.604571 0.899146
O O8 0.756634 0.644339 0.021463
O O9 0.500000 0.299599 0.325336
O O10 0.226111 0.337599 0.225145
O O11 0.253534 0.181412 0.319171
O O12 0.230809 0.340064 0.425028
O O13 0.500000 0.394740 0.134364
O O14 0.231685 0.500000 0.135466
O O15 0.724923 0.862629 0.130579
O O16 0.000000 0.899072 0.230314
O O17 0.732483 0.000000 0.259766
O O18 0.500000 0.605675 0.524322
O O19 0.766268 0.500000 0.522371
O O20 0.773111 0.657936 0.623135
O O21 0.000000 0.145301 0.017256
O O22 0.806585 0.000000 0.028516
O O23 0.500000 0.727334 0.695990
#
# Coordination Sequence:
#
# PCOD9337538 Si02
#       8
#     4   4   4   4   4   4   4   4
#     4   9  18  31  47  72 106 138 171 214 259 302
#     4  10  21  35  51  75 107 138 170 215 269 321
#     4  10  20  33  54  82 106 133 179 228 267 308
#     4   9  18  33  52  75 106 140 171 210 265 327
#     4   9  19  35  52  73 106 146 182 215 260 319
#     4   9  18  35  58  81 105 136 176 222 269 319
#     4   8  15  29  48  69  96 135 177 210 247 301
#     4  10  20  34  55  79 104 139 181 216 261 320
#
# _framework density 21.146393
#
# number of rings (size 3 to 8) (size 9 to 14) (size 15 to 20)
#    0.000    2.750    0.000    1.875    1.750    4.500 
#    0.000    2.500    0.000    4.125    0.000    1.750 
#    0.000    0.000    0.000    0.000    0.000    0.000 
#
# Total GULP energy -178586.729213 kJ/mol
# GULP energy per Si atom -5580.835288 kJ/mol
# Density = 2.109826 g / cm^3
# Si number density = 21.146393 Si / 1000 Ang^3
#
#
#
# Elastic Constant Matrix: (Units=GPa)
#
#
# Indices 1 2 3 4 5 6 
#
# 1 30.1807 1.4790 0.6205 0.0000 0.0000 0.0000
# 2 1.4790 149.0329 104.0001 0.0000 0.0000 0.0000
# 3 0.6205 104.0001 153.7164 0.0000 0.0000 0.0000
# 4 0.0000 0.0000 0.0000 39.1786 0.0000 0.0000
# 5 0.0000 0.0000 0.0000 0.0000 22.9412 0.0000
# 6 0.0000 0.0000 0.0000 0.0000 0.0000 7.3880
#
#
#
# Elastic Compliance Matrix: (Units=1/GPa)
#
#
# Indices 1 2 3 4 5 6 
#
# 1 0.033152 -0.000446 0.000168 0.000000 0.000000 0.000000
# 2 -0.000446 0.012717 -0.008602 0.000000 0.000000 0.000000
# 3 0.000168 -0.008602 0.012325 0.000000 0.000000 0.000000
# 4 0.000000 0.000000 0.000000 0.025524 0.000000 0.000000
# 5 0.000000 0.000000 0.000000 0.000000 0.043590 0.000000
# 6 0.000000 0.000000 0.000000 0.000000 0.000000 0.135355
#
#
# Mechanical properties :
#
#
# Convention : Reuss Voigt Hill
#
# Bulk Modulus (GPa) = 24.73211 60.56992 42.65101
# Shear Modulus (GPa) = 17.01247 29.02358 23.01802
#
# Velocity S-wave (km/s) = 2.83946 3.70876 3.30283
# Velocity P-wave (km/s) = 4.74037 6.85895 5.89560
#
# Compressibility (1/GPa) = 0.04043326
#
# Stress axis : x y z
#
# Youngs Moduli (GPa) = 30.16397 78.63226 81.13612
#
# Poissons Ratio (x) = 0.03510 -0.01364
# Poissons Ratio (y) = 0.01346 0.69797
# Poissons Ratio (z) = -0.00507 0.67643
#
# Static dielectric constant tensor:
#      x y z
#    x 1.777540 0.000000 0.000000 
#    y 0.000000 1.803040 0.000000 
#    z 0.000000 0.000000 1.744390 
# 
# From -- ./inp_files/4219.got.cif
#   From: 2010.05.17/outbox.cif.g08.bks.cpg/sg25_3_cif.got.tgz:4219.got - 2010.06.04 01:04:00.
