data_PCOD9337128
_publ_section_title
;
Structure prediction by ZEFSAII (Michael W. Deem and Ramdas Pophale) SiO2 
 PCOD9337128
Probable space group: P M M 2
;
_chemical_formula_sum "Si O2"
_cell_formula_units_Z 32
_cell_length_a 14.705854
_cell_length_b 8.875654
_cell_length_c 15.949161
_cell_angle_alpha 90.000000
_cell_angle_beta 90.000000
_cell_angle_gamma 90.000000
_cell_volume 2081.749437
_symmetry_space_group_name_H-M "P M M 2"
_symmetry_group_IT_number 25
_symmetry_cell_setting 'orthorhombic'
loop_
_space_group_symop_operation_xyz
x,y,z
-x,-y,z
-x,y,z
x,-y,z
loop_
_atom_site_type_symbol
_atom_site_label
_atom_site_fract_x
_atom_site_fract_y
_atom_site_fract_z
Si Si1 0.106576 0.181356 0.558360
Si Si2 0.208243 0.817497 0.727044
Si Si3 0.215680 0.680419 0.054174
Si Si4 0.106048 0.681486 0.886349
Si Si5 0.110370 0.673482 0.383472
Si Si6 0.399118 0.817022 0.794315
Si Si7 0.106764 0.180065 0.208159
Si Si8 0.396112 0.818767 0.990451
O O1 0.164456 0.229635 0.638942
O O2 0.139141 0.252252 0.471010
O O3 0.000000 0.221284 0.571319
O O4 0.111020 0.000000 0.551499
O O5 0.150343 0.755602 0.804772
O O6 0.312594 0.767590 0.740713
O O7 0.205705 0.000000 0.729985
O O8 0.214553 0.500000 0.059173
O O9 0.165806 0.748498 0.134553
O O10 0.160499 0.726227 0.970078
O O11 0.317936 0.739978 0.043231
O O12 0.111946 0.500000 0.878826
O O13 0.000000 0.722479 0.893709
O O14 0.138842 0.500000 0.378677
O O15 0.137194 0.761168 0.299449
O O16 0.000000 0.677938 0.384903
O O17 0.500000 0.764576 0.768623
O O18 0.384821 0.776382 0.892095
O O19 0.400701 0.000000 0.791955
O O20 0.000000 0.222413 0.197020
O O21 0.112640 0.000000 0.205645
O O22 0.500000 0.781079 0.014304
O O23 0.386288 0.000000 0.995719
#
# Coordination Sequence:
#
# PCOD9337128 Si02
#       8
#     4   4   4   4   4   4   4   4
#     4   9  17  28  42  64  93 121 151 190 233 275
#     4  10  18  29  47  68  90 120 160 198 231 273
#     4  11  21  32  47  68  96 128 160 195 236 285
#     4  10  21  33  42  58  91 130 160 188 226 271
#     4   9  17  30  48  68  90 119 153 190 234 282
#     4   8  14  26  45  67  90 117 152 197 241 275
#     4  10  20  33  50  71  95 124 158 197 238 281
#     4   9  17  31  50  69  91 121 159 203 244 281
#
# _framework density 15.371688000000001
#
# number of rings (size 3 to 8) (size 9 to 14) (size 15 to 20)
#    0.000    2.500    1.250    2.625    0.000    4.750 
#    0.000    1.250    0.000    0.375    0.000    0.875 
#    0.000    5.000    0.000    0.000    0.000    0.000 
#
# Total GULP energy -178394.972804 kJ/mol
# GULP energy per Si atom -5574.842900 kJ/mol
# Density = 1.533670 g / cm^3
# Si number density = 15.371688 Si / 1000 Ang^3
#
#
#
# Elastic Constant Matrix: (Units=GPa)
#
#
# Indices 1 2 3 4 5 6 
#
# 1 110.8480 35.3776 75.9831 0.0000 0.0000 0.0000
# 2 35.3776 28.8967 43.8874 0.0000 0.0000 0.0000
# 3 75.9831 43.8874 143.5181 0.0000 0.0000 0.0000
# 4 0.0000 0.0000 0.0000 23.6843 0.0000 0.0000
# 5 0.0000 0.0000 0.0000 0.0000 8.2420 0.0000
# 6 0.0000 0.0000 0.0000 0.0000 0.0000 15.8080
#
#
#
# Elastic Compliance Matrix: (Units=1/GPa)
#
#
# Indices 1 2 3 4 5 6 
#
# 1 0.016368 -0.012842 -0.004739 0.000000 0.000000 0.000000
# 2 -0.012842 0.074691 -0.016041 0.000000 0.000000 0.000000
# 3 -0.004739 -0.016041 0.014382 0.000000 0.000000 0.000000
# 4 0.000000 0.000000 0.000000 0.042222 0.000000 0.000000
# 5 0.000000 0.000000 0.000000 0.000000 0.121330 0.000000
# 6 0.000000 0.000000 0.000000 0.000000 0.000000 0.063259
#
#
# Mechanical properties :
#
#
# Convention : Reuss Voigt Hill
#
# Bulk Modulus (GPa) = 26.18000 65.97321 46.07660
# Shear Modulus (GPa) = 12.12915 18.08117 15.10516
#
# Velocity S-wave (km/s) = 2.81206 3.43339 3.13814
# Velocity P-wave (km/s) = 5.25470 7.66351 6.57044
#
# Compressibility (1/GPa) = 0.03819710
#
# Stress axis : x y z
#
# Youngs Moduli (GPa) = 61.09365 13.38843 69.53127
#
# Poissons Ratio (x) = 0.17194 0.32950
# Poissons Ratio (y) = 0.78458 1.11537
# Poissons Ratio (z) = 0.28951 0.21477
#
# Static dielectric constant tensor:
#      x y z
#    x 1.510320 0.000000 0.000000 
#    y 0.000000 1.513160 0.000000 
#    z 0.000000 0.000000 1.489160 
# 
# From -- ./inp_files/5661.got.cif
#   From: 2010.05.17/outbox.cif.g08.bks.cpg/sg25_3_cif.got.tgz:5661.got - 2010.06.04 01:04:00.
