data_PCOD9337121
_publ_section_title
;
Structure prediction by ZEFSAII (Michael W. Deem and Ramdas Pophale) SiO2 
 PCOD9337121
Probable space group: P M M 2
;
_chemical_formula_sum "Si O2"
_cell_formula_units_Z 28
_cell_length_a 12.249733
_cell_length_b 23.970611
_cell_length_c 5.300781
_cell_angle_alpha 90.000000
_cell_angle_beta 90.000000
_cell_angle_gamma 90.000000
_cell_volume 1556.487326
_symmetry_space_group_name_H-M "P M M 2"
_symmetry_group_IT_number 25
_symmetry_cell_setting 'orthorhombic'
loop_
_space_group_symop_operation_xyz
x,y,z
-x,-y,z
-x,y,z
x,-y,z
loop_
_atom_site_type_symbol
_atom_site_label
_atom_site_fract_x
_atom_site_fract_y
_atom_site_fract_z
Si Si1 0.633060 0.064396 0.568690
Si Si2 0.124142 0.396545 0.434083
Si Si3 0.337404 0.436455 0.627347
Si Si4 0.368534 0.130008 0.067889
Si Si5 0.874786 0.269860 0.617710
Si Si6 0.261405 0.750525 0.120846
Si Si7 0.323735 0.627014 0.132247
O O1 0.500000 0.063924 0.570007
O O2 0.667481 0.095032 0.312676
O O3 0.668275 0.000000 0.578208
O O4 0.668595 0.099132 0.813245
O O5 0.205226 0.435901 0.589859
O O6 0.124964 0.336721 0.573641
O O7 0.193376 0.385418 0.177690
O O8 0.000000 0.414583 0.397113
O O9 0.374949 0.500000 0.631126
O O10 0.373652 0.401526 0.381612
O O11 0.362581 0.403127 0.881009
O O12 0.500000 0.129993 0.066445
O O13 0.328265 0.193160 0.084376
O O14 0.804884 0.246917 0.383135
O O15 0.000000 0.250762 0.608980
O O16 0.819454 0.256376 0.883347
O O17 0.333177 0.693658 0.126971
#
# Coordination Sequence:
#
# PCOD9337121 Si02
#       7
#     4   4   4   4   4   4   4
#     4   9  17  31  49  73 109 144 165 184 217 274
#     4   8  17  28  39  55  78 109 146 185 232 286
#     4  10  18  29  40  55  80 109 154 193 229 294
#     4  10  20  31  50  79 107 137 165 190 231 282
#     4  10  19  31  48  67  91 129 167 202 249 292
#     4  11  18  33  49  68 100 126 159 208 243 284
#     4   9  18  30  40  57  78 116 146 188 239 280
#
# _framework density 17.989224
#
# number of rings (size 3 to 8) (size 9 to 14) (size 15 to 20)
#    0.857    1.571    1.429    2.143    0.000    3.143 
#    0.000    0.000    0.000    0.000    0.000    0.000 
#    0.000   43.429    0.000    0.000    0.000    0.000 
#
# Total GULP energy -156008.193854 kJ/mol
# GULP energy per Si atom -5571.721209 kJ/mol
# Density = 1.794828 g / cm^3
# Si number density = 17.989224 Si / 1000 Ang^3
#
#
#
# Elastic Constant Matrix: (Units=GPa)
#
#
# Indices 1 2 3 4 5 6 
#
# 1 45.5616 15.8519 10.1720 0.0000 0.0000 0.0000
# 2 15.8519 133.9368 55.3523 0.0000 0.0000 0.0000
# 3 10.1720 55.3523 135.1788 0.0000 0.0000 0.0000
# 4 0.0000 0.0000 0.0000 17.0002 0.0000 0.0000
# 5 0.0000 0.0000 0.0000 0.0000 -14.8734 0.0000
# 6 0.0000 0.0000 0.0000 0.0000 0.0000 16.1137
#
#
#
# Elastic Compliance Matrix: (Units=1/GPa)
#
#
# Indices 1 2 3 4 5 6 
#
# 1 0.022952 -0.002411 -0.000740 0.000000 0.000000 0.000000
# 2 -0.002411 0.009240 -0.003602 0.000000 0.000000 0.000000
# 3 -0.000740 -0.003602 0.008928 0.000000 0.000000 0.000000
# 4 0.000000 0.000000 0.000000 0.058823 0.000000 0.000000
# 5 0.000000 0.000000 0.000000 0.000000 -0.067234 0.000000
# 6 0.000000 0.000000 0.000000 0.000000 0.000000 0.062059
#
#
# Mechanical properties :
#
#
# Convention : Reuss Voigt Hill
#
# Bulk Modulus (GPa) = 36.21224 53.04772 44.62998
# Shear Modulus (GPa) = 42.56078 19.20152 30.88115
#
# Velocity S-wave (km/s) = 4.86933 3.27064 4.14774
# Velocity P-wave (km/s) = 7.19636 6.61932 6.91386
#
# Compressibility (1/GPa) = 0.02761497
#
# Stress axis : x y z
#
# Youngs Moduli (GPa) = 43.56876 108.22255 112.00321
#
# Poissons Ratio (x) = 0.26089 0.08288
# Poissons Ratio (y) = 0.10503 0.40346
# Poissons Ratio (z) = 0.03224 0.38984
#
# Static dielectric constant tensor:
#      x y z
#    x 1.636820 0.000000 0.000000 
#    y 0.000000 1.591370 0.000000 
#    z 0.000000 0.000000 1.618590 
# 
# From -- ./inp_files/685.got.cif
#   From: 2010.05.17/outbox.cif.g08.bks.cpg/sg25_1_cif.got.tgz:685.got - 2010.06.04 01:04:00.
