data_PCOD9337392
_publ_section_title
;
Structure prediction by ZEFSAII (Michael W. Deem and Ramdas Pophale) SiO2 
 PCOD9337392
Probable space group: P M M 2
;
_chemical_formula_sum "Si O2"
_cell_formula_units_Z 32
_cell_length_a 9.322483
_cell_length_b 7.431954
_cell_length_c 22.059700
_cell_angle_alpha 90.000000
_cell_angle_beta 90.000000
_cell_angle_gamma 90.000000
_cell_volume 1528.390097
_symmetry_space_group_name_H-M "P M M 2"
_symmetry_group_IT_number 25
_symmetry_cell_setting 'orthorhombic'
loop_
_space_group_symop_operation_xyz
x,y,z
-x,-y,z
-x,y,z
x,-y,z
loop_
_atom_site_type_symbol
_atom_site_label
_atom_site_fract_x
_atom_site_fract_y
_atom_site_fract_z
Si Si1 0.164765 0.279537 0.297290
Si Si2 0.337852 0.284907 0.179450
Si Si3 0.837963 0.215603 0.057576
Si Si4 0.672420 0.216004 0.807796
Si Si5 0.667067 0.779901 0.940034
Si Si6 0.672455 0.783104 0.677343
Si Si7 0.665607 0.216030 0.547244
Si Si8 0.336391 0.713808 0.414554
O O1 0.164930 0.500000 0.297274
O O2 0.251398 0.218837 0.238033
O O3 0.242487 0.218557 0.358807
O O4 0.000000 0.222713 0.294771
O O5 0.500000 0.214241 0.176732
O O6 0.346984 0.500000 0.186358
O O7 0.253445 0.251418 0.117525
O O8 0.000000 0.284531 0.063484
O O9 0.845723 0.000000 0.051490
O O10 0.758965 0.282358 0.997054
O O11 0.500000 0.244613 0.808045
O O12 0.722513 0.280461 0.873710
O O13 0.726775 0.285321 0.742595
O O14 0.694142 0.000000 0.807276
O O15 0.500000 0.727847 0.946845
O O16 0.668558 0.000000 0.939450
O O17 0.500000 0.751322 0.676146
O O18 0.728356 0.719392 0.611736
O O19 0.690601 0.000000 0.678726
O O20 0.500000 0.281562 0.544418
O O21 0.728875 0.258750 0.481597
O O22 0.661044 0.000000 0.551075
O O23 0.500000 0.786720 0.413380
O O24 0.347449 0.500000 0.406353
#
# Coordination Sequence:
#
# PCOD9337392 Si02
#       8
#     4   4   4   4   4   4   4   4
#     4   9  17  30  48  67  86 110 141 176 212 252
#     4  10  20  34  53  74  92 113 145 184 224 266
#     4  10  20  32  46  67  96 126 152 180 218 264
#     4   7   9  14  27  49  75 102 135 175 214 249
#     4   8  13  22  37  57  82 112 145 181 219 256
#     4   7   9  14  26  47  75 103 132 169 210 249
#     4   8  13  21  34  54  81 110 137 168 209 254
#     4   9  16  26  41  61  83 106 135 172 210 248
#
# _framework density 20.937061
#
# number of rings (size 3 to 8) (size 9 to 14) (size 15 to 20)
#    0.000    3.500    0.000    3.375    0.000    3.000 
#    0.000    0.625    0.000    2.625    0.000    1.750 
#    0.000    8.000    0.000    0.000    0.000    1.000 
#
# Total GULP energy -178254.251173 kJ/mol
# GULP energy per Si atom -5570.445349 kJ/mol
# Density = 2.088941 g / cm^3
# Si number density = 20.937061 Si / 1000 Ang^3
#
#
#
# Elastic Constant Matrix: (Units=GPa)
#
#
# Indices 1 2 3 4 5 6 
#
# 1 97.2405 4.9216 101.4501 0.0000 0.0000 0.0000
# 2 4.9216 63.3261 4.3998 0.0000 0.0000 0.0000
# 3 101.4501 4.3998 284.2533 0.0000 0.0000 0.0000
# 4 0.0000 0.0000 0.0000 21.3578 0.0000 0.0000
# 5 0.0000 0.0000 0.0000 0.0000 -26.7725 0.0000
# 6 0.0000 0.0000 0.0000 0.0000 0.0000 -6.3860
#
#
#
# Elastic Compliance Matrix: (Units=1/GPa)
#
#
# Indices 1 2 3 4 5 6 
#
# 1 0.016432 -0.000871 -0.005851 0.000000 0.000000 0.000000
# 2 -0.000871 0.015854 0.000065 0.000000 0.000000 0.000000
# 3 -0.005851 0.000065 0.005605 0.000000 0.000000 0.000000
# 4 0.000000 0.000000 0.000000 0.046821 0.000000 0.000000
# 5 0.000000 0.000000 0.000000 0.000000 -0.037352 0.000000
# 6 0.000000 0.000000 0.000000 0.000000 0.000000 -0.156593
#
#
# Mechanical properties :
#
#
# Convention : Reuss Voigt Hill
#
# Bulk Modulus (GPa) = 40.68501 74.04032 57.36267
# Shear Modulus (GPa) = -56.99634 19.90975 -18.54329
#
# Velocity S-wave (km/s) = -5.22320 3.08707 -2.97925
# Velocity P-wave (km/s) = 4.11114 6.93878 3.95254
#
# Compressibility (1/GPa) = 0.02457907
#
# Stress axis : x y z
#
# Youngs Moduli (GPa) = 60.85532 63.07395 178.40269
#
# Poissons Ratio (x) = 0.05491 1.04388
# Poissons Ratio (y) = 0.05298 -0.01165
# Poissons Ratio (z) = 0.35608 -0.00412
#
# Static dielectric constant tensor:
#      x y z
#    x 1.710280 0.000000 0.000000 
#    y 0.000000 1.828990 0.000000 
#    z 0.000000 0.000000 1.796110 
# 
# From -- ./inp_files/6566.got.cif
#   From: 2010.05.17/outbox.cif.g08.bks.cpg/sg25_4_cif.got.tgz:6566.got - 2010.06.04 01:04:00.
