data_PCOD9337351
_publ_section_title
;
Structure prediction by ZEFSAII (Michael W. Deem and Ramdas Pophale) SiO2 
 PCOD9337351
Probable space group: P M M 2
;
_chemical_formula_sum "Si O2"
_cell_formula_units_Z 16
_cell_length_a 12.088616
_cell_length_b 8.878138
_cell_length_c 7.890560
_cell_angle_alpha 90.000000
_cell_angle_beta 90.000000
_cell_angle_gamma 90.000000
_cell_volume 846.849626
_symmetry_space_group_name_H-M "P M M 2"
_symmetry_group_IT_number 25
_symmetry_cell_setting 'orthorhombic'
loop_
_space_group_symop_operation_xyz
x,y,z
-x,-y,z
-x,y,z
x,-y,z
loop_
_atom_site_type_symbol
_atom_site_label
_atom_site_fract_x
_atom_site_fract_y
_atom_site_fract_z
Si Si1 0.500000 0.179278 0.952641
Si Si2 0.500000 0.678782 0.582771
Si Si3 0.269584 0.680678 0.064423
Si Si4 0.742487 0.679713 0.446807
Si Si5 0.130241 0.179259 0.760479
O O1 0.500000 0.227281 0.755325
O O2 0.500000 0.000000 0.968538
O O3 0.609911 0.248902 0.033889
O O4 0.500000 0.500000 0.626498
O O5 0.612257 0.709202 0.480482
O O6 0.278400 0.500000 0.053821
O O7 0.229847 0.720460 0.253667
O O8 0.189805 0.740707 0.917992
O O9 0.759212 0.500000 0.467934
O O10 0.812752 0.764614 0.587993
O O11 0.000000 0.213267 0.758305
O O12 0.145162 0.000000 0.776591
#
# Coordination Sequence:
#
# PCOD9337351 Si02
#       5
#     2   2   4   4   4
#     4  12  23  36  60  95 129 163 199 243 307 372
#     4  10  19  36  62  91 123 159 195 245 307 364
#     4  11  23  41  65  93 124 161 206 253 302 362
#     4  10  22  40  65  93 122 159 204 252 305 363
#     4  11  25  43  62  88 124 164 206 255 310 364
#
# _framework density 18.893556
#
# number of rings (size 3 to 8) (size 9 to 14) (size 15 to 20)
#    0.000    1.250    2.500    3.375    0.000    7.000 
#    0.000    6.250    0.000    0.000    0.000    0.000 
#    0.000    0.000    0.000    0.000    0.000    0.000 
#
# Total GULP energy -89473.410206 kJ/mol
# GULP energy per Si atom -5592.088138 kJ/mol
# Density = 1.885055 g / cm^3
# Si number density = 18.893556 Si / 1000 Ang^3
#
#
#
# Elastic Constant Matrix: (Units=GPa)
#
#
# Indices 1 2 3 4 5 6 
#
# 1 120.9896 73.8502 79.6652 0.0000 0.0000 0.0000
# 2 73.8502 78.8381 80.4714 0.0000 0.0000 0.0000
# 3 79.6652 80.4714 180.3535 0.0000 0.0000 0.0000
# 4 0.0000 0.0000 0.0000 -47.5722 0.0000 0.0000
# 5 0.0000 0.0000 0.0000 0.0000 -8.1091 0.0000
# 6 0.0000 0.0000 0.0000 0.0000 0.0000 35.7636
#
#
#
# Elastic Compliance Matrix: (Units=1/GPa)
#
#
# Indices 1 2 3 4 5 6 
#
# 1 0.019371 -0.017282 -0.000845 0.000000 0.000000 0.000000
# 2 -0.017282 0.038712 -0.009639 0.000000 0.000000 0.000000
# 3 -0.000845 -0.009639 0.010219 0.000000 0.000000 0.000000
# 4 0.000000 0.000000 0.000000 -0.021021 0.000000 0.000000
# 5 0.000000 0.000000 0.000000 0.000000 -0.123318 0.000000
# 6 0.000000 0.000000 0.000000 0.000000 0.000000 0.027961
#
#
# Mechanical properties :
#
#
# Convention : Reuss Voigt Hill
#
# Bulk Modulus (GPa) = 78.31859 94.23944 86.27901
# Shear Modulus (GPa) = 426.91547 5.76274 216.33910
#
# Velocity S-wave (km/s) = 15.04822 1.74835 10.71227
# Velocity P-wave (km/s) = 18.53306 7.35276 14.09853
#
# Compressibility (1/GPa) = 0.01276836
#
# Stress axis : x y z
#
# Youngs Moduli (GPa) = 51.62472 25.83203 97.86047
#
# Poissons Ratio (x) = 0.44644 0.08270
# Poissons Ratio (y) = 0.89220 0.94325
# Poissons Ratio (z) = 0.04363 0.24899
#
# Static dielectric constant tensor:
#      x y z
#    x 1.632090 0.000000 0.000000 
#    y 0.000000 1.636480 0.000000 
#    z 0.000000 0.000000 1.639910 
# 
# From -- ./inp_files/2478.got.cif
#   From: 2010.05.17/outbox.cif.g08.bks.cpg/sg25_2_cif.got.tgz:2478.got - 2010.06.04 01:04:00.
