data_PCOD9337717
_publ_section_title
;
Structure prediction by ZEFSAII (Michael W. Deem and Ramdas Pophale) SiO2 
 PCOD9337717
Probable space group: P M M 2
;
_chemical_formula_sum "Si O2"
_cell_formula_units_Z 28
_cell_length_a 8.276549
_cell_length_b 9.768696
_cell_length_c 18.636806
_cell_angle_alpha 90.000000
_cell_angle_beta 90.000000
_cell_angle_gamma 90.000000
_cell_volume 1506.806100
_symmetry_space_group_name_H-M "P M M 2"
_symmetry_group_IT_number 25
_symmetry_cell_setting 'orthorhombic'
loop_
_space_group_symop_operation_xyz
x,y,z
-x,-y,z
-x,y,z
x,-y,z
loop_
_atom_site_type_symbol
_atom_site_label
_atom_site_fract_x
_atom_site_fract_y
_atom_site_fract_z
Si Si1 0.692989 0.342890 0.836720
Si Si2 0.195201 0.157348 0.549262
Si Si3 0.694873 0.842346 0.391353
Si Si4 0.193103 0.156778 0.967120
Si Si5 0.302147 0.657844 0.258005
Si Si6 0.694801 0.157397 0.124888
Si Si7 0.195011 0.342680 0.680889
O O1 0.500000 0.345149 0.836015
O O2 0.752506 0.500000 0.844513
O O3 0.749876 0.251568 0.902619
O O4 0.752355 0.291440 0.759164
O O5 0.251467 0.202545 0.470525
O O6 0.252779 0.251355 0.614571
O O7 0.000000 0.158579 0.549782
O O8 0.248966 0.000000 0.558919
O O9 0.500000 0.844570 0.389532
O O10 0.750249 0.741632 0.328460
O O11 0.750559 0.000000 0.380167
O O12 0.000000 0.155615 0.968180
O O13 0.251230 0.000000 0.956806
O O14 0.253635 0.202123 0.045451
O O15 0.500000 0.657503 0.257962
O O16 0.249762 0.500000 0.258082
O O17 0.249471 0.741392 0.187503
O O18 0.500000 0.154757 0.127335
O O19 0.751352 0.000000 0.136007
O O20 0.251430 0.500000 0.673818
O O21 0.000000 0.343249 0.679290
#
# Coordination Sequence:
#
# PCOD9337717 Si02
#       7
#     4   4   4   4   4   4   4
#     4  10  21  36  54  77 104 134 169 208 251 300
#     4   9  18  32  49  70  96 126 161 200 242 289
#     4   9  17  30  48  69  94 125 160 197 240 290
#     4  10  21  36  54  77 104 134 169 208 251 300
#     4   9  17  29  47  72  98 124 159 202 244 287
#     4   9  17  31  51  72  96 128 164 202 246 295
#     4   9  18  33  51  70  96 131 166 200 244 297
#
# _framework density 18.582350999999999
#
# number of rings (size 3 to 8) (size 9 to 14) (size 15 to 20)
#    0.000    2.714    0.000    1.286    0.000    5.714 
#    0.000    3.571    0.000    4.286    0.000    0.000 
#    0.000    0.000    0.000    0.000    0.000    0.000 
#
# Total GULP energy -156186.001735 kJ/mol
# GULP energy per Si atom -5578.071491 kJ/mol
# Density = 1.854006 g / cm^3
# Si number density = 18.582351 Si / 1000 Ang^3
#
#
#
# Elastic Constant Matrix: (Units=GPa)
#
#
# Indices 1 2 3 4 5 6 
#
# 1 5.7273 12.2849 15.6574 0.0000 0.0000 0.0000
# 2 12.2849 99.1131 122.0528 0.0000 0.0000 0.0000
# 3 15.6574 122.0528 222.5102 0.0000 0.0000 0.0000
# 4 0.0000 0.0000 0.0000 194.1717 0.0000 0.0000
# 5 0.0000 0.0000 0.0000 0.0000 39.4222 0.0000
# 6 0.0000 0.0000 0.0000 0.0000 0.0000 23.1310
#
#
#
# Elastic Compliance Matrix: (Units=1/GPa)
#
#
# Indices 1 2 3 4 5 6 
#
# 1 0.238051 -0.027358 -0.001745 0.000000 0.000000 0.000000
# 2 -0.027358 0.034235 -0.016854 0.000000 0.000000 0.000000
# 3 -0.001745 -0.016854 0.013862 0.000000 0.000000 0.000000
# 4 0.000000 0.000000 0.000000 0.005150 0.000000 0.000000
# 5 0.000000 0.000000 0.000000 0.000000 0.025366 0.000000
# 6 0.000000 0.000000 0.000000 0.000000 0.000000 0.043232
#
#
# Mechanical properties :
#
#
# Convention : Reuss Voigt Hill
#
# Bulk Modulus (GPa) = 5.14837 69.70453 37.42645
# Shear Modulus (GPa) = 9.67954 63.16870 36.42412
#
# Velocity S-wave (km/s) = 2.28480 5.83676 4.43216
# Velocity P-wave (km/s) = 3.12042 9.11132 6.81004
#
# Compressibility (1/GPa) = 0.19423608
#
# Stress axis : x y z
#
# Youngs Moduli (GPa) = 4.20077 29.21001 72.14173
#
# Poissons Ratio (x) = 0.79912 0.12586
# Poissons Ratio (y) = 0.11492 1.21585
# Poissons Ratio (z) = 0.00733 0.49229
#
# Static dielectric constant tensor:
#      x y z
#    x 1.644000 0.000000 0.000000 
#    y 0.000000 1.645010 0.000000 
#    z 0.000000 0.000000 1.613770 
# 
# From -- ./inp_files/6022.got.cif
#   From: 2010.05.17/outbox.cif.g08.bks.cpg/sg25_4_cif.got.tgz:6022.got - 2010.06.04 01:04:00.
