data_PCOD9337568
_publ_section_title
;
Structure prediction by ZEFSAII (Michael W. Deem and Ramdas Pophale) SiO2 
 PCOD9337568
Probable space group: P M M 2
;
_chemical_formula_sum "Si O2"
_cell_formula_units_Z 32
_cell_length_a 9.971371
_cell_length_b 14.391288
_cell_length_c 12.705980
_cell_angle_alpha 90.000000
_cell_angle_beta 90.000000
_cell_angle_gamma 90.000000
_cell_volume 1823.319207
_symmetry_space_group_name_H-M "P M M 2"
_symmetry_group_IT_number 25
_symmetry_cell_setting 'orthorhombic'
loop_
_space_group_symop_operation_xyz
x,y,z
-x,-y,z
-x,y,z
x,-y,z
loop_
_atom_site_type_symbol
_atom_site_label
_atom_site_fract_x
_atom_site_fract_y
_atom_site_fract_z
Si Si1 0.845543 0.110590 0.532130
Si Si2 0.739344 0.395137 0.651801
Si Si3 0.341521 0.225071 0.937148
Si Si4 0.152042 0.392174 0.882117
Si Si5 0.356013 0.197012 0.693111
Si Si6 0.837271 0.792402 0.318255
Si Si7 0.839682 0.111468 0.098322
Si Si8 0.839195 0.602505 0.413709
O O1 0.760221 0.151593 0.626294
O O2 0.795846 0.148149 0.419867
O O3 0.000000 0.141032 0.543806
O O4 0.841317 0.000000 0.532539
O O5 0.681127 0.500000 0.654400
O O6 0.835059 0.389010 0.754405
O O7 0.645043 0.307136 0.668421
O O8 0.806557 0.383404 0.537405
O O9 0.500000 0.233988 0.965141
O O10 0.262590 0.323603 0.930656
O O11 0.336803 0.187151 0.817570
O O12 0.255863 0.157635 0.011503
O O13 0.173242 0.500000 0.912100
O O14 0.000000 0.364881 0.911511
O O15 0.500000 0.156911 0.662785
O O16 0.800666 0.840300 0.209050
O O17 0.789703 0.687545 0.342275
O O18 0.000000 0.791242 0.317903
O O19 0.000000 0.128850 0.079113
O O20 0.823138 0.000000 0.103838
O O21 0.787999 0.500000 0.383802
O O22 0.000000 0.601327 0.404867
#
# Coordination Sequence:
#
# PCOD9337568 Si02
#       8
#     4   4   4   4   4   4   4   4
#     4  10  20  34  54  79 106 139 176 216 270 332
#     4   9  16  27  47  76 111 149 183 213 251 308
#     4  10  22  38  55  77 108 146 185 227 277 331
#     4   9  17  30  52  83 115 146 183 225 266 314
#     4  10  21  35  51  76 110 145 177 216 269 324
#     4   9  17  32  54  79 108 139 173 220 275 326
#     4  10  21  38  60  81 101 134 185 241 288 329
#     4   9  15  24  45  79 113 142 172 208 256 312
#
# _framework density 17.550411
#
# number of rings (size 3 to 8) (size 9 to 14) (size 15 to 20)
#    0.000    2.500    1.250    1.125    0.000    7.000 
#    0.000    6.250    0.000    3.750    0.000    0.000 
#    0.000    0.000    0.000    0.000    0.000    0.000 
#
# Total GULP energy -178229.204169 kJ/mol
# GULP energy per Si atom -5569.662630 kJ/mol
# Density = 1.751047 g / cm^3
# Si number density = 17.550411 Si / 1000 Ang^3
#
#
#
# Elastic Constant Matrix: (Units=GPa)
#
#
# Indices 1 2 3 4 5 6 
#
# 1 88.6021 56.7934 53.9951 0.0000 0.0000 0.0000
# 2 56.7934 103.4601 67.5369 0.0000 0.0000 0.0000
# 3 53.9951 67.5369 83.7096 0.0000 0.0000 0.0000
# 4 0.0000 0.0000 0.0000 25.8400 0.0000 0.0000
# 5 0.0000 0.0000 0.0000 0.0000 -0.5602 0.0000
# 6 0.0000 0.0000 0.0000 0.0000 0.0000 1.8043
#
#
#
# Elastic Compliance Matrix: (Units=1/GPa)
#
#
# Indices 1 2 3 4 5 6 
#
# 1 0.019921 -0.005382 -0.008507 0.000000 0.000000 0.000000
# 2 -0.005382 0.021874 -0.014177 0.000000 0.000000 0.000000
# 3 -0.008507 -0.014177 0.028871 0.000000 0.000000 0.000000
# 4 0.000000 0.000000 0.000000 0.038700 0.000000 0.000000
# 5 0.000000 0.000000 0.000000 0.000000 -1.785096 0.000000
# 6 0.000000 0.000000 0.000000 0.000000 0.000000 0.554218
#
#
# Mechanical properties :
#
#
# Convention : Reuss Voigt Hill
#
# Bulk Modulus (GPa) = 68.80204 70.26916 69.53560
# Shear Modulus (GPa) = -4.71459 11.91326 3.59933
#
# Velocity S-wave (km/s) = -1.64078 2.60821 1.43363
# Velocity P-wave (km/s) = 5.97479 7.01397 6.51513
#
# Compressibility (1/GPa) = 0.01453445
#
# Stress axis : x y z
#
# Youngs Moduli (GPa) = 50.19950 45.71623 34.63662
#
# Poissons Ratio (x) = 0.24603 0.29466
# Poissons Ratio (y) = 0.27016 0.49103
# Poissons Ratio (z) = 0.42706 0.64810
#
# Static dielectric constant tensor:
#      x y z
#    x 1.587820 0.000000 0.000000 
#    y 0.000000 1.621370 0.000000 
#    z 0.000000 0.000000 1.580570 
# 
# From -- ./inp_files/4190.got.cif
#   From: 2010.05.17/outbox.cif.g08.bks.cpg/sg25_3_cif.got.tgz:4190.got - 2010.06.04 01:04:00.
