data_PCOD9337947
_publ_section_title
;
Structure prediction by ZEFSAII (Michael W. Deem and Ramdas Pophale) SiO2 
 PCOD9337947
Probable space group: P M C 21
;
_chemical_formula_sum "Si O2"
_cell_formula_units_Z 26
_cell_length_a 19.617826
_cell_length_b 7.024202
_cell_length_c 7.690208
_cell_angle_alpha 90.000000
_cell_angle_beta 90.000000
_cell_angle_gamma 90.000000
_cell_volume 1059.707376
_symmetry_space_group_name_H-M "P M C 21"
_symmetry_group_IT_number 26
_symmetry_cell_setting 'orthorhombic'
loop_
_space_group_symop_operation_xyz
x,y,z
-x,-y,1/2+z
-x,y,z
x,-y,1/2+z
loop_
_atom_site_type_symbol
_atom_site_label
_atom_site_fract_x
_atom_site_fract_y
_atom_site_fract_z
Si Si1 0.610378 0.659870 0.700710
Si Si2 0.000000 0.392081 0.562895
Si Si3 0.138445 0.413363 0.764711
Si Si4 0.286102 0.308808 0.686403
Si Si5 0.500000 0.452900 0.459742
Si Si6 0.290836 0.056184 0.034887
Si Si7 0.855873 0.191926 0.128915
Si Si8 0.000000 0.808685 0.686918
O O1 0.666808 0.491439 0.712278
O O2 0.559133 0.587032 0.550222
O O3 0.560560 0.670707 0.864695
O O4 0.649699 0.848299 0.647014
O O5 0.930462 0.356508 0.667089
O O6 0.000000 0.625356 0.556119
O O7 0.000000 0.284374 0.379526
O O8 0.208184 0.368502 0.665916
O O9 0.141323 0.643334 0.774890
O O10 0.141635 0.305809 0.947015
O O11 0.303724 0.168837 0.527974
O O12 0.291116 0.176637 0.857946
O O13 0.215377 0.082221 0.121993
O O14 0.928319 0.086014 0.153523
#
# Coordination Sequence:
#
# PCOD9337947 Si02
#       8
#     4   2   4   4   2   4   4   2
#     4  11  22  48  68 101 130 168 208 259 318 378
#     4  10  18  30  51  84 121 165 213 263 314 368
#     4  10  19  34  57  88 122 166 212 264 316 369
#     4  11  25  41  66  98 131 171 216 261 317 378
#     4  10  24  42  78  94 130 168 208 254 318 392
#     4  11  25  41  66  98 131 171 216 261 317 378
#     4  10  19  34  57  88 122 166 212 264 316 369
#     4  10  18  30  51  84 121 165 213 263 314 368
#
# _framework density 24.535076
#
# number of rings (size 3 to 8) (size 9 to 14) (size 15 to 20)
#    0.000    1.538    3.077    4.154    2.154    2.462 
#    0.000    5.385    0.000    0.000    0.000    0.000 
#    0.000    0.000    0.000    0.000    0.000    0.000 
#
# Total GULP energy -144891.406367 kJ/mol
# GULP energy per Si atom -5572.746399 kJ/mol
# Density = 2.447923 g / cm^3
# Si number density = 24.535076 Si / 1000 Ang^3
#
#
#
# Elastic Constant Matrix: (Units=GPa)
#
#
# Indices 1 2 3 4 5 6 
#
# 1 214.7237 34.4614 28.7006 0.0000 0.0000 0.0000
# 2 34.4614 69.1474 -12.7889 0.0000 0.0000 0.0000
# 3 28.7006 -12.7889 46.5623 0.0000 0.0000 0.0000
# 4 0.0000 0.0000 0.0000 39.1447 0.0000 0.0000
# 5 0.0000 0.0000 0.0000 0.0000 -60.7035 0.0000
# 6 0.0000 0.0000 0.0000 0.0000 0.0000 -11.4828
#
#
#
# Elastic Compliance Matrix: (Units=1/GPa)
#
#
# Indices 1 2 3 4 5 6 
#
# 1 0.005892 -0.003801 -0.004676 0.000000 0.000000 0.000000
# 2 -0.003801 0.017688 0.007201 0.000000 0.000000 0.000000
# 3 -0.004676 0.007201 0.026337 0.000000 0.000000 0.000000
# 4 0.000000 0.000000 0.000000 0.025546 0.000000 0.000000
# 5 0.000000 0.000000 0.000000 0.000000 -0.016474 0.000000
# 6 0.000000 0.000000 0.000000 0.000000 0.000000 -0.087087
#
#
# Mechanical properties :
#
#
# Convention : Reuss Voigt Hill
#
# Bulk Modulus (GPa) = 21.11242 47.90884 34.51063
# Shear Modulus (GPa) = -512.48081 12.06237 -250.20922
#
# Velocity S-wave (km/s) = -14.46825 2.21970 -10.10948
# Velocity P-wave (km/s) = 16.44638 5.11258 11.05316
#
# Compressibility (1/GPa) = 0.04736549
#
# Stress axis : x y z
#
# Youngs Moduli (GPa) = 169.71435 56.53450 37.96962
#
# Poissons Ratio (x) = 0.21491 0.17755
# Poissons Ratio (y) = 0.64515 -0.27344
# Poissons Ratio (z) = 0.79359 -0.40713
#
# Static dielectric constant tensor:
#      x y z
#    x 2.211510 0.000000 0.000000 
#    y 0.000000 1.915700 0.000000 
#    z 0.000000 0.000000 2.059250 
# 
# From -- ./inp_files/2408.got.cif
#   From: 2010.05.17/outbox.cif.g08.bks.cpg/sg26_2_cif.got.tgz:2408.got - 2010.06.04 01:07:29.
