data_PCOD9337002
_publ_section_title
;
Structure prediction by ZEFSAII (Michael W. Deem and Ramdas Pophale) SiO2 
 PCOD9337002
Probable space group: I 21 21 21
;
_chemical_formula_sum "Si O2"
_cell_formula_units_Z 20
_cell_length_a 5.019753
_cell_length_b 30.578072
_cell_length_c 5.292195
_cell_angle_alpha 90.000000
_cell_angle_beta 90.000000
_cell_angle_gamma 90.000000
_cell_volume 812.322130
_symmetry_space_group_name_H-M "I 21 21 21"
_symmetry_group_IT_number 24
_symmetry_cell_setting 'orthorhombic'
loop_
_space_group_symop_operation_xyz
x,y,z
-x,1/2-y,z
x,-y,1/2-z
1/2-x,y,-z
1/2+x,1/2+y,1/2+z
1/2-x,-y,1/2+z
1/2+x,1/2-y,-z
-x,1/2+y,1/2-z
loop_
_atom_site_type_symbol
_atom_site_label
_atom_site_fract_x
_atom_site_fract_y
_atom_site_fract_z
Si Si1 0.250000 0.426352 0.500000
Si Si2 0.250000 0.866793 0.000000
Si Si3 0.417066 0.699770 0.740092
Si Si4 0.066344 0.000000 0.250000
O O1 0.499499 0.396485 0.421140
O O2 0.376040 0.458285 0.709699
O O3 0.345151 0.833835 0.783182
O O4 0.500000 0.750000 0.702635
O O5 0.250000 0.685958 0.500000
O O6 0.250000 0.698696 0.000000
O O7 0.250000 0.996421 0.500000
#
# Coordination Sequence:
#
# PCOD9337002 Si02
#       4
#     4   4   8   4
#     4  12  28  57  86 126 172 220 280 355 420 502
#     4  12  28  55  82 134 166 220 284 355 404 504
#     4  12  27  52  83 121 171 227 281 342 417 496
#     4  12  28  60  88 122 164 228 278 344 430 510
#
# _framework density 24.620774999999998
#
# number of rings (size 3 to 8) (size 9 to 14) (size 15 to 20)
#    0.000    0.000    6.000    2.400    0.000    0.000 
#   18.000    0.000    0.000    0.000    0.000    0.000 
#    0.000    0.000    0.000    0.000    0.000    0.000 
#
# Total GULP energy -56105.117114 kJ/mol
# GULP energy per Si atom -5610.511711 kJ/mol
# Density = 2.456474 g / cm^3
# Si number density = 24.620775 Si / 1000 Ang^3
#
#
#
# Elastic Constant Matrix: (Units=GPa)
#
#
# Indices 1 2 3 4 5 6 
#
# 1 216.4293 117.3210 96.0945 -0.0004 0.0000 0.0008
# 2 117.3210 204.3261 51.0718 0.0009 -0.0003 0.0047
# 3 96.0945 51.0718 182.4766 -0.0013 0.0002 0.0062
# 4 -0.0004 0.0009 -0.0013 107.2919 -0.0006 -0.0020
# 5 0.0000 -0.0003 0.0002 -0.0006 61.8885 0.0007
# 6 0.0008 0.0047 0.0062 -0.0020 0.0007 77.6160
#
#
#
# Elastic Compliance Matrix: (Units=1/GPa)
#
#
# Indices 1 2 3 4 5 6 
#
# 1 0.008144 -0.003875 -0.003204 0.000000 0.000000 0.000000
# 2 -0.003875 0.007106 0.000052 0.000000 0.000000 0.000000
# 3 -0.003204 0.000052 0.007153 0.000000 0.000000 -0.000001
# 4 0.000000 0.000000 0.000000 0.009320 0.000000 0.000000
# 5 0.000000 0.000000 0.000000 0.000000 0.016158 0.000000
# 6 0.000000 0.000000 -0.000001 0.000000 0.000000 0.012884
#
#
# Mechanical properties :
#
#
# Convention : Reuss Voigt Hill
#
# Bulk Modulus (GPa) = 119.78669 125.80075 122.79372
# Shear Modulus (GPa) = 64.43100 71.94225 68.18663
#
# Velocity S-wave (km/s) = 5.12115 5.41143 5.26829
# Velocity P-wave (km/s) = 9.15022 9.50006 9.32678
#
# Compressibility (1/GPa) = 0.00834817
#
# Stress axis : x y z
#
# Youngs Moduli (GPa) = 122.79587 140.72182 139.80334
#
# Poissons Ratio (x) = 0.54531 0.44792
# Poissons Ratio (y) = 0.47585 -0.00724
# Poissons Ratio (z) = 0.39343 -0.00729
#
# Static dielectric constant tensor:
#      x y z
#    x 1.945650 0.000000 0.000000 
#    y 0.000000 1.957480 0.000000 
#    z 0.000000 0.000000 1.921240 
# 
# From -- ./inp_files/369.got.cif
#   From: 2010.05.17/outbox.cif.g08.bks.cpg/sg24_1_cif.got.tgz:369.got - 2010.06.04 00:33:39.
