data_PCOD9337427
_publ_section_title
;
Structure prediction by ZEFSAII (Michael W. Deem and Ramdas Pophale) SiO2 
 PCOD9337427
Probable space group: P M M 2
;
_chemical_formula_sum "Si O2"
_cell_formula_units_Z 24
_cell_length_a 9.400574
_cell_length_b 7.545829
_cell_length_c 16.224768
_cell_angle_alpha 90.000000
_cell_angle_beta 90.000000
_cell_angle_gamma 90.000000
_cell_volume 1150.905928
_symmetry_space_group_name_H-M "P M M 2"
_symmetry_group_IT_number 25
_symmetry_cell_setting 'orthorhombic'
loop_
_space_group_symop_operation_xyz
x,y,z
-x,-y,z
-x,y,z
x,-y,z
loop_
_atom_site_type_symbol
_atom_site_label
_atom_site_fract_x
_atom_site_fract_y
_atom_site_fract_z
Si Si1 0.335689 0.213656 0.051790
Si Si2 0.160390 0.710663 0.214894
Si Si3 0.163424 0.283052 0.534730
Si Si4 0.336418 0.283121 0.372520
Si Si5 0.665354 0.787206 0.872126
Si Si6 0.662302 0.710206 0.692225
O O1 0.500000 0.274283 0.062307
O O2 0.239065 0.264236 0.128268
O O3 0.340259 0.000000 0.049775
O O4 0.280017 0.273575 0.961520
O O5 0.149669 0.500000 0.228115
O O6 0.255221 0.778990 0.290536
O O7 0.000000 0.782962 0.214201
O O8 0.162382 0.500000 0.535335
O O9 0.251757 0.229092 0.454255
O O10 0.241677 0.221474 0.617877
O O11 0.000000 0.225733 0.530748
O O12 0.500000 0.225452 0.373804
O O13 0.337900 0.500000 0.371825
O O14 0.500000 0.728394 0.870258
O O15 0.726317 0.734510 0.783729
O O16 0.666975 0.000000 0.873141
O O17 0.500000 0.782913 0.690457
O O18 0.650491 0.500000 0.679574
#
# Coordination Sequence:
#
# PCOD9337427 Si02
#       6
#     4   4   4   4   4   4
#     4   9  18  33  52  72  94 124 163 202 240 286
#     4  10  20  32  47  71 101 129 158 195 240 287
#     4   9  16  26  41  63  93 125 152 183 228 278
#     4   9  16  27  45  68  93 122 156 193 232 276
#     4   8  15  29  48  68  90 118 153 192 232 274
#     4   9  16  26  43  68  93 117 150 190 228 268
#
# _framework density 20.853138000000001
#
# number of rings (size 3 to 8) (size 9 to 14) (size 15 to 20)
#    0.000    3.000    0.000    2.500    0.000    6.000 
#    0.000    2.500    0.000    4.500    0.000    2.333 
#    0.000    0.000    0.000    0.000    0.000    0.000 
#
# Total GULP energy -133853.680115 kJ/mol
# GULP energy per Si atom -5577.236671 kJ/mol
# Density = 2.080567 g / cm^3
# Si number density = 20.853138 Si / 1000 Ang^3
#
#
#
# Elastic Constant Matrix: (Units=GPa)
#
#
# Indices 1 2 3 4 5 6 
#
# 1 154.5301 6.3207 126.9955 0.0000 0.0000 0.0000
# 2 6.3207 46.8048 0.4421 0.0000 0.0000 0.0000
# 3 126.9955 0.4421 248.8087 0.0000 0.0000 0.0000
# 4 0.0000 0.0000 0.0000 42.5595 0.0000 0.0000
# 5 0.0000 0.0000 0.0000 0.0000 -15.3373 0.0000
# 6 0.0000 0.0000 0.0000 0.0000 0.0000 2.2690
#
#
#
# Elastic Compliance Matrix: (Units=1/GPa)
#
#
# Indices 1 2 3 4 5 6 
#
# 1 0.011247 -0.001465 -0.005738 0.000000 0.000000 0.000000
# 2 -0.001465 0.021556 0.000709 0.000000 0.000000 0.000000
# 3 -0.005738 0.000709 0.006947 0.000000 0.000000 0.000000
# 4 0.000000 0.000000 0.000000 0.023497 0.000000 0.000000
# 5 0.000000 0.000000 0.000000 0.000000 -0.065201 0.000000
# 6 0.000000 0.000000 0.000000 0.000000 0.000000 0.440720
#
#
# Mechanical properties :
#
#
# Convention : Reuss Voigt Hill
#
# Bulk Modulus (GPa) = 37.36468 79.74003 58.55236
# Shear Modulus (GPa) = 10.85369 26.99059 18.92214
#
# Velocity S-wave (km/s) = 2.28388 3.60157 3.01558
# Velocity P-wave (km/s) = 4.99117 7.45768 6.34542
#
# Compressibility (1/GPa) = 0.02676324
#
# Stress axis : x y z
#
# Youngs Moduli (GPa) = 88.91602 46.38988 143.95632
#
# Poissons Ratio (x) = 0.06794 0.82599
# Poissons Ratio (y) = 0.13023 -0.10210
# Poissons Ratio (z) = 0.51018 -0.03290
#
# Static dielectric constant tensor:
#      x y z
#    x 1.711090 0.000000 0.000000 
#    y 0.000000 1.790920 0.000000 
#    z 0.000000 0.000000 1.749550 
# 
# From -- ./inp_files/3911.got.cif
#   From: 2010.05.17/outbox.cif.g08.bks.cpg/sg25_2_cif.got.tgz:3911.got - 2010.06.04 01:04:00.
