data_PCOD9337546
_publ_section_title
;
Structure prediction by ZEFSAII (Michael W. Deem and Ramdas Pophale) SiO2 
 PCOD9337546
Probable space group: P M M 2
;
_chemical_formula_sum "Si O2"
_cell_formula_units_Z 32
_cell_length_a 13.147401
_cell_length_b 7.528358
_cell_length_c 12.858638
_cell_angle_alpha 90.000000
_cell_angle_beta 90.000000
_cell_angle_gamma 90.000000
_cell_volume 1272.726663
_symmetry_space_group_name_H-M "P M M 2"
_symmetry_group_IT_number 25
_symmetry_cell_setting 'orthorhombic'
loop_
_space_group_symop_operation_xyz
x,y,z
-x,-y,z
-x,y,z
x,-y,z
loop_
_atom_site_type_symbol
_atom_site_label
_atom_site_fract_x
_atom_site_fract_y
_atom_site_fract_z
Si Si1 0.608077 0.707473 0.677390
Si Si2 0.831846 0.788279 0.410255
Si Si3 0.331451 0.217375 0.907055
Si Si4 0.609493 0.782693 0.358024
Si Si5 0.110797 0.705345 0.180081
Si Si6 0.892783 0.794717 0.861608
Si Si7 0.831535 0.288908 0.636071
Si Si8 0.338195 0.795353 0.130279
O O1 0.500000 0.787490 0.643894
O O2 0.607662 0.500000 0.648536
O O3 0.614622 0.720525 0.802741
O O4 0.715189 0.784180 0.638842
O O5 0.713887 0.724609 0.411237
O O6 0.881458 0.713367 0.306002
O O7 0.876324 0.744952 0.522605
O O8 0.833326 0.000000 0.396872
O O9 0.214178 0.280617 0.898774
O O10 0.333176 0.000000 0.904913
O O11 0.370391 0.278784 0.019049
O O12 0.500000 0.724804 0.399628
O O13 0.620469 0.720747 0.238142
O O14 0.610807 0.000000 0.359258
O O15 0.114437 0.500000 0.148455
O O16 0.214712 0.791582 0.138951
O O17 0.000000 0.780264 0.149924
O O18 0.886381 0.789658 0.736139
O O19 0.000000 0.712316 0.894413
O O20 0.893122 0.000000 0.894789
O O21 0.828647 0.500000 0.653490
O O22 0.370711 0.000000 0.130192
#
# Coordination Sequence:
#
# PCOD9337546 Si02
#       8
#     4   4   4   4   4   4   4   4
#     4   9  19  35  52  72 102 139 174 207 248 298
#     4  10  20  34  53  75  99 130 166 205 251 300
#     4   9  18  32  51  77 104 131 168 210 251 294
#     4   8  15  29  48  71  99 128 159 196 238 286
#     4  10  21  36  53  74 101 133 169 208 248 294
#     4   9  18  33  51  71  98 131 166 205 247 294
#     4  10  20  34  52  73  99 130 164 207 253 298
#     4   9  18  32  52  77 104 134 166 204 250 296
#
# _framework density 25.142866999999999
#
# number of rings (size 3 to 8) (size 9 to 14) (size 15 to 20)
#    0.000    2.750    0.000    1.875    0.000    4.500 
#    0.000    2.500    0.000    9.000    0.000    0.000 
#    0.000    0.000    0.000    0.000    0.000    0.000 
#
# Total GULP energy -178787.665513 kJ/mol
# GULP energy per Si atom -5587.114547 kJ/mol
# Density = 2.508564 g / cm^3
# Si number density = 25.142867 Si / 1000 Ang^3
#
#
#
# Elastic Constant Matrix: (Units=GPa)
#
#
# Indices 1 2 3 4 5 6 
#
# 1 137.5222 0.3887 -5.9312 0.0000 0.0000 0.0000
# 2 0.3887 80.8751 -17.9615 0.0000 0.0000 0.0000
# 3 -5.9312 -17.9615 126.6242 0.0000 0.0000 0.0000
# 4 0.0000 0.0000 0.0000 20.5768 0.0000 0.0000
# 5 0.0000 0.0000 0.0000 0.0000 -22.0599 0.0000
# 6 0.0000 0.0000 0.0000 0.0000 0.0000 9.9650
#
#
#
# Elastic Compliance Matrix: (Units=1/GPa)
#
#
# Indices 1 2 3 4 5 6 
#
# 1 0.007286 0.000042 0.000347 0.000000 0.000000 0.000000
# 2 0.000042 0.012767 0.001813 0.000000 0.000000 0.000000
# 3 0.000347 0.001813 0.008171 0.000000 0.000000 0.000000
# 4 0.000000 0.000000 0.000000 0.048598 0.000000 0.000000
# 5 0.000000 0.000000 0.000000 0.000000 -0.045331 0.000000
# 6 0.000000 0.000000 0.000000 0.000000 0.000000 0.100351
#
#
# Mechanical properties :
#
#
# Convention : Reuss Voigt Hill
#
# Bulk Modulus (GPa) = 30.64746 33.11263 31.88004
# Shear Modulus (GPa) = 36.14954 26.26475 31.20715
#
# Velocity S-wave (km/s) = 3.79590 3.23557 3.52688
# Velocity P-wave (km/s) = 5.60603 5.21123 5.41223
#
# Compressibility (1/GPa) = 0.03262913
#
# Stress axis : x y z
#
# Youngs Moduli (GPa) = 137.24175 78.32579 122.38675
#
# Poissons Ratio (x) = -0.00330 -0.04250
# Poissons Ratio (y) = -0.00578 -0.22188
# Poissons Ratio (z) = -0.04766 -0.14200
#
# Static dielectric constant tensor:
#      x y z
#    x 2.012930 0.000000 0.000000 
#    y 0.000000 1.931150 0.000000 
#    z 0.000000 0.000000 1.962230 
# 
# From -- ./inp_files/5938.got.cif
#   From: 2010.05.17/outbox.cif.g08.bks.cpg/sg25_3_cif.got.tgz:5938.got - 2010.06.04 01:04:00.
