data_PCOD9337949
_publ_section_title
;
Structure prediction by ZEFSAII (Michael W. Deem and Ramdas Pophale) SiO2 
 PCOD9337949
Probable space group: P M C 21
;
_chemical_formula_sum "Si O2"
_cell_formula_units_Z 32
_cell_length_a 7.605299
_cell_length_b 10.907651
_cell_length_c 14.592402
_cell_angle_alpha 90.000000
_cell_angle_beta 90.000000
_cell_angle_gamma 90.000000
_cell_volume 1210.526530
_symmetry_space_group_name_H-M "P M C 21"
_symmetry_group_IT_number 26
_symmetry_cell_setting 'orthorhombic'
loop_
_space_group_symop_operation_xyz
x,y,z
-x,-y,1/2+z
-x,y,z
x,-y,1/2+z
loop_
_atom_site_type_symbol
_atom_site_label
_atom_site_fract_x
_atom_site_fract_y
_atom_site_fract_z
Si Si1 0.716067 0.303653 0.654290
Si Si2 0.791757 0.312508 0.996017
Si Si3 0.789468 0.935219 0.603151
Si Si4 0.297996 0.527169 0.778408
Si Si5 0.293833 0.072347 0.431731
Si Si6 0.296859 0.577728 0.976374
Si Si7 0.204001 0.210865 0.265602
Si Si8 0.711153 0.163258 0.823245
O O1 0.500000 0.300785 0.649935
O O2 0.773755 0.424389 0.711487
O O3 0.777701 0.327960 0.550961
O O4 0.773728 0.192516 0.720376
O O5 0.704123 0.441218 0.020441
O O6 0.753407 0.277095 0.890230
O O7 0.000000 0.325789 0.009571
O O8 0.734745 0.191254 0.051395
O O9 0.726291 0.046090 0.539320
O O10 0.729326 0.905814 0.706466
O O11 0.000000 0.945238 0.601343
O O12 0.500000 0.489328 0.794960
O O13 0.211756 0.550354 0.877824
O O14 0.294967 0.663618 0.737576
O O15 0.500000 0.078123 0.415377
O O16 0.216389 0.953624 0.378114
O O17 0.220562 0.184318 0.373386
O O18 0.500000 0.615790 0.959953
O O19 0.000000 0.226107 0.242988
O O20 0.500000 0.152831 0.820014
#
# Coordination Sequence:
#
# PCOD9337949 Si02
#       8
#     4   4   4   4   4   4   4   4
#     4   9  17  32  55  81 109 143 180 225 280 337
#     4  10  18  30  52  80 110 142 184 231 271 325
#     4   9  20  38  59  84 112 151 194 235 289 342
#     4  10  20  35  55  82 115 147 189 234 278 339
#     4  10  21  37  61  88 112 143 191 246 288 337
#     4  10  19  32  52  78 111 149 183 224 281 337
#     4  11  23  40  60  81 117 157 191 234 287 349
#     4   9  17  34  56  78 106 138 178 225 278 330
#
# _framework density 26.434778000000001
#
# number of rings (size 3 to 8) (size 9 to 14) (size 15 to 20)
#    0.000    2.250    1.250    1.875    0.000    2.500 
#    2.250    0.625    0.000    0.000    0.000    0.000 
#    0.000    0.000    0.000    0.000    0.000    0.000 
#
# Total GULP energy -178898.940720 kJ/mol
# GULP energy per Si atom -5590.591897 kJ/mol
# Density = 2.637461 g / cm^3
# Si number density = 26.434778 Si / 1000 Ang^3
#
#
#
# Elastic Constant Matrix: (Units=GPa)
#
#
# Indices 1 2 3 4 5 6 
#
# 1 73.7758 -7.3994 -3.7378 0.0000 0.0000 0.0000
# 2 -7.3994 89.9828 6.2234 0.0000 0.0000 0.0000
# 3 -3.7378 6.2234 150.8489 0.0000 0.0000 0.0000
# 4 0.0000 0.0000 0.0000 47.0910 0.0000 0.0000
# 5 0.0000 0.0000 0.0000 0.0000 10.0020 0.0000
# 6 0.0000 0.0000 0.0000 0.0000 0.0000 -24.5751
#
#
#
# Elastic Compliance Matrix: (Units=1/GPa)
#
#
# Indices 1 2 3 4 5 6 
#
# 1 0.013680 0.001105 0.000293 0.000000 0.000000 0.000000
# 2 0.001105 0.011234 -0.000436 0.000000 0.000000 0.000000
# 3 0.000293 -0.000436 0.006654 0.000000 0.000000 0.000000
# 4 0.000000 0.000000 0.000000 0.021235 0.000000 0.000000
# 5 0.000000 0.000000 0.000000 0.000000 0.099980 0.000000
# 6 0.000000 0.000000 0.000000 0.000000 0.000000 -0.040692
#
#
# Mechanical properties :
#
#
# Convention : Reuss Voigt Hill
#
# Bulk Modulus (GPa) = 29.85717 33.86443 31.86080
# Shear Modulus (GPa) = 41.20872 27.80500 34.50686
#
# Velocity S-wave (km/s) = 3.95255 3.24672 3.61689
# Velocity P-wave (km/s) = 5.67004 5.18587 5.43335
#
# Compressibility (1/GPa) = 0.03349279
#
# Stress axis : x y z
#
# Youngs Moduli (GPa) = 73.09812 89.01363 150.27625
#
# Poissons Ratio (x) = -0.09833 -0.04409
# Poissons Ratio (y) = -0.08075 0.06554
# Poissons Ratio (z) = -0.02145 0.03882
#
# Static dielectric constant tensor:
#      x y z
#    x 1.961380 0.000000 0.000000 
#    y 0.000000 2.106210 0.000000 
#    z 0.000000 0.000000 2.137950 
# 
# From -- ./inp_files/4285.got.cif
#   From: 2010.05.17/outbox.cif.g08.bks.cpg/sg26_3_cif.got.tgz:4285.got - 2010.06.04 01:07:29.
