data_PCOD9337414
_publ_section_title
;
Structure prediction by ZEFSAII (Michael W. Deem and Ramdas Pophale) SiO2 
 PCOD9337414
Probable space group: P M M 2
;
_chemical_formula_sum "Si O2"
_cell_formula_units_Z 32
_cell_length_a 16.133798
_cell_length_b 9.745819
_cell_length_c 11.983247
_cell_angle_alpha 90.000000
_cell_angle_beta 90.000000
_cell_angle_gamma 90.000000
_cell_volume 1884.210708
_symmetry_space_group_name_H-M "P M M 2"
_symmetry_group_IT_number 25
_symmetry_cell_setting 'orthorhombic'
loop_
_space_group_symop_operation_xyz
x,y,z
-x,-y,z
-x,y,z
x,-y,z
loop_
_atom_site_type_symbol
_atom_site_label
_atom_site_fract_x
_atom_site_fract_y
_atom_site_fract_z
Si Si1 0.598767 0.653361 0.678710
Si Si2 0.095286 0.833692 0.887793
Si Si3 0.248047 0.166194 0.042300
Si Si4 0.221170 0.838877 0.296953
Si Si5 0.319337 0.152382 0.518979
Si Si6 0.094349 0.656796 0.429630
Si Si7 0.860848 0.157833 0.632129
Si Si8 0.597347 0.164155 0.891953
O O1 0.500000 0.644157 0.681435
O O2 0.633830 0.500000 0.689875
O O3 0.625427 0.726726 0.565502
O O4 0.621159 0.752831 0.781027
O O5 0.166889 0.785112 0.973221
O O6 0.123428 0.804370 0.760524
O O7 0.000000 0.786258 0.906900
O O8 0.093419 0.000000 0.896429
O O9 0.335032 0.204474 0.984621
O O10 0.245515 0.000000 0.038079
O O11 0.244913 0.203332 0.172323
O O12 0.292928 0.830556 0.390466
O O13 0.149306 0.743544 0.344743
O O14 0.195426 0.000000 0.295712
O O15 0.235058 0.156933 0.593188
O O16 0.356184 0.000000 0.534007
O O17 0.124134 0.500000 0.441558
O O18 0.098035 0.735889 0.547550
O O19 0.000000 0.654404 0.390974
O O20 0.890802 0.000000 0.616262
O O21 0.500000 0.191764 0.919267
O O22 0.604068 0.000000 0.872318
#
# Coordination Sequence:
#
# PCOD9337414 Si02
#       8
#     4   4   4   4   4   4   4   4
#     4  10  20  32  48  73 102 128 156 192 236 293
#     4   9  16  25  42  71 102 128 154 191 240 286
#     4   9  17  31  49  71  99 126 160 204 240 282
#     4   9  19  34  51  70  93 125 165 205 242 286
#     4   9  17  30  48  70  94 123 160 201 246 289
#     4  10  20  32  47  69  97 128 163 204 246 288
#     4   9  17  30  49  72  97 124 158 200 244 295
#     4   9  17  31  53  77 100 128 159 196 246 294
#
# _framework density 16.983238
#
# number of rings (size 3 to 8) (size 9 to 14) (size 15 to 20)
#    0.000    2.750    0.000    2.625    0.000    6.750 
#    0.000    2.500    0.000    3.000    0.000    3.500 
#    0.000    0.000    0.000    0.000    0.000    0.000 
#
# Total GULP energy -178203.894491 kJ/mol
# GULP energy per Si atom -5568.871703 kJ/mol
# Density = 1.694458 g / cm^3
# Si number density = 16.983238 Si / 1000 Ang^3
#
#
#
# Elastic Constant Matrix: (Units=GPa)
#
#
# Indices 1 2 3 4 5 6 
#
# 1 45.4271 27.1250 57.6781 0.0000 0.0000 0.0000
# 2 27.1250 70.4033 50.2434 0.0000 0.0000 0.0000
# 3 57.6781 50.2434 133.5027 0.0000 0.0000 0.0000
# 4 0.0000 0.0000 0.0000 -0.3496 0.0000 0.0000
# 5 0.0000 0.0000 0.0000 0.0000 8.7228 0.0000
# 6 0.0000 0.0000 0.0000 0.0000 0.0000 17.5879
#
#
#
# Elastic Compliance Matrix: (Units=1/GPa)
#
#
# Indices 1 2 3 4 5 6 
#
# 1 0.050156 -0.005277 -0.019683 0.000000 0.000000 0.000000
# 2 -0.005277 0.019975 -0.005238 0.000000 0.000000 0.000000
# 3 -0.019683 -0.005238 0.017965 0.000000 0.000000 0.000000
# 4 0.000000 0.000000 0.000000 -2.860208 0.000000 0.000000
# 5 0.000000 0.000000 0.000000 0.000000 0.114642 0.000000
# 6 0.000000 0.000000 0.000000 0.000000 0.000000 0.056857
#
#
# Mechanical properties :
#
#
# Convention : Reuss Voigt Hill
#
# Bulk Modulus (GPa) = 36.10058 57.71403 46.90730
# Shear Modulus (GPa) = -1.97552 12.81132 5.41790
#
# Velocity S-wave (km/s) = -1.07969 2.74952 1.78804
# Velocity P-wave (km/s) = 4.44392 6.64353 5.65177
#
# Compressibility (1/GPa) = 0.02770039
#
# Stress axis : x y z
#
# Youngs Moduli (GPa) = 19.93798 50.06300 55.66250
#
# Poissons Ratio (x) = 0.26419 1.09561
# Poissons Ratio (y) = 0.10521 0.29154
# Poissons Ratio (z) = 0.39244 0.26221
#
# Static dielectric constant tensor:
#      x y z
#    x 1.597830 0.000000 0.000000 
#    y 0.000000 1.578920 0.000000 
#    z 0.000000 0.000000 1.564810 
# 
# From -- ./inp_files/4283.got.cif
#   From: 2010.05.17/outbox.cif.g08.bks.cpg/sg25_3_cif.got.tgz:4283.got - 2010.06.04 01:04:00.
