data_PCOD9337517
_publ_section_title
;
Structure prediction by ZEFSAII (Michael W. Deem and Ramdas Pophale) SiO2 
 PCOD9337517
Probable space group: P M M 2
;
_chemical_formula_sum "Si O2"
_cell_formula_units_Z 24
_cell_length_a 7.525071
_cell_length_b 14.732827
_cell_length_c 10.460502
_cell_angle_alpha 90.000000
_cell_angle_beta 90.000000
_cell_angle_gamma 90.000000
_cell_volume 1159.709508
_symmetry_space_group_name_H-M "P M M 2"
_symmetry_group_IT_number 25
_symmetry_cell_setting 'orthorhombic'
loop_
_space_group_symop_operation_xyz
x,y,z
-x,-y,z
-x,y,z
x,-y,z
loop_
_atom_site_type_symbol
_atom_site_label
_atom_site_fract_x
_atom_site_fract_y
_atom_site_fract_z
Si Si1 0.215304 0.101668 0.711490
Si Si2 0.284521 0.604726 0.596837
Si Si3 0.211753 0.602966 0.078280
Si Si4 0.207510 0.720913 0.845738
Si Si5 0.289890 0.899418 0.411959
Si Si6 0.714557 0.706241 0.339745
O O1 0.283014 0.182030 0.801770
O O2 0.269884 0.117074 0.564216
O O3 0.000000 0.103591 0.712342
O O4 0.272553 0.000000 0.747731
O O5 0.500000 0.606797 0.598857
O O6 0.228534 0.500000 0.596399
O O7 0.220045 0.656484 0.722218
O O8 0.224447 0.655603 0.468413
O O9 0.282853 0.500000 0.075153
O O10 0.238323 0.649640 0.214845
O O11 0.000000 0.596090 0.056670
O O12 0.285529 0.667561 0.966420
O O13 0.000000 0.737487 0.874903
O O14 0.500000 0.903861 0.384886
O O15 0.218660 0.810225 0.341355
O O16 0.214565 0.000000 0.384515
O O17 0.500000 0.709663 0.346284
#
# Coordination Sequence:
#
# PCOD9337517 Si02
#       6
#     4   4   4   4   4   4
#     4   9  17  30  51  79 107 134 166 207 256 308
#     4  10  20  33  51  77 105 130 167 219 265 308
#     4  10  22  38  53  72 103 142 180 216 257 307
#     4  10  20  35  54  76 104 137 173 214 258 307
#     4   9  17  31  53  79 106 135 166 206 257 308
#     4  10  20  35  54  77 105 136 172 214 259 308
#
# _framework density 20.694839000000002
#
# number of rings (size 3 to 8) (size 9 to 14) (size 15 to 20)
#    0.000    2.333    1.667    1.000    0.000    4.000 
#    0.000    0.833    0.000    1.000    0.000    0.000 
#    0.000    0.000    0.000    0.000    0.000    0.000 
#
# Total GULP energy -133982.175928 kJ/mol
# GULP energy per Si atom -5582.590664 kJ/mol
# Density = 2.064774 g / cm^3
# Si number density = 20.694839 Si / 1000 Ang^3
#
#
#
# Elastic Constant Matrix: (Units=GPa)
#
#
# Indices 1 2 3 4 5 6 
#
# 1 51.4275 -4.2393 -16.7637 0.0000 0.0000 0.0000
# 2 -4.2393 164.3369 37.3175 0.0000 0.0000 0.0000
# 3 -16.7637 37.3175 82.1386 0.0000 0.0000 0.0000
# 4 0.0000 0.0000 0.0000 15.9590 0.0000 0.0000
# 5 0.0000 0.0000 0.0000 0.0000 23.5368 0.0000
# 6 0.0000 0.0000 0.0000 0.0000 0.0000 15.3500
#
#
#
# Elastic Compliance Matrix: (Units=1/GPa)
#
#
# Indices 1 2 3 4 5 6 
#
# 1 0.020864 -0.000478 0.004475 0.000000 0.000000 0.000000
# 2 -0.000478 0.006796 -0.003185 0.000000 0.000000 0.000000
# 3 0.004475 -0.003185 0.014535 0.000000 0.000000 0.000000
# 4 0.000000 0.000000 0.000000 0.062661 0.000000 0.000000
# 5 0.000000 0.000000 0.000000 0.000000 0.042487 0.000000
# 6 0.000000 0.000000 0.000000 0.000000 0.000000 0.065147
#
#
# Mechanical properties :
#
#
# Convention : Reuss Voigt Hill
#
# Bulk Modulus (GPa) = 22.82082 36.72579 29.77330
# Shear Modulus (GPa) = 22.17576 29.74172 25.95874
#
# Velocity S-wave (km/s) = 3.27702 3.79510 3.54553
# Velocity P-wave (km/s) = 5.03684 6.08182 5.58383
#
# Compressibility (1/GPa) = 0.04381964
#
# Stress axis : x y z
#
# Youngs Moduli (GPa) = 47.92885 147.14511 68.79939
#
# Poissons Ratio (x) = 0.07034 -0.30790
# Poissons Ratio (y) = 0.02291 0.21914
# Poissons Ratio (z) = -0.21450 0.46868
#
# Static dielectric constant tensor:
#      x y z
#    x 1.788590 0.000000 0.000000 
#    y 0.000000 1.770400 0.000000 
#    z 0.000000 0.000000 1.678550 
# 
# From -- ./inp_files/1989.got.cif
#   From: 2010.05.17/outbox.cif.g08.bks.cpg/sg25_1_cif.got.tgz:1989.got - 2010.06.04 01:04:00.
