data_PCOD9337089
_publ_section_title
;
Structure prediction by ZEFSAII (Michael W. Deem and Ramdas Pophale) SiO2 
 PCOD9337089
Probable space group: P M M 2
;
_chemical_formula_sum "Si O2"
_cell_formula_units_Z 32
_cell_length_a 14.966199
_cell_length_b 7.457585
_cell_length_c 16.192229
_cell_angle_alpha 90.000000
_cell_angle_beta 90.000000
_cell_angle_gamma 90.000000
_cell_volume 1807.242224
_symmetry_space_group_name_H-M "P M M 2"
_symmetry_group_IT_number 25
_symmetry_cell_setting 'orthorhombic'
loop_
_space_group_symop_operation_xyz
x,y,z
-x,-y,z
-x,y,z
x,-y,z
loop_
_atom_site_type_symbol
_atom_site_label
_atom_site_fract_x
_atom_site_fract_y
_atom_site_fract_z
Si Si1 0.900619 0.281830 0.109760
Si Si2 0.397295 0.280930 0.014673
Si Si3 0.603858 0.215200 0.513222
Si Si4 0.285909 0.280617 0.176617
Si Si5 0.713871 0.286643 0.856438
Si Si6 0.099150 0.718429 0.917022
Si Si7 0.602020 0.288291 0.331855
Si Si8 0.602661 0.784624 0.693345
O O1 0.900930 0.500000 0.111501
O O2 0.816059 0.221429 0.162749
O O3 0.000000 0.222468 0.135078
O O4 0.887257 0.232889 0.013403
O O5 0.500000 0.222637 0.016515
O O6 0.397852 0.500000 0.013756
O O7 0.343620 0.228015 0.096508
O O8 0.346858 0.218669 0.932125
O O9 0.500000 0.273272 0.511549
O O10 0.640960 0.268924 0.424260
O O11 0.637243 0.277373 0.603028
O O12 0.605843 0.000000 0.513735
O O13 0.284430 0.500000 0.177772
O O14 0.334739 0.217412 0.259589
O O15 0.719240 0.500000 0.868643
O O16 0.815270 0.218758 0.865588
O O17 0.665813 0.258387 0.769573
O O18 0.097338 0.500000 0.914426
O O19 0.000000 0.779339 0.891536
O O20 0.500000 0.214267 0.329524
O O21 0.593853 0.500000 0.316646
O O22 0.500000 0.720262 0.706026
O O23 0.597430 0.000000 0.689395
#
# Coordination Sequence:
#
# PCOD9337089 Si02
#       8
#     4   4   4   4   4   4   4   4
#     4   8  12  19  32  50  75 107 138 165 193 229
#     4   9  15  21  30  49  80 112 136 157 186 228
#     4   8  15  29  45  57  73 102 136 165 196 238
#     4   9  14  21  32  51  80 109 132 157 193 235
#     4  10  17  25  40  63  84 106 139 174 202 233
#     4   8  13  22  36  56  83 110 136 170 208 239
#     4   9  16  24  37  59  83 104 128 162 201 234
#     4   9  18  31  44  58  80 110 138 165 204 251
#
# _framework density 17.706537000000001
#
# number of rings (size 3 to 8) (size 9 to 14) (size 15 to 20)
#    0.000    3.250    1.250    2.250    0.000    2.750 
#    0.000    1.250    0.000    1.125    0.000    2.625 
#    0.000    5.500    0.000    0.000    0.000    0.000 
#
# Total GULP energy -178275.427730 kJ/mol
# GULP energy per Si atom -5571.107117 kJ/mol
# Density = 1.766624 g / cm^3
# Si number density = 17.706537 Si / 1000 Ang^3
#
#
#
# Elastic Constant Matrix: (Units=GPa)
#
#
# Indices 1 2 3 4 5 6 
#
# 1 152.8693 6.3613 97.2402 0.0000 0.0000 0.0000
# 2 6.3613 48.5135 -0.1469 0.0000 0.0000 0.0000
# 3 97.2402 -0.1469 161.1036 0.0000 0.0000 0.0000
# 4 0.0000 0.0000 0.0000 25.4971 0.0000 0.0000
# 5 0.0000 0.0000 0.0000 0.0000 9.8340 0.0000
# 6 0.0000 0.0000 0.0000 0.0000 0.0000 -4.4322
#
#
#
# Elastic Compliance Matrix: (Units=1/GPa)
#
#
# Indices 1 2 3 4 5 6 
#
# 1 0.010716 -0.001425 -0.006469 0.000000 0.000000 0.000000
# 2 -0.001425 0.020802 0.000879 0.000000 0.000000 0.000000
# 3 -0.006469 0.000879 0.010113 0.000000 0.000000 0.000000
# 4 0.000000 0.000000 0.000000 0.039220 0.000000 0.000000
# 5 0.000000 0.000000 0.000000 0.000000 0.101688 0.000000
# 6 0.000000 0.000000 0.000000 0.000000 0.000000 -0.225622
#
#
# Mechanical properties :
#
#
# Convention : Reuss Voigt Hill
#
# Bulk Modulus (GPa) = 36.23087 63.26619 49.74853
# Shear Modulus (GPa) = -251.86007 23.44857 -114.20575
#
# Velocity S-wave (km/s) = -11.93943 3.64303 -8.03985
# Velocity P-wave (km/s) = 13.02154 7.31461 7.61764
#
# Compressibility (1/GPa) = 0.02760077
#
# Stress axis : x y z
#
# Youngs Moduli (GPa) = 93.31883 48.07164 98.88475
#
# Poissons Ratio (x) = 0.06849 0.63972
# Poissons Ratio (y) = 0.13295 -0.08691
# Poissons Ratio (z) = 0.60371 -0.04225
#
# Static dielectric constant tensor:
#      x y z
#    x 1.606800 0.000000 0.000000 
#    y 0.000000 1.679280 0.000000 
#    z 0.000000 0.000000 1.606480 
# 
# From -- ./inp_files/5749.got.cif
#   From: 2010.05.17/outbox.cif.g08.bks.cpg/sg25_3_cif.got.tgz:5749.got - 2010.06.04 01:04:00.
