data_PCOD9337999
_publ_section_title
;
Structure prediction by ZEFSAII (Michael W. Deem and Ramdas Pophale) SiO2 
 PCOD9337999
Probable space group: P M C 21
;
_chemical_formula_sum "Si O2"
_cell_formula_units_Z 32
_cell_length_a 8.168575
_cell_length_b 10.993712
_cell_length_c 14.406707
_cell_angle_alpha 90.000000
_cell_angle_beta 90.000000
_cell_angle_gamma 90.000000
_cell_volume 1293.764947
_symmetry_space_group_name_H-M "P M C 21"
_symmetry_group_IT_number 26
_symmetry_cell_setting 'orthorhombic'
loop_
_space_group_symop_operation_xyz
x,y,z
-x,-y,1/2+z
-x,y,z
x,-y,1/2+z
loop_
_atom_site_type_symbol
_atom_site_label
_atom_site_fract_x
_atom_site_fract_y
_atom_site_fract_z
Si Si1 0.312782 0.437917 0.460340
Si Si2 0.692763 0.966438 0.804733
Si Si3 0.808607 0.806857 0.422784
Si Si4 0.806689 0.792722 0.071414
Si Si5 0.801792 0.432281 0.135350
Si Si6 0.802808 0.664303 0.254517
Si Si7 0.808772 0.286795 0.302651
Si Si8 0.305489 0.945936 0.592429
O O1 0.500000 0.455463 0.434746
O O2 0.289674 0.313227 0.519413
O O3 0.255373 0.542600 0.531170
O O4 0.211543 0.404920 0.368389
O O5 0.500000 0.997385 0.805730
O O6 0.716283 0.829593 0.842587
O O7 0.754981 0.949587 0.698646
O O8 0.784619 0.069825 0.862122
O O9 0.736968 0.702182 0.355052
O O10 0.739115 0.836278 0.523835
O O11 0.000000 0.782440 0.435548
O O12 0.500000 0.046712 0.096345
O O13 0.773422 0.772986 0.181095
O O14 0.762213 0.929673 0.047647
O O15 0.744837 0.547260 0.197960
O O16 0.747545 0.320525 0.199465
O O17 0.000000 0.431624 0.133624
O O18 0.000000 0.651950 0.263204
O O19 0.000000 0.257103 0.299021
O O20 0.000000 0.229987 0.554924
#
# Coordination Sequence:
#
# PCOD9337999 Si02
#       8
#     4   4   4   4   4   4   4   4
#     4  11  22  37  61  92 124 158 199 245 302 364
#     4  11  24  41  60  85 126 164 199 247 300 362
#     4  11  21  36  60  88 118 153 198 243 294 361
#     4  10  18  34  59  84 114 150 198 249 287 342
#     4   9  20  41  65  89 116 151 201 256 300 346
#     4   8  16  33  58  84 108 137 183 243 294 338
#     4  11  23  41  65  89 120 160 207 254 297 351
#     4  11  23  37  54  83 122 161 195 239 302 364
#
# _framework density 24.734013999999998
#
# number of rings (size 3 to 8) (size 9 to 14) (size 15 to 20)
#    0.000    1.750    1.250    4.500    0.000    2.500 
#    2.250    0.625    0.000    0.000    0.000    0.000 
#    0.000    0.000    0.000    0.000    0.000    0.000 
#
# Total GULP energy -178971.380383 kJ/mol
# GULP energy per Si atom -5592.855637 kJ/mol
# Density = 2.467772 g / cm^3
# Si number density = 24.734014 Si / 1000 Ang^3
#
#
#
# Elastic Constant Matrix: (Units=GPa)
#
#
# Indices 1 2 3 4 5 6 
#
# 1 41.0856 -13.5149 -3.6522 0.0000 0.0000 0.0000
# 2 -13.5149 60.4188 23.0594 0.0000 0.0000 0.0000
# 3 -3.6522 23.0594 139.2992 0.0000 0.0000 0.0000
# 4 0.0000 0.0000 0.0000 50.0599 0.0000 0.0000
# 5 0.0000 0.0000 0.0000 0.0000 28.0364 0.0000
# 6 0.0000 0.0000 0.0000 0.0000 0.0000 10.2152
#
#
#
# Elastic Compliance Matrix: (Units=1/GPa)
#
#
# Indices 1 2 3 4 5 6 
#
# 1 0.026285 0.005995 -0.000303 0.000000 0.000000 0.000000
# 2 0.005995 0.019035 -0.002994 0.000000 0.000000 0.000000
# 3 -0.000303 -0.002994 0.007666 0.000000 0.000000 0.000000
# 4 0.000000 0.000000 0.000000 0.019976 0.000000 0.000000
# 5 0.000000 0.000000 0.000000 0.000000 0.035668 0.000000
# 6 0.000000 0.000000 0.000000 0.000000 0.000000 0.097893
#
#
# Mechanical properties :
#
#
# Convention : Reuss Voigt Hill
#
# Bulk Modulus (GPa) = 17.12852 28.06536 22.59694
# Shear Modulus (GPa) = 22.66676 33.32306 27.99491
#
# Velocity S-wave (km/s) = 3.03053 3.67448 3.36793
# Velocity P-wave (km/s) = 4.38014 5.41977 4.92745
#
# Compressibility (1/GPa) = 0.05838217
#
# Stress axis : x y z
#
# Youngs Moduli (GPa) = 38.04513 52.53529 130.43884
#
# Poissons Ratio (x) = -0.31496 0.03956
# Poissons Ratio (y) = -0.22809 0.39051
# Poissons Ratio (z) = 0.01154 0.15728
#
# Static dielectric constant tensor:
#      x y z
#    x 1.848910 0.000000 0.000000 
#    y 0.000000 1.994230 0.000000 
#    z 0.000000 0.000000 2.032830 
# 
# From -- ./inp_files/4146.got.cif
#   From: 2010.05.17/outbox.cif.g08.bks.cpg/sg26_3_cif.got.tgz:4146.got - 2010.06.04 01:07:29.
