data_PCOD9337016
_publ_section_title
;
Structure prediction by ZEFSAII (Michael W. Deem and Ramdas Pophale) SiO2 
 PCOD9337016
Probable space group: I 21 21 21
;
_chemical_formula_sum "Si O2"
_cell_formula_units_Z 24
_cell_length_a 11.951476
_cell_length_b 4.626334
_cell_length_c 14.836379
_cell_angle_alpha 90.000000
_cell_angle_beta 90.000000
_cell_angle_gamma 90.000000
_cell_volume 820.325943
_symmetry_space_group_name_H-M "I 21 21 21"
_symmetry_group_IT_number 24
_symmetry_cell_setting 'orthorhombic'
loop_
_space_group_symop_operation_xyz
x,y,z
-x,1/2-y,z
x,-y,1/2-z
1/2-x,y,-z
1/2+x,1/2+y,1/2+z
1/2-x,-y,1/2+z
1/2+x,1/2-y,-z
-x,1/2+y,1/2-z
loop_
_atom_site_type_symbol
_atom_site_label
_atom_site_fract_x
_atom_site_fract_y
_atom_site_fract_z
Si Si1 0.692122 0.381035 0.091059
Si Si2 0.000000 0.750000 0.481627
Si Si3 0.415519 0.500000 0.250000
Si Si4 0.376572 0.651203 0.839927
O O1 0.651412 0.155859 0.167592
O O2 0.781475 0.615876 0.129732
O O3 0.750000 0.263223 0.000000
O O4 0.573814 0.461583 0.044242
O O5 0.080804 0.563850 0.417608
O O6 0.500000 0.750000 0.216575
O O7 0.500000 0.750000 0.810658
O O8 0.335201 0.500000 0.750000
#
# Coordination Sequence:
#
# PCOD9337016 Si02
#       4
#     8   4   4   8
#     4  12  30  66 102 149 209 273 344 427 519 621
#     4  12  28  62 100 142 202 284 342 424 512 632
#     4  12  32  70 100 150 208 276 352 418 518 622
#     4  12  28  63 101 152 203 269 351 425 527 612
#
# _framework density 29.256663
#
# number of rings (size 3 to 8) (size 9 to 14) (size 15 to 20)
#    0.000    0.000    6.667    0.000    0.000    8.000 
#   27.000    0.000    0.000    0.000    0.000    0.000 
#    0.000    0.000    0.000    0.000    0.000    0.000 
#
# Total GULP energy -67008.078163 kJ/mol
# GULP energy per Si atom -5584.006514 kJ/mol
# Density = 2.919007 g / cm^3
# Si number density = 29.256663 Si / 1000 Ang^3
#
#
#
# Elastic Constant Matrix: (Units=GPa)
#
#
# Indices 1 2 3 4 5 6 
#
# 1 248.3885 143.0432 173.1373 0.0000 0.0000 0.0000
# 2 143.0432 191.6441 143.9050 0.0000 0.0000 0.0000
# 3 173.1373 143.9050 289.6676 0.0000 0.0000 0.0000
# 4 0.0000 0.0000 0.0000 73.9817 0.0000 0.0000
# 5 0.0000 0.0000 0.0000 0.0000 61.1922 0.0000
# 6 0.0000 0.0000 0.0000 0.0000 0.0000 113.7923
#
#
#
# Elastic Compliance Matrix: (Units=1/GPa)
#
#
# Indices 1 2 3 4 5 6 
#
# 1 0.008487 -0.004028 -0.003071 0.000000 0.000000 0.000000
# 2 -0.004028 0.010235 -0.002677 0.000000 0.000000 0.000000
# 3 -0.003071 -0.002677 0.006618 0.000000 0.000000 0.000000
# 4 0.000000 0.000000 0.000000 0.013517 0.000000 0.000000
# 5 0.000000 0.000000 0.000000 0.000000 0.016342 0.000000
# 6 0.000000 0.000000 0.000000 0.000000 0.000000 0.008788
#
#
# Mechanical properties :
#
#
# Convention : Reuss Voigt Hill
#
# Bulk Modulus (GPa) = 172.81900 183.31901 178.06900
# Shear Modulus (GPa) = 58.50201 67.76757 63.13479
#
# Velocity S-wave (km/s) = 4.47655 4.81803 4.65043
# Velocity P-wave (km/s) = 9.26917 9.68226 9.47797
#
# Compressibility (1/GPa) = 0.00578640
#
# Stress axis : x y z
#
# Youngs Moduli (GPa) = 117.83390 97.70773 151.10597
#
# Poissons Ratio (x) = 0.39357 0.46410
# Poissons Ratio (y) = 0.47464 0.40449
# Poissons Ratio (z) = 0.36191 0.26155
#
# Static dielectric constant tensor:
#      x y z
#    x 2.415170 0.000000 0.000000 
#    y 0.000000 2.398640 0.000000 
#    z 0.000000 0.000000 2.184150 
# 
# From -- ./inp_files/4187.got.cif
#   From: 2010.05.17/outbox.cif.g08.bks.cpg/sg24_3_cif.got.tgz:4187.got - 2010.06.04 00:33:39.
