data_PCOD9337944
_publ_section_title
;
Structure prediction by ZEFSAII (Michael W. Deem and Ramdas Pophale) SiO2 
 PCOD9337944
Probable space group: P M C 21
;
_chemical_formula_sum "Si O2"
_cell_formula_units_Z 32
_cell_length_a 7.425018
_cell_length_b 10.849116
_cell_length_c 14.630151
_cell_angle_alpha 90.000000
_cell_angle_beta 90.000000
_cell_angle_gamma 90.000000
_cell_volume 1178.530081
_symmetry_space_group_name_H-M "P M C 21"
_symmetry_group_IT_number 26
_symmetry_cell_setting 'orthorhombic'
loop_
_space_group_symop_operation_xyz
x,y,z
-x,-y,1/2+z
-x,y,z
x,-y,1/2+z
loop_
_atom_site_type_symbol
_atom_site_label
_atom_site_fract_x
_atom_site_fract_y
_atom_site_fract_z
Si Si1 0.282470 0.701385 0.220350
Si Si2 0.715131 0.806768 0.501407
Si Si3 0.705534 0.414117 0.547475
Si Si4 0.208229 0.921933 0.013110
Si Si5 0.789307 0.352379 0.169574
Si Si6 0.779305 0.801399 0.833566
Si Si7 0.211173 0.968213 0.214116
Si Si8 0.719740 0.564691 0.388306
O O1 0.500000 0.696589 0.217858
O O2 0.211637 0.682443 0.117711
O O3 0.230418 0.833660 0.258533
O O4 0.221091 0.590506 0.285632
O O5 0.500000 0.812543 0.497123
O O6 0.769863 0.768500 0.604504
O O7 0.772193 0.690595 0.440563
O O8 0.787009 0.939229 0.472591
O O9 0.500000 0.378944 0.530803
O O10 0.700884 0.538479 0.610845
O O11 0.789533 0.454157 0.451526
O O12 0.000000 0.889678 0.025431
O O13 0.281530 0.826792 0.937496
O O14 0.293115 0.944794 0.113063
O O15 0.000000 0.380590 0.175103
O O16 0.720265 0.313526 0.270146
O O17 0.718593 0.922401 0.776579
O O18 0.000000 0.798835 0.834658
O O19 0.000000 0.995101 0.201262
O O20 0.500000 0.557917 0.389760
#
# Coordination Sequence:
#
# PCOD9337944 Si02
#       8
#     4   4   4   4   4   4   4   4
#     4  10  20  36  56  76 104 142 175 213 266 317
#     4  10  18  30  51  78 107 136 175 222 257 303
#     4   9  19  36  55  77 104 135 175 222 266 309
#     4  10  19  33  52  74 106 144 174 209 264 317
#     4  10  18  33  55  76 102 135 175 217 264 313
#     4   9  18  33  53  78 105 139 176 213 261 317
#     4  10  20  35  53  77 109 139 171 215 259 308
#     4   8  16  32  53  76 101 134 175 215 259 306
#
# _framework density 27.152469
#
# number of rings (size 3 to 8) (size 9 to 14) (size 15 to 20)
#    0.000    2.500    1.250    2.250    0.000    1.000 
#    2.250    3.750    0.000    0.000    0.000    0.000 
#    0.000    0.000    0.000    0.000    0.000    0.000 
#
# Total GULP energy -179029.304634 kJ/mol
# GULP energy per Si atom -5594.665770 kJ/mol
# Density = 2.709067 g / cm^3
# Si number density = 27.152469 Si / 1000 Ang^3
#
#
#
# Elastic Constant Matrix: (Units=GPa)
#
#
# Indices 1 2 3 4 5 6 
#
# 1 116.1753 13.4837 15.3060 0.0000 0.0000 0.0000
# 2 13.4837 111.8134 9.8937 0.0000 0.0000 0.0000
# 3 15.3060 9.8937 152.4322 0.0000 0.0000 0.0000
# 4 0.0000 0.0000 0.0000 50.7161 0.0000 0.0000
# 5 0.0000 0.0000 0.0000 0.0000 7.2298 0.0000
# 6 0.0000 0.0000 0.0000 0.0000 0.0000 27.3714
#
#
#
# Elastic Compliance Matrix: (Units=1/GPa)
#
#
# Indices 1 2 3 4 5 6 
#
# 1 0.008831 -0.000992 -0.000822 0.000000 0.000000 0.000000
# 2 -0.000992 0.009107 -0.000491 0.000000 0.000000 0.000000
# 3 -0.000822 -0.000491 0.006675 0.000000 0.000000 0.000000
# 4 0.000000 0.000000 0.000000 0.019718 0.000000 0.000000
# 5 0.000000 0.000000 0.000000 0.000000 0.138316 0.000000
# 6 0.000000 0.000000 0.000000 0.000000 0.000000 0.036535
#
#
# Mechanical properties :
#
#
# Convention : Reuss Voigt Hill
#
# Bulk Modulus (GPa) = 49.99857 50.86529 50.43193
# Shear Modulus (GPa) = 21.69576 39.84597 30.77086
#
# Velocity S-wave (km/s) = 2.82979 3.83494 3.37005
# Velocity P-wave (km/s) = 5.39730 6.19539 5.81007
#
# Compressibility (1/GPa) = 0.02000057
#
# Stress axis : x y z
#
# Youngs Moduli (GPa) = 113.23512 109.81042 149.81799
#
# Poissons Ratio (x) = 0.10895 0.12320
# Poissons Ratio (y) = 0.11235 0.07363
# Poissons Ratio (z) = 0.09312 0.05397
#
# Static dielectric constant tensor:
#      x y z
#    x 1.979970 0.000000 0.000000 
#    y 0.000000 2.146190 0.000000 
#    z 0.000000 0.000000 2.182160 
# 
# From -- ./inp_files/4301.got.cif
#   From: 2010.05.17/outbox.cif.g08.bks.cpg/sg26_3_cif.got.tgz:4301.got - 2010.06.04 01:07:29.
