data_PCOD9337197
_publ_section_title
;
Structure prediction by ZEFSAII (Michael W. Deem and Ramdas Pophale) SiO2 
 PCOD9337197
Probable space group: P M M 2
;
_chemical_formula_sum "Si O2"
_cell_formula_units_Z 32
_cell_length_a 16.068668
_cell_length_b 7.892718
_cell_length_c 12.297467
_cell_angle_alpha 90.000000
_cell_angle_beta 90.000000
_cell_angle_gamma 90.000000
_cell_volume 1559.631973
_symmetry_space_group_name_H-M "P M M 2"
_symmetry_group_IT_number 25
_symmetry_cell_setting 'orthorhombic'
loop_
_space_group_symop_operation_xyz
x,y,z
-x,-y,z
-x,y,z
x,-y,z
loop_
_atom_site_type_symbol
_atom_site_label
_atom_site_fract_x
_atom_site_fract_y
_atom_site_fract_z
Si Si1 0.591243 0.202637 0.846330
Si Si2 0.252000 0.203954 0.984581
Si Si3 0.408256 0.704346 0.373924
Si Si4 0.750701 0.201320 0.230550
Si Si5 0.091846 0.296100 0.376120
Si Si6 0.844632 0.293111 0.609908
Si Si7 0.092072 0.704743 0.844202
Si Si8 0.651319 0.295088 0.609806
O O1 0.500000 0.270145 0.877137
O O2 0.607505 0.235392 0.719235
O O3 0.589670 0.000000 0.861803
O O4 0.669009 0.270288 0.915810
O O5 0.250961 0.270585 0.107743
O O6 0.259635 0.000000 0.988714
O O7 0.166681 0.242492 0.922279
O O8 0.500000 0.763963 0.338881
O O9 0.409851 0.500000 0.377435
O O10 0.332219 0.751886 0.296577
O O11 0.389549 0.763288 0.497134
O O12 0.832841 0.254241 0.296146
O O13 0.753039 0.000000 0.223145
O O14 0.088692 0.500000 0.381644
O O15 0.113378 0.235075 0.498117
O O16 0.000000 0.234931 0.342599
O O17 0.846678 0.500000 0.609107
O O18 0.888239 0.237551 0.721010
O O19 0.747971 0.242139 0.611543
O O20 0.091437 0.500000 0.842335
O O21 0.000000 0.763026 0.877693
O O22 0.649315 0.500000 0.610228
#
# Coordination Sequence:
#
# PCOD9337197 Si02
#       8
#     4   4   4   4   4   4   4   4
#     4  10  21  37  57  81 110 144 184 229 274 326
#     4  10  23  41  57  76 107 150 192 230 276 325
#     4  10  21  38  60  86 116 148 184 229 279 334
#     4  11  24  40  58  80 111 151 193 238 281 327
#     4  10  20  37  62  87 113 148 187 228 279 338
#     4   9  16  31  57  86 114 143 175 219 277 335
#     4  10  20  35  58  87 114 141 179 227 275 327
#     4  10  18  33  59  86 114 146 177 218 275 335
#
# _framework density 20.517659999999999
#
# number of rings (size 3 to 8) (size 9 to 14) (size 15 to 20)
#    0.000    2.000    2.500    1.125    0.000    5.500 
#    0.000    4.375    0.000    1.500    0.000    0.000 
#    0.000    0.000    0.000    0.000    0.000    0.000 
#
# Total GULP energy -178728.667922 kJ/mol
# GULP energy per Si atom -5585.270873 kJ/mol
# Density = 2.047096 g / cm^3
# Si number density = 20.517660 Si / 1000 Ang^3
#
#
#
# Elastic Constant Matrix: (Units=GPa)
#
#
# Indices 1 2 3 4 5 6 
#
# 1 223.9997 12.0754 107.5173 0.0000 0.0000 0.0000
# 2 12.0754 20.3724 6.6316 0.0000 0.0000 0.0000
# 3 107.5173 6.6316 173.0399 0.0000 0.0000 0.0000
# 4 0.0000 0.0000 0.0000 22.4053 0.0000 0.0000
# 5 0.0000 0.0000 0.0000 0.0000 6.5083 0.0000
# 6 0.0000 0.0000 0.0000 0.0000 0.0000 13.2878
#
#
#
# Elastic Compliance Matrix: (Units=1/GPa)
#
#
# Indices 1 2 3 4 5 6 
#
# 1 0.006491 -0.002567 -0.003935 0.000000 0.000000 0.000000
# 2 -0.002567 0.050721 -0.000349 0.000000 0.000000 0.000000
# 3 -0.003935 -0.000349 0.008237 0.000000 0.000000 0.000000
# 4 0.000000 0.000000 0.000000 0.044632 0.000000 0.000000
# 5 0.000000 0.000000 0.000000 0.000000 0.153649 0.000000
# 6 0.000000 0.000000 0.000000 0.000000 0.000000 0.075257
#
#
# Mechanical properties :
#
#
# Convention : Reuss Voigt Hill
#
# Bulk Modulus (GPa) = 19.32434 74.42895 46.87664
# Shear Modulus (GPa) = 13.51572 27.85280 20.68426
#
# Velocity S-wave (km/s) = 2.56937 3.68843 3.17853
# Velocity P-wave (km/s) = 4.27095 7.38198 6.03053
#
# Compressibility (1/GPa) = 0.05174822
#
# Stress axis : x y z
#
# Youngs Moduli (GPa) = 154.04917 19.71571 121.39747
#
# Poissons Ratio (x) = 0.05061 0.47770
# Poissons Ratio (y) = 0.39540 0.04237
# Poissons Ratio (z) = 0.60619 0.00688
#
# Static dielectric constant tensor:
#      x y z
#    x 1.256850 0.000000 0.000000 
#    y 0.000000 1.752860 0.000000 
#    z 0.000000 0.000000 1.708020 
# 
# From -- ./inp_files/4163.got.cif
#   From: 2010.05.17/outbox.cif.g08.bks.cpg/sg25_3_cif.got.tgz:4163.got - 2010.06.04 01:04:00.
