data_PCOD9337898
_publ_section_title
;
Structure prediction by ZEFSAII (Michael W. Deem and Ramdas Pophale) SiO2 
 PCOD9337898
Probable space group: P M C 21
;
_chemical_formula_sum "Si O2"
_cell_formula_units_Z 32
_cell_length_a 9.225300
_cell_length_b 7.212945
_cell_length_c 21.491456
_cell_angle_alpha 90.000000
_cell_angle_beta 90.000000
_cell_angle_gamma 90.000000
_cell_volume 1430.075471
_symmetry_space_group_name_H-M "P M C 21"
_symmetry_group_IT_number 26
_symmetry_cell_setting 'orthorhombic'
loop_
_space_group_symop_operation_xyz
x,y,z
-x,-y,1/2+z
-x,y,z
x,-y,1/2+z
loop_
_atom_site_type_symbol
_atom_site_label
_atom_site_fract_x
_atom_site_fract_y
_atom_site_fract_z
Si Si1 0.829003 0.400123 0.256030
Si Si2 0.667349 0.468367 0.375897
Si Si3 0.674697 0.218381 0.726242
Si Si4 0.828118 0.017350 0.972965
Si Si5 0.338014 0.901997 0.087222
Si Si6 0.667173 0.917688 0.352229
Si Si7 0.324516 0.592958 0.504983
Si Si8 0.661893 0.320911 0.135751
O O1 0.759526 0.365062 0.323628
O O2 0.775441 0.609538 0.242362
O O3 0.764075 0.303449 0.194862
O O4 0.000000 0.380805 0.258731
O O5 0.500000 0.416379 0.367633
O O6 0.675753 0.692807 0.363538
O O7 0.707912 0.452976 0.448527
O O8 0.500000 0.254040 0.732846
O O9 0.705155 0.063897 0.779196
O O10 0.702198 0.177005 0.654397
O O11 0.766842 0.890651 0.028621
O O12 0.768364 0.223846 0.989573
O O13 0.000000 0.013837 0.971697
O O14 0.762929 0.985439 0.904444
O O15 0.500000 0.836532 0.069589
O O16 0.348204 0.120702 0.103964
O O17 0.500000 0.969926 0.362061
O O18 0.500000 0.630238 0.500850
O O19 0.295449 0.546999 0.577513
O O20 0.500000 0.375124 0.157277
#
# Coordination Sequence:
#
# PCOD9337898 Si02
#       8
#     4   4   4   4   4   4   4   4
#     4  11  21  30  44  70 101 129 154 183 227 282
#     4   8  14  27  46  66  88 116 153 196 233 265
#     4   9  18  33  52  71  91 120 159 199 235 270
#     4  10  17  24  40  67  96 122 148 183 230 279
#     4   9  18  33  52  71  91 119 157 198 235 271
#     4   8  14  26  44  65  89 116 150 192 232 269
#     4   8  15  28  46  66  87 115 155 198 233 265
#     4   9  17  31  50  70  93 121 154 193 233 273
#
# _framework density 22.376441
#
# number of rings (size 3 to 8) (size 9 to 14) (size 15 to 20)
#    0.000    3.000    0.000    4.500    0.000    7.000 
#    0.000    0.000    0.000    1.500    0.000    5.250 
#    0.000    0.000    0.000    0.000    0.000    0.000 
#
# Total GULP energy -178513.696508 kJ/mol
# GULP energy per Si atom -5578.553016 kJ/mol
# Density = 2.232551 g / cm^3
# Si number density = 22.376441 Si / 1000 Ang^3
#
#
#
# Elastic Constant Matrix: (Units=GPa)
#
#
# Indices 1 2 3 4 5 6 
#
# 1 100.4557 19.4984 96.1361 0.0000 0.0000 0.0000
# 2 19.4984 36.5671 47.8019 0.0000 0.0000 0.0000
# 3 96.1361 47.8019 191.7804 0.0000 0.0000 0.0000
# 4 0.0000 0.0000 0.0000 32.8675 0.0000 0.0000
# 5 0.0000 0.0000 0.0000 0.0000 3.2883 0.0000
# 6 0.0000 0.0000 0.0000 0.0000 0.0000 4.0090
#
#
#
# Elastic Compliance Matrix: (Units=1/GPa)
#
#
# Indices 1 2 3 4 5 6 
#
# 1 0.019434 0.003519 -0.010619 0.000000 0.000000 0.000000
# 2 0.003519 0.041201 -0.012034 0.000000 0.000000 0.000000
# 3 -0.010619 -0.012034 0.013537 0.000000 0.000000 0.000000
# 4 0.000000 0.000000 0.000000 0.030425 0.000000 0.000000
# 5 0.000000 0.000000 0.000000 0.000000 0.304105 0.000000
# 6 0.000000 0.000000 0.000000 0.000000 0.000000 0.249436
#
#
# Mechanical properties :
#
#
# Convention : Reuss Voigt Hill
#
# Bulk Modulus (GPa) = 27.85136 72.85287 50.35212
# Shear Modulus (GPa) = 7.05841 19.05743 13.05792
#
# Velocity S-wave (km/s) = 1.77799 2.92151 2.41831
# Velocity P-wave (km/s) = 4.08519 6.63392 5.50897
#
# Compressibility (1/GPa) = 0.03590489
#
# Stress axis : x y z
#
# Youngs Moduli (GPa) = 51.45613 24.27110 73.87251
#
# Poissons Ratio (x) = -0.08541 0.78446
# Poissons Ratio (y) = -0.18107 0.88895
# Poissons Ratio (z) = 0.54641 0.29207
#
# Static dielectric constant tensor:
#      x y z
#    x 1.741310 0.000000 0.000000 
#    y 0.000000 1.951450 0.000000 
#    z 0.000000 0.000000 1.916550 
# 
# From -- ./inp_files/5365.got.cif
#   From: 2010.05.17/outbox.cif.g08.bks.cpg/sg26_3_cif.got.tgz:5365.got - 2010.06.04 01:07:29.
