data_PCOD9337258
_publ_section_title
;
Structure prediction by ZEFSAII (Michael W. Deem and Ramdas Pophale) SiO2 
 PCOD9337258
Probable space group: P M M 2
;
_chemical_formula_sum "Si O2"
_cell_formula_units_Z 28
_cell_length_a 20.222271
_cell_length_b 8.225975
_cell_length_c 7.366275
_cell_angle_alpha 90.000000
_cell_angle_beta 90.000000
_cell_angle_gamma 90.000000
_cell_volume 1225.364345
_symmetry_space_group_name_H-M "P M M 2"
_symmetry_group_IT_number 25
_symmetry_cell_setting 'orthorhombic'
loop_
_space_group_symop_operation_xyz
x,y,z
-x,-y,z
-x,y,z
x,-y,z
loop_
_atom_site_type_symbol
_atom_site_label
_atom_site_fract_x
_atom_site_fract_y
_atom_site_fract_z
Si Si1 0.786754 0.682795 0.966810
Si Si2 0.352762 0.823794 0.477125
Si Si3 0.351860 0.824162 0.901518
Si Si4 0.787203 0.687353 0.406189
Si Si5 0.072016 0.807588 0.955573
Si Si6 0.071125 0.302814 0.373237
Si Si7 0.577023 0.500000 0.912065
Si Si8 0.423341 0.500000 0.468545
O O1 0.769393 0.500000 0.909538
O O2 0.727038 0.798468 0.912037
O O3 0.789317 0.686668 0.186373
O O4 0.859676 0.725681 0.895320
O O5 0.370266 0.828884 0.689579
O O6 0.274283 0.794453 0.463651
O O7 0.387755 0.663433 0.401706
O O8 0.369984 0.000000 0.398773
O O9 0.386753 0.663543 0.977535
O O10 0.369418 0.000000 0.980673
O O11 0.776387 0.500000 0.465065
O O12 0.860099 0.744844 0.465939
O O13 0.070818 0.775166 0.173081
O O14 0.000000 0.745867 0.889245
O O15 0.075685 0.000000 0.922979
O O16 0.074368 0.500000 0.351655
O O17 0.000000 0.262204 0.458598
O O18 0.500000 0.500000 0.959784
O O19 0.581393 0.500000 0.690191
O O20 0.500000 0.500000 0.420609
#
# Coordination Sequence:
#
# PCOD9337258 Si02
#       8
#     4   4   4   4   4   4   2   2
#     4  10  19  31  50  74  99 133 173 210 251 298
#     4  10  20  33  53  78 103 133 166 201 248 299
#     4  10  20  34  53  78 104 132 167 205 247 297
#     4   9  17  29  48  73 101 133 169 209 250 293
#     4   9  16  25  39  63  95 128 163 208 255 293
#     4   8  14  25  41  63  92 126 165 208 249 290
#     4   9  18  34  55  79 104 131 162 200 249 297
#     4   9  18  34  55  77 104 131 160 204 247 289
#
# _framework density 22.850346999999999
#
# number of rings (size 3 to 8) (size 9 to 14) (size 15 to 20)
#    0.000    2.714    1.429    1.714    0.000    4.286 
#    0.000    2.857    0.000    2.571    0.000    6.000 
#    0.000    0.000    0.000    0.000    0.000    0.000 
#
# Total GULP energy -156289.535645 kJ/mol
# GULP energy per Si atom -5581.769130 kJ/mol
# Density = 2.279834 g / cm^3
# Si number density = 22.850347 Si / 1000 Ang^3
#
#
#
# Elastic Constant Matrix: (Units=GPa)
#
#
# Indices 1 2 3 4 5 6 
#
# 1 139.4218 81.8118 -7.4648 0.0000 0.0000 0.0000
# 2 81.8118 162.3330 5.9253 0.0000 0.0000 0.0000
# 3 -7.4648 5.9253 79.3281 0.0000 0.0000 0.0000
# 4 0.0000 0.0000 0.0000 -0.0652 0.0000 0.0000
# 5 0.0000 0.0000 0.0000 0.0000 12.3695 0.0000
# 6 0.0000 0.0000 0.0000 0.0000 0.0000 4.5623
#
#
#
# Elastic Compliance Matrix: (Units=1/GPa)
#
#
# Indices 1 2 3 4 5 6 
#
# 1 0.010330 -0.005256 0.001365 0.000000 0.000000 0.000000
# 2 -0.005256 0.008851 -0.001156 0.000000 0.000000 0.000000
# 3 0.001365 -0.001156 0.012821 0.000000 0.000000 0.000000
# 4 0.000000 0.000000 0.000000-15.329149 0.000000 0.000000
# 5 0.000000 0.000000 0.000000 0.000000 0.080844 0.000000
# 6 0.000000 0.000000 0.000000 0.000000 0.000000 0.219186
#
#
# Mechanical properties :
#
#
# Convention : Reuss Voigt Hill
#
# Bulk Modulus (GPa) = 45.64601 60.18084 52.91343
# Shear Modulus (GPa) = -0.33378 23.42737 11.54679
#
# Velocity S-wave (km/s) = -0.38261 3.20543 2.25038
# Velocity P-wave (km/s) = 4.45244 6.33197 5.47349
#
# Compressibility (1/GPa) = 0.02190772
#
# Stress axis : x y z
#
# Youngs Moduli (GPa) = 96.81009 112.98078 77.99945
#
# Poissons Ratio (x) = 0.59378 -0.10644
# Poissons Ratio (y) = 0.50880 0.09014
# Poissons Ratio (z) = -0.13210 0.13057
#
# Static dielectric constant tensor:
#      x y z
#    x 1.844550 0.000000 0.000000 
#    y 0.000000 1.838350 0.000000 
#    z 0.000000 0.000000 1.904560 
# 
# From -- ./inp_files/3569.got.cif
#   From: 2010.05.17/outbox.cif.g08.bks.cpg/sg25_2_cif.got.tgz:3569.got - 2010.06.04 01:04:00.
