data_PCOD9337155
_publ_section_title
;
Structure prediction by ZEFSAII (Michael W. Deem and Ramdas Pophale) SiO2 
 PCOD9337155
Probable space group: P M M 2
;
_chemical_formula_sum "Si O2"
_cell_formula_units_Z 32
_cell_length_a 8.379500
_cell_length_b 15.092857
_cell_length_c 12.828563
_cell_angle_alpha 90.000000
_cell_angle_beta 90.000000
_cell_angle_gamma 90.000000
_cell_volume 1622.435999
_symmetry_space_group_name_H-M "P M M 2"
_symmetry_group_IT_number 25
_symmetry_cell_setting 'orthorhombic'
loop_
_space_group_symop_operation_xyz
x,y,z
-x,-y,z
-x,y,z
x,-y,z
loop_
_atom_site_type_symbol
_atom_site_label
_atom_site_fract_x
_atom_site_fract_y
_atom_site_fract_z
Si Si1 0.691319 0.223649 0.670710
Si Si2 0.190822 0.400798 0.581625
Si Si3 0.316703 0.361732 0.349710
Si Si4 0.683599 0.158031 0.279847
Si Si5 0.694510 0.904884 0.492645
Si Si6 0.806838 0.897327 0.860879
Si Si7 0.190968 0.595946 0.124987
Si Si8 0.809617 0.210968 0.062044
O O1 0.500000 0.220921 0.672791
O O2 0.744860 0.324705 0.657807
O O3 0.749600 0.173714 0.565992
O O4 0.754750 0.165775 0.766285
O O5 0.243883 0.500000 0.610722
O O6 0.245792 0.383451 0.462337
O O7 0.000000 0.397676 0.583611
O O8 0.500000 0.392023 0.347177
O O9 0.317117 0.256381 0.329827
O O10 0.226357 0.398836 0.248716
O O11 0.500000 0.132352 0.258619
O O12 0.752108 0.100851 0.374130
O O13 0.773823 0.163401 0.171457
O O14 0.500000 0.899352 0.486963
O O15 0.735935 0.000000 0.539693
O O16 0.000000 0.900057 0.863031
O O17 0.751457 0.000000 0.852482
O O18 0.749433 0.848007 0.966288
O O19 0.252067 0.500000 0.086637
O O20 0.254163 0.687486 0.073640
O O21 0.000000 0.596556 0.111247
O O22 0.000000 0.218196 0.049846
#
# Coordination Sequence:
#
# PCOD9337155 Si02
#       8
#     4   4   4   4   4   4   4   4
#     4  11  22  39  61  85 113 145 189 242 290 341
#     4  11  23  37  55  81 114 153 193 231 279 342
#     4  10  18  30  49  77 113 152 191 230 276 331
#     4   9  17  31  50  77 113 148 182 226 280 335
#     4   9  17  31  52  79 111 144 176 220 282 343
#     4  10  22  41  62  83 111 148 191 241 295 348
#     4   9  17  30  49  75 107 145 189 232 279 338
#     4   9  19  35  54  77 107 145 188 235 284 334
#
# _framework density 19.723426
#
# number of rings (size 3 to 8) (size 9 to 14) (size 15 to 20)
#    0.000    2.250    1.250    1.875    0.000    5.000 
#    0.000    0.625    0.000    3.750    0.000    0.000 
#    0.000    0.000    0.000    0.000    0.000    0.000 
#
# Total GULP energy -178439.984264 kJ/mol
# GULP energy per Si atom -5576.249508 kJ/mol
# Density = 1.967853 g / cm^3
# Si number density = 19.723426 Si / 1000 Ang^3
#
#
#
# Elastic Constant Matrix: (Units=GPa)
#
#
# Indices 1 2 3 4 5 6 
#
# 1 13.6573 19.6020 11.1616 0.0000 0.0000 0.0000
# 2 19.6020 148.8582 79.4972 0.0000 0.0000 0.0000
# 3 11.1616 79.4972 114.3866 0.0000 0.0000 0.0000
# 4 0.0000 0.0000 0.0000 10.0863 0.0000 0.0000
# 5 0.0000 0.0000 0.0000 0.0000 12.2227 0.0000
# 6 0.0000 0.0000 0.0000 0.0000 0.0000 10.8771
#
#
#
# Elastic Compliance Matrix: (Units=1/GPa)
#
#
# Indices 1 2 3 4 5 6 
#
# 1 0.090339 -0.011431 -0.000871 0.000000 0.000000 0.000000
# 2 -0.011431 0.012129 -0.007314 0.000000 0.000000 0.000000
# 3 -0.000871 -0.007314 0.013911 0.000000 0.000000 0.000000
# 4 0.000000 0.000000 0.000000 0.099144 0.000000 0.000000
# 5 0.000000 0.000000 0.000000 0.000000 0.081815 0.000000
# 6 0.000000 0.000000 0.000000 0.000000 0.000000 0.091937
#
#
# Mechanical properties :
#
#
# Convention : Reuss Voigt Hill
#
# Bulk Modulus (GPa) = 12.96229 55.26933 34.11581
# Shear Modulus (GPa) = 11.00783 17.74663 14.37723
#
# Velocity S-wave (km/s) = 2.36500 3.00288 2.70282
# Velocity P-wave (km/s) = 3.74752 6.33293 5.20336
#
# Compressibility (1/GPa) = 0.07714684
#
# Stress axis : x y z
#
# Youngs Moduli (GPa) = 11.06941 82.44552 71.88793
#
# Poissons Ratio (x) = 0.94245 0.06259
# Poissons Ratio (y) = 0.12654 0.52580
# Poissons Ratio (z) = 0.00964 0.60303
#
# Static dielectric constant tensor:
#      x y z
#    x 1.691250 0.000000 0.000000 
#    y 0.000000 1.764320 0.000000 
#    z 0.000000 0.000000 1.670680 
# 
# From -- ./inp_files/4254.got.cif
#   From: 2010.05.17/outbox.cif.g08.bks.cpg/sg25_3_cif.got.tgz:4254.got - 2010.06.04 01:04:00.
