data_PCOD9337548
_publ_section_title
;
Structure prediction by ZEFSAII (Michael W. Deem and Ramdas Pophale) SiO2 
 PCOD9337548
Probable space group: P M M 2
;
_chemical_formula_sum "Si O2"
_cell_formula_units_Z 32
_cell_length_a 8.691983
_cell_length_b 14.632146
_cell_length_c 16.129944
_cell_angle_alpha 90.000000
_cell_angle_beta 90.000000
_cell_angle_gamma 90.000000
_cell_volume 2051.444414
_symmetry_space_group_name_H-M "P M M 2"
_symmetry_group_IT_number 25
_symmetry_cell_setting 'orthorhombic'
loop_
_space_group_symop_operation_xyz
x,y,z
-x,-y,z
-x,y,z
x,-y,z
loop_
_atom_site_type_symbol
_atom_site_label
_atom_site_fract_x
_atom_site_fract_y
_atom_site_fract_z
Si Si1 0.821423 0.610971 0.548990
Si Si2 0.813432 0.393305 0.367684
Si Si3 0.315120 0.897235 0.133262
Si Si4 0.184433 0.607607 0.047504
Si Si5 0.315676 0.708229 0.209150
Si Si6 0.813307 0.607358 0.730735
Si Si7 0.183710 0.895805 0.948795
Si Si8 0.317082 0.287317 0.887817
O O1 0.822095 0.500000 0.548816
O O2 0.756056 0.637199 0.459229
O O3 0.756721 0.637195 0.638848
O O4 0.000000 0.640318 0.549154
O O5 0.770211 0.500000 0.355064
O O6 0.751781 0.332965 0.293098
O O7 0.000000 0.390531 0.368634
O O8 0.500000 0.893018 0.120649
O O9 0.272449 0.814119 0.193126
O O10 0.277067 0.000000 0.162403
O O11 0.236278 0.883253 0.044167
O O12 0.221845 0.500000 0.043271
O O13 0.253672 0.651655 0.130418
O O14 0.000000 0.617076 0.049459
O O15 0.248245 0.659329 0.967075
O O16 0.500000 0.701643 0.210893
O O17 0.774876 0.500000 0.742340
O O18 0.745219 0.666134 0.804628
O O19 0.000000 0.613218 0.731676
O O20 0.263100 0.817321 0.895719
O O21 0.000000 0.886031 0.944055
O O22 0.224963 0.000000 0.925365
O O23 0.500000 0.292764 0.891220
#
# Coordination Sequence:
#
# PCOD9337548 Si02
#       8
#     4   4   4   4   4   4   4   4
#     4   7  12  26  48  70  90 118 159 201 239 277
#     4   9  17  30  48  69  95 128 162 195 233 281
#     4   9  18  33  50  67  90 121 156 196 244 289
#     4  11  23  36  48  63  90 130 169 200 230 271
#     4  11  21  31  46  70  96 125 157 195 241 287
#     4   9  17  31  51  72  95 125 162 203 241 281
#     4  10  20  34  53  73  91 117 158 204 242 279
#     4  12  23  33  47  70  99 130 158 191 238 290
#
# _framework density 15.598765999999999
#
# number of rings (size 3 to 8) (size 9 to 14) (size 15 to 20)
#    0.000    2.250    1.250    4.500    0.000    5.750 
#    0.000    0.625    0.000    2.250    0.000    0.875 
#    0.000    5.000    0.000    0.000    0.000    0.000 
#
# Total GULP energy -178416.698435 kJ/mol
# GULP energy per Si atom -5575.521826 kJ/mol
# Density = 1.556326 g / cm^3
# Si number density = 15.598766 Si / 1000 Ang^3
#
#
#
# Elastic Constant Matrix: (Units=GPa)
#
#
# Indices 1 2 3 4 5 6 
#
# 1 30.7027 37.8442 32.1882 0.0000 0.0000 0.0000
# 2 37.8442 105.6264 74.1473 0.0000 0.0000 0.0000
# 3 32.1882 74.1473 149.2715 0.0000 0.0000 0.0000
# 4 0.0000 0.0000 0.0000 5.8996 0.0000 0.0000
# 5 0.0000 0.0000 0.0000 0.0000 -57.3723 0.0000
# 6 0.0000 0.0000 0.0000 0.0000 0.0000 20.6395
#
#
#
# Elastic Compliance Matrix: (Units=1/GPa)
#
#
# Indices 1 2 3 4 5 6 
#
# 1 0.059458 -0.018889 -0.003439 0.000000 0.000000 0.000000
# 2 -0.018889 0.020537 -0.006128 0.000000 0.000000 0.000000
# 3 -0.003439 -0.006128 0.010485 0.000000 0.000000 0.000000
# 4 0.000000 0.000000 0.000000 0.169503 0.000000 0.000000
# 5 0.000000 0.000000 0.000000 0.000000 -0.017430 0.000000
# 6 0.000000 0.000000 0.000000 0.000000 0.000000 0.048451
#
#
# Mechanical properties :
#
#
# Convention : Reuss Voigt Hill
#
# Bulk Modulus (GPa) = 29.79010 63.77331 46.78170
# Shear Modulus (GPa) = 13.92357 3.26143 8.59250
#
# Velocity S-wave (km/s) = 2.99089 1.44754 2.34955
# Velocity P-wave (km/s) = 5.57373 6.61560 6.11689
#
# Compressibility (1/GPa) = 0.03356820
#
# Stress axis : x y z
#
# Youngs Moduli (GPa) = 16.81856 48.69337 95.37787
#
# Poissons Ratio (x) = 0.91977 0.32796
# Poissons Ratio (y) = 0.31769 0.58447
# Poissons Ratio (z) = 0.05783 0.29839
#
# Static dielectric constant tensor:
#      x y z
#    x 1.523510 0.000000 0.000000 
#    y 0.000000 1.517840 0.000000 
#    z 0.000000 0.000000 1.517750 
# 
# From -- ./inp_files/5662.got.cif
#   From: 2010.05.17/outbox.cif.g08.bks.cpg/sg25_3_cif.got.tgz:5662.got - 2010.06.04 01:04:00.
