data_PCOD9337998
_publ_section_title
;
Structure prediction by ZEFSAII (Michael W. Deem and Ramdas Pophale) SiO2 
 PCOD9337998
Probable space group: P M C 21
;
_chemical_formula_sum "Si O2"
_cell_formula_units_Z 20
_cell_length_a 7.688568
_cell_length_b 14.310129
_cell_length_c 8.394325
_cell_angle_alpha 90.000000
_cell_angle_beta 90.000000
_cell_angle_gamma 90.000000
_cell_volume 923.580571
_symmetry_space_group_name_H-M "P M C 21"
_symmetry_group_IT_number 26
_symmetry_cell_setting 'orthorhombic'
loop_
_space_group_symop_operation_xyz
x,y,z
-x,-y,1/2+z
-x,y,z
x,-y,1/2+z
loop_
_atom_site_type_symbol
_atom_site_label
_atom_site_fract_x
_atom_site_fract_y
_atom_site_fract_z
Si Si1 0.205430 0.944657 0.869620
Si Si2 0.801396 0.678625 0.360900
Si Si3 0.500000 0.444118 0.735368
Si Si4 0.500000 0.638866 0.880917
Si Si5 0.213374 0.871200 0.205560
Si Si6 0.303109 0.231177 0.179828
O O1 0.229248 0.868479 0.730670
O O2 0.000000 0.956672 0.894922
O O3 0.273645 0.046180 0.822580
O O4 0.276798 0.900740 0.031369
O O5 0.669401 0.595774 0.325125
O O6 0.736948 0.768486 0.260292
O O7 0.796597 0.714126 0.543091
O O8 0.000000 0.655686 0.317406
O O9 0.500000 0.405330 0.555058
O O10 0.500000 0.555345 0.752001
O O11 0.665289 0.704199 0.836333
O O12 0.000000 0.870857 0.206901
O O13 0.500000 0.217163 0.118512
#
# Coordination Sequence:
#
# PCOD9337998 Si02
#       6
#     4   4   2   2   4   4
#     4  10  18  34  56  83 123 163 212 256 302 368
#     4  11  22  40  66  94 126 164 208 253 309 370
#     4  12  22  46  67  92 123 162 200 256 314 370
#     4  10  24  42  69  86 131 160 196 262 318 358
#     4   9  19  33  55  86 120 167 207 257 312 354
#     4  10  21  39  58  91 118 168 201 246 312 358
#
# _framework density 21.654852000000002
#
# number of rings (size 3 to 8) (size 9 to 14) (size 15 to 20)
#    0.600    1.200    1.000    4.200    0.000    3.200 
#    1.800    6.000    0.000    0.000    0.000    0.000 
#    0.000    0.000    0.000    0.000    0.000    0.000 
#
# Total GULP energy -111682.575346 kJ/mol
# GULP energy per Si atom -5584.128767 kJ/mol
# Density = 2.160557 g / cm^3
# Si number density = 21.654852 Si / 1000 Ang^3
#
#
#
# Elastic Constant Matrix: (Units=GPa)
#
#
# Indices 1 2 3 4 5 6 
#
# 1 58.4860 3.8634 -1.9467 0.0000 0.0000 0.0000
# 2 3.8634 69.1106 -16.4197 0.0000 0.0000 0.0000
# 3 -1.9467 -16.4197 57.4706 0.0000 0.0000 0.0000
# 4 0.0000 0.0000 0.0000 37.4178 0.0000 0.0000
# 5 0.0000 0.0000 0.0000 0.0000 20.2725 0.0000
# 6 0.0000 0.0000 0.0000 0.0000 0.0000 20.4221
#
#
#
# Elastic Compliance Matrix: (Units=1/GPa)
#
#
# Indices 1 2 3 4 5 6 
#
# 1 0.017167 -0.000881 0.000330 0.000000 0.000000 0.000000
# 2 -0.000881 0.015569 0.004418 0.000000 0.000000 0.000000
# 3 0.000330 0.004418 0.018674 0.000000 0.000000 0.000000
# 4 0.000000 0.000000 0.000000 0.026725 0.000000 0.000000
# 5 0.000000 0.000000 0.000000 0.000000 0.049328 0.000000
# 6 0.000000 0.000000 0.000000 0.000000 0.000000 0.048967
#
#
# Mechanical properties :
#
#
# Convention : Reuss Voigt Hill
#
# Bulk Modulus (GPa) = 16.90830 17.34013 17.12421
# Shear Modulus (GPa) = 26.53782 28.92716 27.73249
#
# Velocity S-wave (km/s) = 3.50450 3.65886 3.58251
# Velocity P-wave (km/s) = 4.91939 5.08671 5.00375
#
# Compressibility (1/GPa) = 0.05914256
#
# Stress axis : x y z
#
# Youngs Moduli (GPa) = 58.25030 64.23212 53.55131
#
# Poissons Ratio (x) = 0.05661 -0.01766
# Poissons Ratio (y) = 0.05134 -0.23660
# Poissons Ratio (z) = -0.01920 -0.28379
#
# Static dielectric constant tensor:
#      x y z
#    x 1.810930 0.000000 0.000000 
#    y 0.000000 1.739860 0.000000 
#    z 0.000000 0.000000 1.825350 
# 
# From -- ./inp_files/1319.got.cif
#   From: 2010.05.17/outbox.cif.g08.bks.cpg/sg26_1_cif.got.tgz:1319.got - 2010.06.04 01:07:29.
