data_PCOD9337727
_publ_section_title
;
Structure prediction by ZEFSAII (Michael W. Deem and Ramdas Pophale) SiO2 
 PCOD9337727
Probable space group: P M M 2
;
_chemical_formula_sum "Si O2"
_cell_formula_units_Z 20
_cell_length_a 7.841788
_cell_length_b 9.291972
_cell_length_c 14.826325
_cell_angle_alpha 90.000000
_cell_angle_beta 90.000000
_cell_angle_gamma 90.000000
_cell_volume 1080.330172
_symmetry_space_group_name_H-M "P M M 2"
_symmetry_group_IT_number 25
_symmetry_cell_setting 'orthorhombic'
loop_
_space_group_symop_operation_xyz
x,y,z
-x,-y,z
-x,y,z
x,-y,z
loop_
_atom_site_type_symbol
_atom_site_label
_atom_site_fract_x
_atom_site_fract_y
_atom_site_fract_z
Si Si1 0.000000 0.673238 0.315800
Si Si2 0.000000 0.827512 0.124477
Si Si3 0.699854 0.172063 0.986551
Si Si4 0.798280 0.164792 0.623171
Si Si5 0.691098 0.670321 0.446524
Si Si6 0.705850 0.664986 0.802817
O O1 0.000000 0.748133 0.219475
O O2 0.834312 0.713372 0.374806
O O3 0.000000 0.500000 0.304802
O O4 0.831468 0.791320 0.065937
O O5 0.000000 0.000000 0.138176
O O6 0.500000 0.204552 0.006820
O O7 0.711730 0.000000 0.970672
O O8 0.751187 0.255079 0.895600
O O9 0.711691 0.244223 0.539414
O O10 0.768306 0.249126 0.715826
O O11 0.000000 0.164172 0.604630
O O12 0.738969 0.000000 0.631718
O O13 0.500000 0.690910 0.410750
O O14 0.714775 0.500000 0.465720
O O15 0.500000 0.663775 0.798819
O O16 0.766040 0.500000 0.801952
#
# Coordination Sequence:
#
# PCOD9337727 Si02
#       6
#     2   2   4   4   4   4
#     4  10  22  40  59  84 115 144 181 234 290 340
#     4  10  22  38  59  84 111 144 187 234 282 340
#     4   9  19  37  58  81 113 150 187 232 282 330
#     4  11  23  36  54  83 118 154 192 232 277 333
#     4  10  21  39  62  85 112 149 190 232 282 337
#     4  10  21  36  55  82 115 151 191 233 278 332
#
# _framework density 18.512858000000001
#
# number of rings (size 3 to 8) (size 9 to 14) (size 15 to 20)
#    0.000    2.000    1.000    1.800    1.400    7.600 
#    0.000    0.000    0.000    0.000    0.000    0.000 
#    0.000    0.000    0.000    0.000    0.000    0.000 
#
# Total GULP energy -111703.963490 kJ/mol
# GULP energy per Si atom -5585.198174 kJ/mol
# Density = 1.847072 g / cm^3
# Si number density = 18.512858 Si / 1000 Ang^3
#
#
#
# Elastic Constant Matrix: (Units=GPa)
#
#
# Indices 1 2 3 4 5 6 
#
# 1 102.3694 53.5401 79.0238 0.0000 0.0000 0.0000
# 2 53.5401 74.8751 75.5365 0.0000 0.0000 0.0000
# 3 79.0238 75.5365 163.9927 0.0000 0.0000 0.0000
# 4 0.0000 0.0000 0.0000 42.3770 0.0000 0.0000
# 5 0.0000 0.0000 0.0000 0.0000 -11.7399 0.0000
# 6 0.0000 0.0000 0.0000 0.0000 0.0000 9.0903
#
#
#
# Elastic Compliance Matrix: (Units=1/GPa)
#
#
# Indices 1 2 3 4 5 6 
#
# 1 0.017556 -0.007508 -0.005002 0.000000 0.000000 0.000000
# 2 -0.007508 0.028159 -0.009353 0.000000 0.000000 0.000000
# 3 -0.005002 -0.009353 0.012816 0.000000 0.000000 0.000000
# 4 0.000000 0.000000 0.000000 0.023598 0.000000 0.000000
# 5 0.000000 0.000000 0.000000 0.000000 -0.085179 0.000000
# 6 0.000000 0.000000 0.000000 0.000000 0.000000 0.110008
#
#
# Mechanical properties :
#
#
# Convention : Reuss Voigt Hill
#
# Bulk Modulus (GPa) = 67.53483 84.15977 75.84730
# Shear Modulus (GPa) = 32.12997 16.82126 24.47561
#
# Velocity S-wave (km/s) = 4.17051 3.01761 3.64000
# Velocity P-wave (km/s) = 7.72981 7.59606 7.66323
#
# Compressibility (1/GPa) = 0.01480717
#
# Stress axis : x y z
#
# Youngs Moduli (GPa) = 56.95962 35.51218 78.02798
#
# Poissons Ratio (x) = 0.26662 0.39027
# Poissons Ratio (y) = 0.42765 0.72976
# Poissons Ratio (z) = 0.28490 0.33213
#
# Static dielectric constant tensor:
#      x y z
#    x 1.662980 0.000000 0.000000 
#    y 0.000000 1.629470 0.000000 
#    z 0.000000 0.000000 1.578080 
# 
# From -- ./inp_files/5124.got.cif
#   From: 2010.05.17/outbox.cif.g08.bks.cpg/sg25_3_cif.got.tgz:5124.got - 2010.06.04 01:04:00.
