data_PCOD9337985
_publ_section_title
;
Structure prediction by ZEFSAII (Michael W. Deem and Ramdas Pophale) SiO2 
 PCOD9337985
Probable space group: P M C 21
;
_chemical_formula_sum "Si O2"
_cell_formula_units_Z 32
_cell_length_a 7.762267
_cell_length_b 10.972527
_cell_length_c 14.454468
_cell_angle_alpha 90.000000
_cell_angle_beta 90.000000
_cell_angle_gamma 90.000000
_cell_volume 1231.111384
_symmetry_space_group_name_H-M "P M C 21"
_symmetry_group_IT_number 26
_symmetry_cell_setting 'orthorhombic'
loop_
_space_group_symop_operation_xyz
x,y,z
-x,-y,1/2+z
-x,y,z
x,-y,1/2+z
loop_
_atom_site_type_symbol
_atom_site_label
_atom_site_fract_x
_atom_site_fract_y
_atom_site_fract_z
Si Si1 0.704675 0.701574 0.984680
Si Si2 0.301687 0.541122 0.251623
Si Si3 0.707747 0.695477 0.644628
Si Si4 0.800687 0.083341 0.928975
Si Si5 0.797709 0.943055 0.093865
Si Si6 0.795200 0.804002 0.258131
Si Si7 0.705599 0.854001 0.807142
Si Si8 0.802782 0.564891 0.461304
O O1 0.500000 0.699956 0.003152
O O2 0.728092 0.738638 0.876692
O O3 0.779625 0.569288 0.006060
O O4 0.785854 0.814345 0.039424
O O5 0.500000 0.541461 0.224393
O O6 0.226222 0.421894 0.203144
O O7 0.227465 0.669810 0.219862
O O8 0.291151 0.546836 0.363105
O O9 0.500000 0.700714 0.649825
O O10 0.767484 0.812564 0.705177
O O11 0.753463 0.665501 0.538430
O O12 0.794755 0.964901 0.861102
O O13 0.000000 0.112300 0.948883
O O14 0.723176 0.184527 0.861867
O O15 0.717019 0.042053 0.024913
O O16 0.717841 0.907108 0.191625
O O17 0.000000 0.970414 0.105675
O O18 0.000000 0.825031 0.264240
O O19 0.500000 0.878721 0.805904
O O20 0.000000 0.587238 0.435819
#
# Coordination Sequence:
#
# PCOD9337985 Si02
#       8
#     4   4   4   4   4   4   4   4
#     4  10  18  33  56  82 112 147 188 237 286 336
#     4  11  23  41  62  85 118 158 197 242 294 350
#     4  10  21  39  60  84 117 155 193 238 293 350
#     4   9  19  36  57  82 114 151 191 241 294 343
#     4   9  18  34  57  84 111 149 196 241 291 343
#     4  10  21  38  57  82 118 155 195 243 292 347
#     4   9  18  35  58  81 108 142 186 238 285 335
#     4  12  24  36  55  86 120 155 192 234 289 356
#
# _framework density 25.992774000000001
#
# number of rings (size 3 to 8) (size 9 to 14) (size 15 to 20)
#    0.000    2.000    1.250    2.625    0.000    5.000 
#    2.250    0.000    0.000    0.000    0.000    0.000 
#    0.000    0.000    0.000    0.000    0.000    0.000 
#
# Total GULP energy -178912.394806 kJ/mol
# GULP energy per Si atom -5591.012338 kJ/mol
# Density = 2.593361 g / cm^3
# Si number density = 25.992774 Si / 1000 Ang^3
#
#
#
# Elastic Constant Matrix: (Units=GPa)
#
#
# Indices 1 2 3 4 5 6 
#
# 1 59.0368 -1.7234 -5.0185 0.0000 0.0000 0.0000
# 2 -1.7234 83.5508 12.7708 0.0000 0.0000 0.0000
# 3 -5.0185 12.7708 141.4818 0.0000 0.0000 0.0000
# 4 0.0000 0.0000 0.0000 52.4441 0.0000 0.0000
# 5 0.0000 0.0000 0.0000 0.0000 12.1295 0.0000
# 6 0.0000 0.0000 0.0000 0.0000 0.0000 24.6804
#
#
#
# Elastic Compliance Matrix: (Units=1/GPa)
#
#
# Indices 1 2 3 4 5 6 
#
# 1 0.016995 0.000262 0.000579 0.000000 0.000000 0.000000
# 2 0.000262 0.012140 -0.001087 0.000000 0.000000 0.000000
# 3 0.000579 -0.001087 0.007187 0.000000 0.000000 0.000000
# 4 0.000000 0.000000 0.000000 0.019068 0.000000 0.000000
# 5 0.000000 0.000000 0.000000 0.000000 0.082444 0.000000
# 6 0.000000 0.000000 0.000000 0.000000 0.000000 0.040518
#
#
# Mechanical properties :
#
#
# Convention : Reuss Voigt Hill
#
# Bulk Modulus (GPa) = 27.90822 32.90303 30.40562
# Shear Modulus (GPa) = 26.20728 36.38683 31.29706
#
# Velocity S-wave (km/s) = 3.17874 3.74556 3.47373
# Velocity P-wave (km/s) = 4.92268 5.60282 5.27373
#
# Compressibility (1/GPa) = 0.03583174
#
# Stress axis : x y z
#
# Youngs Moduli (GPa) = 58.83925 82.37067 139.14651
#
# Poissons Ratio (x) = -0.02158 -0.08059
# Poissons Ratio (y) = -0.01542 0.15119
# Poissons Ratio (z) = -0.03408 0.08950
#
# Static dielectric constant tensor:
#      x y z
#    x 1.927470 0.000000 0.000000 
#    y 0.000000 2.078540 0.000000 
#    z 0.000000 0.000000 2.147270 
# 
# From -- ./inp_files/4137.got.cif
#   From: 2010.05.17/outbox.cif.g08.bks.cpg/sg26_3_cif.got.tgz:4137.got - 2010.06.04 01:07:29.
