data_PCOD9337950
_publ_section_title
;
Structure prediction by ZEFSAII (Michael W. Deem and Ramdas Pophale) SiO2 
 PCOD9337950
Probable space group: P M C 21
;
_chemical_formula_sum "Si O2"
_cell_formula_units_Z 32
_cell_length_a 8.792568
_cell_length_b 21.635815
_cell_length_c 9.974181
_cell_angle_alpha 90.000000
_cell_angle_beta 90.000000
_cell_angle_gamma 90.000000
_cell_volume 1897.432085
_symmetry_space_group_name_H-M "P M C 21"
_symmetry_group_IT_number 26
_symmetry_cell_setting 'orthorhombic'
loop_
_space_group_symop_operation_xyz
x,y,z
-x,-y,1/2+z
-x,y,z
x,-y,1/2+z
loop_
_atom_site_type_symbol
_atom_site_label
_atom_site_fract_x
_atom_site_fract_y
_atom_site_fract_z
Si Si1 0.682979 0.764879 0.775790
Si Si2 0.179958 0.631797 0.729409
Si Si3 0.684069 0.862122 0.553748
Si Si4 0.821603 0.447772 0.986671
Si Si5 0.683137 0.959418 0.776565
Si Si6 0.818813 0.862686 0.978602
Si Si7 0.679735 0.494723 0.241684
Si Si8 0.316136 0.104608 0.760302
O O1 0.500000 0.763631 0.781805
O O2 0.749093 0.696375 0.769678
O O3 0.729587 0.803036 0.641868
O O4 0.746478 0.805000 0.898943
O O5 0.200702 0.615809 0.570282
O O6 0.262343 0.572423 0.794756
O O7 0.000000 0.629675 0.756617
O O8 0.500000 0.862365 0.549015
O O9 0.726789 0.922421 0.641330
O O10 0.735898 0.865843 0.401023
O O11 0.759775 0.497164 0.096369
O O12 0.000000 0.456896 0.963939
O O13 0.733566 0.455192 0.848723
O O14 0.500000 0.953480 0.793292
O O15 0.760762 0.923562 0.899053
O O16 0.719150 0.031423 0.767582
O O17 0.000000 0.859323 0.972824
O O18 0.760341 0.866640 0.130064
O O19 0.500000 0.494673 0.225457
O O20 0.500000 0.110191 0.748746
#
# Coordination Sequence:
#
# PCOD9337950 Si02
#       8
#     4   4   4   4   4   4   4   4
#     4  10  19  35  56  74  96 130 179 220 249 297
#     4   9  19  33  54  78 105 138 172 210 260 309
#     4   8  16  29  49  75  97 123 163 213 257 295
#     4   9  18  32  51  77 111 142 169 207 258 306
#     4   9  17  32  53  75  95 126 170 209 252 309
#     4  11  22  33  48  73 105 135 165 205 256 310
#     4  10  18  30  52  81 109 138 174 210 249 301
#     4  10  18  32  53  73  98 128 164 210 259 307
#
# _framework density 16.864898
#
# number of rings (size 3 to 8) (size 9 to 14) (size 15 to 20)
#    0.750    1.750    0.000    4.500    0.000    2.500 
#    0.000    3.125    2.750    0.000    0.000    0.000 
#    0.000    0.000    0.000    0.000    0.000    0.000 
#
# Total GULP energy -178214.299827 kJ/mol
# GULP energy per Si atom -5569.196870 kJ/mol
# Density = 1.682651 g / cm^3
# Si number density = 16.864898 Si / 1000 Ang^3
#
#
#
# Elastic Constant Matrix: (Units=GPa)
#
#
# Indices 1 2 3 4 5 6 
#
# 1 49.6475 12.6061 9.2235 0.0000 0.0000 0.0000
# 2 12.6061 37.8875 0.8389 0.0000 0.0000 0.0000
# 3 9.2235 0.8389 86.1482 0.0000 0.0000 0.0000
# 4 0.0000 0.0000 0.0000 7.1086 0.0000 0.0000
# 5 0.0000 0.0000 0.0000 0.0000 12.1760 0.0000
# 6 0.0000 0.0000 0.0000 0.0000 0.0000 14.6817
#
#
#
# Elastic Compliance Matrix: (Units=1/GPa)
#
#
# Indices 1 2 3 4 5 6 
#
# 1 0.022460 -0.007421 -0.002332 0.000000 0.000000 0.000000
# 2 -0.007421 0.028852 0.000514 0.000000 0.000000 0.000000
# 3 -0.002332 0.000514 0.011853 0.000000 0.000000 0.000000
# 4 0.000000 0.000000 0.000000 0.140674 0.000000 0.000000
# 5 0.000000 0.000000 0.000000 0.000000 0.082129 0.000000
# 6 0.000000 0.000000 0.000000 0.000000 0.000000 0.068112
#
#
# Mechanical properties :
#
#
# Convention : Reuss Voigt Hill
#
# Bulk Modulus (GPa) = 22.37936 24.33558 23.35747
# Shear Modulus (GPa) = 12.90477 16.86091 14.88284
#
# Velocity S-wave (km/s) = 2.76920 3.16533 2.97387
# Velocity P-wave (km/s) = 4.85007 5.27448 5.06672
#
# Compressibility (1/GPa) = 0.04468404
#
# Stress axis : x y z
#
# Youngs Moduli (GPa) = 44.52430 34.65991 84.36954
#
# Poissons Ratio (x) = 0.25722 0.19678
# Poissons Ratio (y) = 0.33042 -0.04333
# Poissons Ratio (z) = 0.10385 -0.01780
#
# Static dielectric constant tensor:
#      x y z
#    x 1.557850 0.000000 0.000000 
#    y 0.000000 1.556540 0.000000 
#    z 0.000000 0.000000 1.574310 
# 
# From -- ./inp_files/1610.got.cif
#   From: 2010.05.17/outbox.cif.g08.bks.cpg/sg26_1_cif.got.tgz:1610.got - 2010.06.04 01:07:29.
