data_PCOD9337611
_publ_section_title
;
Structure prediction by ZEFSAII (Michael W. Deem and Ramdas Pophale) SiO2 
 PCOD9337611
Probable space group: P M M 2
;
_chemical_formula_sum "Si O2"
_cell_formula_units_Z 26
_cell_length_a 15.032412
_cell_length_b 7.877188
_cell_length_c 11.637917
_cell_angle_alpha 90.000000
_cell_angle_beta 90.000000
_cell_angle_gamma 90.000000
_cell_volume 1378.082242
_symmetry_space_group_name_H-M "P M M 2"
_symmetry_group_IT_number 25
_symmetry_cell_setting 'orthorhombic'
loop_
_space_group_symop_operation_xyz
x,y,z
-x,-y,z
-x,y,z
x,-y,z
loop_
_atom_site_type_symbol
_atom_site_label
_atom_site_fract_x
_atom_site_fract_y
_atom_site_fract_z
Si Si1 0.746358 0.193149 0.994240
Si Si2 0.392597 0.000000 0.412503
Si Si3 0.751349 0.000000 0.217106
Si Si4 0.608339 0.304130 0.583668
Si Si5 0.598664 0.700122 0.832764
Si Si6 0.107677 0.000000 0.414061
Si Si7 0.101612 0.205843 0.830448
Si Si8 0.108166 0.688823 0.577057
O O1 0.660592 0.280453 0.942425
O O2 0.834749 0.262033 0.933788
O O3 0.737433 0.000000 0.948496
O O4 0.751685 0.161510 0.130051
O O5 0.368663 0.167693 0.486675
O O6 0.500000 0.000000 0.394004
O O7 0.335323 0.000000 0.296737
O O8 0.838070 0.000000 0.296432
O O9 0.500000 0.306992 0.589404
O O10 0.637248 0.500000 0.562611
O O11 0.637277 0.238846 0.710284
O O12 0.500000 0.773044 0.851597
O O13 0.589897 0.500000 0.812080
O O14 0.133835 0.164610 0.489009
O O15 0.000000 0.000000 0.398395
O O16 0.135721 0.271384 0.707595
O O17 0.000000 0.264133 0.846590
O O18 0.098740 0.000000 0.825242
O O19 0.136956 0.500000 0.543785
O O20 0.000000 0.692202 0.579627
#
# Coordination Sequence:
#
# PCOD9337611 Si02
#       8
#     4   2   2   4   4   2   4   4
#     4   9  21  35  50  75 105 139 182 229 260 308
#     4  10  20  35  55  75 105 146 177 218 270 308
#     4  10  24  38  50  76 106 140 198 228 246 314
#     4   8  16  32  55  84 110 133 170 215 268 336
#     4   9  18  34  56  82 110 137 168 216 283 344
#     4  10  20  37  57  77 111 148 179 228 272 310
#     4   9  16  31  54  79 109 140 170 215 279 336
#     4   9  17  31  56  88 113 138 175 218 276 341
#
# _framework density 18.866797999999999
#
# number of rings (size 3 to 8) (size 9 to 14) (size 15 to 20)
#    0.462    2.462    0.769    0.923    1.077    3.385 
#    0.000    3.846    0.000    1.846    0.000    4.308 
#    0.000    0.000    0.000    0.000    0.000    0.000 
#
# Total GULP energy -144792.046588 kJ/mol
# GULP energy per Si atom -5568.924869 kJ/mol
# Density = 1.882386 g / cm^3
# Si number density = 18.866798 Si / 1000 Ang^3
#
#
#
# Elastic Constant Matrix: (Units=GPa)
#
#
# Indices 1 2 3 4 5 6 
#
# 1 82.7958 24.1145 63.5737 0.0000 0.0000 0.0000
# 2 24.1145 72.3376 49.8566 0.0000 0.0000 0.0000
# 3 63.5737 49.8566 163.0258 0.0000 0.0000 0.0000
# 4 0.0000 0.0000 0.0000 -2.1196 0.0000 0.0000
# 5 0.0000 0.0000 0.0000 0.0000 35.3614 0.0000
# 6 0.0000 0.0000 0.0000 0.0000 0.0000 -59.6518
#
#
#
# Elastic Compliance Matrix: (Units=1/GPa)
#
#
# Indices 1 2 3 4 5 6 
#
# 1 0.017354 -0.001420 -0.006333 0.000000 0.000000 0.000000
# 2 -0.001420 0.017632 -0.004838 0.000000 0.000000 0.000000
# 3 -0.006333 -0.004838 0.010083 0.000000 0.000000 0.000000
# 4 0.000000 0.000000 0.000000 -0.471783 0.000000 0.000000
# 5 0.000000 0.000000 0.000000 0.000000 0.028279 0.000000
# 6 0.000000 0.000000 0.000000 0.000000 0.000000 -0.016764
#
#
# Mechanical properties :
#
#
# Convention : Reuss Voigt Hill
#
# Bulk Modulus (GPa) = 50.28607 65.91656 58.10132
# Shear Modulus (GPa) = -13.04172 6.75896 -3.14138
#
# Velocity S-wave (km/s) = -2.63202 1.89479 -1.29176
# Velocity P-wave (km/s) = 4.18024 6.30878 5.35140
#
# Compressibility (1/GPa) = 0.01988622
#
# Stress axis : x y z
#
# Youngs Moduli (GPa) = 57.62212 56.71403 99.17294
#
# Poissons Ratio (x) = 0.08055 0.62808
# Poissons Ratio (y) = 0.08184 0.47984
# Poissons Ratio (z) = 0.36493 0.27441
#
# Static dielectric constant tensor:
#      x y z
#    x 1.701010 0.000000 0.000000 
#    y 0.000000 1.771300 0.000000 
#    z 0.000000 0.000000 1.624250 
# 
# From -- ./inp_files/4847.got.cif
#   From: 2010.05.17/outbox.cif.g08.bks.cpg/sg25_3_cif.got.tgz:4847.got - 2010.06.04 01:04:00.
