data_PCOD9337108
_publ_section_title
;
Structure prediction by ZEFSAII (Michael W. Deem and Ramdas Pophale) SiO2 
 PCOD9337108
Probable space group: P M M 2
;
_chemical_formula_sum "Si O2"
_cell_formula_units_Z 32
_cell_length_a 14.383319
_cell_length_b 8.580180
_cell_length_c 14.522305
_cell_angle_alpha 90.000000
_cell_angle_beta 90.000000
_cell_angle_gamma 90.000000
_cell_volume 1792.218950
_symmetry_space_group_name_H-M "P M M 2"
_symmetry_group_IT_number 25
_symmetry_cell_setting 'orthorhombic'
loop_
_space_group_symop_operation_xyz
x,y,z
-x,-y,z
-x,y,z
x,-y,z
loop_
_atom_site_type_symbol
_atom_site_label
_atom_site_fract_x
_atom_site_fract_y
_atom_site_fract_z
Si Si1 0.108116 0.175277 0.962830
Si Si2 0.895409 0.809968 0.280763
Si Si3 0.895593 0.189799 0.496239
Si Si4 0.607822 0.687178 0.992579
Si Si5 0.753792 0.179741 0.132025
Si Si6 0.110856 0.672871 0.780552
Si Si7 0.757510 0.178685 0.647761
Si Si8 0.391912 0.312404 0.785899
O O1 0.136737 0.298944 0.886408
O O2 0.000000 0.198180 0.984175
O O3 0.118130 0.000000 0.923600
O O4 0.166764 0.182485 0.054221
O O5 0.886150 0.771081 0.388564
O O6 0.807899 0.752905 0.220744
O O7 0.000000 0.760242 0.250503
O O8 0.894922 0.000000 0.273227
O O9 0.807941 0.246127 0.556411
O O10 0.000000 0.241577 0.527007
O O11 0.895735 0.000000 0.503137
O O12 0.500000 0.733663 0.002739
O O13 0.611736 0.500000 0.990278
O O14 0.638104 0.742548 0.889315
O O15 0.668020 0.742658 0.079079
O O16 0.728418 0.000000 0.151847
O O17 0.141077 0.500000 0.750651
O O18 0.158465 0.803312 0.720122
O O19 0.000000 0.682648 0.774667
O O20 0.672232 0.256227 0.702192
O O21 0.732736 0.000000 0.630136
O O22 0.500000 0.266191 0.773981
O O23 0.388707 0.500000 0.787476
#
# Coordination Sequence:
#
# PCOD9337108 Si02
#       8
#     4   4   4   4   4   4   4   4
#     4   9  17  28  41  62  94 124 148 181 227 276
#     4   8  14  27  47  70  97 127 157 189 227 275
#     4   8  15  28  46  69  97 128 159 190 228 276
#     4   9  19  35  51  66  89 124 160 191 229 280
#     4  10  18  27  46  74  95 115 150 194 235 272
#     4  10  20  31  42  60  90 128 163 189 220 272
#     4  11  20  29  47  73  96 119 153 198 243 282
#     4   9  19  36  54  70  92 125 162 196 233 283
#
# _framework density 17.854959999999998
#
# number of rings (size 3 to 8) (size 9 to 14) (size 15 to 20)
#    0.000    2.750    0.000    3.750    0.000    6.250 
#    0.000    1.250    0.000    3.375    0.000    8.750 
#    0.000    0.000    0.000    0.000    0.000    0.000 
#
# Total GULP energy -178157.109016 kJ/mol
# GULP energy per Si atom -5567.409657 kJ/mol
# Density = 1.781432 g / cm^3
# Si number density = 17.854960 Si / 1000 Ang^3
#
#
#
# Elastic Constant Matrix: (Units=GPa)
#
#
# Indices 1 2 3 4 5 6 
#
# 1 106.6774 18.0401 60.4912 0.0000 0.0000 0.0000
# 2 18.0401 9.4230 10.1853 0.0000 0.0000 0.0000
# 3 60.4912 10.1853 83.3600 0.0000 0.0000 0.0000
# 4 0.0000 0.0000 0.0000 7.6000 0.0000 0.0000
# 5 0.0000 0.0000 0.0000 0.0000 36.3493 0.0000
# 6 0.0000 0.0000 0.0000 0.0000 0.0000 -35.9977
#
#
#
# Elastic Compliance Matrix: (Units=1/GPa)
#
#
# Indices 1 2 3 4 5 6 
#
# 1 0.020443 -0.026619 -0.011583 0.000000 0.000000 0.000000
# 2 -0.026619 0.156932 0.000142 0.000000 0.000000 0.000000
# 3 -0.011583 0.000142 0.020384 0.000000 0.000000 0.000000
# 4 0.000000 0.000000 0.000000 0.131580 0.000000 0.000000
# 5 0.000000 0.000000 0.000000 0.000000 0.027511 0.000000
# 6 0.000000 0.000000 0.000000 0.000000 0.000000 -0.027780
#
#
# Mechanical properties :
#
#
# Convention : Reuss Voigt Hill
#
# Bulk Modulus (GPa) = 8.22100 41.87707 25.04904
# Shear Modulus (GPa) = 11.21739 8.97323 10.09531
#
# Velocity S-wave (km/s) = 2.50921 2.24422 2.38041
# Velocity P-wave (km/s) = 3.60682 5.49730 4.64917
#
# Compressibility (1/GPa) = 0.12163964
#
# Stress axis : x y z
#
# Youngs Moduli (GPa) = 48.91545 6.37219 49.05826
#
# Poissons Ratio (x) = 0.16962 0.56822
# Poissons Ratio (y) = 1.30207 -0.00695
# Poissons Ratio (z) = 0.56657 -0.00090
#
# Static dielectric constant tensor:
#      x y z
#    x 1.631230 0.000000 0.000000 
#    y 0.000000 1.652310 0.000000 
#    z 0.000000 0.000000 1.624290 
# 
# From -- ./inp_files/5930.got.cif
#   From: 2010.05.17/outbox.cif.g08.bks.cpg/sg25_3_cif.got.tgz:5930.got - 2010.06.04 01:04:00.
