data_PCOD9337992
_publ_section_title
;
Structure prediction by ZEFSAII (Michael W. Deem and Ramdas Pophale) SiO2 
 PCOD9337992
Probable space group: P M C 21
;
_chemical_formula_sum "Si O2"
_cell_formula_units_Z 32
_cell_length_a 7.643343
_cell_length_b 10.482840
_cell_length_c 19.968330
_cell_angle_alpha 90.000000
_cell_angle_beta 90.000000
_cell_angle_gamma 90.000000
_cell_volume 1599.941309
_symmetry_space_group_name_H-M "P M C 21"
_symmetry_group_IT_number 26
_symmetry_cell_setting 'orthorhombic'
loop_
_space_group_symop_operation_xyz
x,y,z
-x,-y,1/2+z
-x,y,z
x,-y,1/2+z
loop_
_atom_site_type_symbol
_atom_site_label
_atom_site_fract_x
_atom_site_fract_y
_atom_site_fract_z
Si Si1 0.287267 0.209888 0.943800
Si Si2 0.795409 0.853376 0.151140
Si Si3 0.288445 0.776043 0.295121
Si Si4 0.705469 0.114668 0.083081
Si Si5 0.285925 0.519633 0.802515
Si Si6 0.297944 0.338220 0.174343
Si Si7 0.796640 0.413539 0.596007
Si Si8 0.289027 0.507886 0.952295
O O1 0.500000 0.203522 0.940618
O O2 0.227697 0.177910 0.868466
O O3 0.241726 0.358025 0.957270
O O4 0.224440 0.129278 0.007449
O O5 0.772784 0.854253 0.231076
O O6 0.722303 0.718109 0.125084
O O7 0.000000 0.853610 0.134891
O O8 0.718953 0.975741 0.114556
O O9 0.500000 0.777379 0.294457
O O10 0.233495 0.627183 0.288125
O O11 0.500000 0.147653 0.077038
O O12 0.782587 0.220299 0.133815
O O13 0.500000 0.519101 0.800994
O O14 0.221329 0.613850 0.744805
O O15 0.233495 0.552163 0.878343
O O16 0.500000 0.304205 0.188813
O O17 0.294381 0.462016 0.126474
O O18 0.782842 0.418410 0.515968
O O19 0.000000 0.423279 0.615800
O O20 0.500000 0.514754 0.955224
#
# Coordination Sequence:
#
# PCOD9337992 Si02
#       8
#     4   4   4   4   4   4   4   4
#     4   8  15  30  54  84 107 127 168 224 269 315
#     4  11  24  38  50  73 112 149 184 219 255 309
#     4   9  16  31  57  81 103 134 174 219 268 317
#     4  10  20  35  56  80 107 139 176 219 268 315
#     4   8  15  28  53  85 108 130 167 219 272 315
#     4  10  18  33  58  83 105 131 170 220 269 317
#     4  11  22  34  50  76 108 141 177 216 259 310
#     4   9  16  31  54  80 108 135 170 220 268 312
#
# _framework density 20.000733
#
# number of rings (size 3 to 8) (size 9 to 14) (size 15 to 20)
#    0.000    2.500    2.500    2.250    0.000    2.000 
#    0.000    5.000    0.000    6.000    0.000    0.000 
#    0.000    0.000    0.000    0.000    0.000    0.000 
#
# Total GULP energy -178491.734145 kJ/mol
# GULP energy per Si atom -5577.866692 kJ/mol
# Density = 1.995521 g / cm^3
# Si number density = 20.000733 Si / 1000 Ang^3
#
#
#
# Elastic Constant Matrix: (Units=GPa)
#
#
# Indices 1 2 3 4 5 6 
#
# 1 34.2362 -7.4219 -9.1578 0.0000 0.0000 0.0000
# 2 -7.4219 67.3764 44.2818 0.0000 0.0000 0.0000
# 3 -9.1578 44.2818 153.9845 0.0000 0.0000 0.0000
# 4 0.0000 0.0000 0.0000 29.3731 0.0000 0.0000
# 5 0.0000 0.0000 0.0000 0.0000 -16.0929 0.0000
# 6 0.0000 0.0000 0.0000 0.0000 0.0000 7.1712
#
#
#
# Elastic Compliance Matrix: (Units=1/GPa)
#
#
# Indices 1 2 3 4 5 6 
#
# 1 0.030055 0.002634 0.001030 0.000000 0.000000 0.000000
# 2 0.002634 0.018532 -0.005173 0.000000 0.000000 0.000000
# 3 0.001030 -0.005173 0.008043 0.000000 0.000000 0.000000
# 4 0.000000 0.000000 0.000000 0.034045 0.000000 0.000000
# 5 0.000000 0.000000 0.000000 0.000000 -0.062139 0.000000
# 6 0.000000 0.000000 0.000000 0.000000 0.000000 0.139447
#
#
# Mechanical properties :
#
#
# Convention : Reuss Voigt Hill
#
# Bulk Modulus (GPa) = 18.65236 34.55569 26.60403
# Shear Modulus (GPa) = 26.47312 19.28326 22.87819
#
# Velocity S-wave (km/s) = 3.64209 3.10841 3.38578
# Velocity P-wave (km/s) = 5.19928 5.49524 5.34931
#
# Compressibility (1/GPa) = 0.05361251
#
# Stress axis : x y z
#
# Youngs Moduli (GPa) = 33.27193 53.96157 124.33300
#
# Poissons Ratio (x) = -0.14212 -0.12807
# Poissons Ratio (y) = -0.08763 0.64312
# Poissons Ratio (z) = -0.03427 0.27912
#
# Static dielectric constant tensor:
#      x y z
#    x 1.741910 0.000000 0.000000 
#    y 0.000000 1.669470 0.000000 
#    z 0.000000 0.000000 1.735770 
# 
# From -- ./inp_files/5077.got.cif
#   From: 2010.05.17/outbox.cif.g08.bks.cpg/sg26_3_cif.got.tgz:5077.got - 2010.06.04 01:07:29.
