data_PCOD9337631
_publ_section_title
;
Structure prediction by ZEFSAII (Michael W. Deem and Ramdas Pophale) SiO2 
 PCOD9337631
Probable space group: P M M 2
;
_chemical_formula_sum "Si O2"
_cell_formula_units_Z 19
_cell_length_a 7.351210
_cell_length_b 12.567448
_cell_length_c 11.224367
_cell_angle_alpha 90.000000
_cell_angle_beta 90.000000
_cell_angle_gamma 90.000000
_cell_volume 1036.973802
_symmetry_space_group_name_H-M "P M M 2"
_symmetry_group_IT_number 25
_symmetry_cell_setting 'orthorhombic'
loop_
_space_group_symop_operation_xyz
x,y,z
-x,-y,z
-x,y,z
x,-y,z
loop_
_atom_site_type_symbol
_atom_site_label
_atom_site_fract_x
_atom_site_fract_y
_atom_site_fract_z
Si Si1 0.500000 0.875867 0.232370
Si Si2 0.782132 0.625770 0.853307
Si Si3 0.500000 0.222656 0.976260
Si Si4 0.220912 0.380383 0.579711
Si Si5 0.782602 0.818850 0.432248
Si Si6 0.500000 0.000000 0.833512
Si Si7 0.214369 0.000000 0.625094
O O1 0.672980 0.852969 0.316530
O O2 0.500000 0.000000 0.198248
O O3 0.500000 0.803480 0.115746
O O4 0.743326 0.500000 0.875602
O O5 0.671984 0.705932 0.935983
O O6 0.728074 0.647787 0.715427
O O7 0.000000 0.639602 0.863858
O O8 0.500000 0.108609 0.909408
O O9 0.281925 0.500000 0.554953
O O10 0.276057 0.295768 0.481582
O O11 0.000000 0.380411 0.580378
O O12 0.744602 0.899412 0.541002
O O13 0.000000 0.820921 0.411298
O O14 0.328074 0.000000 0.744800
O O15 0.000000 0.000000 0.651475
#
# Coordination Sequence:
#
# PCOD9337631 Si02
#       7
#     2   4   2   4   4   1   2
#     4  12  25  43  56  74 112 159 208 242 274 327
#     4   9  19  39  65  90 119 152 188 239 301 359
#     4  12  25  39  56  82 118 161 207 242 279 340
#     4   8  15  31  58  91 120 142 172 225 294 358
#     4  10  20  37  61  84 110 147 190 236 288 345
#     4  12  24  36  54  84 124 156 182 244 304 344
#     4  10  20  35  59  87 111 142 191 244 302 358
#
# _framework density 18.322545000000002
#
# number of rings (size 3 to 8) (size 9 to 14) (size 15 to 20)
#    0.000    2.105    1.579    3.474    0.000    4.211 
#    0.000    3.684    0.000    2.526    0.000    0.000 
#    0.000    0.000    0.000    0.000    0.000    0.000 
#
# Total GULP energy -106105.054332 kJ/mol
# GULP energy per Si atom -5584.476544 kJ/mol
# Density = 1.828084 g / cm^3
# Si number density = 18.322545 Si / 1000 Ang^3
#
#
#
# Elastic Constant Matrix: (Units=GPa)
#
#
# Indices 1 2 3 4 5 6 
#
# 1 84.1083 35.7216 37.1910 0.0000 0.0000 0.0000
# 2 35.7216 99.1871 45.3972 0.0000 0.0000 0.0000
# 3 37.1910 45.3972 80.4253 0.0000 0.0000 0.0000
# 4 0.0000 0.0000 0.0000 27.0004 0.0000 0.0000
# 5 0.0000 0.0000 0.0000 0.0000 -535.5794 0.0000
# 6 0.0000 0.0000 0.0000 0.0000 0.0000 140.1080
#
#
#
# Elastic Compliance Matrix: (Units=1/GPa)
#
#
# Indices 1 2 3 4 5 6 
#
# 1 0.015634 -0.003130 -0.005463 0.000000 0.000000 0.000000
# 2 -0.003130 0.014221 -0.006580 0.000000 0.000000 0.000000
# 3 -0.005463 -0.006580 0.018674 0.000000 0.000000 0.000000
# 4 0.000000 0.000000 0.000000 0.037036 0.000000 0.000000
# 5 0.000000 0.000000 0.000000 0.000000 -0.001867 0.000000
# 6 0.000000 0.000000 0.000000 0.000000 0.000000 0.007137
#
#
# Mechanical properties :
#
#
# Convention : Reuss Voigt Hill
#
# Bulk Modulus (GPa) = 54.99427 55.59339 55.29383
# Shear Modulus (GPa) = 39.29501 -64.00012 -12.35256
#
# Velocity S-wave (km/s) = 4.63603 -5.91655 -2.59930
# Velocity P-wave (km/s) = 7.66399 4.03320 4.60815
#
# Compressibility (1/GPa) = 0.01818371
#
# Stress axis : x y z
#
# Youngs Moduli (GPa) = 63.96115 70.31983 53.55038
#
# Poissons Ratio (x) = 0.22013 0.29254
# Poissons Ratio (y) = 0.20022 0.35234
# Poissons Ratio (z) = 0.34941 0.46267
#
# Static dielectric constant tensor:
#      x y z
#    x 1.696110 0.000000 0.000000 
#    y 0.000000 1.650380 0.000000 
#    z 0.000000 0.000000 1.572030 
# 
# From -- ./inp_files/1724.got.cif
#   From: 2010.05.17/outbox.cif.g08.bks.cpg/sg25_1_cif.got.tgz:1724.got - 2010.06.04 01:04:00.
