data_PCOD9337601
_publ_section_title
;
Structure prediction by ZEFSAII (Michael W. Deem and Ramdas Pophale) SiO2 
 PCOD9337601
Probable space group: P M M 2
;
_chemical_formula_sum "Si O2"
_cell_formula_units_Z 32
_cell_length_a 8.593259
_cell_length_b 15.131176
_cell_length_c 12.660785
_cell_angle_alpha 90.000000
_cell_angle_beta 90.000000
_cell_angle_gamma 90.000000
_cell_volume 1646.232678
_symmetry_space_group_name_H-M "P M M 2"
_symmetry_group_IT_number 25
_symmetry_cell_setting 'orthorhombic'
loop_
_space_group_symop_operation_xyz
x,y,z
-x,-y,z
-x,y,z
x,-y,z
loop_
_atom_site_type_symbol
_atom_site_label
_atom_site_fract_x
_atom_site_fract_y
_atom_site_fract_z
Si Si1 0.318251 0.159220 0.309310
Si Si2 0.186496 0.595552 0.139393
Si Si3 0.315460 0.776841 0.687679
Si Si4 0.186900 0.402775 0.610040
Si Si5 0.688619 0.897141 0.883551
Si Si6 0.815839 0.096323 0.516604
Si Si7 0.185514 0.343587 0.373725
Si Si8 0.812758 0.207252 0.085713
O O1 0.500000 0.138802 0.303642
O O2 0.233027 0.099236 0.394825
O O3 0.287825 0.257130 0.355627
O O4 0.243747 0.161469 0.193730
O O5 0.248654 0.500000 0.101918
O O6 0.207802 0.601228 0.266453
O O7 0.242380 0.689328 0.091482
O O8 0.000000 0.594951 0.121731
O O9 0.500000 0.770813 0.695726
O O10 0.248738 0.678542 0.678201
O O11 0.257800 0.838081 0.783918
O O12 0.269358 0.828184 0.581438
O O13 0.243664 0.500000 0.642033
O O14 0.223518 0.387639 0.485503
O O15 0.000000 0.401922 0.617066
O O16 0.500000 0.897632 0.883825
O O17 0.739409 0.000000 0.878234
O O18 0.747786 0.847222 0.987576
O O19 0.000000 0.109790 0.525191
O O20 0.774801 0.000000 0.561389
O O21 0.000000 0.319524 0.376496
O O22 0.000000 0.208051 0.083703
#
# Coordination Sequence:
#
# PCOD9337601 Si02
#       8
#     4   4   4   4   4   4   4   4
#     4  11  21  34  55  83 120 160 193 233 291 354
#     4   8  14  27  50  81 115 151 189 227 274 331
#     4  11  23  40  62  87 118 153 193 247 304 358
#     4  10  20  34  56  86 121 162 203 242 288 345
#     4  10  23  44  66  85 109 147 195 245 301 364
#     4  11  23  38  58  85 117 153 194 242 296 357
#     4   9  16  29  51  79 115 156 199 242 280 330
#     4  10  21  37  60  88 117 149 192 246 294 343
#
# _framework density 19.438321999999999
#
# number of rings (size 3 to 8) (size 9 to 14) (size 15 to 20)
#    0.000    2.000    1.250    3.750    0.000    5.000 
#    0.000    0.625    0.000   14.625    0.000    0.000 
#    0.000    0.000    0.000    0.000    0.000    0.000 
#
# Total GULP energy -178541.292354 kJ/mol
# GULP energy per Si atom -5579.415386 kJ/mol
# Density = 1.939408 g / cm^3
# Si number density = 19.438322 Si / 1000 Ang^3
#
#
#
# Elastic Constant Matrix: (Units=GPa)
#
#
# Indices 1 2 3 4 5 6 
#
# 1 12.9721 19.1712 9.6968 0.0000 0.0000 0.0000
# 2 19.1712 149.1563 66.8811 0.0000 0.0000 0.0000
# 3 9.6968 66.8811 108.2340 0.0000 0.0000 0.0000
# 4 0.0000 0.0000 0.0000 18.6613 0.0000 0.0000
# 5 0.0000 0.0000 0.0000 0.0000 54.8707 0.0000
# 6 0.0000 0.0000 0.0000 0.0000 0.0000 26.1853
#
#
#
# Elastic Compliance Matrix: (Units=1/GPa)
#
#
# Indices 1 2 3 4 5 6 
#
# 1 0.095306 -0.011649 -0.001340 0.000000 0.000000 0.000000
# 2 -0.011649 0.010698 -0.005567 0.000000 0.000000 0.000000
# 3 -0.001340 -0.005567 0.012799 0.000000 0.000000 0.000000
# 4 0.000000 0.000000 0.000000 0.053587 0.000000 0.000000
# 5 0.000000 0.000000 0.000000 0.000000 0.018225 0.000000
# 6 0.000000 0.000000 0.000000 0.000000 0.000000 0.038189
#
#
# Mechanical properties :
#
#
# Convention : Reuss Voigt Hill
#
# Bulk Modulus (GPa) = 12.24122 51.31785 31.77953
# Shear Modulus (GPa) = 17.05631 31.58435 24.32033
#
# Velocity S-wave (km/s) = 2.96540 4.03532 3.54100
# Velocity P-wave (km/s) = 4.24688 6.94041 5.75349
#
# Compressibility (1/GPa) = 0.08169123
#
# Stress axis : x y z
#
# Youngs Moduli (GPa) = 10.49248 93.47744 78.12951
#
# Poissons Ratio (x) = 1.08890 0.10473
# Poissons Ratio (y) = 0.12222 0.43494
# Poissons Ratio (z) = 0.01406 0.52038
#
# Static dielectric constant tensor:
#      x y z
#    x 1.654220 0.000000 0.000000 
#    y 0.000000 1.714570 0.000000 
#    z 0.000000 0.000000 1.671200 
# 
# From -- ./inp_files/4290.got.cif
#   From: 2010.05.17/outbox.cif.g08.bks.cpg/sg25_3_cif.got.tgz:4290.got - 2010.06.04 01:04:00.
