data_PCOD9337238
_publ_section_title
;
Structure prediction by ZEFSAII (Michael W. Deem and Ramdas Pophale) SiO2 
 PCOD9337238
Probable space group: P M M 2
;
_chemical_formula_sum "Si O2"
_cell_formula_units_Z 32
_cell_length_a 7.290455
_cell_length_b 36.781521
_cell_length_c 5.370378
_cell_angle_alpha 90.000000
_cell_angle_beta 90.000000
_cell_angle_gamma 90.000000
_cell_volume 1440.088469
_symmetry_space_group_name_H-M "P M M 2"
_symmetry_group_IT_number 25
_symmetry_cell_setting 'orthorhombic'
loop_
_space_group_symop_operation_xyz
x,y,z
-x,-y,z
-x,y,z
x,-y,z
loop_
_atom_site_type_symbol
_atom_site_label
_atom_site_fract_x
_atom_site_fract_y
_atom_site_fract_z
Si Si1 0.781608 0.332491 0.695880
Si Si2 0.724141 0.457869 0.196315
Si Si3 0.776373 0.083455 0.696161
Si Si4 0.718264 0.418436 0.696319
Si Si5 0.224320 0.292921 0.195887
Si Si6 0.223665 0.832597 0.696555
Si Si7 0.223635 0.041970 0.196165
Si Si8 0.223468 0.791176 0.196557
O O1 0.749494 0.375449 0.696192
O O2 0.713303 0.313596 0.444142
O O3 0.000000 0.326988 0.695840
O O4 0.713294 0.313529 0.947383
O O5 0.500000 0.457146 0.196324
O O6 0.778052 0.500000 0.196238
O O7 0.787006 0.437304 0.444741
O O8 0.787005 0.437284 0.947963
O O9 0.719033 0.125427 0.696289
O O10 0.718498 0.062723 0.446124
O O11 0.000000 0.083316 0.696150
O O12 0.718505 0.062704 0.946128
O O13 0.500000 0.424126 0.696334
O O14 0.279615 0.250845 0.196244
O O15 0.000000 0.293460 0.195850
O O16 0.281694 0.811834 0.446715
O O17 0.000000 0.832443 0.696563
O O18 0.281689 0.811891 0.946613
O O19 0.000000 0.042104 0.196168
O O20 0.281030 0.000000 0.196237
O O21 0.000000 0.791465 0.196576
#
# Coordination Sequence:
#
# PCOD9337238 Si02
#       8
#     4   4   4   4   4   4   4   4
#     4  10  19  31  46  64  88 116 143 172 208 248
#     4   9  17  30  49  71  92 115 145 179 212 247
#     4   9  15  21  27  36  49  65  89 122 166 217
#     4  10  19  31  49  71  92 115 145 179 212 247
#     4   9  17  28  42  59  79 106 137 165 195 240
#     4   9  15  21  30  43  59  78 100 135 180 223
#     4   9  15  21  27  33  43  62  89 122 161 212
#     4   9  15  23  34  48  65  85 112 143 177 220
#
# _framework density 22.220858
#
# number of rings (size 3 to 8) (size 9 to 14) (size 15 to 20)
#    0.000    2.750    0.000    3.000    0.000    9.000 
#    0.000    0.000    0.000    2.250    0.000    0.000 
#    0.000    0.000    0.000    0.000    0.000    0.000 
#
# Total GULP energy -178942.023801 kJ/mol
# GULP energy per Si atom -5591.938244 kJ/mol
# Density = 2.217028 g / cm^3
# Si number density = 22.220858 Si / 1000 Ang^3
#
#
#
# Elastic Constant Matrix: (Units=GPa)
#
#
# Indices 1 2 3 4 5 6 
#
# 1 94.8196 0.7692 11.3800 0.0000 0.0000 0.0000
# 2 0.7692 273.8903 188.9335 0.0000 0.0000 0.0000
# 3 11.3800 188.9335 301.6258 0.0000 0.0000 0.0000
# 4 0.0000 0.0000 0.0000 33.4156 0.0000 0.0000
# 5 0.0000 0.0000 0.0000 0.0000 -22.9744 0.0000
# 6 0.0000 0.0000 0.0000 0.0000 0.0000 13.0299
#
#
#
# Elastic Compliance Matrix: (Units=1/GPa)
#
#
# Indices 1 2 3 4 5 6 
#
# 1 0.010624 0.000434 -0.000673 0.000000 0.000000 0.000000
# 2 0.000434 0.006447 -0.004055 0.000000 0.000000 0.000000
# 3 -0.000673 -0.004055 0.005880 0.000000 0.000000 0.000000
# 4 0.000000 0.000000 0.000000 0.029926 0.000000 0.000000
# 5 0.000000 0.000000 0.000000 0.000000 -0.043527 0.000000
# 6 0.000000 0.000000 0.000000 0.000000 0.000000 0.076746
#
#
# Mechanical properties :
#
#
# Convention : Reuss Voigt Hill
#
# Bulk Modulus (GPa) = 69.61549 119.16678 94.39114
# Shear Modulus (GPa) = 50.26593 35.97776 43.12185
#
# Velocity S-wave (km/s) = 4.76132 4.02817 4.41001
# Velocity P-wave (km/s) = 7.85008 8.68214 8.27658
#
# Compressibility (1/GPa) = 0.01436462
#
# Stress axis : x y z
#
# Youngs Moduli (GPa) = 94.13028 155.11701 170.05535
#
# Poissons Ratio (x) = -0.06737 0.11442
# Poissons Ratio (y) = -0.04088 0.68949
# Poissons Ratio (z) = 0.06334 0.62893
#
# Static dielectric constant tensor:
#      x y z
#    x 1.929280 0.000000 0.000000 
#    y 0.000000 1.737080 0.000000 
#    z 0.000000 0.000000 1.758180 
# 
# From -- ./inp_files/378.got.cif
#   From: 2010.05.17/outbox.cif.g08.bks.cpg/sg25_1_cif.got.tgz:378.got - 2010.06.04 01:04:00.
