data_PCOD9337816
_publ_section_title
;
Structure prediction by ZEFSAII (Michael W. Deem and Ramdas Pophale) SiO2 
 PCOD9337816
Probable space group: P M M 2
;
_chemical_formula_sum "Si O2"
_cell_formula_units_Z 22
_cell_length_a 9.811930
_cell_length_b 7.681281
_cell_length_c 14.024318
_cell_angle_alpha 90.000000
_cell_angle_beta 90.000000
_cell_angle_gamma 90.000000
_cell_volume 1056.987484
_symmetry_space_group_name_H-M "P M M 2"
_symmetry_group_IT_number 25
_symmetry_cell_setting 'orthorhombic'
loop_
_space_group_symop_operation_xyz
x,y,z
-x,-y,z
-x,y,z
x,-y,z
loop_
_atom_site_type_symbol
_atom_site_label
_atom_site_fract_x
_atom_site_fract_y
_atom_site_fract_z
Si Si1 0.714010 0.193048 0.668280
Si Si2 0.841979 0.710747 0.258021
Si Si3 0.000000 0.701509 0.753022
Si Si4 0.285990 0.806952 0.065479
Si Si5 0.500000 0.500000 0.707678
Si Si6 0.500000 0.500000 0.026080
Si Si7 0.158021 0.289253 0.475738
Si Si8 0.000000 0.701509 0.980738
O O1 0.862833 0.213320 0.714782
O O2 0.618137 0.346799 0.704098
O O3 0.741726 0.216262 0.555100
O O4 0.661565 0.000000 0.688000
O O5 0.836278 0.500000 0.253007
O O6 0.741725 0.783737 0.178658
O O7 0.810124 0.761377 0.366879
O O8 0.000000 0.760764 0.238852
O O9 0.000000 0.500000 0.720064
O O10 0.000000 0.705560 0.866880
O O11 0.381863 0.653201 0.029660
O O12 0.137167 0.786680 0.018977
O O13 0.338435 0.000000 0.045759
O O14 0.163723 0.500000 0.480751
O O15 0.000000 0.239237 0.494906
O O16 0.000000 0.500000 0.013695
#
# Coordination Sequence:
#
# PCOD9337816 Si02
#       8
#     4   4   2   4   1   1   4   2
#     4  12  24  42  68  98 131 171 218 270 322 380
#     4   9  17  33  61  94 129 168 212 267 324 375
#     4  11  23  45  76 102 130 165 208 270 333 383
#     4  12  24  42  68  98 131 171 218 270 322 380
#     4  12  26  46  64  88 140 180 220 254 322 396
#     4  12  26  46  64  88 140 180 220 254 322 396
#     4   9  17  33  61  94 129 168 212 267 324 375
#     4  11  23  45  76 102 130 165 208 270 333 383
#
# _framework density 20.813869
#
# number of rings (size 3 to 8) (size 9 to 14) (size 15 to 20)
#    0.000    1.273    5.455    2.182    0.000    2.182 
#    0.000    5.455    0.000    4.364    0.000    0.000 
#    0.000    0.000    0.000    0.000    0.000    0.000 
#
# Total GULP energy -122484.614736 kJ/mol
# GULP energy per Si atom -5567.482488 kJ/mol
# Density = 2.076650 g / cm^3
# Si number density = 20.813869 Si / 1000 Ang^3
#
#
#
# Elastic Constant Matrix: (Units=GPa)
#
#
# Indices 1 2 3 4 5 6 
#
# 1 125.2995 58.6167 12.6615 0.0000 0.0000 0.0000
# 2 58.6167 181.9085 11.0400 0.0000 0.0000 0.0000
# 3 12.6615 11.0400 39.0663 0.0000 0.0000 0.0000
# 4 0.0000 0.0000 0.0000 32.3984 0.0000 0.0000
# 5 0.0000 0.0000 0.0000 0.0000 10.9505 0.0000
# 6 0.0000 0.0000 0.0000 0.0000 0.0000 -24.1312
#
#
#
# Elastic Compliance Matrix: (Units=1/GPa)
#
#
# Indices 1 2 3 4 5 6 
#
# 1 0.009592 -0.002953 -0.002274 0.000000 0.000000 0.000000
# 2 -0.002953 0.006502 -0.000880 0.000000 0.000000 0.000000
# 3 -0.002274 -0.000880 0.026583 0.000000 0.000000 0.000000
# 4 0.000000 0.000000 0.000000 0.030866 0.000000 0.000000
# 5 0.000000 0.000000 0.000000 0.000000 0.091320 0.000000
# 6 0.000000 0.000000 0.000000 0.000000 0.000000 -0.041440
#
#
# Mechanical properties :
#
#
# Convention : Reuss Voigt Hill
#
# Bulk Modulus (GPa) = 32.82738 56.76787 44.79762
# Shear Modulus (GPa) = 34.29515 21.44061 27.86788
#
# Velocity S-wave (km/s) = 4.06360 3.21302 3.66308
# Velocity P-wave (km/s) = 6.15006 6.41076 6.28176
#
# Compressibility (1/GPa) = 0.03046238
#
# Stress axis : x y z
#
# Youngs Moduli (GPa) = 104.25267 153.79403 37.61737
#
# Poissons Ratio (x) = 0.45413 0.08556
# Poissons Ratio (y) = 0.30784 0.03312
# Poissons Ratio (z) = 0.23711 0.13541
#
# Static dielectric constant tensor:
#      x y z
#    x 1.694200 0.000000 0.000000 
#    y 0.000000 1.760480 0.000000 
#    z 0.000000 0.000000 1.770150 
# 
# From -- ./inp_files/5412.got.cif
#   From: 2010.05.17/outbox.cif.g08.bks.cpg/sg25_3_cif.got.tgz:5412.got - 2010.06.04 01:04:00.
