data_PCOD9337010
_publ_section_title
;
Structure prediction by ZEFSAII (Michael W. Deem and Ramdas Pophale) SiO2 
 PCOD9337010
Probable space group: I 21 21 21
;
_chemical_formula_sum "Si O2"
_cell_formula_units_Z 20
_cell_length_a 6.575651
_cell_length_b 24.572453
_cell_length_c 4.453681
_cell_angle_alpha 90.000000
_cell_angle_beta 90.000000
_cell_angle_gamma 90.000000
_cell_volume 719.625220
_symmetry_space_group_name_H-M "I 21 21 21"
_symmetry_group_IT_number 24
_symmetry_cell_setting 'orthorhombic'
loop_
_space_group_symop_operation_xyz
x,y,z
-x,1/2-y,z
x,-y,1/2-z
1/2-x,y,-z
1/2+x,1/2+y,1/2+z
1/2-x,-y,1/2+z
1/2+x,1/2-y,-z
-x,1/2+y,1/2-z
loop_
_atom_site_type_symbol
_atom_site_label
_atom_site_fract_x
_atom_site_fract_y
_atom_site_fract_z
Si Si1 0.250000 0.539788 0.500000
Si Si2 0.891541 0.199249 0.738201
Si Si3 0.603598 0.612573 0.777352
O O1 0.160371 0.500000 0.750000
O O2 0.427948 0.575462 0.644907
O O3 0.750000 0.229683 0.500000
O O4 0.493011 0.157108 0.486379
O O5 0.000000 0.250000 0.892602
O O6 0.750000 0.174144 0.000000
O O7 0.750000 0.633447 0.500000
O O8 0.750000 0.579728 0.000000
#
# Coordination Sequence:
#
# PCOD9337010 Si02
#       3
#     4   8   8
#     4  12  30  58  92 130 178 228 298 384 456 524
#     4  12  28  51  81 126 184 236 297 363 439 537
#     4  12  29  55  90 130 176 239 301 370 451 546
#
# _framework density 27.792245999999999
#
# number of rings (size 3 to 8) (size 9 to 14) (size 15 to 20)
#    0.000    0.000    0.000    7.200   11.200    6.400 
#    0.000    0.000    0.000    0.000    0.000    0.000 
#    0.000    0.000    0.000    0.000    0.000    0.000 
#
# Total GULP energy -55865.468527 kJ/mol
# GULP energy per Si atom -5586.546853 kJ/mol
# Density = 2.772899 g / cm^3
# Si number density = 27.792246 Si / 1000 Ang^3
#
#
#
# Elastic Constant Matrix: (Units=GPa)
#
#
# Indices 1 2 3 4 5 6 
#
# 1 164.4346 109.6369 117.5306 -0.0045 -0.0024 0.0010
# 2 109.6369 168.5404 99.3969 0.0045 -0.0002 -0.0006
# 3 117.5306 99.3969 242.6477 -0.0609 0.0432 -0.0092
# 4 -0.0045 0.0045 -0.0609 46.1104 -0.0086 0.0034
# 5 -0.0024 -0.0002 0.0432 -0.0086 110.7884 -0.0060
# 6 0.0010 -0.0006 -0.0092 0.0034 -0.0060 25.4155
#
#
#
# Elastic Compliance Matrix: (Units=1/GPa)
#
#
# Indices 1 2 3 4 5 6 
#
# 1 0.012833 -0.006174 -0.003687 -0.000003 0.000002 -0.000002
# 2 -0.006174 0.010793 -0.001431 -0.000004 0.000000 0.000000
# 3 -0.003687 -0.001431 0.006493 0.000008 -0.000003 0.000002
# 4 -0.000003 -0.000004 0.000008 0.021687 0.000002 -0.000003
# 5 0.000002 0.000000 -0.000003 0.000002 0.009026 0.000002
# 6 -0.000002 0.000000 0.000002 -0.000003 0.000002 0.039346
#
#
# Mechanical properties :
#
#
# Convention : Reuss Voigt Hill
#
# Bulk Modulus (GPa) = 132.69035 136.52795 134.60915
# Shear Modulus (GPa) = 39.91258 53.06675 46.48967
#
# Velocity S-wave (km/s) = 3.79371 4.37442 4.09437
# Velocity P-wave (km/s) = 8.18761 8.64553 8.41968
#
# Compressibility (1/GPa) = 0.00753634
#
# Stress axis : x y z
#
# Youngs Moduli (GPa) = 77.92455 92.65126 154.00662
#
# Poissons Ratio (x) = 0.57199 0.56782
# Poissons Ratio (y) = 0.48107 0.22038
# Poissons Ratio (z) = 0.28730 0.13258
#
# Static dielectric constant tensor:
#      x y z
#    x 2.573450 0.000010 -0.000030 
#    y 0.000010 2.043910 0.000030 
#    z -0.000030 0.000030 2.206240 
# 
# From -- ./inp_files/313.got.cif
#   From: 2010.05.17/outbox.cif.g08.bks.cpg/sg24_1_cif.got.tgz:313.got - 2010.06.04 00:33:39.
