data_PCOD9337857
_publ_section_title
;
Structure prediction by ZEFSAII (Michael W. Deem and Ramdas Pophale) SiO2 
 PCOD9337857
Probable space group: P M M 2
;
_chemical_formula_sum "Si O2"
_cell_formula_units_Z 28
_cell_length_a 7.487525
_cell_length_b 9.344646
_cell_length_c 19.148941
_cell_angle_alpha 90.000000
_cell_angle_beta 90.000000
_cell_angle_gamma 90.000000
_cell_volume 1339.818284
_symmetry_space_group_name_H-M "P M M 2"
_symmetry_group_IT_number 25
_symmetry_cell_setting 'orthorhombic'
loop_
_space_group_symop_operation_xyz
x,y,z
-x,-y,z
-x,y,z
x,-y,z
loop_
_atom_site_type_symbol
_atom_site_label
_atom_site_fract_x
_atom_site_fract_y
_atom_site_fract_z
Si Si1 0.288253 0.836902 0.656900
Si Si2 0.718057 0.164572 0.384712
Si Si3 0.718686 0.335621 0.522616
Si Si4 0.711747 0.836902 0.112525
Si Si5 0.281314 0.664379 0.246808
Si Si6 0.785454 0.833448 0.959735
Si Si7 0.785454 0.833449 0.809690
O O1 0.500000 0.848798 0.646181
O O2 0.219541 0.741643 0.593459
O O3 0.264475 0.772397 0.734432
O O4 0.214997 0.000000 0.655842
O O5 0.500000 0.164041 0.384713
O O6 0.774250 0.247216 0.454459
O O7 0.774250 0.247217 0.314966
O O8 0.775992 0.000000 0.384712
O O9 0.500000 0.336036 0.522929
O O10 0.775729 0.500000 0.519125
O O11 0.500000 0.848800 0.123245
O O12 0.780459 0.741644 0.175966
O O13 0.785004 0.000000 0.113583
O O14 0.735523 0.772397 0.034993
O O15 0.500000 0.663963 0.246496
O O16 0.224270 0.500000 0.250299
O O17 0.724329 0.772146 0.884712
O O18 0.000000 0.834331 0.958170
O O19 0.724852 0.000000 0.961159
O O20 0.000000 0.834335 0.811255
O O21 0.724848 0.000000 0.808265
#
# Coordination Sequence:
#
# PCOD9337857 Si02
#       7
#     4   4   4   4   4   4   4
#     4   9  16  25  39  61  86 109 137 175 213 246
#     4   9  15  23  37  57  82 111 142 175 208 242
#     4   9  16  25  37  55  82 114 143 170 205 250
#     4   9  16  25  39  61  86 109 137 175 213 246
#     4   9  16  25  37  55  82 114 143 170 205 250
#     4   8  14  25  41  61  84 109 138 173 212 252
#     4   8  14  25  41  61  84 109 138 173 212 252
#
# _framework density 20.898358000000002
#
# number of rings (size 3 to 8) (size 9 to 14) (size 15 to 20)
#    0.000    3.286    0.000    2.143    0.000    5.714 
#    0.000    2.857    0.000    1.714    0.000    7.000 
#    0.000    8.000    0.000    0.000    0.000    0.000 
#
# Total GULP energy -156058.184329 kJ/mol
# GULP energy per Si atom -5573.506583 kJ/mol
# Density = 2.085079 g / cm^3
# Si number density = 20.898358 Si / 1000 Ang^3
#
#
#
# Elastic Constant Matrix: (Units=GPa)
#
#
# Indices 1 2 3 4 5 6 
#
# 1 54.6540 5.0348 2.4289 0.0000 0.0000 0.0000
# 2 5.0348 117.4566 112.7639 0.0000 0.0000 0.0000
# 3 2.4289 112.7639 267.0965 0.0000 0.0000 0.0000
# 4 0.0000 0.0000 0.0000 -9.1811 0.0000 0.0000
# 5 0.0000 0.0000 0.0000 0.0000 45.9278 0.0000
# 6 0.0000 0.0000 0.0000 0.0000 0.0000 -3.6684
#
#
#
# Elastic Compliance Matrix: (Units=1/GPa)
#
#
# Indices 1 2 3 4 5 6 
#
# 1 0.018382 -0.001055 0.000278 0.000000 0.000000 0.000000
# 2 -0.001055 0.014377 -0.006060 0.000000 0.000000 0.000000
# 3 0.000278 -0.006060 0.006300 0.000000 0.000000 0.000000
# 4 0.000000 0.000000 0.000000 -0.108920 0.000000 0.000000
# 5 0.000000 0.000000 0.000000 0.000000 0.021773 0.000000
# 6 0.000000 0.000000 0.000000 0.000000 0.000000 -0.272596
#
#
# Mechanical properties :
#
#
# Convention : Reuss Voigt Hill
#
# Bulk Modulus (GPa) = 39.39368 75.51803 57.45586
# Shear Modulus (GPa) = -16.74774 27.88096 5.56661
#
# Velocity S-wave (km/s) = -2.83395 3.65653 1.63384
# Velocity P-wave (km/s) = 2.86053 7.35127 5.57781
#
# Compressibility (1/GPa) = 0.02538478
#
# Stress axis : x y z
#
# Youngs Moduli (GPa) = 54.40178 69.55519 158.73150
#
# Poissons Ratio (x) = 0.07339 -0.04417
# Poissons Ratio (y) = 0.05740 0.96194
# Poissons Ratio (z) = -0.01514 0.42152
#
# Static dielectric constant tensor:
#      x y z
#    x 1.792120 0.000000 0.000000 
#    y 0.000000 1.702430 0.000000 
#    z 0.000000 0.000000 1.773770 
# 
# From -- ./inp_files/6336.got.cif
#   From: 2010.05.17/outbox.cif.g08.bks.cpg/sg25_4_cif.got.tgz:6336.got - 2010.06.04 01:04:00.
