data_PCOD9337290
_publ_section_title
;
Structure prediction by ZEFSAII (Michael W. Deem and Ramdas Pophale) SiO2 
 PCOD9337290
Probable space group: P M M 2
;
_chemical_formula_sum "Si O2"
_cell_formula_units_Z 32
_cell_length_a 29.982364
_cell_length_b 9.860793
_cell_length_c 5.423619
_cell_angle_alpha 90.000000
_cell_angle_beta 90.000000
_cell_angle_gamma 90.000000
_cell_volume 1603.492334
_symmetry_space_group_name_H-M "P M M 2"
_symmetry_group_IT_number 25
_symmetry_cell_setting 'orthorhombic'
loop_
_space_group_symop_operation_xyz
x,y,z
-x,-y,z
-x,y,z
x,-y,z
loop_
_atom_site_type_symbol
_atom_site_label
_atom_site_fract_x
_atom_site_fract_y
_atom_site_fract_z
Si Si1 0.308645 0.843438 0.645660
Si Si2 0.137035 0.847116 0.578460
Si Si3 0.814112 0.652213 0.896560
Si Si4 0.903591 0.648166 0.185331
Si Si5 0.748753 0.157197 0.148014
Si Si6 0.603500 0.664168 0.631839
Si Si7 0.551139 0.664487 0.131988
Si Si8 0.048181 0.145872 0.912153
O O1 0.277598 0.824293 0.404061
O O2 0.349318 0.739228 0.634677
O O3 0.324556 0.000000 0.635904
O O4 0.282624 0.827573 0.905145
O O5 0.118745 0.754749 0.364233
O O6 0.149384 0.000000 0.510176
O O7 0.179298 0.768057 0.691233
O O8 0.093161 0.856736 0.752951
O O9 0.797480 0.500000 0.831487
O O10 0.865172 0.633267 0.980829
O O11 0.785463 0.725921 0.107274
O O12 0.911973 0.500000 0.294679
O O13 0.946553 0.722091 0.078430
O O14 0.765656 0.000000 0.141412
O O15 0.608829 0.500000 0.631757
O O16 0.576893 0.702867 0.382453
O O17 0.576443 0.702579 0.880012
O O18 0.500000 0.712862 0.133151
O O19 0.549760 0.500000 0.132380
O O20 0.000000 0.151689 0.780615
O O21 0.048719 0.000000 0.050014
#
# Coordination Sequence:
#
# PCOD9337290 Si02
#       8
#     4   4   4   4   4   4   4   4
#     4  10  22  39  57  80 113 150 189 235 289 345
#     4  10  20  35  57  81 107 143 182 223 274 333
#     4  10  22  38  56  80 110 141 177 231 286 335
#     4  10  21  36  54  80 111 141 176 220 280 338
#     4  10  22  39  58  82 109 146 193 235 283 349
#     4  10  19  32  54  80 108 145 189 233 282 339
#     4   9  17  30  51  81 113 145 186 236 284 333
#     4   9  19  36  55  77 105 139 182 225 265 320
#
# _framework density 19.956441000000002
#
# number of rings (size 3 to 8) (size 9 to 14) (size 15 to 20)
#    0.000    2.250    0.000    2.250    1.750    5.250 
#    0.000    1.250    0.000    2.250    0.000    0.000 
#    0.000    0.000    0.000    0.000    0.000    0.000 
#
# Total GULP energy -178264.993237 kJ/mol
# GULP energy per Si atom -5570.781039 kJ/mol
# Density = 1.991102 g / cm^3
# Si number density = 19.956441 Si / 1000 Ang^3
#
#
#
# Elastic Constant Matrix: (Units=GPa)
#
#
# Indices 1 2 3 4 5 6 
#
# 1 97.7297 45.8897 37.0123 0.0000 0.0000 0.0000
# 2 45.8897 131.4811 35.5315 0.0000 0.0000 0.0000
# 3 37.0123 35.5315 99.3138 0.0000 0.0000 0.0000
# 4 0.0000 0.0000 0.0000 -2.6818 0.0000 0.0000
# 5 0.0000 0.0000 0.0000 0.0000 23.9125 0.0000
# 6 0.0000 0.0000 0.0000 0.0000 0.0000 24.6828
#
#
#
# Elastic Compliance Matrix: (Units=1/GPa)
#
#
# Indices 1 2 3 4 5 6 
#
# 1 0.013340 -0.003667 -0.003660 0.000000 0.000000 0.000000
# 2 -0.003667 0.009428 -0.002006 0.000000 0.000000 0.000000
# 3 -0.003660 -0.002006 0.012151 0.000000 0.000000 0.000000
# 4 0.000000 0.000000 0.000000 -0.372890 0.000000 0.000000
# 5 0.000000 0.000000 0.000000 0.000000 0.041819 0.000000
# 6 0.000000 0.000000 0.000000 0.000000 0.000000 0.040514
#
#
# Mechanical properties :
#
#
# Convention : Reuss Voigt Hill
#
# Bulk Modulus (GPa) = 61.52847 62.82130 62.17489
# Shear Modulus (GPa) = -21.59316 23.18877 0.79780
#
# Velocity S-wave (km/s) = -3.29297 3.41246 0.63296
# Velocity P-wave (km/s) = 4.05464 6.86106 5.63535
#
# Compressibility (1/GPa) = 0.01625264
#
# Stress axis : x y z
#
# Youngs Moduli (GPa) = 74.96156 106.07027 82.29913
#
# Poissons Ratio (x) = 0.38896 0.30119
# Poissons Ratio (y) = 0.27488 0.16512
# Poissons Ratio (z) = 0.27434 0.21281
#
# Static dielectric constant tensor:
#      x y z
#    x 1.712640 0.000000 0.000000 
#    y 0.000000 1.797640 0.000000 
#    z 0.000000 0.000000 1.777170 
# 
# From -- ./inp_files/355.got.cif
#   From: 2010.05.17/outbox.cif.g08.bks.cpg/sg25_1_cif.got.tgz:355.got - 2010.06.04 01:04:00.
