data_PCOD9337289
_publ_section_title
;
Structure prediction by ZEFSAII (Michael W. Deem and Ramdas Pophale) SiO2 
 PCOD9337289
Probable space group: P M M 2
;
_chemical_formula_sum "Si O2"
_cell_formula_units_Z 17
_cell_length_a 8.267435
_cell_length_b 7.510626
_cell_length_c 13.577492
_cell_angle_alpha 90.000000
_cell_angle_beta 90.000000
_cell_angle_gamma 90.000000
_cell_volume 843.075524
_symmetry_space_group_name_H-M "P M M 2"
_symmetry_group_IT_number 25
_symmetry_cell_setting 'orthorhombic'
loop_
_space_group_symop_operation_xyz
x,y,z
-x,-y,z
-x,y,z
x,-y,z
loop_
_atom_site_type_symbol
_atom_site_label
_atom_site_fract_x
_atom_site_fract_y
_atom_site_fract_z
Si Si1 0.500000 0.795062 0.579540
Si Si2 0.500000 0.000000 0.388570
Si Si3 0.174375 0.792434 0.667462
Si Si4 0.316166 0.715167 0.870903
Si Si5 0.807319 0.295695 0.082215
Si Si6 0.807023 0.000000 0.245721
O O1 0.500000 0.831106 0.463128
O O2 0.334053 0.711743 0.617704
O O3 0.500000 0.000000 0.621499
O O4 0.666951 0.000000 0.327582
O O5 0.201834 0.783251 0.784668
O O6 0.000000 0.713273 0.642367
O O7 0.169123 0.000000 0.637375
O O8 0.500000 0.766699 0.847304
O O9 0.305136 0.500000 0.870218
O O10 0.272765 0.771548 0.981359
O O11 0.754889 0.500000 0.099788
O O12 0.000000 0.296573 0.064439
O O13 0.779170 0.170344 0.175172
O O14 0.000000 0.000000 0.276000
#
# Coordination Sequence:
#
# PCOD9337289 Si02
#       6
#     2   1   4   4   4   2
#     4   8  18  36  52  77 109 128 178 230 275 325
#     4  10  22  38  60  84 106 138 182 240 300 334
#     4  10  19  32  54  80 106 144 181 215 266 323
#     4  10  20  32  50  79 116 153 186 219 264 327
#     4   9  19  36  55  80 118 155 187 229 276 328
#     4  10  22  38  59  87 110 143 195 238 281 344
#
# _framework density 20.164266000000001
#
# number of rings (size 3 to 8) (size 9 to 14) (size 15 to 20)
#    0.353    2.118    1.176    0.706    3.294    2.353 
#    0.000    0.000    0.000    2.824    0.000    3.294 
#    0.000    0.000    0.000    0.000    0.000    0.000 
#
# Total GULP energy -94789.986674 kJ/mol
# GULP energy per Si atom -5575.881569 kJ/mol
# Density = 2.011837 g / cm^3
# Si number density = 20.164266 Si / 1000 Ang^3
#
#
#
# Elastic Constant Matrix: (Units=GPa)
#
#
# Indices 1 2 3 4 5 6 
#
# 1 170.7479 21.2382 75.3284 0.0000 0.0000 0.0000
# 2 21.2382 63.2121 15.1895 0.0000 0.0000 0.0000
# 3 75.3284 15.1895 99.3945 0.0000 0.0000 0.0000
# 4 0.0000 0.0000 0.0000 108.0980 0.0000 0.0000
# 5 0.0000 0.0000 0.0000 0.0000 4.1377 0.0000
# 6 0.0000 0.0000 0.0000 0.0000 0.0000 4.4266
#
#
#
# Elastic Compliance Matrix: (Units=1/GPa)
#
#
# Indices 1 2 3 4 5 6 
#
# 1 0.008920 -0.001425 -0.006543 0.000000 0.000000 0.000000
# 2 -0.001425 0.016650 -0.001465 0.000000 0.000000 0.000000
# 3 -0.006543 -0.001465 0.015243 0.000000 0.000000 0.000000
# 4 0.000000 0.000000 0.000000 0.009251 0.000000 0.000000
# 5 0.000000 0.000000 0.000000 0.000000 0.241683 0.000000
# 6 0.000000 0.000000 0.000000 0.000000 0.000000 0.225907
#
#
# Mechanical properties :
#
#
# Convention : Reuss Voigt Hill
#
# Bulk Modulus (GPa) = 45.55901 61.87409 53.71655
# Shear Modulus (GPa) = 9.19396 38.10568 23.64982
#
# Velocity S-wave (km/s) = 2.13762 4.35186 3.42842
# Velocity P-wave (km/s) = 5.36056 7.48353 6.50918
#
# Compressibility (1/GPa) = 0.02194955
#
# Stress axis : x y z
#
# Youngs Moduli (GPa) = 112.10485 60.05845 65.60285
#
# Poissons Ratio (x) = 0.08558 0.42922
# Poissons Ratio (y) = 0.15974 0.09608
# Poissons Ratio (z) = 0.73346 0.08796
#
# Static dielectric constant tensor:
#      x y z
#    x 1.756240 0.000000 0.000000 
#    y 0.000000 1.732330 0.000000 
#    z 0.000000 0.000000 1.676070 
# 
# From -- ./inp_files/3721.got.cif
#   From: 2010.05.17/outbox.cif.g08.bks.cpg/sg25_2_cif.got.tgz:3721.got - 2010.06.04 01:04:00.
