data_PCOD9337403
_publ_section_title
;
Structure prediction by ZEFSAII (Michael W. Deem and Ramdas Pophale) SiO2 
 PCOD9337403
Probable space group: P M M 2
;
_chemical_formula_sum "Si O2"
_cell_formula_units_Z 32
_cell_length_a 9.496013
_cell_length_b 18.003691
_cell_length_c 11.385224
_cell_angle_alpha 90.000000
_cell_angle_beta 90.000000
_cell_angle_gamma 90.000000
_cell_volume 1946.455282
_symmetry_space_group_name_H-M "P M M 2"
_symmetry_group_IT_number 25
_symmetry_cell_setting 'orthorhombic'
loop_
_space_group_symop_operation_xyz
x,y,z
-x,-y,z
-x,y,z
x,-y,z
loop_
_atom_site_type_symbol
_atom_site_label
_atom_site_fract_x
_atom_site_fract_y
_atom_site_fract_z
Si Si1 0.657754 0.694669 0.369740
Si Si2 0.750664 0.820530 0.197755
Si Si3 0.170239 0.586450 0.215836
Si Si4 0.668286 0.196344 0.578091
Si Si5 0.160123 0.912514 0.417950
Si Si6 0.170940 0.800869 0.823035
Si Si7 0.339834 0.912430 0.978056
Si Si8 0.840905 0.696167 0.024233
O O1 0.500000 0.664194 0.373359
O O2 0.661610 0.763401 0.277192
O O3 0.764473 0.633200 0.322510
O O4 0.692906 0.732271 0.494031
O O5 0.828554 0.872172 0.291791
O O6 0.841394 0.764733 0.116897
O O7 0.672054 0.872566 0.104633
O O8 0.206928 0.500000 0.218610
O O9 0.223033 0.627815 0.096788
O O10 0.000000 0.593055 0.218760
O O11 0.500000 0.189062 0.596080
O O12 0.730530 0.126885 0.504969
O O13 0.754681 0.203013 0.697806
O O14 0.000000 0.902188 0.462216
O O15 0.187255 0.000000 0.406214
O O16 0.229590 0.873003 0.891595
O O17 0.000000 0.801911 0.816513
O O18 0.219251 0.731508 0.905668
O O19 0.500000 0.901752 0.933955
O O20 0.313283 0.000000 0.989140
O O21 0.000000 0.674401 0.995533
#
# Coordination Sequence:
#
# PCOD9337403 Si02
#       8
#     4   4   4   4   4   4   4   4
#     4   9  18  31  49  73  98 126 160 196 234 280
#     4   9  16  29  48  70  96 125 158 197 241 289
#     4   9  17  30  51  79 108 132 151 179 226 283
#     4  10  21  36  52  69  92 126 167 208 249 291
#     4  10  20  32  48  71  97 126 162 206 254 300
#     4  10  20  34  52  70  90 123 166 209 248 285
#     4  10  20  32  47  68  95 127 161 201 250 299
#     4   8  15  28  47  72  98 123 153 188 228 275
#
# _framework density 16.440142000000002
#
# number of rings (size 3 to 8) (size 9 to 14) (size 15 to 20)
#    0.000    2.625    0.000    1.875    0.000    5.750 
#    0.000    0.625    0.000    0.750    0.000    1.750 
#    0.000    0.000    0.000    0.000    0.000    0.000 
#
# Total GULP energy -178134.961165 kJ/mol
# GULP energy per Si atom -5566.717536 kJ/mol
# Density = 1.640272 g / cm^3
# Si number density = 16.440142 Si / 1000 Ang^3
#
#
#
# Elastic Constant Matrix: (Units=GPa)
#
#
# Indices 1 2 3 4 5 6 
#
# 1 69.3150 46.4518 42.5977 0.0000 0.0000 0.0000
# 2 46.4518 113.2100 47.1061 0.0000 0.0000 0.0000
# 3 42.5977 47.1061 112.7305 0.0000 0.0000 0.0000
# 4 0.0000 0.0000 0.0000 12.6523 0.0000 0.0000
# 5 0.0000 0.0000 0.0000 0.0000 20.2218 0.0000
# 6 0.0000 0.0000 0.0000 0.0000 0.0000 18.8527
#
#
#
# Elastic Compliance Matrix: (Units=1/GPa)
#
#
# Indices 1 2 3 4 5 6 
#
# 1 0.022502 -0.006893 -0.005622 0.000000 0.000000 0.000000
# 2 -0.006893 0.012804 -0.002746 0.000000 0.000000 0.000000
# 3 -0.005622 -0.002746 0.012142 0.000000 0.000000 0.000000
# 4 0.000000 0.000000 0.000000 0.079037 0.000000 0.000000
# 5 0.000000 0.000000 0.000000 0.000000 0.049452 0.000000
# 6 0.000000 0.000000 0.000000 0.000000 0.000000 0.053043
#
#
# Mechanical properties :
#
#
# Convention : Reuss Voigt Hill
#
# Bulk Modulus (GPa) = 59.08134 63.06297 61.07215
# Shear Modulus (GPa) = 18.85768 20.95202 19.90485
#
# Velocity S-wave (km/s) = 3.39049 3.57381 3.48335
# Velocity P-wave (km/s) = 7.16537 7.44794 7.30802
#
# Compressibility (1/GPa) = 0.01692582
#
# Stress axis : x y z
#
# Youngs Moduli (GPa) = 44.44106 78.10059 82.35561
#
# Poissons Ratio (x) = 0.53838 0.46303
# Poissons Ratio (y) = 0.30635 0.22611
# Poissons Ratio (z) = 0.24986 0.21443
#
# Static dielectric constant tensor:
#      x y z
#    x 1.569050 0.000000 0.000000 
#    y 0.000000 1.540290 0.000000 
#    z 0.000000 0.000000 1.556350 
# 
# From -- ./inp_files/4420.got.cif
#   From: 2010.05.17/outbox.cif.g08.bks.cpg/sg25_3_cif.got.tgz:4420.got - 2010.06.04 01:04:00.
