data_PCOD9337336
_publ_section_title
;
Structure prediction by ZEFSAII (Michael W. Deem and Ramdas Pophale) SiO2 
 PCOD9337336
Probable space group: P M M 2
;
_chemical_formula_sum "Si O2"
_cell_formula_units_Z 32
_cell_length_a 31.883934
_cell_length_b 8.803034
_cell_length_c 5.476588
_cell_angle_alpha 90.000000
_cell_angle_beta 90.000000
_cell_angle_gamma 90.000000
_cell_volume 1537.143281
_symmetry_space_group_name_H-M "P M M 2"
_symmetry_group_IT_number 25
_symmetry_cell_setting 'orthorhombic'
loop_
_space_group_symop_operation_xyz
x,y,z
-x,-y,z
-x,y,z
x,-y,z
loop_
_atom_site_type_symbol
_atom_site_label
_atom_site_fract_x
_atom_site_fract_y
_atom_site_fract_z
Si Si1 0.229071 0.817802 0.164400
Si Si2 0.629375 0.834819 0.633745
Si Si3 0.189264 0.682856 0.666273
Si Si4 0.391001 0.663490 0.040290
Si Si5 0.048147 0.815508 0.198148
Si Si6 0.309047 0.668478 0.366723
Si Si7 0.453464 0.675683 0.426709
Si Si8 0.096188 0.815194 0.698408
O O1 0.205953 0.752157 0.408607
O O2 0.276834 0.766814 0.213840
O O3 0.224319 0.000000 0.156486
O O4 0.212972 0.746919 0.908360
O O5 0.619971 0.820776 0.917065
O O6 0.674027 0.749897 0.607614
O O7 0.585302 0.762505 0.545632
O O8 0.634085 0.000000 0.528057
O O9 0.192511 0.500000 0.660734
O O10 0.141312 0.737029 0.693375
O O11 0.386576 0.500000 0.902085
O O12 0.354278 0.653216 0.239108
O O13 0.437541 0.669496 0.147124
O O14 0.071205 0.772655 0.450577
O O15 0.000000 0.762253 0.196092
O O16 0.047282 0.000000 0.197485
O O17 0.071951 0.772020 0.948292
O O18 0.291593 0.500000 0.408514
O O19 0.500000 0.738888 0.457277
O O20 0.453849 0.500000 0.508347
O O21 0.100959 0.000000 0.698879
#
# Coordination Sequence:
#
# PCOD9337336 Si02
#       8
#     4   4   4   4   4   4   4   4
#     4  12  26  45  69  98 131 167 218 278 331 389
#     4  11  22  35  55  84 117 150 187 234 295 360
#     4  12  26  45  67  95 133 178 224 269 331 404
#     4   9  19  36  58  82 110 147 191 236 289 357
#     4   9  17  30  54  89 124 162 213 271 327 383
#     4  10  22  41  63  86 115 153 196 246 305 369
#     4   9  19  37  58  79 106 144 192 240 287 349
#     4  10  19  34  58  86 122 166 215 271 324 381
#
# _framework density 20.817834999999999
#
# number of rings (size 3 to 8) (size 9 to 14) (size 15 to 20)
#    0.000    1.750    0.000    5.625    1.750    5.750 
#    0.000    1.250    0.000    2.250    0.000    0.000 
#    0.000    0.000    0.000    0.000    0.000    0.000 
#
# Total GULP energy -178173.678922 kJ/mol
# GULP energy per Si atom -5567.927466 kJ/mol
# Density = 2.077045 g / cm^3
# Si number density = 20.817835 Si / 1000 Ang^3
#
#
#
# Elastic Constant Matrix: (Units=GPa)
#
#
# Indices 1 2 3 4 5 6 
#
# 1 110.1234 13.8866 30.8334 0.0000 0.0000 0.0000
# 2 13.8866 85.8063 18.6738 0.0000 0.0000 0.0000
# 3 30.8334 18.6738 87.8625 0.0000 0.0000 0.0000
# 4 0.0000 0.0000 0.0000 33.6457 0.0000 0.0000
# 5 0.0000 0.0000 0.0000 0.0000 20.9174 0.0000
# 6 0.0000 0.0000 0.0000 0.0000 0.0000 11.5238
#
#
#
# Elastic Compliance Matrix: (Units=1/GPa)
#
#
# Indices 1 2 3 4 5 6 
#
# 1 0.010137 -0.000908 -0.003364 0.000000 0.000000 0.000000
# 2 -0.000908 0.012301 -0.002296 0.000000 0.000000 0.000000
# 3 -0.003364 -0.002296 0.013050 0.000000 0.000000 0.000000
# 4 0.000000 0.000000 0.000000 0.029722 0.000000 0.000000
# 5 0.000000 0.000000 0.000000 0.000000 0.047807 0.000000
# 6 0.000000 0.000000 0.000000 0.000000 0.000000 0.086777
#
#
# Mechanical properties :
#
#
# Convention : Reuss Voigt Hill
#
# Bulk Modulus (GPa) = 44.74010 45.61997 45.18003
# Shear Modulus (GPa) = 22.68805 27.91061 25.29933
#
# Velocity S-wave (km/s) = 3.30485 3.66554 3.48986
# Velocity P-wave (km/s) = 6.00838 6.31477 6.16348
#
# Compressibility (1/GPa) = 0.02235131
#
# Stress axis : x y z
#
# Youngs Moduli (GPa) = 98.64597 81.29589 76.62862
#
# Poissons Ratio (x) = 0.07385 0.25781
# Poissons Ratio (y) = 0.08961 0.17590
# Poissons Ratio (z) = 0.33188 0.18662
#
# Static dielectric constant tensor:
#      x y z
#    x 1.709130 0.000000 0.000000 
#    y 0.000000 1.570960 0.000000 
#    z 0.000000 0.000000 1.896920 
# 
# From -- ./inp_files/1344.got.cif
#   From: 2010.05.17/outbox.cif.g08.bks.cpg/sg25_1_cif.got.tgz:1344.got - 2010.06.04 01:04:00.
