data_PCOD9337123
_publ_section_title
;
Structure prediction by ZEFSAII (Michael W. Deem and Ramdas Pophale) SiO2 
 PCOD9337123
Probable space group: P M M 2
;
_chemical_formula_sum "Si O2"
_cell_formula_units_Z 32
_cell_length_a 14.884644
_cell_length_b 7.683383
_cell_length_c 16.220094
_cell_angle_alpha 90.000000
_cell_angle_beta 90.000000
_cell_angle_gamma 90.000000
_cell_volume 1855.001654
_symmetry_space_group_name_H-M "P M M 2"
_symmetry_group_IT_number 25
_symmetry_cell_setting 'orthorhombic'
loop_
_space_group_symop_operation_xyz
x,y,z
-x,-y,z
-x,y,z
x,-y,z
loop_
_atom_site_type_symbol
_atom_site_label
_atom_site_fract_x
_atom_site_fract_y
_atom_site_fract_z
Si Si1 0.213493 0.209347 0.679700
Si Si2 0.102495 0.709671 0.518057
Si Si3 0.599982 0.209779 0.936794
Si Si4 0.109196 0.298587 0.338975
Si Si5 0.895602 0.286448 0.158943
Si Si6 0.101064 0.793467 0.835716
Si Si7 0.790750 0.704638 0.999433
Si Si8 0.400130 0.787557 0.745529
O O1 0.167242 0.249206 0.593292
O O2 0.153117 0.277405 0.755794
O O3 0.315532 0.272361 0.692318
O O4 0.216746 0.000000 0.687195
O O5 0.097863 0.500000 0.510896
O O6 0.133747 0.777679 0.428157
O O7 0.000000 0.771205 0.534417
O O8 0.500000 0.268961 0.962243
O O9 0.684632 0.266056 0.990192
O O10 0.613964 0.263872 0.841279
O O11 0.599437 0.000000 0.936761
O O12 0.139570 0.500000 0.338704
O O13 0.134340 0.223439 0.249834
O O14 0.000000 0.299908 0.338985
O O15 0.893824 0.500000 0.161923
O O16 0.000000 0.238162 0.145285
O O17 0.834630 0.225224 0.083397
O O18 0.159260 0.772479 0.918053
O O19 0.000000 0.722178 0.844740
O O20 0.093109 0.000000 0.822341
O O21 0.807648 0.500000 0.999915
O O22 0.500000 0.730060 0.720155
O O23 0.401038 0.000000 0.744677
#
# Coordination Sequence:
#
# PCOD9337123 Si02
#       8
#     4   4   4   4   4   4   4   4
#     4  10  18  29  45  63  84 112 147 181 212 252
#     4   9  17  28  43  64  88 113 143 179 217 256
#     4   9  17  32  51  64  80 113 153 186 217 260
#     4   7  11  23  42  60  80 110 146 179 209 250
#     4   8  14  25  41  62  88 117 147 175 209 257
#     4  10  20  32  43  57  85 125 160 180 201 251
#     4  11  20  28  43  68  94 115 141 184 228 260
#     4   8  14  27  47  64  77 102 144 185 212 245
#
# _framework density 17.250658999999999
#
# number of rings (size 3 to 8) (size 9 to 14) (size 15 to 20)
#    0.000    3.000    1.250    3.375    0.000    2.250 
#    0.000    0.000    0.000    1.875    0.000    4.375 
#    0.000    5.000    0.000    0.000    0.000    0.000 
#
# Total GULP energy -178262.467392 kJ/mol
# GULP energy per Si atom -5570.702106 kJ/mol
# Density = 1.721140 g / cm^3
# Si number density = 17.250659 Si / 1000 Ang^3
#
#
#
# Elastic Constant Matrix: (Units=GPa)
#
#
# Indices 1 2 3 4 5 6 
#
# 1 127.1532 2.3671 86.2469 0.0000 0.0000 0.0000
# 2 2.3671 26.9207 0.6329 0.0000 0.0000 0.0000
# 3 86.2469 0.6329 157.3613 0.0000 0.0000 0.0000
# 4 0.0000 0.0000 0.0000 18.4350 0.0000 0.0000
# 5 0.0000 0.0000 0.0000 0.0000 4.6020 0.0000
# 6 0.0000 0.0000 0.0000 0.0000 0.0000 8.7122
#
#
#
# Elastic Compliance Matrix: (Units=1/GPa)
#
#
# Indices 1 2 3 4 5 6 
#
# 1 0.012542 -0.000941 -0.006870 0.000000 0.000000 0.000000
# 2 -0.000941 0.037220 0.000366 0.000000 0.000000 0.000000
# 3 -0.006870 0.000366 0.010119 0.000000 0.000000 0.000000
# 4 0.000000 0.000000 0.000000 0.054245 0.000000 0.000000
# 5 0.000000 0.000000 0.000000 0.000000 0.217297 0.000000
# 6 0.000000 0.000000 0.000000 0.000000 0.000000 0.114781
#
#
# Mechanical properties :
#
#
# Convention : Reuss Voigt Hill
#
# Bulk Modulus (GPa) = 22.22692 54.43654 38.33173
# Shear Modulus (GPa) = 10.50218 21.16240 15.83229
#
# Velocity S-wave (km/s) = 2.47006 3.50631 3.03277
# Velocity P-wave (km/s) = 4.58776 6.92943 5.87642
#
# Compressibility (1/GPa) = 0.04499049
#
# Stress axis : x y z
#
# Youngs Moduli (GPa) = 79.73120 26.86703 98.82554
#
# Poissons Ratio (x) = 0.02529 0.67896
# Poissons Ratio (y) = 0.07505 -0.03619
# Poissons Ratio (z) = 0.54778 -0.00984
#
# Static dielectric constant tensor:
#      x y z
#    x 1.585980 0.000000 0.000000 
#    y 0.000000 1.651490 0.000000 
#    z 0.000000 0.000000 1.601920 
# 
# From -- ./inp_files/5666.got.cif
#   From: 2010.05.17/outbox.cif.g08.bks.cpg/sg25_3_cif.got.tgz:5666.got - 2010.06.04 01:04:00.
