data_PCOD9337592
_publ_section_title
;
Structure prediction by ZEFSAII (Michael W. Deem and Ramdas Pophale) SiO2 
 PCOD9337592
Probable space group: P M M 2
;
_chemical_formula_sum "Si O2"
_cell_formula_units_Z 32
_cell_length_a 16.071868
_cell_length_b 9.208449
_cell_length_c 11.863293
_cell_angle_alpha 90.000000
_cell_angle_beta 90.000000
_cell_angle_gamma 90.000000
_cell_volume 1755.731499
_symmetry_space_group_name_H-M "P M M 2"
_symmetry_group_IT_number 25
_symmetry_cell_setting 'orthorhombic'
loop_
_space_group_symop_operation_xyz
x,y,z
-x,-y,z
-x,y,z
x,-y,z
loop_
_atom_site_type_symbol
_atom_site_label
_atom_site_fract_x
_atom_site_fract_y
_atom_site_fract_z
Si Si1 0.347991 0.169064 0.259040
Si Si2 0.593073 0.834741 0.501385
Si Si3 0.740079 0.670694 0.605862
Si Si4 0.901542 0.173521 0.997509
Si Si5 0.179374 0.829157 0.403193
Si Si6 0.248081 0.673862 0.871584
Si Si7 0.597018 0.324894 0.031524
Si Si8 0.902360 0.660706 0.221440
O O1 0.406733 0.192453 0.367333
O O2 0.258399 0.193479 0.318430
O O3 0.371873 0.264399 0.152101
O O4 0.352653 0.000000 0.225256
O O5 0.500000 0.832713 0.544934
O O6 0.649515 0.718793 0.562846
O O7 0.627835 0.000000 0.514887
O O8 0.754531 0.500000 0.586785
O O9 0.799560 0.764946 0.525197
O O10 0.745143 0.700796 0.738243
O O11 0.834483 0.245981 0.915472
O O12 0.000000 0.209204 0.975843
O O13 0.894820 0.000000 0.995831
O O14 0.875509 0.234773 0.120140
O O15 0.110423 0.735832 0.340917
O O16 0.162010 0.000000 0.408131
O O17 0.238248 0.500000 0.888889
O O18 0.332553 0.718152 0.938934
O O19 0.500000 0.278891 0.010751
O O20 0.596529 0.500000 0.034507
O O21 0.862997 0.500000 0.215750
O O22 0.000000 0.644728 0.203590
#
# Coordination Sequence:
#
# PCOD9337592 Si02
#       8
#     4   4   4   4   4   4   4   4
#     4   9  18  32  50  74 103 134 170 214 265 320
#     4   9  18  33  52  74 103 138 175 221 276 329
#     4  10  21  36  54  76 102 137 183 229 274 326
#     4  10  21  37  59  87 115 143 179 224 274 328
#     4  10  20  35  55  78 106 140 176 219 272 326
#     4  10  22  39  57  77 106 147 189 230 276 324
#     4  10  21  35  51  75 108 143 179 221 268 318
#     4  10  20  34  55  84 115 142 170 210 261 320
#
# _framework density 18.226022
#
# number of rings (size 3 to 8) (size 9 to 14) (size 15 to 20)
#    0.000    2.250    0.000    3.375    0.000    9.000 
#    0.000    1.875    0.000    0.750    0.000    0.000 
#    0.000    0.000    0.000    0.000    0.000    0.000 
#
# Total GULP energy -178341.450517 kJ/mol
# GULP energy per Si atom -5573.170329 kJ/mol
# Density = 1.818454 g / cm^3
# Si number density = 18.226022 Si / 1000 Ang^3
#
#
#
# Elastic Constant Matrix: (Units=GPa)
#
#
# Indices 1 2 3 4 5 6 
#
# 1 50.2795 36.7464 42.6982 0.0000 0.0000 0.0000
# 2 36.7464 66.3089 59.3432 0.0000 0.0000 0.0000
# 3 42.6982 59.3432 112.0861 0.0000 0.0000 0.0000
# 4 0.0000 0.0000 0.0000 230.3839 0.0000 0.0000
# 5 0.0000 0.0000 0.0000 0.0000 -1.1291 0.0000
# 6 0.0000 0.0000 0.0000 0.0000 0.0000 26.9689
#
#
#
# Elastic Compliance Matrix: (Units=1/GPa)
#
#
# Indices 1 2 3 4 5 6 
#
# 1 0.035357 -0.014329 -0.005882 0.000000 0.000000 0.000000
# 2 -0.014329 0.034469 -0.012791 0.000000 0.000000 0.000000
# 3 -0.005882 -0.012791 0.017934 0.000000 0.000000 0.000000
# 4 0.000000 0.000000 0.000000 0.004341 0.000000 0.000000
# 5 0.000000 0.000000 0.000000 0.000000 -0.885630 0.000000
# 6 0.000000 0.000000 0.000000 0.000000 0.000000 0.037080
#
#
# Mechanical properties :
#
#
# Convention : Reuss Voigt Hill
#
# Bulk Modulus (GPa) = 45.96542 56.25002 51.10772
# Shear Modulus (GPa) = -7.31857 57.23717 24.95930
#
# Velocity S-wave (km/s) = -2.00603 5.61002 3.70460
# Velocity P-wave (km/s) = 4.46193 8.53771 6.81180
#
# Compressibility (1/GPa) = 0.02175548
#
# Stress axis : x y z
#
# Youngs Moduli (GPa) = 28.28332 29.01177 55.75867
#
# Poissons Ratio (x) = 0.41572 0.32799
# Poissons Ratio (y) = 0.40528 0.71319
# Poissons Ratio (z) = 0.16637 0.37108
#
# Static dielectric constant tensor:
#      x y z
#    x 1.702130 0.000000 0.000000 
#    y 0.000000 1.632470 0.000000 
#    z 0.000000 0.000000 1.601500 
# 
# From -- ./inp_files/4933.got.cif
#   From: 2010.05.17/outbox.cif.g08.bks.cpg/sg25_3_cif.got.tgz:4933.got - 2010.06.04 01:04:00.
