data_PCOD9337550
_publ_section_title
;
Structure prediction by ZEFSAII (Michael W. Deem and Ramdas Pophale) SiO2 
 PCOD9337550
Probable space group: P M M 2
;
_chemical_formula_sum "Si O2"
_cell_formula_units_Z 32
_cell_length_a 7.432144
_cell_length_b 9.615926
_cell_length_c 21.104305
_cell_angle_alpha 90.000000
_cell_angle_beta 90.000000
_cell_angle_gamma 90.000000
_cell_volume 1508.260241
_symmetry_space_group_name_H-M "P M M 2"
_symmetry_group_IT_number 25
_symmetry_cell_setting 'orthorhombic'
loop_
_space_group_symop_operation_xyz
x,y,z
-x,-y,z
-x,y,z
x,-y,z
loop_
_atom_site_type_symbol
_atom_site_label
_atom_site_fract_x
_atom_site_fract_y
_atom_site_fract_z
Si Si1 0.720199 0.659387 0.083300
Si Si2 0.289823 0.843609 0.585118
Si Si3 0.719078 0.160026 0.821456
Si Si4 0.279474 0.340199 0.702001
Si Si5 0.716860 0.158514 0.345180
Si Si6 0.789646 0.657108 0.465747
Si Si7 0.719198 0.159876 0.964195
Si Si8 0.280828 0.159433 0.202040
O O1 0.500000 0.661461 0.083344
O O2 0.776787 0.500000 0.082955
O O3 0.779309 0.738984 0.146657
O O4 0.779199 0.740547 0.020389
O O5 0.500000 0.859182 0.600433
O O6 0.215497 0.749538 0.641949
O O7 0.282322 0.759483 0.519670
O O8 0.214126 0.000000 0.580114
O O9 0.500000 0.160472 0.821291
O O10 0.777178 0.263693 0.766499
O O11 0.775789 0.198268 0.892851
O O12 0.773400 0.000000 0.808943
O O13 0.500000 0.341836 0.701500
O O14 0.221620 0.500000 0.698429
O O15 0.500000 0.154590 0.344407
O O16 0.768705 0.269212 0.397934
O O17 0.776719 0.194034 0.273722
O O18 0.777444 0.000000 0.360079
O O19 0.713874 0.500000 0.467148
O O20 0.000000 0.646329 0.478999
O O21 0.500000 0.161937 0.964351
O O22 0.772442 0.000000 0.976004
O O23 0.500000 0.162177 0.202167
O O24 0.228360 0.000000 0.188799
#
# Coordination Sequence:
#
# PCOD9337550 Si02
#       8
#     4   4   4   4   4   4   4   4
#     4   9  15  20  28  46  72 102 139 181 221 263
#     4  10  20  34  53  74  94 120 157 197 233 274
#     4   8  13  21  32  47  70 103 144 185 222 264
#     4   9  16  25  39  60  85 112 143 183 230 274
#     4   9  18  33  53  75  95 119 156 197 234 276
#     4  11  24  38  51  71  99 127 153 185 230 282
#     4   8  13  20  29  41  63 101 144 181 219 263
#     4   8  14  25  40  57  79 107 140 180 223 266
#
# _framework density 21.216498000000001
#
# number of rings (size 3 to 8) (size 9 to 14) (size 15 to 20)
#    0.000    3.000    0.000    3.375    0.000    7.500 
#    0.000    3.750    0.000    0.000    0.000    0.000 
#    0.000    0.000    0.000    1.125    0.000   20.000 
#
# Total GULP energy -178637.772042 kJ/mol
# GULP energy per Si atom -5582.430376 kJ/mol
# Density = 2.116821 g / cm^3
# Si number density = 21.216498 Si / 1000 Ang^3
#
#
#
# Elastic Constant Matrix: (Units=GPa)
#
#
# Indices 1 2 3 4 5 6 
#
# 1 64.1736 4.0730 -3.5016 0.0000 0.0000 0.0000
# 2 4.0730 202.6901 149.3702 0.0000 0.0000 0.0000
# 3 -3.5016 149.3702 184.4624 0.0000 0.0000 0.0000
# 4 0.0000 0.0000 0.0000 -33.1154 0.0000 0.0000
# 5 0.0000 0.0000 0.0000 0.0000 -45.3653 0.0000
# 6 0.0000 0.0000 0.0000 0.0000 0.0000 -31.5855
#
#
#
# Elastic Compliance Matrix: (Units=1/GPa)
#
#
# Indices 1 2 3 4 5 6 
#
# 1 0.015742 -0.001331 0.001376 0.000000 0.000000 0.000000
# 2 -0.001331 0.012347 -0.010023 0.000000 0.000000 0.000000
# 3 0.001376 -0.010023 0.013564 0.000000 0.000000 0.000000
# 4 0.000000 0.000000 0.000000 -0.030197 0.000000 0.000000
# 5 0.000000 0.000000 0.000000 0.000000 -0.022043 0.000000
# 6 0.000000 0.000000 0.000000 0.000000 0.000000 -0.031660
#
#
# Mechanical properties :
#
#
# Convention : Reuss Voigt Hill
#
# Bulk Modulus (GPa) = 46.08771 83.46770 64.77771
# Shear Modulus (GPa) = -332.00574 -1.92095 -166.96334
#
# Velocity S-wave (km/s) = -12.52296 -0.95256 -8.88065
# Velocity P-wave (km/s) = 13.68684 6.18195 8.63461
#
# Compressibility (1/GPa) = 0.02169776
#
# Stress axis : x y z
#
# Youngs Moduli (GPa) = 63.52323 80.99164 73.72581
#
# Poissons Ratio (x) = 0.10776 -0.10147
# Poissons Ratio (y) = 0.08452 0.73898
# Poissons Ratio (z) = -0.08742 0.81181
#
# Static dielectric constant tensor:
#      x y z
#    x 1.812110 0.000000 0.000000 
#    y 0.000000 1.730780 0.000000 
#    z 0.000000 0.000000 1.728730 
# 
# From -- ./inp_files/6441.got.cif
#   From: 2010.05.17/outbox.cif.g08.bks.cpg/sg25_4_cif.got.tgz:6441.got - 2010.06.04 01:04:00.
