data_PCOD9337386
_publ_section_title
;
Structure prediction by ZEFSAII (Michael W. Deem and Ramdas Pophale) SiO2 
 PCOD9337386
Probable space group: P M M 2
;
_chemical_formula_sum "Si O2"
_cell_formula_units_Z 32
_cell_length_a 7.451099
_cell_length_b 9.560293
_cell_length_c 21.840028
_cell_angle_alpha 90.000000
_cell_angle_beta 90.000000
_cell_angle_gamma 90.000000
_cell_volume 1555.767616
_symmetry_space_group_name_H-M "P M M 2"
_symmetry_group_IT_number 25
_symmetry_cell_setting 'orthorhombic'
loop_
_space_group_symop_operation_xyz
x,y,z
-x,-y,z
-x,y,z
x,-y,z
loop_
_atom_site_type_symbol
_atom_site_label
_atom_site_fract_x
_atom_site_fract_y
_atom_site_fract_z
Si Si1 0.216017 0.840491 0.394170
Si Si2 0.284681 0.838363 0.761614
Si Si3 0.207792 0.829718 0.261352
Si Si4 0.212505 0.840527 0.895606
Si Si5 0.219642 0.838047 0.127650
Si Si6 0.280828 0.836979 0.627900
Si Si7 0.219748 0.660608 0.010280
Si Si8 0.714152 0.342284 0.513227
O O1 0.284939 0.790004 0.327563
O O2 0.256837 0.741073 0.450521
O O3 0.000000 0.847549 0.388769
O O4 0.279323 0.000000 0.405586
O O5 0.500000 0.839980 0.759982
O O6 0.235431 0.777594 0.827517
O O7 0.224981 0.782810 0.695394
O O8 0.221395 0.000000 0.763409
O O9 0.283577 0.790157 0.195068
O O10 0.000000 0.783371 0.260977
O O11 0.208550 0.000000 0.261631
O O12 0.281861 0.744856 0.950330
O O13 0.000000 0.852501 0.905497
O O14 0.286226 0.000000 0.896755
O O15 0.000000 0.837576 0.129496
O O16 0.272166 0.000000 0.117854
O O17 0.275559 0.741443 0.071670
O O18 0.500000 0.836450 0.626964
O O19 0.216170 0.745369 0.571225
O O20 0.227952 0.000000 0.621692
O O21 0.277112 0.500000 0.009652
O O22 0.000000 0.660777 0.009958
O O23 0.500000 0.351217 0.521567
O O24 0.785148 0.500000 0.510480
#
# Coordination Sequence:
#
# PCOD9337386 Si02
#       8
#     4   4   4   4   4   4   4   4
#     4   9  17  30  48  69  92 118 148 183 225 270
#     4   8  14  26  45  66  84 104 135 175 214 250
#     4   7  11  21  38  60  84 108 136 173 215 255
#     4   9  16  26  41  61  84 109 136 167 206 251
#     4   8  12  20  36  56  78 106 139 173 209 249
#     4   8  14  27  47  66  83 107 141 180 219 256
#     4   9  16  24  34  52  81 113 141 170 204 243
#     4  10  20  32  46  66  92 121 152 184 218 260
#
# _framework density 20.568625000000001
#
# number of rings (size 3 to 8) (size 9 to 14) (size 15 to 20)
#    0.000    3.500    0.000    3.000    0.000    2.500 
#    0.000    1.875    0.000    5.625    0.000    0.875 
#    0.000    3.000    0.000    0.000    0.000    0.000 
#
# Total GULP energy -178286.465628 kJ/mol
# GULP energy per Si atom -5571.452051 kJ/mol
# Density = 2.052181 g / cm^3
# Si number density = 20.568625 Si / 1000 Ang^3
#
#
#
# Elastic Constant Matrix: (Units=GPa)
#
#
# Indices 1 2 3 4 5 6 
#
# 1 60.4316 5.0185 4.6855 0.0000 0.0000 0.0000
# 2 5.0185 102.7303 114.0646 0.0000 0.0000 0.0000
# 3 4.6855 114.0646 263.7873 0.0000 0.0000 0.0000
# 4 0.0000 0.0000 0.0000 -6.4862 0.0000 0.0000
# 5 0.0000 0.0000 0.0000 0.0000 21.0502 0.0000
# 6 0.0000 0.0000 0.0000 0.0000 0.0000 1.8567
#
#
#
# Elastic Compliance Matrix: (Units=1/GPa)
#
#
# Indices 1 2 3 4 5 6 
#
# 1 0.016617 -0.000931 0.000107 0.000000 0.000000 0.000000
# 2 -0.000931 0.018776 -0.008102 0.000000 0.000000 0.000000
# 3 0.000107 -0.008102 0.007293 0.000000 0.000000 0.000000
# 4 0.000000 0.000000 0.000000 -0.154174 0.000000 0.000000
# 5 0.000000 0.000000 0.000000 0.000000 0.047505 0.000000
# 6 0.000000 0.000000 0.000000 0.000000 0.000000 0.538586
#
#
# Mechanical properties :
#
#
# Convention : Reuss Voigt Hill
#
# Bulk Modulus (GPa) = 40.26861 74.94293 57.60577
# Shear Modulus (GPa) = 9.98536 23.49620 16.74078
#
# Velocity S-wave (km/s) = 2.20572 3.38351 2.85599
# Velocity P-wave (km/s) = 5.10951 7.19575 6.24043
#
# Compressibility (1/GPa) = 0.02483324
#
# Stress axis : x y z
#
# Youngs Moduli (GPa) = 60.18074 53.25903 137.12470
#
# Poissons Ratio (x) = 0.04959 -0.01473
# Poissons Ratio (y) = 0.05603 1.11105
# Poissons Ratio (z) = -0.00647 0.43153
#
# Static dielectric constant tensor:
#      x y z
#    x 1.811110 0.000000 0.000000 
#    y 0.000000 1.684370 0.000000 
#    z 0.000000 0.000000 1.764290 
# 
# From -- ./inp_files/6304.got.cif
#   From: 2010.05.17/outbox.cif.g08.bks.cpg/sg25_4_cif.got.tgz:6304.got - 2010.06.04 01:04:00.
