data_PCOD9337203
_publ_section_title
;
Structure prediction by ZEFSAII (Michael W. Deem and Ramdas Pophale) SiO2 
 PCOD9337203
Probable space group: P M M 2
;
_chemical_formula_sum "Si O2"
_cell_formula_units_Z 32
_cell_length_a 7.479807
_cell_length_b 14.923433
_cell_length_c 16.180423
_cell_angle_alpha 90.000000
_cell_angle_beta 90.000000
_cell_angle_gamma 90.000000
_cell_volume 1806.129987
_symmetry_space_group_name_H-M "P M M 2"
_symmetry_group_IT_number 25
_symmetry_cell_setting 'orthorhombic'
loop_
_space_group_symop_operation_xyz
x,y,z
-x,-y,z
-x,y,z
x,-y,z
loop_
_atom_site_type_symbol
_atom_site_label
_atom_site_fract_x
_atom_site_fract_y
_atom_site_fract_z
Si Si1 0.281890 0.104523 0.451600
Si Si2 0.716150 0.897036 0.776492
Si Si3 0.215940 0.599723 0.864302
Si Si4 0.287658 0.598974 0.669828
Si Si5 0.788322 0.102299 0.089662
Si Si6 0.285225 0.103691 0.271015
Si Si7 0.789241 0.781684 0.939101
Si Si8 0.719179 0.210862 0.613021
O O1 0.500000 0.104868 0.452629
O O2 0.225474 0.138827 0.360557
O O3 0.222199 0.163120 0.528926
O O4 0.229305 0.000000 0.460436
O O5 0.500000 0.897983 0.775387
O O6 0.771610 0.843206 0.857878
O O7 0.774674 0.845891 0.693530
O O8 0.777506 0.000000 0.778311
O O9 0.278473 0.500000 0.888217
O O10 0.262621 0.613520 0.767978
O O11 0.284689 0.683585 0.916869
O O12 0.000000 0.599610 0.868691
O O13 0.500000 0.595702 0.654681
O O14 0.213961 0.500000 0.649815
O O15 0.218966 0.686788 0.623449
O O16 0.767096 0.141383 0.182021
O O17 0.000000 0.094354 0.074822
O O18 0.714969 0.000000 0.087156
O O19 0.713482 0.165314 0.017747
O O20 0.500000 0.103681 0.272447
O O21 0.223983 0.000000 0.269113
O O22 0.000000 0.768601 0.955061
O O23 0.500000 0.211132 0.613221
#
# Coordination Sequence:
#
# PCOD9337203 Si02
#       8
#     4   4   4   4   4   4   4   4
#     4   8  13  22  38  59  81 104 131 164 200 237
#     4  10  19  28  39  58  84 113 143 169 194 231
#     4   9  17  29  44  60  78 103 137 175 209 240
#     4   9  16  26  41  60  81 105 135 171 206 239
#     4   9  17  28  41  57  79 107 134 160 198 246
#     4   8  14  25  41  60  78  98 130 170 204 232
#     4  10  19  30  43  59  81 110 140 168 203 248
#     4   9  15  24  38  58  83 109 135 164 199 238
#
# _framework density 17.717441000000001
#
# number of rings (size 3 to 8) (size 9 to 14) (size 15 to 20)
#    0.000    3.000    1.250    1.500    0.000    2.750 
#    0.000    1.250    0.000    1.500    0.000    2.625 
#    0.000    1.000    0.000    0.000    0.000    0.000 
#
# Total GULP energy -178324.911582 kJ/mol
# GULP energy per Si atom -5572.653487 kJ/mol
# Density = 1.767711 g / cm^3
# Si number density = 17.717441 Si / 1000 Ang^3
#
#
#
# Elastic Constant Matrix: (Units=GPa)
#
#
# Indices 1 2 3 4 5 6 
#
# 1 47.7375 3.3291 -3.7901 0.0000 0.0000 0.0000
# 2 3.3291 140.2026 85.5650 0.0000 0.0000 0.0000
# 3 -3.7901 85.5650 155.8661 0.0000 0.0000 0.0000
# 4 0.0000 0.0000 0.0000 8.8257 0.0000 0.0000
# 5 0.0000 0.0000 0.0000 0.0000 16.8628 0.0000
# 6 0.0000 0.0000 0.0000 0.0000 0.0000 3.2009
#
#
#
# Elastic Compliance Matrix: (Units=1/GPa)
#
#
# Indices 1 2 3 4 5 6 
#
# 1 0.021128 -0.001226 0.001187 0.000000 0.000000 0.000000
# 2 -0.001226 0.010797 -0.005957 0.000000 0.000000 0.000000
# 3 0.001187 -0.005957 0.009715 0.000000 0.000000 0.000000
# 4 0.000000 0.000000 0.000000 0.113306 0.000000 0.000000
# 5 0.000000 0.000000 0.000000 0.000000 0.059302 0.000000
# 6 0.000000 0.000000 0.000000 0.000000 0.000000 0.312408
#
#
# Mechanical properties :
#
#
# Convention : Reuss Voigt Hill
#
# Bulk Modulus (GPa) = 33.73014 57.11272 45.42143
# Shear Modulus (GPa) = 9.11526 23.02468 16.06997
#
# Velocity S-wave (km/s) = 2.27067 3.60884 3.01494
# Velocity P-wave (km/s) = 5.09448 7.04771 6.14915
#
# Compressibility (1/GPa) = 0.02964708
#
# Stress axis : x y z
#
# Youngs Moduli (GPa) = 47.33144 92.61617 102.93501
#
# Poissons Ratio (x) = 0.11354 -0.12216
# Poissons Ratio (y) = 0.05803 0.61320
# Poissons Ratio (z) = -0.05617 0.55173
#
# Static dielectric constant tensor:
#      x y z
#    x 1.677770 0.000000 0.000000 
#    y 0.000000 1.614690 0.000000 
#    z 0.000000 0.000000 1.601450 
# 
# From -- ./inp_files/5676.got.cif
#   From: 2010.05.17/outbox.cif.g08.bks.cpg/sg25_3_cif.got.tgz:5676.got - 2010.06.04 01:04:00.
