data_PCOD9337408
_publ_section_title
;
Structure prediction by ZEFSAII (Michael W. Deem and Ramdas Pophale) SiO2 
 PCOD9337408
Probable space group: P M M 2
;
_chemical_formula_sum "Si O2"
_cell_formula_units_Z 32
_cell_length_a 7.458060
_cell_length_b 9.546254
_cell_length_c 21.888609
_cell_angle_alpha 90.000000
_cell_angle_beta 90.000000
_cell_angle_gamma 90.000000
_cell_volume 1558.393119
_symmetry_space_group_name_H-M "P M M 2"
_symmetry_group_IT_number 25
_symmetry_cell_setting 'orthorhombic'
loop_
_space_group_symop_operation_xyz
x,y,z
-x,-y,z
-x,y,z
x,-y,z
loop_
_atom_site_type_symbol
_atom_site_label
_atom_site_fract_x
_atom_site_fract_y
_atom_site_fract_z
Si Si1 0.281525 0.162369 0.399300
Si Si2 0.787504 0.657926 0.144870
Si Si3 0.714068 0.660887 0.647711
Si Si4 0.214091 0.339389 0.779265
Si Si5 0.780317 0.161260 0.030070
Si Si6 0.284199 0.160232 0.263192
Si Si7 0.781494 0.663640 0.912696
Si Si8 0.281522 0.336270 0.515197
O O1 0.500000 0.168760 0.399564
O O2 0.223542 0.205422 0.331048
O O3 0.216851 0.253143 0.456172
O O4 0.232510 0.000000 0.407206
O O5 0.714091 0.500000 0.145510
O O6 0.718067 0.753371 0.089523
O O7 0.764882 0.736411 0.209004
O O8 0.000000 0.646535 0.134216
O O9 0.500000 0.652809 0.643389
O O10 0.783832 0.500000 0.650711
O O11 0.749591 0.729322 0.713542
O O12 0.776246 0.719212 0.582240
O O13 0.283769 0.500000 0.775996
O O14 0.275863 0.284160 0.845157
O O15 0.000000 0.346767 0.783329
O O16 0.000000 0.160677 0.030235
O O17 0.723290 0.000000 0.031670
O O18 0.722020 0.241510 0.968825
O O19 0.500000 0.154993 0.265028
O O20 0.221705 0.000000 0.251912
O O21 0.729177 0.500000 0.919534
O O22 0.000000 0.664789 0.913962
O O23 0.500000 0.330109 0.513836
O O24 0.233115 0.500000 0.511575
#
# Coordination Sequence:
#
# PCOD9337408 Si02
#       8
#     4   4   4   4   4   4   4   4
#     4   8  14  25  41  61  84 109 139 175 211 248
#     4  10  20  32  47  69  95 120 147 182 222 263
#     4   8  13  21  34  54  79 104 131 165 203 242
#     4   8  13  21  35  55  77 102 132 165 203 247
#     4   9  16  26  42  63  85 111 144 179 214 254
#     4   9  18  32  49  69  92 118 149 184 222 266
#     4   8  13  22  37  57  79 102 133 175 215 248
#     4   8  13  21  35  56  79 103 135 174 210 243
#
# _framework density 20.533971999999999
#
# number of rings (size 3 to 8) (size 9 to 14) (size 15 to 20)
#    0.000    3.500    0.000    3.000    0.000    3.000 
#    0.000    1.250    0.000    2.250    0.000    3.500 
#    0.000    0.000    0.000    0.000    0.000    0.000 
#
# Total GULP energy -178250.579743 kJ/mol
# GULP energy per Si atom -5570.330617 kJ/mol
# Density = 2.048724 g / cm^3
# Si number density = 20.533972 Si / 1000 Ang^3
#
#
#
# Elastic Constant Matrix: (Units=GPa)
#
#
# Indices 1 2 3 4 5 6 
#
# 1 57.8701 4.1505 4.2928 0.0000 0.0000 0.0000
# 2 4.1505 96.6989 115.4615 0.0000 0.0000 0.0000
# 3 4.2928 115.4615 263.3114 0.0000 0.0000 0.0000
# 4 0.0000 0.0000 0.0000 -42.3630 0.0000 0.0000
# 5 0.0000 0.0000 0.0000 0.0000 17.6840 0.0000
# 6 0.0000 0.0000 0.0000 0.0000 0.0000 1.0265
#
#
#
# Elastic Compliance Matrix: (Units=1/GPa)
#
#
# Indices 1 2 3 4 5 6 
#
# 1 0.017335 -0.000853 0.000092 0.000000 0.000000 0.000000
# 2 -0.000853 0.021748 -0.009523 0.000000 0.000000 0.000000
# 3 0.000092 -0.009523 0.007972 0.000000 0.000000 0.000000
# 4 0.000000 0.000000 0.000000 -0.023606 0.000000 0.000000
# 5 0.000000 0.000000 0.000000 0.000000 0.056548 0.000000
# 6 0.000000 0.000000 0.000000 0.000000 0.000000 0.974222
#
#
# Mechanical properties :
#
#
# Convention : Reuss Voigt Hill
#
# Bulk Modulus (GPa) = 37.75600 73.96555 55.86077
# Shear Modulus (GPa) = 4.61418 14.86786 9.74102
#
# Velocity S-wave (km/s) = 1.50066 2.69376 2.18040
# Velocity P-wave (km/s) = 4.62922 6.76568 5.79672
#
# Compressibility (1/GPa) = 0.02648586
#
# Stress axis : x y z
#
# Youngs Moduli (GPa) = 57.68841 45.98023 125.43909
#
# Poissons Ratio (x) = 0.03924 -0.01149
# Poissons Ratio (y) = 0.04923 1.19453
# Poissons Ratio (z) = -0.00529 0.43786
#
# Static dielectric constant tensor:
#      x y z
#    x 1.810170 0.000000 0.000000 
#    y 0.000000 1.690860 0.000000 
#    z 0.000000 0.000000 1.769690 
# 
# From -- ./inp_files/6518.got.cif
#   From: 2010.05.17/outbox.cif.g08.bks.cpg/sg25_4_cif.got.tgz:6518.got - 2010.06.04 01:04:00.
