data_PCOD9337728
_publ_section_title
;
Structure prediction by ZEFSAII (Michael W. Deem and Ramdas Pophale) SiO2 
 PCOD9337728
Probable space group: P M M 2
;
_chemical_formula_sum "Si O2"
_cell_formula_units_Z 32
_cell_length_a 14.260834
_cell_length_b 8.883431
_cell_length_c 13.255083
_cell_angle_alpha 90.000000
_cell_angle_beta 90.000000
_cell_angle_gamma 90.000000
_cell_volume 1679.221977
_symmetry_space_group_name_H-M "P M M 2"
_symmetry_group_IT_number 25
_symmetry_cell_setting 'orthorhombic'
loop_
_space_group_symop_operation_xyz
x,y,z
-x,-y,z
-x,y,z
x,-y,z
loop_
_atom_site_type_symbol
_atom_site_label
_atom_site_fract_x
_atom_site_fract_y
_atom_site_fract_z
Si Si1 0.109926 0.180186 0.304960
Si Si2 0.606329 0.319334 0.016130
Si Si3 0.113175 0.175282 0.914405
Si Si4 0.205504 0.680079 0.109116
Si Si5 0.386131 0.171556 0.806495
Si Si6 0.609075 0.817808 0.582166
Si Si7 0.213882 0.319560 0.496403
Si Si8 0.112192 0.678312 0.704537
O O1 0.156984 0.241083 0.203220
O O2 0.160428 0.251584 0.401361
O O3 0.000000 0.220409 0.305400
O O4 0.117723 0.000000 0.308679
O O5 0.500000 0.264089 0.035012
O O6 0.603608 0.500000 0.014521
O O7 0.685453 0.273925 0.095632
O O8 0.638068 0.264440 0.905420
O O9 0.144101 0.232961 0.804146
O O10 0.000000 0.189119 0.917331
O O11 0.137122 0.000000 0.927832
O O12 0.155243 0.270833 0.005599
O O13 0.200274 0.500000 0.120560
O O14 0.500000 0.165968 0.804453
O O15 0.361714 0.232098 0.695834
O O16 0.352273 0.000000 0.816684
O O17 0.500000 0.778430 0.565529
O O18 0.681144 0.744237 0.505545
O O19 0.615481 0.000000 0.580560
O O20 0.214424 0.500000 0.490050
O O21 0.161030 0.275724 0.600387
O O22 0.128719 0.500000 0.720449
O O23 0.000000 0.700086 0.693926
#
# Coordination Sequence:
#
# PCOD9337728 Si02
#       8
#     4   4   4   4   4   4   4   4
#     4  11  25  45  67  89 114 148 195 248 300 359
#     4   9  19  35  54  80 116 154 193 237 284 339
#     4  10  21  36  55  82 116 152 190 235 290 352
#     4  11  23  38  60  87 116 152 195 241 297 353
#     4   8  15  29  50  77 111 153 196 236 280 330
#     4   9  19  36  56  82 120 162 203 246 292 345
#     4  11  23  38  61  90 119 153 197 245 300 359
#     4   9  19  36  56  81 116 153 188 232 290 356
#
# _framework density 19.056443999999999
#
# number of rings (size 3 to 8) (size 9 to 14) (size 15 to 20)
#    0.000    2.250    0.000    3.000    1.750    6.500 
#    0.000    3.125    0.000    2.250    0.000    0.000 
#    0.000    0.000    0.000    0.000    0.000    0.000 
#
# Total GULP energy -178718.360337 kJ/mol
# GULP energy per Si atom -5584.948761 kJ/mol
# Density = 1.901307 g / cm^3
# Si number density = 19.056444 Si / 1000 Ang^3
#
#
#
# Elastic Constant Matrix: (Units=GPa)
#
#
# Indices 1 2 3 4 5 6 
#
# 1 118.2598 45.7593 80.6671 0.0000 0.0000 0.0000
# 2 45.7593 35.7054 42.8033 0.0000 0.0000 0.0000
# 3 80.6671 42.8033 134.7508 0.0000 0.0000 0.0000
# 4 0.0000 0.0000 0.0000 35.9033 0.0000 0.0000
# 5 0.0000 0.0000 0.0000 0.0000 38.6274 0.0000
# 6 0.0000 0.0000 0.0000 0.0000 0.0000 23.4465
#
#
#
# Elastic Compliance Matrix: (Units=1/GPa)
#
#
# Indices 1 2 3 4 5 6 
#
# 1 0.019368 -0.017639 -0.005991 0.000000 0.000000 0.000000
# 2 -0.017639 0.061295 -0.008911 0.000000 0.000000 0.000000
# 3 -0.005991 -0.008911 0.013838 0.000000 0.000000 0.000000
# 4 0.000000 0.000000 0.000000 0.027853 0.000000 0.000000
# 5 0.000000 0.000000 0.000000 0.000000 0.025888 0.000000
# 6 0.000000 0.000000 0.000000 0.000000 0.000000 0.042650
#
#
# Mechanical properties :
#
#
# Convention : Reuss Voigt Hill
#
# Bulk Modulus (GPa) = 33.99190 69.68614 51.83902
# Shear Modulus (GPa) = 18.81236 27.56118 23.18677
#
# Velocity S-wave (km/s) = 3.14537 3.80714 3.49197
# Velocity P-wave (km/s) = 5.57381 7.48154 6.59700
#
# Compressibility (1/GPa) = 0.02941877
#
# Stress axis : x y z
#
# Youngs Moduli (GPa) = 51.63093 16.31442 72.26344
#
# Poissons Ratio (x) = 0.28778 0.43296
# Poissons Ratio (y) = 0.91074 0.64391
# Poissons Ratio (z) = 0.30934 0.14537
#
# Static dielectric constant tensor:
#      x y z
#    x 1.700780 0.000000 0.000000 
#    y 0.000000 1.636590 0.000000 
#    z 0.000000 0.000000 1.627420 
# 
# From -- ./inp_files/4232.got.cif
#   From: 2010.05.17/outbox.cif.g08.bks.cpg/sg25_3_cif.got.tgz:4232.got - 2010.06.04 01:04:00.
