data_PCOD9337777
_publ_section_title
;
Structure prediction by ZEFSAII (Michael W. Deem and Ramdas Pophale) SiO2 
 PCOD9337777
Probable space group: P M M 2
;
_chemical_formula_sum "Si O2"
_cell_formula_units_Z 24
_cell_length_a 12.852487
_cell_length_b 8.794583
_cell_length_c 12.006361
_cell_angle_alpha 90.000000
_cell_angle_beta 90.000000
_cell_angle_gamma 90.000000
_cell_volume 1357.106162
_symmetry_space_group_name_H-M "P M M 2"
_symmetry_group_IT_number 25
_symmetry_cell_setting 'orthorhombic'
loop_
_space_group_symop_operation_xyz
x,y,z
-x,-y,z
-x,y,z
x,-y,z
loop_
_atom_site_type_symbol
_atom_site_label
_atom_site_fract_x
_atom_site_fract_y
_atom_site_fract_z
Si Si1 0.500000 0.818793 0.168131
Si Si2 0.121970 0.181267 0.169634
Si Si3 0.879869 0.682150 0.410204
Si Si4 0.500000 0.181335 0.432541
Si Si5 0.376672 0.817867 0.800096
Si Si6 0.692102 0.317577 0.568022
Si Si7 0.307089 0.681353 0.033360
O O1 0.500000 0.792564 0.300333
O O2 0.398492 0.747126 0.111605
O O3 0.500000 0.000000 0.147723
O O4 0.148344 0.235766 0.294807
O O5 0.198115 0.262413 0.083627
O O6 0.000000 0.217838 0.151299
O O7 0.135132 0.000000 0.161980
O O8 0.872820 0.500000 0.391865
O O9 0.800819 0.721902 0.508452
O O10 0.000000 0.718924 0.436489
O O11 0.600582 0.254737 0.489533
O O12 0.500000 0.000000 0.453079
O O13 0.500000 0.779901 0.796160
O O14 0.323477 0.754675 0.688961
O O15 0.367801 0.000000 0.804641
O O16 0.327790 0.745600 0.910353
O O17 0.684302 0.500000 0.576205
O O18 0.311980 0.500000 0.032603
#
# Coordination Sequence:
#
# PCOD9337777 Si02
#       7
#     2   4   4   2   4   4   4
#     4  11  23  38  57  84 119 153 189 237 290 347
#     4  10  21  38  61  88 119 156 196 239 289 345
#     4   9  19  37  60  87 119 153 190 236 290 344
#     4  11  23  36  53  80 115 151 185 231 286 341
#     4  11  23  40  61  82 112 155 197 239 291 346
#     4  11  22  36  58  85 114 149 192 238 286 343
#     4  12  24  38  60  87 116 151 194 241 292 348
#
# _framework density 17.684688999999999
#
# number of rings (size 3 to 8) (size 9 to 14) (size 15 to 20)
#    0.000    1.333    1.667    4.500    0.000    7.000 
#    0.000    0.833    0.000    3.000    0.000    0.000 
#    0.000    0.000    0.000    0.000    0.000    0.000 
#
# Total GULP energy -134177.214795 kJ/mol
# GULP energy per Si atom -5590.717283 kJ/mol
# Density = 1.764444 g / cm^3
# Si number density = 17.684689 Si / 1000 Ang^3
#
#
#
# Elastic Constant Matrix: (Units=GPa)
#
#
# Indices 1 2 3 4 5 6 
#
# 1 101.5580 59.4786 89.8844 0.0000 0.0000 0.0000
# 2 59.4786 86.7778 82.9295 0.0000 0.0000 0.0000
# 3 89.8844 82.9295 156.1751 0.0000 0.0000 0.0000
# 4 0.0000 0.0000 0.0000 31.9453 0.0000 0.0000
# 5 0.0000 0.0000 0.0000 0.0000 0.5097 0.0000
# 6 0.0000 0.0000 0.0000 0.0000 0.0000 17.4672
#
#
#
# Elastic Compliance Matrix: (Units=1/GPa)
#
#
# Indices 1 2 3 4 5 6 
#
# 1 0.021461 -0.005900 -0.009219 0.000000 0.000000 0.000000
# 2 -0.005900 0.025018 -0.009889 0.000000 0.000000 0.000000
# 3 -0.009219 -0.009889 0.016960 0.000000 0.000000 0.000000
# 4 0.000000 0.000000 0.000000 0.031304 0.000000 0.000000
# 5 0.000000 0.000000 0.000000 0.000000 1.961930 0.000000
# 6 0.000000 0.000000 0.000000 0.000000 0.000000 0.057250
#
#
# Mechanical properties :
#
#
# Convention : Reuss Voigt Hill
#
# Bulk Modulus (GPa) = 74.49505 89.89956 82.19731
# Shear Modulus (GPa) = 2.30583 17.46566 9.88575
#
# Velocity S-wave (km/s) = 1.14311 3.14604 2.36688
# Velocity P-wave (km/s) = 6.63006 8.00886 7.35186
#
# Compressibility (1/GPa) = 0.01342371
#
# Stress axis : x y z
#
# Youngs Moduli (GPa) = 46.59636 39.97118 58.96197
#
# Poissons Ratio (x) = 0.23581 0.54356
# Poissons Ratio (y) = 0.27490 0.58309
# Poissons Ratio (z) = 0.42957 0.39529
#
# Static dielectric constant tensor:
#      x y z
#    x 1.592060 0.000000 0.000000 
#    y 0.000000 1.588260 0.000000 
#    z 0.000000 0.000000 1.568550 
# 
# From -- ./inp_files/4556.got.cif
#   From: 2010.05.17/outbox.cif.g08.bks.cpg/sg25_3_cif.got.tgz:4556.got - 2010.06.04 01:04:00.
