data_PCOD9337000
_publ_section_title
;
Structure prediction by ZEFSAII (Michael W. Deem and Ramdas Pophale) SiO2 
 PCOD9337000
Probable space group: I 21 21 21
;
_chemical_formula_sum "Si O2"
_cell_formula_units_Z 28
_cell_length_a 5.070332
_cell_length_b 28.512445
_cell_length_c 7.959988
_cell_angle_alpha 90.000000
_cell_angle_beta 90.000000
_cell_angle_gamma 90.000000
_cell_volume 1150.756061
_symmetry_space_group_name_H-M "I 21 21 21"
_symmetry_group_IT_number 24
_symmetry_cell_setting 'orthorhombic'
loop_
_space_group_symop_operation_xyz
x,y,z
-x,1/2-y,z
x,-y,1/2-z
1/2-x,y,-z
1/2+x,1/2+y,1/2+z
1/2-x,-y,1/2+z
1/2+x,1/2-y,-z
-x,1/2+y,1/2-z
loop_
_atom_site_type_symbol
_atom_site_label
_atom_site_fract_x
_atom_site_fract_y
_atom_site_fract_z
Si Si1 0.105927 0.947982 0.316788
Si Si2 0.750000 0.823730 0.000000
Si Si3 0.750000 0.884176 0.500000
Si Si4 0.250000 0.890164 0.000000
Si Si5 0.250000 0.815981 0.500000
Si Si6 0.500000 0.750000 0.245133
O O1 0.250000 0.949260 0.500000
O O2 0.837099 0.919003 0.350580
O O3 0.054023 0.000000 0.250000
O O4 0.264784 0.921446 0.168905
O O5 0.665669 0.788355 0.145339
O O6 0.500422 0.856904 0.972568
O O7 0.501050 0.849818 0.488746
O O8 0.288826 0.780507 0.347423
#
# Coordination Sequence:
#
# PCOD9337000 Si02
#       6
#     8   4   4   4   4   4
#     4  12  28  54  86 123 168 217 279 345 426 503
#     4  12  29  53  78 118 162 214 270 345 417 486
#     4  12  27  51  80 122 162 218 278 339 419 500
#     4  12  29  53  82 118 168 214 274 349 411 502
#     4  12  27  51  84 116 160 220 276 337 407 498
#     4  12  28  52  80 120 170 214 284 342 412 494
#
# _framework density 24.331831000000001
#
# number of rings (size 3 to 8) (size 9 to 14) (size 15 to 20)
#    0.000    0.000    2.857    5.143    4.000   10.286 
#    0.000    0.000    0.000    0.000    0.000    0.000 
#    0.000    0.000    0.000    0.000    0.000    0.000 
#
# Total GULP energy -78447.435190 kJ/mol
# GULP energy per Si atom -5603.388228 kJ/mol
# Density = 2.427645 g / cm^3
# Si number density = 24.331831 Si / 1000 Ang^3
#
#
#
# Elastic Constant Matrix: (Units=GPa)
#
#
# Indices 1 2 3 4 5 6 
#
# 1 172.9513 86.2601 63.1649 0.0000 0.0000 0.0000
# 2 86.2601 224.4154 100.5882 0.0001 0.0000 0.0001
# 3 63.1649 100.5882 174.3268 0.0000 0.0000 0.0002
# 4 0.0000 0.0001 0.0000 60.5897 0.0000 -0.0002
# 5 0.0000 0.0000 0.0000 0.0000 36.6154 0.0000
# 6 0.0000 0.0001 0.0002 -0.0002 0.0000 -9.4713
#
#
#
# Elastic Compliance Matrix: (Units=1/GPa)
#
#
# Indices 1 2 3 4 5 6 
#
# 1 0.007399 -0.002215 -0.001403 0.000000 0.000000 0.000000
# 2 -0.002215 0.006674 -0.003048 0.000000 0.000000 0.000000
# 3 -0.001403 -0.003048 0.008003 0.000000 0.000000 0.000000
# 4 0.000000 0.000000 0.000000 0.016504 0.000000 0.000000
# 5 0.000000 0.000000 0.000000 0.000000 0.027311 0.000000
# 6 0.000000 0.000000 0.000000 0.000000 0.000000 -0.105582
#
#
# Mechanical properties :
#
#
# Convention : Reuss Voigt Hill
#
# Bulk Modulus (GPa) = 114.36433 119.07999 116.72216
# Shear Modulus (GPa) = -213.28427 38.99211 -87.14608
#
# Velocity S-wave (km/s) = -9.37266 4.00748 -5.99111
# Velocity P-wave (km/s) = 8.36810 8.39402 0.46607
#
# Compressibility (1/GPa) = 0.00874399
#
# Stress axis : x y z
#
# Youngs Moduli (GPa) = 135.15005 149.83970 124.94659
#
# Poissons Ratio (x) = 0.33195 0.17526
# Poissons Ratio (y) = 0.29940 0.38086
# Poissons Ratio (z) = 0.18958 0.45673
#
# Static dielectric constant tensor:
#      x y z
#    x 1.865040 0.000000 0.000000 
#    y 0.000000 1.876020 0.000000 
#    z 0.000000 0.000000 2.148040 
# 
# From -- ./inp_files/1066.got.cif
#   From: 2010.05.17/outbox.cif.g08.bks.cpg/sg24_1_cif.got.tgz:1066.got - 2010.06.04 00:33:39.
