data_PCOD9337983
_publ_section_title
;
Structure prediction by ZEFSAII (Michael W. Deem and Ramdas Pophale) SiO2 
 PCOD9337983
Probable space group: P M C 21
;
_chemical_formula_sum "Si O2"
_cell_formula_units_Z 32
_cell_length_a 7.220768
_cell_length_b 16.686234
_cell_length_c 10.028132
_cell_angle_alpha 90.000000
_cell_angle_beta 90.000000
_cell_angle_gamma 90.000000
_cell_volume 1208.263797
_symmetry_space_group_name_H-M "P M C 21"
_symmetry_group_IT_number 26
_symmetry_cell_setting 'orthorhombic'
loop_
_space_group_symop_operation_xyz
x,y,z
-x,-y,1/2+z
-x,y,z
x,-y,1/2+z
loop_
_atom_site_type_symbol
_atom_site_label
_atom_site_fract_x
_atom_site_fract_y
_atom_site_fract_z
Si Si1 0.774112 0.676926 0.820780
Si Si2 0.223964 0.763663 0.251428
Si Si3 0.790621 0.262957 0.048926
Si Si4 0.725843 0.087144 0.074330
Si Si5 0.224939 0.486030 0.472676
Si Si6 0.223945 0.836241 0.984317
Si Si7 0.710855 0.998915 0.826300
Si Si8 0.775865 0.414663 0.736581
O O1 0.711222 0.683067 0.666861
O O2 0.722713 0.595124 0.894230
O O3 0.000000 0.677616 0.816772
O O4 0.719446 0.756129 0.903603
O O5 0.292203 0.756988 0.403837
O O6 0.284289 0.826307 0.138925
O O7 0.270879 0.675227 0.196527
O O8 0.000000 0.771291 0.258263
O O9 0.794060 0.174400 0.113633
O O10 0.000000 0.292657 0.023138
O O11 0.500000 0.087688 0.076730
O O12 0.791143 0.023056 0.183431
O O13 0.792215 0.063734 0.926907
O O14 0.286605 0.560405 0.383429
O O15 0.286677 0.476263 0.623893
O O16 0.000000 0.488505 0.476424
O O17 0.289858 0.916062 0.910818
O O18 0.000000 0.838684 0.982818
O O19 0.500000 0.023638 0.803576
O O20 0.000000 0.417127 0.738320
#
# Coordination Sequence:
#
# PCOD9337983 Si02
#       8
#     4   4   4   4   4   4   4   4
#     4   9  16  28  45  65  94 130 165 202 245 289
#     4   9  18  30  45  69 102 133 166 209 250 289
#     4  10  20  33  51  75 101 131 168 207 248 294
#     4  10  22  39  55  74 101 130 161 202 249 296
#     4   9  16  24  37  59  92 134 170 199 241 295
#     4  10  18  33  53  72  98 133 165 202 249 293
#     4  10  22  38  55  75 100 129 162 202 248 298
#     4   9  16  25  37  59  94 134 169 199 240 294
#
# _framework density 26.484282
#
# number of rings (size 3 to 8) (size 9 to 14) (size 15 to 20)
#    0.000    2.500    2.500    0.000    3.500    0.500 
#    0.000    0.000    0.000    0.000    0.000    0.000 
#    0.000    6.000    0.000    0.000    0.000    0.000 
#
# Total GULP energy -178991.590199 kJ/mol
# GULP energy per Si atom -5593.487194 kJ/mol
# Density = 2.642400 g / cm^3
# Si number density = 26.484282 Si / 1000 Ang^3
#
#
#
# Elastic Constant Matrix: (Units=GPa)
#
#
# Indices 1 2 3 4 5 6 
#
# 1 135.8188 -6.9649 3.8805 0.0000 0.0000 0.0000
# 2 -6.9649 61.0629 -9.6011 0.0000 0.0000 0.0000
# 3 3.8805 -9.6011 139.5402 0.0000 0.0000 0.0000
# 4 0.0000 0.0000 0.0000 52.9882 0.0000 0.0000
# 5 0.0000 0.0000 0.0000 0.0000 -13.9426 0.0000
# 6 0.0000 0.0000 0.0000 0.0000 0.0000 17.3391
#
#
#
# Elastic Compliance Matrix: (Units=1/GPa)
#
#
# Indices 1 2 3 4 5 6 
#
# 1 0.007409 0.000822 -0.000150 0.000000 0.000000 0.000000
# 2 0.000822 0.016647 0.001123 0.000000 0.000000 0.000000
# 3 -0.000150 0.001123 0.007248 0.000000 0.000000 0.000000
# 4 0.000000 0.000000 0.000000 0.018872 0.000000 0.000000
# 5 0.000000 0.000000 0.000000 0.000000 -0.071723 0.000000
# 6 0.000000 0.000000 0.000000 0.000000 0.000000 0.057673
#
#
# Mechanical properties :
#
#
# Convention : Reuss Voigt Hill
#
# Bulk Modulus (GPa) = 28.65909 34.56121 31.61015
# Shear Modulus (GPa) = 113.20414 34.55077 73.87746
#
# Velocity S-wave (km/s) = 6.54497 3.61581 5.28729
# Velocity P-wave (km/s) = 8.24380 5.52360 7.01678
#
# Compressibility (1/GPa) = 0.03489295
#
# Stress axis : x y z
#
# Youngs Moduli (GPa) = 134.96818 60.07168 137.97311
#
# Poissons Ratio (x) = -0.04935 0.02063
# Poissons Ratio (y) = -0.11089 -0.15488
# Poissons Ratio (z) = 0.02018 -0.06743
#
# Static dielectric constant tensor:
#      x y z
#    x 2.052800 0.000000 0.000000 
#    y 0.000000 2.029750 0.000000 
#    z 0.000000 0.000000 2.070400 
# 
# From -- ./inp_files/2019.got.cif
#   From: 2010.05.17/outbox.cif.g08.bks.cpg/sg26_2_cif.got.tgz:2019.got - 2010.06.04 01:07:29.
