data_PCOD9337506
_publ_section_title
;
Structure prediction by ZEFSAII (Michael W. Deem and Ramdas Pophale) SiO2 
 PCOD9337506
Probable space group: P M M 2
;
_chemical_formula_sum "Si O2"
_cell_formula_units_Z 24
_cell_length_a 9.384285
_cell_length_b 7.514087
_cell_length_c 16.238321
_cell_angle_alpha 90.000000
_cell_angle_beta 90.000000
_cell_angle_gamma 90.000000
_cell_volume 1145.034389
_symmetry_space_group_name_H-M "P M M 2"
_symmetry_group_IT_number 25
_symmetry_cell_setting 'orthorhombic'
loop_
_space_group_symop_operation_xyz
x,y,z
-x,-y,z
-x,y,z
x,-y,z
loop_
_atom_site_type_symbol
_atom_site_label
_atom_site_fract_x
_atom_site_fract_y
_atom_site_fract_z
Si Si1 0.335047 0.713682 0.988810
Si Si2 0.661777 0.286538 0.489219
Si Si3 0.838829 0.213561 0.653655
Si Si4 0.333575 0.282909 0.168546
Si Si5 0.164071 0.282076 0.329639
Si Si6 0.662602 0.211325 0.809008
O O1 0.500000 0.775622 0.986402
O O2 0.336029 0.500000 0.990872
O O3 0.272998 0.763708 0.900341
O O4 0.278826 0.773675 0.077882
O O5 0.500000 0.218041 0.492748
O O6 0.653606 0.500000 0.481228
O O7 0.747283 0.249143 0.572397
O O8 0.747516 0.221913 0.409287
O O9 0.757897 0.282846 0.734787
O O10 0.000000 0.282263 0.646024
O O11 0.847929 0.000000 0.661856
O O12 0.500000 0.231154 0.177083
O O13 0.332317 0.500000 0.169417
O O14 0.240469 0.223642 0.245560
O O15 0.165020 0.500000 0.329657
O O16 0.000000 0.226279 0.333862
O O17 0.500000 0.284012 0.807256
O O18 0.651035 0.000000 0.796733
#
# Coordination Sequence:
#
# PCOD9337506 Si02
#       6
#     4   4   4   4   4   4
#     4   8  14  25  43  67  92 118 151 192 234 273
#     4  10  20  33  51  75  99 124 158 200 242 283
#     4  10  21  36  52  70  95 128 162 196 239 291
#     4   8  13  23  40  61  86 118 155 191 227 272
#     4   9  16  26  42  66  96 126 154 188 232 281
#     4   9  17  30  48  68  90 119 156 195 234 280
#
# _framework density 20.960070000000002
#
# number of rings (size 3 to 8) (size 9 to 14) (size 15 to 20)
#    0.000    3.000    0.000    2.500    0.000    4.667 
#    0.000    2.500    0.000    2.000    0.000    2.333 
#    0.000    0.000    0.000    0.000    0.000    0.000 
#
# Total GULP energy -133866.615546 kJ/mol
# GULP energy per Si atom -5577.775648 kJ/mol
# Density = 2.091236 g / cm^3
# Si number density = 20.960070 Si / 1000 Ang^3
#
#
#
# Elastic Constant Matrix: (Units=GPa)
#
#
# Indices 1 2 3 4 5 6 
#
# 1 152.4394 6.3380 126.8562 0.0000 0.0000 0.0000
# 2 6.3380 52.9017 1.4938 0.0000 0.0000 0.0000
# 3 126.8562 1.4938 256.8989 0.0000 0.0000 0.0000
# 4 0.0000 0.0000 0.0000 34.4274 0.0000 0.0000
# 5 0.0000 0.0000 0.0000 0.0000 -39.1927 0.0000
# 6 0.0000 0.0000 0.0000 0.0000 0.0000 5.0193
#
#
#
# Elastic Compliance Matrix: (Units=1/GPa)
#
#
# Indices 1 2 3 4 5 6 
#
# 1 0.011210 -0.001187 -0.005529 0.000000 0.000000 0.000000
# 2 -0.001187 0.019032 0.000475 0.000000 0.000000 0.000000
# 3 -0.005529 0.000475 0.006620 0.000000 0.000000 0.000000
# 4 0.000000 0.000000 0.000000 0.029047 0.000000 0.000000
# 5 0.000000 0.000000 0.000000 0.000000 -0.025515 0.000000
# 6 0.000000 0.000000 0.000000 0.000000 0.000000 0.199231
#
#
# Mechanical properties :
#
#
# Convention : Reuss Voigt Hill
#
# Bulk Modulus (GPa) = 41.01472 81.29066 61.15269
# Shear Modulus (GPa) = 19.21362 21.88759 20.55060
#
# Velocity S-wave (km/s) = 3.03095 3.23499 3.13463
# Velocity P-wave (km/s) = 5.64441 7.26783 6.50695
#
# Compressibility (1/GPa) = 0.02438149
#
# Stress axis : x y z
#
# Youngs Moduli (GPa) = 89.20506 52.54370 151.06081
#
# Poissons Ratio (x) = 0.06237 0.83516
# Poissons Ratio (y) = 0.10588 -0.07182
# Poissons Ratio (z) = 0.49318 -0.02498
#
# Static dielectric constant tensor:
#      x y z
#    x 1.724820 0.000000 0.000000 
#    y 0.000000 1.803050 0.000000 
#    z 0.000000 0.000000 1.751040 
# 
# From -- ./inp_files/3912.got.cif
#   From: 2010.05.17/outbox.cif.g08.bks.cpg/sg25_2_cif.got.tgz:3912.got - 2010.06.04 01:04:00.
