data_PCOD9337328
_publ_section_title
;
Structure prediction by ZEFSAII (Michael W. Deem and Ramdas Pophale) SiO2 
 PCOD9337328
Probable space group: P M M 2
;
_chemical_formula_sum "Si O2"
_cell_formula_units_Z 28
_cell_length_a 7.625479
_cell_length_b 20.252022
_cell_length_c 8.202582
_cell_angle_alpha 90.000000
_cell_angle_beta 90.000000
_cell_angle_gamma 90.000000
_cell_volume 1266.735963
_symmetry_space_group_name_H-M "P M M 2"
_symmetry_group_IT_number 25
_symmetry_cell_setting 'orthorhombic'
loop_
_space_group_symop_operation_xyz
x,y,z
-x,-y,z
-x,y,z
x,-y,z
loop_
_atom_site_type_symbol
_atom_site_label
_atom_site_fract_x
_atom_site_fract_y
_atom_site_fract_z
Si Si1 0.785754 0.926882 0.068730
Si Si2 0.791504 0.070967 0.443802
Si Si3 0.791950 0.790263 0.916998
Si Si4 0.715708 0.653203 0.429570
Si Si5 0.697278 0.788374 0.559022
Si Si6 0.289080 0.656280 0.070877
Si Si7 0.714373 0.576214 0.753602
O O1 0.728428 0.921029 0.257390
O O2 0.000000 0.925577 0.066462
O O3 0.733287 0.000000 0.008673
O O4 0.727003 0.862241 0.972558
O O5 0.763383 0.137364 0.542953
O O6 0.000000 0.065416 0.432166
O O7 0.724851 0.000000 0.508240
O O8 0.704363 0.769123 0.748193
O O9 0.000000 0.794748 0.887376
O O10 0.758364 0.733125 0.047421
O O11 0.500000 0.653691 0.432937
O O12 0.780839 0.728133 0.460871
O O13 0.769923 0.631755 0.248629
O O14 0.770913 0.609399 0.583523
O O15 0.500000 0.792235 0.498609
O O16 0.500000 0.651709 0.069041
O O17 0.224247 0.616271 0.913115
O O18 0.500000 0.578168 0.754675
O O19 0.767054 0.500000 0.762059
#
# Coordination Sequence:
#
# PCOD9337328 Si02
#       7
#     4   4   4   4   4   4   4
#     4   8  16  32  52  73  99 132 175 227 274 319
#     4   9  18  34  54  75 101 135 177 226 277 326
#     4  11  21  33  53  79 105 139 185 229 273 324
#     4   9  18  32  52  79 110 144 178 221 274 323
#     4  11  21  34  51  74 108 144 181 226 276 324
#     4  10  19  34  56  80 110 144 179 222 275 323
#     4   9  17  31  53  83 115 142 175 220 267 322
#
# _framework density 22.104054000000001
#
# number of rings (size 3 to 8) (size 9 to 14) (size 15 to 20)
#    0.000    2.429    1.429    2.571    0.000    1.429 
#    0.000    5.714    0.000    3.429    0.000    0.000 
#    0.000    0.000    0.000    0.000    0.000    0.000 
#
# Total GULP energy -156255.044254 kJ/mol
# GULP energy per Si atom -5580.537295 kJ/mol
# Density = 2.205374 g / cm^3
# Si number density = 22.104054 Si / 1000 Ang^3
#
#
#
# Elastic Constant Matrix: (Units=GPa)
#
#
# Indices 1 2 3 4 5 6 
#
# 1 41.0394 2.1086 -0.4964 0.0000 0.0000 0.0000
# 2 2.1086 141.3594 72.1839 0.0000 0.0000 0.0000
# 3 -0.4964 72.1839 130.0906 0.0000 0.0000 0.0000
# 4 0.0000 0.0000 0.0000 18.3801 0.0000 0.0000
# 5 0.0000 0.0000 0.0000 0.0000 6.9829 0.0000
# 6 0.0000 0.0000 0.0000 0.0000 0.0000 14.4293
#
#
#
# Elastic Compliance Matrix: (Units=1/GPa)
#
#
# Indices 1 2 3 4 5 6 
#
# 1 0.024401 -0.000574 0.000412 0.000000 0.000000 0.000000
# 2 -0.000574 0.009885 -0.005487 0.000000 0.000000 0.000000
# 3 0.000412 -0.005487 0.010733 0.000000 0.000000 0.000000
# 4 0.000000 0.000000 0.000000 0.054407 0.000000 0.000000
# 5 0.000000 0.000000 0.000000 0.000000 0.143207 0.000000
# 6 0.000000 0.000000 0.000000 0.000000 0.000000 0.069304
#
#
# Mechanical properties :
#
#
# Convention : Reuss Voigt Hill
#
# Bulk Modulus (GPa) = 29.65585 51.12020 40.38803
# Shear Modulus (GPa) = 14.94878 23.87133 19.41005
#
# Velocity S-wave (km/s) = 2.60338 3.28983 2.96653
# Velocity P-wave (km/s) = 4.74156 6.13253 5.48135
#
# Compressibility (1/GPa) = 0.03372016
#
# Stress axis : x y z
#
# Youngs Moduli (GPa) = 40.98142 101.16793 93.17019
#
# Poissons Ratio (x) = 0.05810 -0.03836
# Poissons Ratio (y) = 0.02353 0.51121
# Poissons Ratio (z) = -0.01687 0.55510
#
# Static dielectric constant tensor:
#      x y z
#    x 1.842240 0.000000 0.000000 
#    y 0.000000 1.820940 0.000000 
#    z 0.000000 0.000000 1.801040 
# 
# From -- ./inp_files/2307.got.cif
#   From: 2010.05.17/outbox.cif.g08.bks.cpg/sg25_2_cif.got.tgz:2307.got - 2010.06.04 01:04:00.
