data_PCOD9337870
_publ_section_title
;
Structure prediction by ZEFSAII (Michael W. Deem and Ramdas Pophale) SiO2 
 PCOD9337870
Probable space group: P M M 2
;
_chemical_formula_sum "Si O2"
_cell_formula_units_Z 32
_cell_length_a 9.000000
_cell_length_b 15.000000
_cell_length_c 12.000000
_cell_angle_alpha 90.000000
_cell_angle_beta 90.000000
_cell_angle_gamma 90.000000
_cell_volume 1620.000000
_symmetry_space_group_name_H-M "P M M 2"
_symmetry_group_IT_number 25
_symmetry_cell_setting 'orthorhombic'
loop_
_space_group_symop_operation_xyz
x,y,z
-x,-y,z
-x,y,z
x,-y,z
loop_
_atom_site_type_symbol
_atom_site_label
_atom_site_fract_x
_atom_site_fract_y
_atom_site_fract_z
Si Si1 0.331834 0.604089 0.786090
Si Si2 0.320359 0.102578 0.336841
Si Si3 0.331736 0.393039 0.356565
Si Si4 0.681469 0.101604 0.819017
Si Si5 0.828462 0.257410 0.206622
Si Si6 0.328108 0.743005 0.982391
Si Si7 0.834707 0.608531 0.572581
Si Si8 0.670175 0.891185 0.578875
O O1 0.500000 0.611157 0.739480
O O2 0.305537 0.500000 0.810279
O O3 0.325487 0.663014 0.894923
O O4 0.217274 0.636678 0.693897
O O5 0.500000 0.103724 0.340912
O O6 0.262611 0.171933 0.248369
O O7 0.262515 0.131701 0.459645
O O8 0.276261 0.000000 0.315857
O O9 0.500000 0.365838 0.331450
O O10 0.321491 0.500000 0.347234
O O11 0.220363 0.342889 0.276729
O O12 0.285641 0.366210 0.481022
O O13 0.500000 0.101436 0.811265
O O14 0.718499 0.168246 0.916809
O O15 0.737688 0.133594 0.697721
O O16 0.728340 0.000000 0.838590
O O17 0.000000 0.239106 0.220270
O O18 0.781654 0.275276 0.081403
O O19 0.500000 0.753280 0.021065
O O20 0.836311 0.500000 0.574147
O O21 0.000000 0.639100 0.543658
O O22 0.500000 0.858137 0.578089
O O23 0.663617 0.000000 0.580221
#
# Coordination Sequence:
#
# PCOD9337870 Si02
#       8
#     4   4   4   4   4   4   4   4
#     4   9  18  33  53  78 109 143 179 222 270 320
#     4   9  18  35  60  86 112 145 185 229 276 330
#     4  10  21  39  63  86 109 141 183 232 282 333
#     4   8  14  27  50  79 106 129 161 215 275 320
#     4  12  26  40  54  77 112 151 190 234 286 343
#     4  10  21  36  53  75 102 139 192 238 269 316
#     4   9  17  31  54  85 118 146 173 211 267 335
#     4   7  11  23  47  80 110 132 163 213 271 324
#
# _framework density 19.753086
#
# number of rings (size 3 to 8) (size 9 to 14) (size 15 to 20)
#    0.000    2.750    0.000    3.375    0.000    5.000 
#    0.000    5.000    0.000    0.750    0.000    1.750 
#    0.000    0.000    0.000    0.000    0.000    0.000 
#
# Total GULP energy -178384.760519 kJ/mol
# GULP energy per Si atom -5574.523766 kJ/mol
# Density = 1.970813 g / cm^3
# Si number density = 19.753086 Si / 1000 Ang^3
#
#
#
# Elastic Constant Matrix: (Units=GPa)
#
#
# Indices 1 2 3 4 5 6 
#
# 1 23.1917 18.0198 20.3907 0.0000 0.0000 0.0000
# 2 18.0198 41.8146 16.5556 0.0000 0.0000 0.0000
# 3 20.3907 16.5556 57.2768 0.0000 0.0000 0.0000
# 4 0.0000 0.0000 0.0000 19.9627 0.0000 0.0000
# 5 0.0000 0.0000 0.0000 0.0000 -20.4566 0.0000
# 6 0.0000 0.0000 0.0000 0.0000 0.0000 6.0072
#
#
#
# Elastic Compliance Matrix: (Units=1/GPa)
#
#
# Indices 1 2 3 4 5 6 
#
# 1 0.083600 -0.027377 -0.021849 0.000000 0.000000 0.000000
# 2 -0.027377 0.035971 -0.000651 0.000000 0.000000 0.000000
# 3 -0.021849 -0.000651 0.025425 0.000000 0.000000 0.000000
# 4 0.000000 0.000000 0.000000 0.050093 0.000000 0.000000
# 5 0.000000 0.000000 0.000000 0.000000 -0.048884 0.000000
# 6 0.000000 0.000000 0.000000 0.000000 0.000000 0.166466
#
#
# Mechanical properties :
#
#
# Convention : Reuss Voigt Hill
#
# Bulk Modulus (GPa) = 22.10255 25.80168 23.95212
# Shear Modulus (GPa) = 11.69575 5.59048 8.64311
#
# Velocity S-wave (km/s) = 2.43594 1.68414 2.09406
# Velocity P-wave (km/s) = 4.37327 4.10758 4.24251
#
# Compressibility (1/GPa) = 0.04524364
#
# Stress axis : x y z
#
# Youngs Moduli (GPa) = 11.96168 27.80046 39.33063
#
# Poissons Ratio (x) = 0.76108 0.85933
# Poissons Ratio (y) = 0.32747 0.02561
# Poissons Ratio (z) = 0.26135 0.01810
#
# Static dielectric constant tensor:
#      x y z
#    x 1.695090 0.000000 0.000000 
#    y 0.000000 1.692680 0.000000 
#    z 0.000000 0.000000 1.725820 
# 
# From -- ./inp_files/4300.got.cif
#   From: 2010.05.17/outbox.ucp.g08.bks.cvg/sg25_3_cif.got.tgz:4300.got - 2010.06.11 15:23:09.
