data_PCOD9337437
_publ_section_title
;
Structure prediction by ZEFSAII (Michael W. Deem and Ramdas Pophale) SiO2 
 PCOD9337437
Probable space group: P M M 2
;
_chemical_formula_sum "Si O2"
_cell_formula_units_Z 28
_cell_length_a 9.566277
_cell_length_b 7.455270
_cell_length_c 18.950745
_cell_angle_alpha 90.000000
_cell_angle_beta 90.000000
_cell_angle_gamma 90.000000
_cell_volume 1351.551555
_symmetry_space_group_name_H-M "P M M 2"
_symmetry_group_IT_number 25
_symmetry_cell_setting 'orthorhombic'
loop_
_space_group_symop_operation_xyz
x,y,z
-x,-y,z
-x,y,z
x,-y,z
loop_
_atom_site_type_symbol
_atom_site_label
_atom_site_fract_x
_atom_site_fract_y
_atom_site_fract_z
Si Si1 0.841322 0.284751 0.084390
Si Si2 0.163027 0.718808 0.508035
Si Si3 0.341598 0.214739 0.945960
Si Si4 0.661635 0.718577 0.374478
Si Si5 0.838075 0.284609 0.661343
Si Si6 0.338125 0.281154 0.216728
Si Si7 0.159664 0.212364 0.816172
O O1 0.849331 0.500000 0.090863
O O2 0.761840 0.218247 0.154306
O O3 0.000000 0.216937 0.077495
O O4 0.748632 0.247414 0.015814
O O5 0.167345 0.500000 0.507149
O O6 0.247059 0.782170 0.440059
O O7 0.219379 0.775632 0.585343
O O8 0.000000 0.768931 0.503450
O O9 0.500000 0.284343 0.951902
O O10 0.257618 0.285436 0.877884
O O11 0.351750 0.000000 0.937906
O O12 0.500000 0.769790 0.383502
O O13 0.666341 0.500000 0.374909
O O14 0.705947 0.774397 0.295687
O O15 0.839182 0.500000 0.659583
O O16 0.778688 0.234422 0.737425
O O17 0.000000 0.222550 0.663034
O O18 0.500000 0.227508 0.205417
O O19 0.337484 0.500000 0.216012
O O20 0.000000 0.285842 0.818147
O O21 0.147591 0.000000 0.828030
#
# Coordination Sequence:
#
# PCOD9337437 Si02
#       7
#     4   4   4   4   4   4   4
#     4  10  20  32  48  72  98 122 151 189 232 275
#     4   8  13  21  34  53  78 109 143 177 213 255
#     4  10  21  36  52  69  91 121 155 189 228 276
#     4   8  13  21  34  54  82 115 146 176 215 260
#     4   8  14  25  41  62  88 115 142 176 221 268
#     4   8  14  25  40  59  87 121 151 181 221 267
#     4   9  17  30  48  67  86 111 146 186 224 265
#
# _framework density 20.716930999999999
#
# number of rings (size 3 to 8) (size 9 to 14) (size 15 to 20)
#    0.000    3.286    0.000    2.571    0.000    2.857 
#    0.000    5.000    0.000    0.857    0.000    1.000 
#    0.000    3.429    0.000    0.000    0.000    0.000 
#
# Total GULP energy -156094.787635 kJ/mol
# GULP energy per Si atom -5574.813844 kJ/mol
# Density = 2.066978 g / cm^3
# Si number density = 20.716931 Si / 1000 Ang^3
#
#
#
# Elastic Constant Matrix: (Units=GPa)
#
#
# Indices 1 2 3 4 5 6 
#
# 1 118.9132 5.4736 124.7260 0.0000 0.0000 0.0000
# 2 5.4736 60.5583 1.7965 0.0000 0.0000 0.0000
# 3 124.7260 1.7965 251.3594 0.0000 0.0000 0.0000
# 4 0.0000 0.0000 0.0000 36.5319 0.0000 0.0000
# 5 0.0000 0.0000 0.0000 0.0000 89.8154 0.0000
# 6 0.0000 0.0000 0.0000 0.0000 0.0000 1.3056
#
#
#
# Elastic Compliance Matrix: (Units=1/GPa)
#
#
# Indices 1 2 3 4 5 6 
#
# 1 0.017644 -0.001335 -0.008745 0.000000 0.000000 0.000000
# 2 -0.001335 0.016618 0.000544 0.000000 0.000000 0.000000
# 3 -0.008745 0.000544 0.008314 0.000000 0.000000 0.000000
# 4 0.000000 0.000000 0.000000 0.027373 0.000000 0.000000
# 5 0.000000 0.000000 0.000000 0.000000 0.011134 0.000000
# 6 0.000000 0.000000 0.000000 0.000000 0.000000 0.765954
#
#
# Mechanical properties :
#
#
# Convention : Reuss Voigt Hill
#
# Bulk Modulus (GPa) = 42.55027 77.20255 59.87641
# Shear Modulus (GPa) = 5.72119 45.45289 25.58704
#
# Velocity S-wave (km/s) = 1.66361 4.68909 3.51818
# Velocity P-wave (km/s) = 4.92682 8.16475 6.74302
#
# Compressibility (1/GPa) = 0.02350161
#
# Stress axis : x y z
#
# Youngs Moduli (GPa) = 56.67662 60.17723 120.27838
#
# Poissons Ratio (x) = 0.08036 1.05189
# Poissons Ratio (y) = 0.07568 -0.06541
# Poissons Ratio (z) = 0.49566 -0.03273
#
# Static dielectric constant tensor:
#      x y z
#    x 1.713750 0.000000 0.000000 
#    y 0.000000 1.800720 0.000000 
#    z 0.000000 0.000000 1.747590 
# 
# From -- ./inp_files/6221.got.cif
#   From: 2010.05.17/outbox.cif.g08.bks.cpg/sg25_4_cif.got.tgz:6221.got - 2010.06.04 01:04:00.
