data_PCOD9337303
_publ_section_title
;
Structure prediction by ZEFSAII (Michael W. Deem and Ramdas Pophale) SiO2 
 PCOD9337303
Probable space group: P M M 2
;
_chemical_formula_sum "Si O2"
_cell_formula_units_Z 16
_cell_length_a 11.024189
_cell_length_b 7.645691
_cell_length_c 9.261979
_cell_angle_alpha 90.000000
_cell_angle_beta 90.000000
_cell_angle_gamma 90.000000
_cell_volume 780.669450
_symmetry_space_group_name_H-M "P M M 2"
_symmetry_group_IT_number 25
_symmetry_cell_setting 'orthorhombic'
loop_
_space_group_symop_operation_xyz
x,y,z
-x,-y,z
-x,y,z
x,-y,z
loop_
_atom_site_type_symbol
_atom_site_label
_atom_site_fract_x
_atom_site_fract_y
_atom_site_fract_z
Si Si1 0.741004 0.707237 0.186760
Si Si2 0.000000 0.701289 0.149879
Si Si3 0.500000 0.791126 0.010936
Si Si4 0.000000 0.785277 0.488429
Si Si5 0.261598 0.796033 0.520514
Si Si6 0.500000 0.215646 0.679876
O O1 0.758411 0.500000 0.207187
O O2 0.866605 0.776999 0.114971
O O3 0.724298 0.783645 0.347213
O O4 0.621557 0.735183 0.093348
O O5 0.000000 0.500000 0.099823
O O6 0.000000 0.714436 0.324801
O O7 0.500000 0.729901 0.845982
O O8 0.500000 0.000000 0.009296
O O9 0.127158 0.726390 0.556450
O O10 0.000000 0.000000 0.479855
O O11 0.378784 0.721142 0.599230
O O12 0.258196 0.000000 0.559827
O O13 0.500000 0.000000 0.673941
#
# Coordination Sequence:
#
# PCOD9337303 Si02
#       6
#     4   2   2   2   4   2
#     4  10  19  33  53  77 100 127 162 202 245 292
#     4   8  16  30  49  72 100 126 154 196 245 290
#     4  11  22  35  48  68 100 137 170 203 240 284
#     4   8  14  24  45  74  98 118 150 194 241 288
#     4   9  16  30  51  74  97 124 157 198 243 290
#     4   9  19  33  48  66  94 129 164 199 240 284
#
# _framework density 20.495229999999999
#
# number of rings (size 3 to 8) (size 9 to 14) (size 15 to 20)
#    0.000    2.750    0.000    1.875    0.000    2.000 
#    0.000    3.750    0.000    3.000    0.000    5.250 
#    0.000    0.000    0.000    0.000    0.000    0.000 
#
# Total GULP energy -89152.409954 kJ/mol
# GULP energy per Si atom -5572.025622 kJ/mol
# Density = 2.044858 g / cm^3
# Si number density = 20.495230 Si / 1000 Ang^3
#
#
#
# Elastic Constant Matrix: (Units=GPa)
#
#
# Indices 1 2 3 4 5 6 
#
# 1 267.2689 -2.1981 81.8204 0.0000 0.0000 0.0000
# 2 -2.1981 43.5402 -11.6779 0.0000 0.0000 0.0000
# 3 81.8204 -11.6779 57.1410 0.0000 0.0000 0.0000
# 4 0.0000 0.0000 0.0000 -242.0436 0.0000 0.0000
# 5 0.0000 0.0000 0.0000 0.0000 -8.6940 0.0000
# 6 0.0000 0.0000 0.0000 0.0000 0.0000 -4.2851
#
#
#
# Elastic Compliance Matrix: (Units=1/GPa)
#
#
# Indices 1 2 3 4 5 6 
#
# 1 0.006897 -0.002434 -0.010374 0.000000 0.000000 0.000000
# 2 -0.002434 0.025158 0.008627 0.000000 0.000000 0.000000
# 3 -0.010374 0.008627 0.034118 0.000000 0.000000 0.000000
# 4 0.000000 0.000000 0.000000 -0.004131 0.000000 0.000000
# 5 0.000000 0.000000 0.000000 0.000000 -0.115022 0.000000
# 6 0.000000 0.000000 0.000000 0.000000 0.000000 -0.233368
#
#
# Mechanical properties :
#
#
# Convention : Reuss Voigt Hill
#
# Bulk Modulus (GPa) = 17.29755 55.98211 36.63983
# Shear Modulus (GPa) = -19.32628 -31.00417 -25.16522
#
# Velocity S-wave (km/s) = -3.07410 -3.89363 -3.50788
# Velocity P-wave (km/s) = 2.03520 2.67586 1.22845
#
# Compressibility (1/GPa) = 0.05781166
#
# Stress axis : x y z
#
# Youngs Moduli (GPa) = 144.98432 39.74845 29.31015
#
# Poissons Ratio (x) = 0.09675 0.30406
# Poissons Ratio (y) = 0.35291 -0.25286
# Poissons Ratio (z) = 1.50403 -0.34291
#
# Static dielectric constant tensor:
#      x y z
#    x 1.823420 0.000000 0.000000 
#    y 0.000000 1.819170 0.000000 
#    z 0.000000 0.000000 1.659640 
# 
# From -- ./inp_files/2500.got.cif
#   From: 2010.05.17/outbox.cif.g08.bks.cpg/sg25_2_cif.got.tgz:2500.got - 2010.06.04 01:04:00.
