data_PCOD9337052
_publ_section_title
;
Structure prediction by ZEFSAII (Michael W. Deem and Ramdas Pophale) SiO2 
 PCOD9337052
Probable space group: I 21 21 21
;
_chemical_formula_sum "Si O2"
_cell_formula_units_Z 18
_cell_length_a 12.000000
_cell_length_b 24.000000
_cell_length_c 6.000000
_cell_angle_alpha 90.000000
_cell_angle_beta 90.000000
_cell_angle_gamma 90.000000
_cell_volume 1728.000000
_symmetry_space_group_name_H-M "I 21 21 21"
_symmetry_group_IT_number 24
_symmetry_cell_setting 'orthorhombic'
loop_
_space_group_symop_operation_xyz
x,y,z
-x,1/2-y,z
x,-y,1/2-z
1/2-x,y,-z
1/2+x,1/2+y,1/2+z
1/2-x,-y,1/2+z
1/2+x,1/2-y,-z
-x,1/2+y,1/2-z
loop_
_atom_site_type_symbol
_atom_site_label
_atom_site_fract_x
_atom_site_fract_y
_atom_site_fract_z
Si Si1 0.629938 0.551846 0.903460
Si Si2 0.565630 0.936309 0.261898
Si Si3 0.469028 0.856586 0.645058
Si Si4 0.868269 0.171234 0.551334
Si Si5 0.000000 0.750000 0.615715
O O1 0.594338 0.500000 0.750000
O O2 0.629203 0.609038 0.763399
O O3 0.750000 0.538777 0.000000
O O4 0.543091 0.560016 0.103316
O O5 0.525696 0.904190 0.486500
O O6 0.609530 0.000000 0.250000
O O7 0.646621 0.890322 0.156593
O O8 0.556531 0.837785 0.834105
O O9 0.438526 0.798555 0.525531
O O10 0.750000 0.196182 0.500000
O O11 0.924686 0.211864 0.727417
#
# Coordination Sequence:
#
# PCOD9337052 Si02
#       5
#     8   8   8   8   4
#     4  11  22  36  63  95 138 171 217 265 327 392
#     4  10  20  39  60  92 129 170 207 263 329 380
#     4  10  22  42  65  89 131 171 210 272 317 386
#     4  10  23  43  65  94 125 165 217 266 322 384
#     4  10  22  44  68  88 128 174 216 262 332 372
#
# _framework density 10.416667
#
# number of rings (size 3 to 8) (size 9 to 14) (size 15 to 20)
#    0.000    1.778    2.222    1.333    0.000    3.556 
#    4.000   26.667    0.000    0.000    0.000    0.000 
#    0.000    0.000    0.000    0.000    0.000    0.000 
#
# Total GULP energy -100338.395213 kJ/mol
# GULP energy per Si atom -5574.355290 kJ/mol
# Density = 1.039296 g / cm^3
# Si number density = 10.416667 Si / 1000 Ang^3
#
#
#
# Elastic Constant Matrix: (Units=GPa)
#
#
# Indices 1 2 3 4 5 6 
#
# 1 10.8660 2.7971 -2.3108 0.0001 0.0002 -0.0003
# 2 2.7971 179.9682 48.6863 0.0034 0.0002 -0.0012
# 3 -2.3108 48.6863 79.0906 0.0099 -0.0007 -0.0053
# 4 0.0001 0.0034 0.0099 50.4564 -0.0004 -0.0022
# 5 0.0002 0.0002 -0.0007 -0.0004 4.1543 0.0002
# 6 -0.0003 -0.0012 -0.0053 -0.0022 0.0002 7.7858
#
#
#
# Elastic Compliance Matrix: (Units=1/GPa)
#
#
# Indices 1 2 3 4 5 6 
#
# 1 0.093635 -0.002634 0.004357 -0.000001 -0.000003 0.000006
# 2 -0.002634 0.006741 -0.004226 0.000000 -0.000001 -0.000002
# 3 0.004357 -0.004226 0.015373 -0.000003 0.000003 0.000010
# 4 -0.000001 0.000000 -0.000003 0.019819 0.000002 0.000006
# 5 -0.000003 -0.000001 0.000003 0.000002 0.240717 -0.000005
# 6 0.000006 -0.000002 0.000010 0.000006 -0.000005 0.128439
#
#
# Mechanical properties :
#
#
# Convention : Reuss Voigt Hill
#
# Bulk Modulus (GPa) = 9.03002 40.91887 24.97444
# Shear Modulus (GPa) = 9.14673 27.19611 18.17142
#
# Velocity S-wave (km/s) = 2.09761 3.61697 2.95655
# Velocity P-wave (km/s) = 3.19538 6.09319 4.86505
#
# Compressibility (1/GPa) = 0.11074172
#
# Stress axis : x y z
#
# Youngs Moduli (GPa) = 10.67980 148.34933 65.05018
#
# Poissons Ratio (x) = 0.39075 -0.28344
# Poissons Ratio (y) = 0.02813 0.27493
# Poissons Ratio (z) = -0.04653 0.62699
#
# Static dielectric constant tensor:
#      x y z
#    x 1.687500 0.000000 0.000000 
#    y 0.000000 1.754310 0.000000 
#    z 0.000000 0.000000 1.825280 
# 
# From -- ./inp_files/2244.got.cif
#   From: 2010.05.17/outbox.ucp.g08.bks.cvg/sg24_2_cif.got.tgz:2244.got - 2010.06.11 15:20:44.
