data_PCOD9337345
_publ_section_title
;
Structure prediction by ZEFSAII (Michael W. Deem and Ramdas Pophale) SiO2 
 PCOD9337345
Probable space group: P M M 2
;
_chemical_formula_sum "Si O2"
_cell_formula_units_Z 28
_cell_length_a 8.151220
_cell_length_b 20.095277
_cell_length_c 8.177794
_cell_angle_alpha 90.000000
_cell_angle_beta 90.000000
_cell_angle_gamma 90.000000
_cell_volume 1339.531030
_symmetry_space_group_name_H-M "P M M 2"
_symmetry_group_IT_number 25
_symmetry_cell_setting 'orthorhombic'
loop_
_space_group_symop_operation_xyz
x,y,z
-x,-y,z
-x,y,z
x,-y,z
loop_
_atom_site_type_symbol
_atom_site_label
_atom_site_fract_x
_atom_site_fract_y
_atom_site_fract_z
Si Si1 0.311057 0.204950 0.732290
Si Si2 0.808479 0.927052 0.584777
Si Si3 0.811332 0.211140 0.082969
Si Si4 0.698271 0.659939 0.243788
Si Si5 0.299417 0.576765 0.926819
Si Si6 0.299286 0.655680 0.604305
Si Si7 0.691506 0.925472 0.220355
O O1 0.500000 0.195560 0.686338
O O2 0.223759 0.135379 0.699331
O O3 0.244918 0.268160 0.633334
O O4 0.296593 0.223157 0.922279
O O5 0.709620 0.919876 0.416301
O O6 0.000000 0.927030 0.539829
O O7 0.769080 0.000000 0.657252
O O8 0.758476 0.264728 0.217607
O O9 0.785201 0.135971 0.141970
O O10 0.000000 0.221853 0.039126
O O11 0.500000 0.660379 0.241328
O O12 0.749926 0.633940 0.422351
O O13 0.754810 0.616952 0.088034
O O14 0.500000 0.578162 0.927031
O O15 0.248816 0.500000 0.933369
O O16 0.245088 0.611577 0.758115
O O17 0.500000 0.656008 0.609416
O O18 0.500000 0.920089 0.175923
O O19 0.749953 0.000000 0.175522
#
# Coordination Sequence:
#
# PCOD9337345 Si02
#       7
#     4   4   4   4   4   4   4
#     4  11  21  36  57  80 111 152 200 249 296 351
#     4  10  21  37  56  82 117 153 192 243 299 354
#     4  12  24  37  56  82 113 150 195 250 308 360
#     4  10  19  35  59  85 117 155 196 240 292 356
#     4   9  17  31  54  88 125 153 185 236 293 349
#     4   9  18  32  54  84 115 150 190 237 288 342
#     4  10  21  38  59  82 110 149 196 244 297 359
#
# _framework density 20.902837999999999
#
# number of rings (size 3 to 8) (size 9 to 14) (size 15 to 20)
#    0.000    1.857    1.429    3.429    0.000    4.000 
#    0.000    3.571    0.000    0.429    0.000    0.000 
#    0.000    0.000    0.000    0.000    0.000    0.000 
#
# Total GULP energy -156377.309516 kJ/mol
# GULP energy per Si atom -5584.903911 kJ/mol
# Density = 2.085526 g / cm^3
# Si number density = 20.902838 Si / 1000 Ang^3
#
#
#
# Elastic Constant Matrix: (Units=GPa)
#
#
# Indices 1 2 3 4 5 6 
#
# 1 26.6172 13.2724 0.7053 0.0000 0.0000 0.0000
# 2 13.2724 123.5294 64.4268 0.0000 0.0000 0.0000
# 3 0.7053 64.4268 123.6275 0.0000 0.0000 0.0000
# 4 0.0000 0.0000 0.0000 17.4666 0.0000 0.0000
# 5 0.0000 0.0000 0.0000 0.0000 1.3942 0.0000
# 6 0.0000 0.0000 0.0000 0.0000 0.0000 -5.3505
#
#
#
# Elastic Compliance Matrix: (Units=1/GPa)
#
#
# Indices 1 2 3 4 5 6 
#
# 1 0.040385 -0.005794 0.002789 0.000000 0.000000 0.000000
# 2 -0.005794 0.011948 -0.006193 0.000000 0.000000 0.000000
# 3 0.002789 -0.006193 0.011301 0.000000 0.000000 0.000000
# 4 0.000000 0.000000 0.000000 0.057252 0.000000 0.000000
# 5 0.000000 0.000000 0.000000 0.000000 0.717270 0.000000
# 6 0.000000 0.000000 0.000000 0.000000 0.000000 -0.186898
#
#
# Mechanical properties :
#
#
# Convention : Reuss Voigt Hill
#
# Bulk Modulus (GPa) = 22.10588 47.84255 34.97421
# Shear Modulus (GPa) = 7.30213 15.72671 11.51442
#
# Velocity S-wave (km/s) = 1.87108 2.74592 2.34957
# Velocity P-wave (km/s) = 3.90723 5.74379 4.91211
#
# Compressibility (1/GPa) = 0.04523684
#
# Stress axis : x y z
#
# Youngs Moduli (GPa) = 24.76183 83.69667 88.49146
#
# Poissons Ratio (x) = 0.48491 -0.24679
# Poissons Ratio (y) = 0.14346 0.54807
# Poissons Ratio (z) = -0.06906 0.51837
#
# Static dielectric constant tensor:
#      x y z
#    x 1.707530 0.000000 0.000000 
#    y 0.000000 1.732620 0.000000 
#    z 0.000000 0.000000 1.744620 
# 
# From -- ./inp_files/2287.got.cif
#   From: 2010.05.17/outbox.cif.g08.bks.cpg/sg25_2_cif.got.tgz:2287.got - 2010.06.04 01:04:00.
