data_PCOD9337429
_publ_section_title
;
Structure prediction by ZEFSAII (Michael W. Deem and Ramdas Pophale) SiO2 
 PCOD9337429
Probable space group: P M M 2
;
_chemical_formula_sum "Si O2"
_cell_formula_units_Z 28
_cell_length_a 10.066428
_cell_length_b 7.458132
_cell_length_c 18.345928
_cell_angle_alpha 90.000000
_cell_angle_beta 90.000000
_cell_angle_gamma 90.000000
_cell_volume 1377.352628
_symmetry_space_group_name_H-M "P M M 2"
_symmetry_group_IT_number 25
_symmetry_cell_setting 'orthorhombic'
loop_
_space_group_symop_operation_xyz
x,y,z
-x,-y,z
-x,y,z
x,-y,z
loop_
_atom_site_type_symbol
_atom_site_label
_atom_site_fract_x
_atom_site_fract_y
_atom_site_fract_z
Si Si1 0.150347 0.288679 0.292330
Si Si2 0.347029 0.781330 0.748910
Si Si3 0.347172 0.218815 0.585273
Si Si4 0.151599 0.218533 0.875351
Si Si5 0.350041 0.210371 0.164696
Si Si6 0.150112 0.784361 0.460193
Si Si7 0.151898 0.780923 0.041316
O O1 0.142567 0.500000 0.280449
O O2 0.262835 0.221717 0.237904
O O3 0.185927 0.257321 0.376762
O O4 0.000000 0.214447 0.279973
O O5 0.500000 0.727467 0.760057
O O6 0.306098 0.726836 0.667087
O O7 0.252004 0.718984 0.813393
O O8 0.345074 0.000000 0.749671
O O9 0.500000 0.273239 0.573988
O O10 0.251684 0.282046 0.521060
O O11 0.345914 0.000000 0.584459
O O12 0.000000 0.272250 0.859855
O O13 0.154248 0.000000 0.874904
O O14 0.183647 0.272693 0.958257
O O15 0.500000 0.284000 0.171018
O O16 0.258733 0.285374 0.099566
O O17 0.363863 0.000000 0.148477
O O18 0.000000 0.717928 0.472296
O O19 0.147197 0.000000 0.465991
O O20 0.000000 0.725795 0.058561
O O21 0.151179 0.000000 0.042885
#
# Coordination Sequence:
#
# PCOD9337429 Si02
#       7
#     4   4   4   4   4   4   4
#     4  10  21  36  52  69  91 120 152 187 231 281
#     4   8  13  20  30  47  75 111 145 175 211 256
#     4   8  14  24  37  55  81 113 147 180 216 261
#     4   8  13  20  31  50  77 110 146 180 215 256
#     4  10  20  32  48  71  95 120 153 191 230 273
#     4   9  17  29  46  67  88 112 146 186 224 264
#     4   8  14  25  40  58  83 116 151 185 221 263
#
# _framework density 20.328852000000001
#
# number of rings (size 3 to 8) (size 9 to 14) (size 15 to 20)
#    0.000    3.286    0.000    2.571    0.000    3.429 
#    0.000    7.143    0.000    0.000    0.000    0.000 
#    0.000    1.143    0.000    6.286    0.000    8.571 
#
# Total GULP energy -156164.223243 kJ/mol
# GULP energy per Si atom -5577.293687 kJ/mol
# Density = 2.028258 g / cm^3
# Si number density = 20.328852 Si / 1000 Ang^3
#
#
#
# Elastic Constant Matrix: (Units=GPa)
#
#
# Indices 1 2 3 4 5 6 
#
# 1 163.8307 5.4029 153.2499 0.0000 0.0000 0.0000
# 2 5.4029 59.6826 -1.3735 0.0000 0.0000 0.0000
# 3 153.2499 -1.3735 184.0637 0.0000 0.0000 0.0000
# 4 0.0000 0.0000 0.0000 -43.5007 0.0000 0.0000
# 5 0.0000 0.0000 0.0000 0.0000 39.9106 0.0000
# 6 0.0000 0.0000 0.0000 0.0000 0.0000 -5.8209
#
#
#
# Elastic Compliance Matrix: (Units=1/GPa)
#
#
# Indices 1 2 3 4 5 6 
#
# 1 0.028155 -0.003089 -0.023464 0.000000 0.000000 0.000000
# 2 -0.003089 0.017097 0.002699 0.000000 0.000000 0.000000
# 3 -0.023464 0.002699 0.024989 0.000000 0.000000 0.000000
# 4 0.000000 0.000000 0.000000 -0.022988 0.000000 0.000000
# 5 0.000000 0.000000 0.000000 0.000000 0.025056 0.000000
# 6 0.000000 0.000000 0.000000 0.000000 0.000000 -0.171794
#
#
# Mechanical properties :
#
#
# Convention : Reuss Voigt Hill
#
# Bulk Modulus (GPa) = 44.37895 80.23729 62.30812
# Shear Modulus (GPa) = -112.95242 14.80432 -49.07405
#
# Velocity S-wave (km/s) = -7.46212 2.70152 -4.91859
# Velocity P-wave (km/s) = 7.23646 7.02042 1.24098
#
# Compressibility (1/GPa) = 0.02253321
#
# Stress axis : x y z
#
# Youngs Moduli (GPa) = 35.51802 58.48971 40.01710
#
# Poissons Ratio (x) = 0.18066 0.93898
# Poissons Ratio (y) = 0.10971 -0.10802
# Poissons Ratio (z) = 0.83341 -0.15788
#
# Static dielectric constant tensor:
#      x y z
#    x 1.702940 0.000000 0.000000 
#    y 0.000000 1.764480 0.000000 
#    z 0.000000 0.000000 1.693490 
# 
# From -- ./inp_files/6335.got.cif
#   From: 2010.05.17/outbox.cif.g08.bks.cpg/sg25_4_cif.got.tgz:6335.got - 2010.06.04 01:04:00.
