data_PCOD9337407
_publ_section_title
;
Structure prediction by ZEFSAII (Michael W. Deem and Ramdas Pophale) SiO2 
 PCOD9337407
Probable space group: P M M 2
;
_chemical_formula_sum "Si O2"
_cell_formula_units_Z 32
_cell_length_a 7.438234
_cell_length_b 9.857771
_cell_length_c 21.529338
_cell_angle_alpha 90.000000
_cell_angle_beta 90.000000
_cell_angle_gamma 90.000000
_cell_volume 1578.625951
_symmetry_space_group_name_H-M "P M M 2"
_symmetry_group_IT_number 25
_symmetry_cell_setting 'orthorhombic'
loop_
_space_group_symop_operation_xyz
x,y,z
-x,-y,z
-x,y,z
x,-y,z
loop_
_atom_site_type_symbol
_atom_site_label
_atom_site_fract_x
_atom_site_fract_y
_atom_site_fract_z
Si Si1 0.280327 0.158107 0.740510
Si Si2 0.219138 0.844102 0.373961
Si Si3 0.286970 0.346496 0.629091
Si Si4 0.780461 0.343366 0.123154
Si Si5 0.786940 0.154359 0.012611
Si Si6 0.783670 0.154388 0.513833
Si Si7 0.715595 0.843677 0.876877
Si Si8 0.780877 0.343463 0.261978
O O1 0.500000 0.156966 0.739155
O O2 0.215103 0.254674 0.685606
O O3 0.225144 0.208383 0.809430
O O4 0.226256 0.000000 0.732598
O O5 0.276824 0.808331 0.444072
O O6 0.282260 0.748039 0.318797
O O7 0.000000 0.839284 0.373914
O O8 0.270205 0.000000 0.362750
O O9 0.500000 0.357744 0.639999
O O10 0.214789 0.500000 0.625947
O O11 0.265430 0.262617 0.565715
O O12 0.726176 0.500000 0.114473
O O13 0.726117 0.299157 0.192636
O O14 0.000000 0.342667 0.122304
O O15 0.715740 0.247304 0.067956
O O16 0.764184 0.216416 0.943617
O O17 0.000000 0.143546 0.022475
O O18 0.713263 0.000000 0.013172
O O19 0.000000 0.148944 0.512301
O O20 0.721140 0.000000 0.528180
O O21 0.500000 0.845615 0.875090
O O22 0.780023 0.000000 0.879145
O O23 0.727689 0.500000 0.270001
O O24 0.000000 0.340479 0.262620
#
# Coordination Sequence:
#
# PCOD9337407 Si02
#       8
#     4   4   4   4   4   4   4   4
#     4   8  14  27  47  65  81 108 145 179 212 254
#     4   8  14  24  38  58  84 110 137 174 216 252
#     4  10  20  32  47  69  94 118 147 184 223 263
#     4   8  14  24  36  52  79 113 142 167 201 248
#     4   9  16  25  39  61  85 106 133 172 212 246
#     4   9  18  32  48  67  92 121 151 182 220 267
#     4   8  14  26  44  63  82 107 139 172 208 252
#     4   8  13  21  34  53  77 107 142 173 202 244
#
# _framework density 20.270793999999999
#
# number of rings (size 3 to 8) (size 9 to 14) (size 15 to 20)
#    0.000    3.500    0.000    2.625    0.000    2.000 
#    0.000    5.000    0.000    3.375    0.000    0.875 
#    0.000    3.000    0.000    0.000    0.000    0.000 
#
# Total GULP energy -178322.653527 kJ/mol
# GULP energy per Si atom -5572.582923 kJ/mol
# Density = 2.022466 g / cm^3
# Si number density = 20.270794 Si / 1000 Ang^3
#
#
#
# Elastic Constant Matrix: (Units=GPa)
#
#
# Indices 1 2 3 4 5 6 
#
# 1 60.7523 4.6336 2.5128 0.0000 0.0000 0.0000
# 2 4.6336 109.9582 128.8389 0.0000 0.0000 0.0000
# 3 2.5128 128.8389 233.0683 0.0000 0.0000 0.0000
# 4 0.0000 0.0000 0.0000 -20.9863 0.0000 0.0000
# 5 0.0000 0.0000 0.0000 0.0000 19.0239 0.0000
# 6 0.0000 0.0000 0.0000 0.0000 0.0000 1.7096
#
#
#
# Elastic Compliance Matrix: (Units=1/GPa)
#
#
# Indices 1 2 3 4 5 6 
#
# 1 0.016542 -0.001385 0.000588 0.000000 0.000000 0.000000
# 2 -0.001385 0.025931 -0.014320 0.000000 0.000000 0.000000
# 3 0.000588 -0.014320 0.012200 0.000000 0.000000 0.000000
# 4 0.000000 0.000000 0.000000 -0.047650 0.000000 0.000000
# 5 0.000000 0.000000 0.000000 0.000000 0.052565 0.000000
# 6 0.000000 0.000000 0.000000 0.000000 0.000000 0.584935
#
#
# Mechanical properties :
#
#
# Convention : Reuss Voigt Hill
#
# Bulk Modulus (GPa) = 40.92034 75.08327 58.00180
# Shear Modulus (GPa) = 7.32167 17.80235 12.56201
#
# Velocity S-wave (km/s) = 1.90257 2.96670 2.49210
# Velocity P-wave (km/s) = 5.00570 6.98968 6.07917
#
# Compressibility (1/GPa) = 0.02443773
#
# Stress axis : x y z
#
# Youngs Moduli (GPa) = 60.45341 38.56341 81.96628
#
# Poissons Ratio (x) = 0.05343 -0.04816
# Poissons Ratio (y) = 0.08376 1.17374
# Poissons Ratio (z) = -0.03552 0.55222
#
# Static dielectric constant tensor:
#      x y z
#    x 1.797710 0.000000 0.000000 
#    y 0.000000 1.688530 0.000000 
#    z 0.000000 0.000000 1.728100 
# 
# From -- ./inp_files/6515.got.cif
#   From: 2010.05.17/outbox.cif.g08.bks.cpg/sg25_4_cif.got.tgz:6515.got - 2010.06.04 01:04:00.
