data_PCOD9337124
_publ_section_title
;
Structure prediction by ZEFSAII (Michael W. Deem and Ramdas Pophale) SiO2 
 PCOD9337124
Probable space group: P M M 2
;
_chemical_formula_sum "Si O2"
_cell_formula_units_Z 32
_cell_length_a 14.725498
_cell_length_b 8.644342
_cell_length_c 16.116630
_cell_angle_alpha 90.000000
_cell_angle_beta 90.000000
_cell_angle_gamma 90.000000
_cell_volume 2051.521947
_symmetry_space_group_name_H-M "P M M 2"
_symmetry_group_IT_number 25
_symmetry_cell_setting 'orthorhombic'
loop_
_space_group_symop_operation_xyz
x,y,z
-x,-y,z
-x,y,z
x,-y,z
loop_
_atom_site_type_symbol
_atom_site_label
_atom_site_fract_x
_atom_site_fract_y
_atom_site_fract_z
Si Si1 0.897443 0.313592 0.306260
Si Si2 0.395409 0.814098 0.533140
Si Si3 0.604654 0.811434 0.209825
Si Si4 0.394494 0.312616 0.890658
Si Si5 0.389782 0.678762 0.707739
Si Si6 0.896809 0.313484 0.112820
Si Si7 0.284668 0.813025 0.373153
Si Si8 0.714620 0.185222 0.045918
O O1 0.893705 0.500000 0.309344
O O2 0.883007 0.268353 0.209592
O O3 0.817429 0.244572 0.360834
O O4 0.000000 0.266189 0.329500
O O5 0.500000 0.759295 0.522585
O O6 0.362139 0.765345 0.624263
O O7 0.332959 0.759126 0.457545
O O8 0.397690 0.000000 0.529756
O O9 0.500000 0.760517 0.209227
O O10 0.656941 0.761690 0.292907
O O11 0.657843 0.761799 0.127261
O O12 0.604327 0.000000 0.210130
O O13 0.500000 0.265014 0.903239
O O14 0.393360 0.500000 0.889818
O O15 0.362866 0.260504 0.798667
O O16 0.332580 0.251127 0.964119
O O17 0.500000 0.682099 0.709689
O O18 0.361790 0.500000 0.700853
O O19 0.891068 0.500000 0.108864
O O20 0.817488 0.240771 0.058691
O O21 0.000000 0.269302 0.089833
O O22 0.284741 0.000000 0.373214
O O23 0.711668 0.000000 0.043584
#
# Coordination Sequence:
#
# PCOD9337124 Si02
#       8
#     4   4   4   4   4   4   4   4
#     4   9  18  32  48  65  87 116 151 194 237 270
#     4   9  17  28  44  67  94 123 153 186 226 270
#     4   9  17  28  40  58  90 127 156 180 211 256
#     4   9  18  32  48  66  92 126 159 191 229 274
#     4   8  15  29  47  65  87 118 155 193 230 265
#     4   9  18  33  50  65  86 119 156 195 237 277
#     4  10  18  29  45  66  91 122 156 187 222 267
#     4  11  20  29  45  70  95 122 155 192 231 271
#
# _framework density 15.598174999999999
#
# number of rings (size 3 to 8) (size 9 to 14) (size 15 to 20)
#    0.000    2.750    1.250    2.625    0.000    3.750 
#    0.000    2.500    0.000    1.875    0.000    0.875 
#    0.000    5.000    0.000    0.000    0.000    0.000 
#
# Total GULP energy -178309.482358 kJ/mol
# GULP energy per Si atom -5572.171324 kJ/mol
# Density = 1.556267 g / cm^3
# Si number density = 15.598175 Si / 1000 Ang^3
#
#
#
# Elastic Constant Matrix: (Units=GPa)
#
#
# Indices 1 2 3 4 5 6 
#
# 1 114.1009 21.1306 78.9882 0.0000 0.0000 0.0000
# 2 21.1306 9.5752 26.1199 0.0000 0.0000 0.0000
# 3 78.9882 26.1199 147.4591 0.0000 0.0000 0.0000
# 4 0.0000 0.0000 0.0000 22.1990 0.0000 0.0000
# 5 0.0000 0.0000 0.0000 0.0000 9.8353 0.0000
# 6 0.0000 0.0000 0.0000 0.0000 0.0000 20.9392
#
#
#
# Elastic Compliance Matrix: (Units=1/GPa)
#
#
# Indices 1 2 3 4 5 6 
#
# 1 0.016263 -0.023462 -0.004555 0.000000 0.000000 0.000000
# 2 -0.023462 0.235932 -0.029223 0.000000 0.000000 0.000000
# 3 -0.004555 -0.029223 0.014398 0.000000 0.000000 0.000000
# 4 0.000000 0.000000 0.000000 0.045047 0.000000 0.000000
# 5 0.000000 0.000000 0.000000 0.000000 0.101674 0.000000
# 6 0.000000 0.000000 0.000000 0.000000 0.000000 0.047757
#
#
# Mechanical properties :
#
#
# Convention : Reuss Voigt Hill
#
# Bulk Modulus (GPa) = 6.57417 58.17915 32.37666
# Shear Modulus (GPa) = 7.98395 20.25448 14.11921
#
# Velocity S-wave (km/s) = 2.26487 3.60740 3.01189
# Velocity P-wave (km/s) = 3.32616 7.39803 5.73560
#
# Compressibility (1/GPa) = 0.15211051
#
# Stress axis : x y z
#
# Youngs Moduli (GPa) = 61.49026 4.23851 69.45342
#
# Poissons Ratio (x) = 0.09944 0.31639
# Poissons Ratio (y) = 1.44270 2.02967
# Poissons Ratio (z) = 0.28011 0.12386
#
# Static dielectric constant tensor:
#      x y z
#    x 1.505810 0.000000 0.000000 
#    y 0.000000 1.534100 0.000000 
#    z 0.000000 0.000000 1.519470 
# 
# From -- ./inp_files/5689.got.cif
#   From: 2010.05.17/outbox.cif.g08.bks.cpg/sg25_3_cif.got.tgz:5689.got - 2010.06.04 01:04:00.
