data_PCOD9337720
_publ_section_title
;
Structure prediction by ZEFSAII (Michael W. Deem and Ramdas Pophale) SiO2 
 PCOD9337720
Probable space group: P M M 2
;
_chemical_formula_sum "Si O2"
_cell_formula_units_Z 32
_cell_length_a 9.218949
_cell_length_b 14.178558
_cell_length_c 13.330550
_cell_angle_alpha 90.000000
_cell_angle_beta 90.000000
_cell_angle_gamma 90.000000
_cell_volume 1742.454895
_symmetry_space_group_name_H-M "P M M 2"
_symmetry_group_IT_number 25
_symmetry_cell_setting 'orthorhombic'
loop_
_space_group_symop_operation_xyz
x,y,z
-x,-y,z
-x,y,z
x,-y,z
loop_
_atom_site_type_symbol
_atom_site_label
_atom_site_fract_x
_atom_site_fract_y
_atom_site_fract_z
Si Si1 0.674432 0.775339 0.355200
Si Si2 0.828026 0.388427 0.259837
Si Si3 0.334874 0.614535 0.054073
Si Si4 0.826824 0.609024 0.849467
Si Si5 0.826108 0.793461 0.743699
Si Si6 0.674671 0.109929 0.555602
Si Si7 0.170062 0.113318 0.954388
Si Si8 0.673529 0.889723 0.155550
O O1 0.500000 0.761975 0.353968
O O2 0.754978 0.676075 0.344118
O O3 0.712743 0.834025 0.454179
O O4 0.714982 0.834795 0.255940
O O5 0.802813 0.500000 0.275873
O O6 0.753591 0.361353 0.153927
O O7 0.000000 0.372914 0.254355
O O8 0.500000 0.650282 0.058971
O O9 0.340714 0.500000 0.053180
O O10 0.254873 0.639379 0.950932
O O11 0.790394 0.500000 0.827044
O O12 0.793858 0.682916 0.761685
O O13 0.000000 0.613885 0.868534
O O14 0.746470 0.840263 0.650818
O O15 0.783460 0.843250 0.848545
O O16 0.000000 0.804777 0.732134
O O17 0.500000 0.112716 0.565175
O O18 0.717844 0.000000 0.549345
O O19 0.000000 0.135495 0.967680
O O20 0.185833 0.000000 0.947850
O O21 0.255524 0.146104 0.052755
O O22 0.500000 0.884870 0.146002
O O23 0.713833 0.000000 0.166889
#
# Coordination Sequence:
#
# PCOD9337720 Si02
#       8
#     4   4   4   4   4   4   4   4
#     4  10  21  37  58  83 110 143 185 232 282 332
#     4  10  21  36  54  79 113 151 190 230 272 325
#     4   9  17  30  50  77 110 148 187 228 273 322
#     4   9  18  33  52  77 112 152 191 230 276 329
#     4  10  21  36  56  81 110 147 190 234 281 330
#     4  10  22  41  63  85 110 142 183 233 286 341
#     4   9  18  32  49  73 107 142 176 222 279 333
#     4   9  18  33  53  78 108 141 177 220 274 336
#
# _framework density 18.364895000000001
#
# number of rings (size 3 to 8) (size 9 to 14) (size 15 to 20)
#    0.000    2.500    0.000    1.500    1.750    6.500 
#    0.000    1.875    0.000    4.500    0.000    0.000 
#    0.000    0.000    0.000    0.000    0.000    0.000 
#
# Total GULP energy -178628.806425 kJ/mol
# GULP energy per Si atom -5582.150201 kJ/mol
# Density = 1.832310 g / cm^3
# Si number density = 18.364895 Si / 1000 Ang^3
#
#
#
# Elastic Constant Matrix: (Units=GPa)
#
#
# Indices 1 2 3 4 5 6 
#
# 1 42.2772 52.1676 57.5152 0.0000 0.0000 0.0000
# 2 52.1676 109.8018 83.2381 0.0000 0.0000 0.0000
# 3 57.5152 83.2381 152.3515 0.0000 0.0000 0.0000
# 4 0.0000 0.0000 0.0000 35.9655 0.0000 0.0000
# 5 0.0000 0.0000 0.0000 0.0000 53.4757 0.0000
# 6 0.0000 0.0000 0.0000 0.0000 0.0000 22.4338
#
#
#
# Elastic Compliance Matrix: (Units=1/GPa)
#
#
# Indices 1 2 3 4 5 6 
#
# 1 0.072074 -0.023243 -0.014510 0.000000 0.000000 0.000000
# 2 -0.023243 0.023042 -0.003814 0.000000 0.000000 0.000000
# 3 -0.014510 -0.003814 0.014126 0.000000 0.000000 0.000000
# 4 0.000000 0.000000 0.000000 0.027804 0.000000 0.000000
# 5 0.000000 0.000000 0.000000 0.000000 0.018700 0.000000
# 6 0.000000 0.000000 0.000000 0.000000 0.000000 0.044576
#
#
# Mechanical properties :
#
#
# Convention : Reuss Voigt Hill
#
# Bulk Modulus (GPa) = 38.30498 76.69693 57.50095
# Shear Modulus (GPa) = 17.11395 29.80897 23.46146
#
# Velocity S-wave (km/s) = 3.05599 4.03320 3.57811
# Velocity P-wave (km/s) = 5.77539 7.97135 6.96051
#
# Compressibility (1/GPa) = 0.02610627
#
# Stress axis : x y z
#
# Youngs Moduli (GPa) = 13.87459 43.39925 70.79333
#
# Poissons Ratio (x) = 1.00873 1.02723
# Poissons Ratio (y) = 0.32249 0.27003
# Poissons Ratio (z) = 0.20132 0.16554
#
# Static dielectric constant tensor:
#      x y z
#    x 1.617080 0.000000 0.000000 
#    y 0.000000 1.678420 0.000000 
#    z 0.000000 0.000000 1.590930 
# 
# From -- ./inp_files/4252.got.cif
#   From: 2010.05.17/outbox.cif.g08.bks.cpg/sg25_3_cif.got.tgz:4252.got - 2010.06.04 01:04:00.
