data_PCOD9337612
_publ_section_title
;
Structure prediction by ZEFSAII (Michael W. Deem and Ramdas Pophale) SiO2 
 PCOD9337612
Probable space group: P M M 2
;
_chemical_formula_sum "Si O2"
_cell_formula_units_Z 20
_cell_length_a 7.571904
_cell_length_b 8.259522
_cell_length_c 14.622787
_cell_angle_alpha 90.000000
_cell_angle_beta 90.000000
_cell_angle_gamma 90.000000
_cell_volume 914.513598
_symmetry_space_group_name_H-M "P M M 2"
_symmetry_group_IT_number 25
_symmetry_cell_setting 'orthorhombic'
loop_
_space_group_symop_operation_xyz
x,y,z
-x,-y,z
-x,y,z
x,-y,z
loop_
_atom_site_type_symbol
_atom_site_label
_atom_site_fract_x
_atom_site_fract_y
_atom_site_fract_z
Si Si1 0.283576 0.000000 0.150360
Si Si2 0.715446 0.000000 0.362445
Si Si3 0.712723 0.314956 0.684697
Si Si4 0.715647 0.687262 0.477532
Si Si5 0.295212 0.326414 0.056929
Si Si6 0.206931 0.822584 0.877732
O O1 0.234476 0.000000 0.256520
O O2 0.219496 0.163889 0.101501
O O3 0.500000 0.000000 0.144496
O O4 0.773286 0.833566 0.412114
O O5 0.500000 0.000000 0.366564
O O6 0.500000 0.310494 0.684304
O O7 0.769122 0.500000 0.700791
O O8 0.769568 0.271493 0.582020
O O9 0.772287 0.212418 0.770836
O O10 0.500000 0.684637 0.475629
O O11 0.770367 0.500000 0.457373
O O12 0.500000 0.331357 0.085395
O O13 0.214668 0.500000 0.081528
O O14 0.290101 0.303554 0.947467
O O15 0.000000 0.821907 0.898056
O O16 0.282209 0.000000 0.898040
#
# Coordination Sequence:
#
# PCOD9337612 Si02
#       6
#     2   2   4   4   4   4
#     4   9  18  32  48  73 104 130 167 213 252 301
#     4   9  16  26  45  71 100 134 163 197 254 299
#     4   9  18  32  50  74 103 136 173 208 246 297
#     4   8  15  27  43  69 103 133 165 202 240 293
#     4  10  20  35  55  76 101 136 172 207 254 306
#     4  11  23  35  49  74 105 136 172 212 255 302
#
# _framework density 21.869548000000002
#
# number of rings (size 3 to 8) (size 9 to 14) (size 15 to 20)
#    0.000    2.600    1.000    2.400    1.400    5.200 
#    0.000    4.000    0.000    0.000    0.000    2.800 
#    0.000    3.200    0.000    0.000    0.000    0.000 
#
# Total GULP energy -111605.270655 kJ/mol
# GULP energy per Si atom -5580.263533 kJ/mol
# Density = 2.181977 g / cm^3
# Si number density = 21.869548 Si / 1000 Ang^3
#
#
#
# Elastic Constant Matrix: (Units=GPa)
#
#
# Indices 1 2 3 4 5 6 
#
# 1 50.2495 9.3117 -1.2223 0.0000 0.0000 0.0000
# 2 9.3117 189.8951 96.2828 0.0000 0.0000 0.0000
# 3 -1.2223 96.2828 125.2812 0.0000 0.0000 0.0000
# 4 0.0000 0.0000 0.0000 7.5892 0.0000 0.0000
# 5 0.0000 0.0000 0.0000 0.0000 -41.9292 0.0000
# 6 0.0000 0.0000 0.0000 0.0000 0.0000 -13.5459
#
#
#
# Elastic Compliance Matrix: (Units=1/GPa)
#
#
# Indices 1 2 3 4 5 6 
#
# 1 0.020271 -0.001793 0.001576 0.000000 0.000000 0.000000
# 2 -0.001793 0.008787 -0.006770 0.000000 0.000000 0.000000
# 3 0.001576 -0.006770 0.013201 0.000000 0.000000 0.000000
# 4 0.000000 0.000000 0.000000 0.131766 0.000000 0.000000
# 5 0.000000 0.000000 0.000000 0.000000 -0.023850 0.000000
# 6 0.000000 0.000000 0.000000 0.000000 0.000000 -0.073823
#
#
# Mechanical properties :
#
#
# Convention : Reuss Voigt Hill
#
# Bulk Modulus (GPa) = 35.35636 63.79667 49.57652
# Shear Modulus (GPa) = 50.12265 7.82640 28.97452
#
# Velocity S-wave (km/s) = 4.79256 1.89379 3.64384
# Velocity P-wave (km/s) = 6.84302 5.83239 6.35782
#
# Compressibility (1/GPa) = 0.02828345
#
# Stress axis : x y z
#
# Youngs Moduli (GPa) = 49.33088 113.80678 75.75328
#
# Poissons Ratio (x) = 0.20405 -0.11937
# Poissons Ratio (y) = 0.08845 0.51288
# Poissons Ratio (z) = -0.07773 0.77052
#
# Static dielectric constant tensor:
#      x y z
#    x 1.805460 0.000000 0.000000 
#    y 0.000000 1.808360 0.000000 
#    z 0.000000 0.000000 1.759310 
# 
# From -- ./inp_files/5123.got.cif
#   From: 2010.05.17/outbox.cif.g08.bks.cpg/sg25_3_cif.got.tgz:5123.got - 2010.06.04 01:04:00.
