data_PCOD9337026
_publ_section_title
;
Structure prediction by ZEFSAII (Michael W. Deem and Ramdas Pophale) SiO2 
 PCOD9337026
Probable space group: I 21 21 21
;
_chemical_formula_sum "Si O2"
_cell_formula_units_Z 20
_cell_length_a 9.761003
_cell_length_b 6.685430
_cell_length_c 9.991268
_cell_angle_alpha 90.000000
_cell_angle_beta 90.000000
_cell_angle_gamma 90.000000
_cell_volume 651.995203
_symmetry_space_group_name_H-M "I 21 21 21"
_symmetry_group_IT_number 24
_symmetry_cell_setting 'orthorhombic'
loop_
_space_group_symop_operation_xyz
x,y,z
-x,1/2-y,z
x,-y,1/2-z
1/2-x,y,-z
1/2+x,1/2+y,1/2+z
1/2-x,-y,1/2+z
1/2+x,1/2-y,-z
-x,1/2+y,1/2-z
loop_
_atom_site_type_symbol
_atom_site_label
_atom_site_fract_x
_atom_site_fract_y
_atom_site_fract_z
Si Si1 0.209294 0.183448 0.151580
Si Si2 0.590992 0.075295 0.536973
Si Si3 0.925276 0.000000 0.750000
O O1 0.109389 0.374063 0.121872
O O2 0.334332 0.302205 0.222131
O O3 0.178334 0.000000 0.250000
O O4 0.250000 0.120143 0.000000
O O5 0.500000 0.250000 0.597933
O O6 0.750000 0.126948 0.500000
O O7 0.514269 0.029513 0.396699
#
# Coordination Sequence:
#
# PCOD9337026 Si02
#       3
#     8   8   4
#     4   9  19  37  72 121 164 210 270 351 408 486
#     4   9  19  40  76 123 165 214 277 347 415 495
#     4   8  18  38  66 112 166 206 276 336 400 492
#
# _framework density 30.675070000000002
#
# number of rings (size 3 to 8) (size 9 to 14) (size 15 to 20)
#    0.000    4.000    0.000    0.000    0.000    6.400 
#    3.600    0.000    0.000    9.600  104.000  184.800 
#    0.000    0.000    0.000    0.000    0.000    0.000 
#
# Total GULP energy -56010.341753 kJ/mol
# GULP energy per Si atom -5601.034175 kJ/mol
# Density = 3.060525 g / cm^3
# Si number density = 30.675070 Si / 1000 Ang^3
#
#
#
# Elastic Constant Matrix: (Units=GPa)
#
#
# Indices 1 2 3 4 5 6 
#
# 1 149.3610 122.2150 41.8320 0.0000 0.0000 0.0000
# 2 122.2150 309.9730 143.5710 0.0000 0.0000 0.0000
# 3 41.8320 143.5710 289.0423 0.0000 0.0000 0.0000
# 4 0.0000 0.0000 0.0000 102.7209 0.0000 0.0000
# 5 0.0000 0.0000 0.0000 0.0000 30.7634 0.0000
# 6 0.0000 0.0000 0.0000 0.0000 0.0000 78.7781
#
#
#
# Elastic Compliance Matrix: (Units=1/GPa)
#
#
# Indices 1 2 3 4 5 6 
#
# 1 0.009981 -0.004242 0.000663 0.000000 0.000000 0.000000
# 2 -0.004242 0.005993 -0.002363 0.000000 0.000000 0.000000
# 3 0.000663 -0.002363 0.004537 0.000000 0.000000 0.000000
# 4 0.000000 0.000000 0.000000 0.009735 0.000000 0.000000
# 5 0.000000 0.000000 0.000000 0.000000 0.032506 0.000000
# 6 0.000000 0.000000 0.000000 0.000000 0.000000 0.012694
#
#
# Mechanical properties :
#
#
# Convention : Reuss Voigt Hill
#
# Bulk Modulus (GPa) = 115.92104 151.51245 133.71674
# Shear Modulus (GPa) = 55.42838 71.83638 63.63238
#
# Velocity S-wave (km/s) = 4.25544 4.84452 4.55950
# Velocity P-wave (km/s) = 7.87509 8.98846 8.45013
#
# Compressibility (1/GPa) = 0.00862656
#
# Stress axis : x y z
#
# Youngs Moduli (GPa) = 100.19366 166.85992 220.38655
#
# Poissons Ratio (x) = 0.70783 -0.14603
# Poissons Ratio (y) = 0.42503 0.52075
# Poissons Ratio (z) = -0.06639 0.39427
#
# Static dielectric constant tensor:
#      x y z
#    x 2.582680 0.000000 0.000000 
#    y 0.000000 2.411740 0.000000 
#    z 0.000000 0.000000 2.294100 
# 
# From -- ./inp_files/9929.got.cif
#   From: 2010.05.17/outbox.cif.g08.bks.cpg/sg24_5_cif.got.tgz:9929.got - 2010.06.04 00:33:39.
