data_PCOD9337291
_publ_section_title
;
Structure prediction by ZEFSAII (Michael W. Deem and Ramdas Pophale) SiO2 
 PCOD9337291
Probable space group: P M M 2
;
_chemical_formula_sum "Si O2"
_cell_formula_units_Z 32
_cell_length_a 15.869149
_cell_length_b 9.120799
_cell_length_c 12.003661
_cell_angle_alpha 90.000000
_cell_angle_beta 90.000000
_cell_angle_gamma 90.000000
_cell_volume 1737.401711
_symmetry_space_group_name_H-M "P M M 2"
_symmetry_group_IT_number 25
_symmetry_cell_setting 'orthorhombic'
loop_
_space_group_symop_operation_xyz
x,y,z
-x,-y,z
-x,y,z
x,-y,z
loop_
_atom_site_type_symbol
_atom_site_label
_atom_site_fract_x
_atom_site_fract_y
_atom_site_fract_z
Si Si1 0.411434 0.675108 0.592950
Si Si2 0.170389 0.828950 0.516613
Si Si3 0.253398 0.675654 0.983700
Si Si4 0.244820 0.324190 0.721029
Si Si5 0.600801 0.177240 0.131311
Si Si6 0.098188 0.661189 0.327345
Si Si7 0.347662 0.171565 0.383125
Si Si8 0.899670 0.173846 0.108803
O O1 0.500000 0.721987 0.642912
O O2 0.408573 0.500000 0.585942
O O3 0.334822 0.720114 0.669815
O O4 0.402889 0.737744 0.469575
O O5 0.183106 0.765528 0.640186
O O6 0.107125 0.728160 0.448816
O O7 0.254580 0.813349 0.438167
O O8 0.148561 0.000000 0.519376
O O9 0.257273 0.500000 0.999921
O O10 0.247646 0.705863 0.851619
O O11 0.335394 0.747991 0.042936
O O12 0.166577 0.739557 0.033590
O O13 0.232027 0.500000 0.705602
O O14 0.500000 0.214855 0.122463
O O15 0.636369 0.215871 0.255370
O O16 0.606789 0.000000 0.120001
O O17 0.139302 0.500000 0.318018
O O18 0.125715 0.776012 0.233565
O O19 0.000000 0.643858 0.304479
O O20 0.369888 0.000000 0.389590
O O21 0.000000 0.205100 0.088922
O O22 0.888500 0.000000 0.096891
#
# Coordination Sequence:
#
# PCOD9337291 Si02
#       8
#     4   4   4   4   4   4   4   4
#     4   9  17  30  50  74  99 130 170 218 268 315
#     4  10  19  32  54  81 107 139 177 219 269 323
#     4  11  23  38  58  81 108 147 191 237 286 334
#     4   9  20  37  53  72 102 141 183 225 270 321
#     4  10  21  36  54  78 112 152 188 227 279 337
#     4  10  20  34  55  84 115 142 170 210 262 323
#     4   9  18  32  50  74 103 134 170 214 266 322
#     4  10  21  38  61  87 114 144 180 226 280 338
#
# _framework density 18.418310000000002
#
# number of rings (size 3 to 8) (size 9 to 14) (size 15 to 20)
#    0.000    2.250    0.000    2.625    0.000    6.000 
#    0.000    1.875    0.000    0.750    0.000    0.000 
#    0.000    0.000    0.000    0.000    0.000    0.000 
#
# Total GULP energy -178251.519446 kJ/mol
# GULP energy per Si atom -5570.359983 kJ/mol
# Density = 1.837639 g / cm^3
# Si number density = 18.418310 Si / 1000 Ang^3
#
#
#
# Elastic Constant Matrix: (Units=GPa)
#
#
# Indices 1 2 3 4 5 6 
#
# 1 46.1346 33.1440 37.8449 0.0000 0.0000 0.0000
# 2 33.1440 53.1468 49.0546 0.0000 0.0000 0.0000
# 3 37.8449 49.0546 132.9333 0.0000 0.0000 0.0000
# 4 0.0000 0.0000 0.0000 34.7702 0.0000 0.0000
# 5 0.0000 0.0000 0.0000 0.0000 4.7114 0.0000
# 6 0.0000 0.0000 0.0000 0.0000 0.0000 19.3846
#
#
#
# Elastic Compliance Matrix: (Units=1/GPa)
#
#
# Indices 1 2 3 4 5 6 
#
# 1 0.040218 -0.022009 -0.003328 0.000000 0.000000 0.000000
# 2 -0.022009 0.040580 -0.008709 0.000000 0.000000 0.000000
# 3 -0.003328 -0.008709 0.011684 0.000000 0.000000 0.000000
# 4 0.000000 0.000000 0.000000 0.028760 0.000000 0.000000
# 5 0.000000 0.000000 0.000000 0.000000 0.212250 0.000000
# 6 0.000000 0.000000 0.000000 0.000000 0.000000 0.051587
#
#
# Mechanical properties :
#
#
# Convention : Reuss Voigt Hill
#
# Bulk Modulus (GPa) = 41.00186 52.47798 46.73992
# Shear Modulus (GPa) = 10.83894 19.25131 15.04512
#
# Velocity S-wave (km/s) = 2.42851 3.23650 2.86117
# Velocity P-wave (km/s) = 5.49302 6.52079 6.02885
#
# Compressibility (1/GPa) = 0.02438914
#
# Stress axis : x y z
#
# Youngs Moduli (GPa) = 24.86478 24.64281 85.58999
#
# Poissons Ratio (x) = 0.54237 0.28482
# Poissons Ratio (y) = 0.54726 0.74538
# Poissons Ratio (z) = 0.08274 0.21461
#
# Static dielectric constant tensor:
#      x y z
#    x 1.716250 0.000000 0.000000 
#    y 0.000000 1.631440 0.000000 
#    z 0.000000 0.000000 1.619840 
# 
# From -- ./inp_files/5072.got.cif
#   From: 2010.05.17/outbox.cif.g08.bks.cpg/sg25_3_cif.got.tgz:5072.got - 2010.06.04 01:04:00.
