data_PCOD9337997
_publ_section_title
;
Structure prediction by ZEFSAII (Michael W. Deem and Ramdas Pophale) SiO2 
 PCOD9337997
Probable space group: P M C 21
;
_chemical_formula_sum "Si O2"
_cell_formula_units_Z 32
_cell_length_a 7.411566
_cell_length_b 16.048478
_cell_length_c 12.293885
_cell_angle_alpha 90.000000
_cell_angle_beta 90.000000
_cell_angle_gamma 90.000000
_cell_volume 1462.288208
_symmetry_space_group_name_H-M "P M C 21"
_symmetry_group_IT_number 26
_symmetry_cell_setting 'orthorhombic'
loop_
_space_group_symop_operation_xyz
x,y,z
-x,-y,1/2+z
-x,y,z
x,-y,1/2+z
loop_
_atom_site_type_symbol
_atom_site_label
_atom_site_fract_x
_atom_site_fract_y
_atom_site_fract_z
Si Si1 0.779706 0.901236 0.379220
Si Si2 0.218541 0.832920 0.145543
Si Si3 0.780110 0.911222 0.921534
Si Si4 0.220704 0.250441 0.285223
Si Si5 0.705143 0.641904 0.144135
Si Si6 0.206060 0.414767 0.410371
Si Si7 0.791793 0.597622 0.387031
Si Si8 0.220487 0.751343 0.533064
O O1 0.723734 0.866053 0.262372
O O2 0.723103 0.836374 0.472578
O O3 0.000000 0.902017 0.380728
O O4 0.719368 0.996243 0.391888
O O5 0.288365 0.740567 0.126337
O O6 0.000000 0.827747 0.146142
O O7 0.271468 0.890271 0.044967
O O8 0.721340 0.834876 0.844600
O O9 0.000000 0.911740 0.916797
O O10 0.282678 0.333226 0.349863
O O11 0.274269 0.252705 0.158942
O O12 0.000000 0.249960 0.289383
O O13 0.500000 0.612153 0.147919
O O14 0.788719 0.625113 0.261656
O O15 0.794940 0.601527 0.039145
O O16 0.290993 0.505459 0.392814
O O17 0.000000 0.420459 0.369086
O O18 0.716955 0.671465 0.462707
O O19 0.000000 0.588671 0.423033
O O20 0.000000 0.751176 0.530747
#
# Coordination Sequence:
#
# PCOD9337997 Si02
#       8
#     4   4   4   4   4   4   4   4
#     4   9  17  27  46  78 112 142 174 226 286 334
#     4  10  18  34  56  79 110 146 191 234 281 338
#     4   9  17  27  46  78 112 142 174 226 286 334
#     4   9  17  29  47  77 112 139 171 221 277 333
#     4  12  24  38  58  81 114 152 191 234 281 332
#     4  10  21  37  60  85 110 143 186 233 282 334
#     4  10  21  37  60  85 110 143 186 233 282 334
#     4   9  17  29  47  77 112 139 171 221 277 333
#
# _framework density 21.883510000000001
#
# number of rings (size 3 to 8) (size 9 to 14) (size 15 to 20)
#    0.000    2.250    2.500    1.125    3.500    0.500 
#    0.000    0.000    0.000    0.750    0.000    0.000 
#    0.000    0.000    0.000    0.000    0.000    0.000 
#
# Total GULP energy -178738.296900 kJ/mol
# GULP energy per Si atom -5585.571778 kJ/mol
# Density = 2.183370 g / cm^3
# Si number density = 21.883510 Si / 1000 Ang^3
#
#
#
# Elastic Constant Matrix: (Units=GPa)
#
#
# Indices 1 2 3 4 5 6 
#
# 1 71.2187 8.3444 -0.0125 0.0000 0.0000 0.0000
# 2 8.3444 138.8387 34.6198 0.0000 0.0000 0.0000
# 3 -0.0125 34.6198 116.7405 0.0000 0.0000 0.0000
# 4 0.0000 0.0000 0.0000 32.0793 0.0000 0.0000
# 5 0.0000 0.0000 0.0000 0.0000 -40.0927 0.0000
# 6 0.0000 0.0000 0.0000 0.0000 0.0000 -4.3645
#
#
#
# Elastic Compliance Matrix: (Units=1/GPa)
#
#
# Indices 1 2 3 4 5 6 
#
# 1 0.014149 -0.000919 0.000274 0.000000 0.000000 0.000000
# 2 -0.000919 0.007837 -0.002324 0.000000 0.000000 0.000000
# 3 0.000274 -0.002324 0.009255 0.000000 0.000000 0.000000
# 4 0.000000 0.000000 0.000000 0.031173 0.000000 0.000000
# 5 0.000000 0.000000 0.000000 0.000000 -0.024942 0.000000
# 6 0.000000 0.000000 0.000000 0.000000 0.000000 -0.229123
#
#
# Mechanical properties :
#
#
# Convention : Reuss Voigt Hill
#
# Bulk Modulus (GPa) = 39.52008 45.85568 42.68788
# Shear Modulus (GPa) = -28.20429 16.44752 -5.87838
#
# Velocity S-wave (km/s) = -3.59393 2.74450 -1.64075
# Velocity P-wave (km/s) = 0.93632 5.57162 3.99497
#
# Compressibility (1/GPa) = 0.02530359
#
# Stress axis : x y z
#
# Youngs Moduli (GPa) = 70.67665 127.59356 108.04600
#
# Poissons Ratio (x) = 0.11722 -0.02960
# Poissons Ratio (y) = 0.06493 0.25113
# Poissons Ratio (z) = -0.01936 0.29657
#
# Static dielectric constant tensor:
#      x y z
#    x 1.877870 0.000000 0.000000 
#    y 0.000000 1.766630 0.000000 
#    z 0.000000 0.000000 1.733840 
# 
# From -- ./inp_files/3072.got.cif
#   From: 2010.05.17/outbox.cif.g08.bks.cpg/sg26_2_cif.got.tgz:3072.got - 2010.06.04 01:07:29.
