data_PCOD9337511
_publ_section_title
;
Structure prediction by ZEFSAII (Michael W. Deem and Ramdas Pophale) SiO2 
 PCOD9337511
Probable space group: P M M 2
;
_chemical_formula_sum "Si O2"
_cell_formula_units_Z 32
_cell_length_a 7.809559
_cell_length_b 9.538902
_cell_length_c 21.197242
_cell_angle_alpha 90.000000
_cell_angle_beta 90.000000
_cell_angle_gamma 90.000000
_cell_volume 1579.080445
_symmetry_space_group_name_H-M "P M M 2"
_symmetry_group_IT_number 25
_symmetry_cell_setting 'orthorhombic'
loop_
_space_group_symop_operation_xyz
x,y,z
-x,-y,z
-x,y,z
x,-y,z
loop_
_atom_site_type_symbol
_atom_site_label
_atom_site_fract_x
_atom_site_fract_y
_atom_site_fract_z
Si Si1 0.790309 0.661697 0.643760
Si Si2 0.794280 0.339734 0.402037
Si Si3 0.204783 0.842516 0.140895
Si Si4 0.793745 0.659722 0.024428
Si Si5 0.704049 0.659345 0.260864
Si Si6 0.703949 0.660074 0.883037
Si Si7 0.209594 0.838701 0.521175
Si Si8 0.795849 0.841183 0.763027
O O1 0.734198 0.500000 0.643112
O O2 0.738379 0.746797 0.581463
O O3 0.730391 0.744788 0.705800
O O4 0.000000 0.659555 0.644342
O O5 0.729533 0.500000 0.409594
O O6 0.752476 0.292473 0.331171
O O7 0.732504 0.237574 0.457092
O O8 0.000000 0.345458 0.407359
O O9 0.272394 0.757218 0.080493
O O10 0.234993 0.758126 0.205022
O O11 0.000000 0.851730 0.132771
O O12 0.274112 0.000000 0.144255
O O13 0.729451 0.500000 0.031703
O O14 0.000000 0.655162 0.028886
O O15 0.750122 0.707046 0.953752
O O16 0.500000 0.653323 0.257599
O O17 0.772328 0.500000 0.253023
O O18 0.500000 0.654147 0.878436
O O19 0.771426 0.500000 0.874696
O O20 0.767279 0.763154 0.828983
O O21 0.000000 0.840160 0.520854
O O22 0.265503 0.000000 0.525402
O O23 0.000000 0.851249 0.753643
O O24 0.726798 0.000000 0.762429
#
# Coordination Sequence:
#
# PCOD9337511 Si02
#       8
#     4   4   4   4   4   4   4   4
#     4   9  16  27  46  72 101 132 167 210 259 308
#     4   9  17  30  49  72  98 130 168 209 254 305
#     4  10  21  36  55  80 108 136 168 209 257 308
#     4   9  18  34  56  79 104 136 173 212 253 300
#     4  10  21  36  54  76 103 137 176 216 257 303
#     4  10  21  36  54  77 105 137 173 212 254 303
#     4   9  16  26  43  70 102 131 162 206 258 308
#     4  10  20  33  51  76 105 137 173 214 260 308
#
# _framework density 20.264958
#
# number of rings (size 3 to 8) (size 9 to 14) (size 15 to 20)
#    0.000    2.500    0.000    2.250    0.000    7.500 
#    0.000    3.750    0.000    0.750    0.000    1.750 
#    0.000    0.000    0.000    0.000    0.000    0.000 
#
# Total GULP energy -178660.533859 kJ/mol
# GULP energy per Si atom -5583.141683 kJ/mol
# Density = 2.021883 g / cm^3
# Si number density = 20.264958 Si / 1000 Ang^3
#
#
#
# Elastic Constant Matrix: (Units=GPa)
#
#
# Indices 1 2 3 4 5 6 
#
# 1 23.7336 6.7451 -1.8898 0.0000 0.0000 0.0000
# 2 6.7451 171.8057 146.6920 0.0000 0.0000 0.0000
# 3 -1.8898 146.6920 210.3517 0.0000 0.0000 0.0000
# 4 0.0000 0.0000 0.0000 138.1091 0.0000 0.0000
# 5 0.0000 0.0000 0.0000 0.0000 -64.3802 0.0000
# 6 0.0000 0.0000 0.0000 0.0000 0.0000 4.5212
#
#
#
# Elastic Compliance Matrix: (Units=1/GPa)
#
#
# Indices 1 2 3 4 5 6 
#
# 1 0.043896 -0.005092 0.003945 0.000000 0.000000 0.000000
# 2 -0.005092 0.014978 -0.010491 0.000000 0.000000 0.000000
# 3 0.003945 -0.010491 0.012105 0.000000 0.000000 0.000000
# 4 0.000000 0.000000 0.000000 0.007241 0.000000 0.000000
# 5 0.000000 0.000000 0.000000 0.000000 -0.015533 0.000000
# 6 0.000000 0.000000 0.000000 0.000000 0.000000 0.221179
#
#
# Mechanical properties :
#
#
# Convention : Reuss Voigt Hill
#
# Bulk Modulus (GPa) = 20.96265 78.77619 49.86942
# Shear Modulus (GPa) = 15.47791 32.60628 24.04209
#
# Velocity S-wave (km/s) = 2.76665 4.01558 3.44813
# Velocity P-wave (km/s) = 4.53570 7.77543 6.36514
#
# Compressibility (1/GPa) = 0.04770389
#
# Stress axis : x y z
#
# Youngs Moduli (GPa) = 22.78132 66.76655 82.60944
#
# Poissons Ratio (x) = 0.33997 -0.32592
# Poissons Ratio (y) = 0.11600 0.86662
# Poissons Ratio (z) = -0.08988 0.70042
#
# Static dielectric constant tensor:
#      x y z
#    x 1.729880 0.000000 0.000000 
#    y 0.000000 1.705060 0.000000 
#    z 0.000000 0.000000 1.682340 
# 
# From -- ./inp_files/6485.got.cif
#   From: 2010.05.17/outbox.cif.g08.bks.cpg/sg25_4_cif.got.tgz:6485.got - 2010.06.04 01:04:00.
