data_PCOD9337609
_publ_section_title
;
Structure prediction by ZEFSAII (Michael W. Deem and Ramdas Pophale) SiO2 
 PCOD9337609
Probable space group: P M M 2
;
_chemical_formula_sum "Si O2"
_cell_formula_units_Z 32
_cell_length_a 8.654789
_cell_length_b 19.995382
_cell_length_c 10.438566
_cell_angle_alpha 90.000000
_cell_angle_beta 90.000000
_cell_angle_gamma 90.000000
_cell_volume 1806.454517
_symmetry_space_group_name_H-M "P M M 2"
_symmetry_group_IT_number 25
_symmetry_cell_setting 'orthorhombic'
loop_
_space_group_symop_operation_xyz
x,y,z
-x,-y,z
-x,y,z
x,-y,z
loop_
_atom_site_type_symbol
_atom_site_label
_atom_site_fract_x
_atom_site_fract_y
_atom_site_fract_z
Si Si1 0.684557 0.672712 0.373550
Si Si2 0.815443 0.672713 0.094881
Si Si3 0.686155 0.821204 0.095186
Si Si4 0.186155 0.178797 0.373249
Si Si5 0.813718 0.923133 0.595321
Si Si6 0.315237 0.578728 0.873952
Si Si7 0.686282 0.076867 0.873113
Si Si8 0.815237 0.578728 0.594481
O O1 0.500000 0.674953 0.367783
O O2 0.750003 0.652485 0.234216
O O3 0.749400 0.747107 0.399714
O O4 0.740814 0.622851 0.483421
O O5 0.750595 0.747108 0.068720
O O6 0.000000 0.674955 0.100643
O O7 0.759184 0.622852 0.985012
O O8 0.500000 0.818323 0.100082
O O9 0.750002 0.841626 0.234217
O O10 0.734458 0.873034 0.985297
O O11 0.234457 0.126966 0.483138
O O12 0.000000 0.181680 0.368356
O O13 0.750000 0.903224 0.734217
O O14 0.000000 0.922274 0.600474
O O15 0.764593 0.000000 0.570713
O O16 0.500000 0.587006 0.874900
O O17 0.280191 0.500000 0.893694
O O18 0.250000 0.597486 0.734216
O O19 0.500000 0.077727 0.867960
O O20 0.735406 0.000000 0.897721
O O21 0.780195 0.500000 0.574739
O O22 0.000000 0.587008 0.593532
#
# Coordination Sequence:
#
# PCOD9337609 Si02
#       8
#     4   4   4   4   4   4   4   4
#     4  11  22  37  57  80 109 143 181 223 268 318
#     4  11  22  37  57  80 109 143 181 223 268 318
#     4  10  20  35  54  77 107 139 176 220 265 316
#     4  10  20  35  54  77 107 139 176 220 265 316
#     4   9  19  35  54  77 105 137 174 217 263 313
#     4  10  21  38  59  83 111 142 178 220 266 317
#     4   9  19  35  54  77 105 137 174 217 263 313
#     4  10  21  38  59  83 111 142 178 220 266 317
#
# _framework density 17.714257
#
# number of rings (size 3 to 8) (size 9 to 14) (size 15 to 20)
#    0.000    2.000    0.000    5.250    0.000    5.500 
#    0.000    2.500    0.000    0.000    0.000    0.000 
#    0.000    0.000    0.000    0.000    0.000    0.000 
#
# Total GULP energy -178703.298296 kJ/mol
# GULP energy per Si atom -5584.478072 kJ/mol
# Density = 1.767394 g / cm^3
# Si number density = 17.714257 Si / 1000 Ang^3
#
#
#
# Elastic Constant Matrix: (Units=GPa)
#
#
# Indices 1 2 3 4 5 6 
#
# 1 84.3881 52.6339 70.7060 0.0000 0.0000 0.0000
# 2 52.6339 93.1878 124.8053 0.0000 0.0000 0.0000
# 3 70.7060 124.8053 196.4232 0.0000 0.0000 0.0000
# 4 0.0000 0.0000 0.0000 42.4490 0.0000 0.0000
# 5 0.0000 0.0000 0.0000 0.0000 36.9801 0.0000
# 6 0.0000 0.0000 0.0000 0.0000 0.0000 216.5390
#
#
#
# Elastic Compliance Matrix: (Units=1/GPa)
#
#
# Indices 1 2 3 4 5 6 
#
# 1 0.018296 -0.010154 -0.000134 0.000000 0.000000 0.000000
# 2 -0.010154 0.077642 -0.045677 0.000000 0.000000 0.000000
# 3 -0.000134 -0.045677 0.034162 0.000000 0.000000 0.000000
# 4 0.000000 0.000000 0.000000 0.023558 0.000000 0.000000
# 5 0.000000 0.000000 0.000000 0.000000 0.027042 0.000000
# 6 0.000000 0.000000 0.000000 0.000000 0.000000 0.004618
#
#
# Mechanical properties :
#
#
# Convention : Reuss Voigt Hill
#
# Bulk Modulus (GPa) = 55.04160 96.69884 75.87022
# Shear Modulus (GPa) = 16.48511 67.58387 42.03449
#
# Velocity S-wave (km/s) = 3.05390 6.18345 4.87655
# Velocity P-wave (km/s) = 6.60110 10.28041 8.63890
#
# Compressibility (1/GPa) = 0.01816808
#
# Stress axis : x y z
#
# Youngs Moduli (GPa) = 54.65812 12.87969 29.27211
#
# Poissons Ratio (x) = 0.13079 0.00392
# Poissons Ratio (y) = 0.55502 1.33708
# Poissons Ratio (z) = 0.00731 0.58831
#
# Static dielectric constant tensor:
#      x y z
#    x 1.594070 0.000000 0.000000 
#    y 0.000000 1.589790 0.000000 
#    z 0.000000 0.000000 1.575190 
# 
# From -- ./inp_files/2409.got.cif
#   From: 2010.05.17/outbox.cif.g08.bks.cpg/sg25_2_cif.got.tgz:2409.got - 2010.06.04 01:04:00.
