data_PCOD9337837
_publ_section_title
;
Structure prediction by ZEFSAII (Michael W. Deem and Ramdas Pophale) SiO2 
 PCOD9337837
Probable space group: P M M 2
;
_chemical_formula_sum "Si O2"
_cell_formula_units_Z 32
_cell_length_a 7.494333
_cell_length_b 9.928479
_cell_length_c 21.442576
_cell_angle_alpha 90.000000
_cell_angle_beta 90.000000
_cell_angle_gamma 90.000000
_cell_volume 1595.484782
_symmetry_space_group_name_H-M "P M M 2"
_symmetry_group_IT_number 25
_symmetry_cell_setting 'orthorhombic'
loop_
_space_group_symop_operation_xyz
x,y,z
-x,-y,z
-x,y,z
x,-y,z
loop_
_atom_site_type_symbol
_atom_site_label
_atom_site_fract_x
_atom_site_fract_y
_atom_site_fract_z
Si Si1 0.282382 0.845536 0.514770
Si Si2 0.714084 0.652836 0.264816
Si Si3 0.793162 0.163200 0.016110
Si Si4 0.717349 0.845361 0.655833
Si Si5 0.282377 0.344167 0.403595
Si Si6 0.292230 0.152477 0.877509
Si Si7 0.213329 0.847332 0.150255
Si Si8 0.281246 0.654872 0.768557
O O1 0.500000 0.841793 0.514673
O O2 0.226756 0.810238 0.585272
O O3 0.219400 0.748405 0.460002
O O4 0.230426 0.000000 0.502973
O O5 0.500000 0.645999 0.268230
O O6 0.779243 0.500000 0.253648
O O7 0.775500 0.697515 0.333834
O O8 0.756209 0.752198 0.208738
O O9 0.714970 0.200314 0.949246
O O10 0.000000 0.202444 0.012656
O O11 0.782036 0.000000 0.019201
O O12 0.717710 0.207140 0.083276
O O13 0.500000 0.846102 0.656297
O O14 0.774546 0.739172 0.707641
O O15 0.772223 0.000000 0.669513
O O16 0.500000 0.339595 0.404318
O O17 0.231791 0.500000 0.412232
O O18 0.500000 0.138959 0.861201
O O19 0.219259 0.260312 0.828814
O O20 0.214715 0.000000 0.873784
O O21 0.000000 0.857134 0.142091
O O22 0.280348 0.000000 0.161086
O O23 0.500000 0.651833 0.768773
O O24 0.222414 0.500000 0.768495
#
# Coordination Sequence:
#
# PCOD9337837 Si02
#       8
#     4   4   4   4   4   4   4   4
#     4   8  13  20  31  49  73 102 137 174 209 246
#     4   9  18  31  45  64  91 121 152 184 219 263
#     4   8  15  29  47  65  85 108 136 173 213 252
#     4   8  13  21  32  47  71 104 139 172 205 244
#     4   8  14  24  36  51  76 109 141 174 211 250
#     4   9  16  26  42  62  82 107 138 169 204 249
#     4   9  18  32  49  69  91 114 144 184 226 266
#     4   9  16  24  34  51  77 107 137 170 207 244
#
# _framework density 20.056601000000001
#
# number of rings (size 3 to 8) (size 9 to 14) (size 15 to 20)
#    0.000    3.500    0.000    2.625    0.000    3.500 
#    0.000    5.625    0.000    2.625    0.000    0.000 
#    0.000    1.000    0.000    9.000    0.000   13.500 
#
# Total GULP energy -178291.292180 kJ/mol
# GULP energy per Si atom -5571.602881 kJ/mol
# Density = 2.001095 g / cm^3
# Si number density = 20.056601 Si / 1000 Ang^3
#
#
#
# Elastic Constant Matrix: (Units=GPa)
#
#
# Indices 1 2 3 4 5 6 
#
# 1 49.9598 5.1807 5.1842 0.0000 0.0000 0.0000
# 2 5.1807 119.5750 136.0749 0.0000 0.0000 0.0000
# 3 5.1842 136.0749 222.2527 0.0000 0.0000 0.0000
# 4 0.0000 0.0000 0.0000 -22.6829 0.0000 0.0000
# 5 0.0000 0.0000 0.0000 0.0000 58.8893 0.0000
# 6 0.0000 0.0000 0.0000 0.0000 0.0000 57.7876
#
#
#
# Elastic Compliance Matrix: (Units=1/GPa)
#
#
# Indices 1 2 3 4 5 6 
#
# 1 0.020109 -0.001113 0.000212 0.000000 0.000000 0.000000
# 2 -0.001113 0.027638 -0.016896 0.000000 0.000000 0.000000
# 3 0.000212 -0.016896 0.014839 0.000000 0.000000 0.000000
# 4 0.000000 0.000000 0.000000 -0.044086 0.000000 0.000000
# 5 0.000000 0.000000 0.000000 0.000000 0.016981 0.000000
# 6 0.000000 0.000000 0.000000 0.000000 0.000000 0.017305
#
#
# Mechanical properties :
#
#
# Convention : Reuss Voigt Hill
#
# Bulk Modulus (GPa) = 37.04505 76.07412 56.55958
# Shear Modulus (GPa) = 51.34714 35.15531 43.25122
#
# Velocity S-wave (km/s) = 5.06524 4.19119 4.64881
# Velocity P-wave (km/s) = 7.26080 7.83795 7.55489
#
# Compressibility (1/GPa) = 0.02699416
#
# Stress axis : x y z
#
# Youngs Moduli (GPa) = 49.72782 36.18189 67.39085
#
# Poissons Ratio (x) = 0.04026 -0.01430
# Poissons Ratio (y) = 0.05534 1.13861
# Poissons Ratio (z) = -0.01055 0.61131
#
# Static dielectric constant tensor:
#      x y z
#    x 1.770040 0.000000 0.000000 
#    y 0.000000 1.675770 0.000000 
#    z 0.000000 0.000000 1.718830 
# 
# From -- ./inp_files/6359.got.cif
#   From: 2010.05.17/outbox.cif.g08.bks.cpg/sg25_4_cif.got.tgz:6359.got - 2010.06.04 01:04:00.
