data_PCOD9337259
_publ_section_title
;
Structure prediction by ZEFSAII (Michael W. Deem and Ramdas Pophale) SiO2 
 PCOD9337259
Probable space group: P M M 2
;
_chemical_formula_sum "Si O2"
_cell_formula_units_Z 20
_cell_length_a 13.647812
_cell_length_b 7.923552
_cell_length_c 9.763874
_cell_angle_alpha 90.000000
_cell_angle_beta 90.000000
_cell_angle_gamma 90.000000
_cell_volume 1055.857016
_symmetry_space_group_name_H-M "P M M 2"
_symmetry_group_IT_number 25
_symmetry_cell_setting 'orthorhombic'
loop_
_space_group_symop_operation_xyz
x,y,z
-x,-y,z
-x,y,z
x,-y,z
loop_
_atom_site_type_symbol
_atom_site_label
_atom_site_fract_x
_atom_site_fract_y
_atom_site_fract_z
Si Si1 0.712984 0.299346 0.216260
Si Si2 0.109162 0.203344 0.721903
Si Si3 0.500000 0.201041 0.225881
Si Si4 0.711449 0.798704 0.899064
Si Si5 0.110322 0.703979 0.406236
Si Si6 0.500000 0.205871 0.904420
O O1 0.721904 0.500000 0.204770
O O2 0.605376 0.261618 0.279026
O O3 0.802642 0.234337 0.308475
O O4 0.718530 0.228247 0.062143
O O5 0.195546 0.270983 0.817948
O O6 0.127646 0.244211 0.563128
O O7 0.000000 0.267297 0.757025
O O8 0.106801 0.000000 0.735561
O O9 0.500000 0.000000 0.232324
O O10 0.500000 0.252299 0.065367
O O11 0.604794 0.733580 0.849851
O O12 0.710253 0.000000 0.876522
O O13 0.110402 0.500000 0.400911
O O14 0.000000 0.761415 0.367710
O O15 0.500000 0.000000 0.897670
#
# Coordination Sequence:
#
# PCOD9337259 Si02
#       6
#     4   4   2   4   4   2
#     4  10  19  31  50  75 100 127 163 203 240 285
#     4   9  18  32  49  69  94 126 164 203 242 286
#     4   9  17  31  50  71  98 130 160 194 244 295
#     4   9  17  30  48  70  96 124 157 198 242 287
#     4   9  19  35  51  68  96 133 167 201 244 290
#     4   7  12  25  44  63  86 118 148 178 224 279
#
# _framework density 18.941956999999999
#
# number of rings (size 3 to 8) (size 9 to 14) (size 15 to 20)
#    0.000    3.000    0.000    2.100    0.000    3.200 
#    0.000    1.000    0.000    1.200    0.000    0.000 
#    0.000    0.000    0.000    0.000    0.000    0.000 
#
# Total GULP energy -111385.063022 kJ/mol
# GULP energy per Si atom -5569.253151 kJ/mol
# Density = 1.889884 g / cm^3
# Si number density = 18.941957 Si / 1000 Ang^3
#
#
#
# Elastic Constant Matrix: (Units=GPa)
#
#
# Indices 1 2 3 4 5 6 
#
# 1 230.4133 4.9149 90.7359 0.0000 0.0000 0.0000
# 2 4.9149 11.5099 -8.3671 0.0000 0.0000 0.0000
# 3 90.7359 -8.3671 49.7114 0.0000 0.0000 0.0000
# 4 0.0000 0.0000 0.0000 21.7830 0.0000 0.0000
# 5 0.0000 0.0000 0.0000 0.0000 -63.0283 0.0000
# 6 0.0000 0.0000 0.0000 0.0000 0.0000 -0.6012
#
#
#
# Elastic Compliance Matrix: (Units=1/GPa)
#
#
# Indices 1 2 3 4 5 6 
#
# 1 0.040890 -0.081714 -0.088388 0.000000 0.000000 0.000000
# 2 -0.081714 0.262289 0.193295 0.000000 0.000000 0.000000
# 3 -0.088388 0.193295 0.213981 0.000000 0.000000 0.000000
# 4 0.000000 0.000000 0.000000 0.045907 0.000000 0.000000
# 5 0.000000 0.000000 0.000000 0.000000 -0.015866 0.000000
# 6 0.000000 0.000000 0.000000 0.000000 0.000000 -1.663211
#
#
# Mechanical properties :
#
#
# Convention : Reuss Voigt Hill
#
# Bulk Modulus (GPa) = 1.77448 51.80021 26.78735
# Shear Modulus (GPa) = -5.13058 5.25409 0.06176
#
# Velocity S-wave (km/s) = -1.64756 1.66728 0.18076
# Velocity P-wave (km/s) = 1.63721 5.57787 3.77042
#
# Compressibility (1/GPa) = 0.56354643
#
# Stress axis : x y z
#
# Youngs Moduli (GPa) = 24.45595 3.81259 4.67332
#
# Poissons Ratio (x) = 0.31154 0.41306
# Poissons Ratio (y) = 1.99838 -0.90333
# Poissons Ratio (z) = 2.16161 -0.73695
#
# Static dielectric constant tensor:
#      x y z
#    x 1.731950 0.000000 0.000000 
#    y 0.000000 1.667980 0.000000 
#    z 0.000000 0.000000 1.613150 
# 
# From -- ./inp_files/3011.got.cif
#   From: 2010.05.17/outbox.cif.g08.bks.cpg/sg25_2_cif.got.tgz:3011.got - 2010.06.04 01:04:00.
