data_PCOD9337749
_publ_section_title
;
Structure prediction by ZEFSAII (Michael W. Deem and Ramdas Pophale) SiO2 
 PCOD9337749
Probable space group: P M M 2
;
_chemical_formula_sum "Si O2"
_cell_formula_units_Z 32
_cell_length_a 14.358727
_cell_length_b 8.702605
_cell_length_c 13.437975
_cell_angle_alpha 90.000000
_cell_angle_beta 90.000000
_cell_angle_gamma 90.000000
_cell_volume 1679.186906
_symmetry_space_group_name_H-M "P M M 2"
_symmetry_group_IT_number 25
_symmetry_cell_setting 'orthorhombic'
loop_
_space_group_symop_operation_xyz
x,y,z
-x,-y,z
-x,y,z
x,-y,z
loop_
_atom_site_type_symbol
_atom_site_label
_atom_site_fract_x
_atom_site_fract_y
_atom_site_fract_z
Si Si1 0.216232 0.184174 0.947390
Si Si2 0.109995 0.684186 0.354323
Si Si3 0.613209 0.174937 0.250000
Si Si4 0.210081 0.312737 0.556485
Si Si5 0.108431 0.313858 0.757856
Si Si6 0.108337 0.184707 0.146009
Si Si7 0.605956 0.685247 0.461611
Si Si8 0.391907 0.316572 0.037718
O O1 0.163373 0.250333 0.852411
O O2 0.214577 0.000000 0.944084
O O3 0.163045 0.235713 0.048164
O O4 0.321451 0.242823 0.959521
O O5 0.120068 0.500000 0.348702
O O6 0.158411 0.737658 0.455565
O O7 0.145966 0.754070 0.251046
O O8 0.000000 0.720139 0.360968
O O9 0.500000 0.171274 0.251319
O O10 0.638317 0.256485 0.353144
O O11 0.637194 0.260933 0.148248
O O12 0.647785 0.000000 0.246615
O O13 0.206557 0.500000 0.557371
O O14 0.158544 0.261498 0.656055
O O15 0.317877 0.267401 0.542948
O O16 0.110988 0.500000 0.760197
O O17 0.000000 0.267199 0.759397
O O18 0.000000 0.233525 0.137690
O O19 0.110517 0.000000 0.148796
O O20 0.500000 0.738571 0.479897
O O21 0.604484 0.500000 0.457783
O O22 0.500000 0.271051 0.022667
O O23 0.386437 0.500000 0.033376
#
# Coordination Sequence:
#
# PCOD9337749 Si02
#       8
#     4   4   4   4   4   4   4   4
#     4  11  23  38  58  83 113 149 189 234 288 346
#     4   9  17  30  50  76 104 135 174 223 278 332
#     4   9  17  30  49  75 110 150 187 226 274 327
#     4   9  18  33  54  79 106 140 185 236 288 335
#     4  10  21  39  62  84 108 143 192 246 294 345
#     4   9  19  35  52  74 108 145 178 220 277 338
#     4   9  17  30  49  75 108 146 187 229 277 336
#     4  10  21  37  57  82 113 149 191 236 280 333
#
# _framework density 19.056840999999999
#
# number of rings (size 3 to 8) (size 9 to 14) (size 15 to 20)
#    0.000    2.500    0.000    1.875    1.750    5.500 
#    0.000    3.125    0.000    3.750    0.000    0.000 
#    0.000    0.000    0.000    0.000    0.000    0.000 
#
# Total GULP energy -178612.649053 kJ/mol
# GULP energy per Si atom -5581.645283 kJ/mol
# Density = 1.901347 g / cm^3
# Si number density = 19.056841 Si / 1000 Ang^3
#
#
#
# Elastic Constant Matrix: (Units=GPa)
#
#
# Indices 1 2 3 4 5 6 
#
# 1 131.1268 30.6461 96.1001 0.0000 0.0000 0.0000
# 2 30.6461 15.6377 27.2252 0.0000 0.0000 0.0000
# 3 96.1001 27.2252 161.1271 0.0000 0.0000 0.0000
# 4 0.0000 0.0000 0.0000 183.7330 0.0000 0.0000
# 5 0.0000 0.0000 0.0000 0.0000 37.6048 0.0000
# 6 0.0000 0.0000 0.0000 0.0000 0.0000 15.4598
#
#
#
# Elastic Compliance Matrix: (Units=1/GPa)
#
#
# Indices 1 2 3 4 5 6 
#
# 1 0.018181 -0.023734 -0.006833 0.000000 0.000000 0.000000
# 2 -0.023734 0.121582 -0.006388 0.000000 0.000000 0.000000
# 3 -0.006833 -0.006388 0.011361 0.000000 0.000000 0.000000
# 4 0.000000 0.000000 0.000000 0.005443 0.000000 0.000000
# 5 0.000000 0.000000 0.000000 0.000000 0.026592 0.000000
# 6 0.000000 0.000000 0.000000 0.000000 0.000000 0.064684
#
#
# Mechanical properties :
#
#
# Convention : Reuss Voigt Hill
#
# Bulk Modulus (GPa) = 12.95099 68.42603 40.68851
# Shear Modulus (GPa) = 14.38882 57.62086 36.00484
#
# Velocity S-wave (km/s) = 2.75079 5.50472 4.35137
# Velocity P-wave (km/s) = 4.11095 8.73996 6.82959
#
# Compressibility (1/GPa) = 0.07721417
#
# Stress axis : x y z
#
# Youngs Moduli (GPa) = 55.00178 8.22489 88.01801
#
# Poissons Ratio (x) = 0.19521 0.60147
# Poissons Ratio (y) = 1.30540 0.56226
# Poissons Ratio (z) = 0.37585 0.05254
#
# Static dielectric constant tensor:
#      x y z
#    x 1.710410 0.000000 0.000000 
#    y 0.000000 1.637930 0.000000 
#    z 0.000000 0.000000 1.629290 
# 
# From -- ./inp_files/4248.got.cif
#   From: 2010.05.17/outbox.cif.g08.bks.cpg/sg25_3_cif.got.tgz:4248.got - 2010.06.04 01:04:00.
