data_PCOD9337069
_publ_section_title
;
Structure prediction by ZEFSAII (Michael W. Deem and Ramdas Pophale) SiO2 
 PCOD9337069
Probable space group: I 21 21 21
;
_chemical_formula_sum "Si O2"
_cell_formula_units_Z 28
_cell_length_a 9.000000
_cell_length_b 15.000000
_cell_length_c 21.000000
_cell_angle_alpha 90.000000
_cell_angle_beta 90.000000
_cell_angle_gamma 90.000000
_cell_volume 2835.000000
_symmetry_space_group_name_H-M "I 21 21 21"
_symmetry_group_IT_number 24
_symmetry_cell_setting 'orthorhombic'
loop_
_space_group_symop_operation_xyz
x,y,z
-x,1/2-y,z
x,-y,1/2-z
1/2-x,y,-z
1/2+x,1/2+y,1/2+z
1/2-x,-y,1/2+z
1/2+x,1/2-y,-z
-x,1/2+y,1/2-z
loop_
_atom_site_type_symbol
_atom_site_label
_atom_site_fract_x
_atom_site_fract_y
_atom_site_fract_z
Si Si1 0.328753 0.857622 0.831689
Si Si2 0.022221 0.028610 0.677167
Si Si3 0.917199 0.344308 0.184771
Si Si4 0.647531 0.189455 0.379557
Si Si5 0.250000 0.093178 0.000000
Si Si6 0.905612 0.659719 0.619405
Si Si7 0.250000 0.578753 0.000000
Si Si8 0.008473 0.998957 0.087743
O O1 0.181071 0.921218 0.832769
O O2 0.399246 0.859319 0.760785
O O3 0.273503 0.758102 0.852704
O O4 0.443505 0.905769 0.879441
O O5 0.895905 0.102347 0.662448
O O6 0.013311 0.000000 0.750000
O O7 0.017819 0.935859 0.637058
O O8 0.747125 0.337662 0.159877
O O9 0.995579 0.424629 0.143912
O O10 0.000000 0.250000 0.173784
O O11 0.500000 0.250000 0.382574
O O12 0.678095 0.145062 0.447910
O O13 0.147805 0.151990 0.953568
O O14 0.357136 0.032654 0.957019
O O15 0.000000 0.750000 0.630673
O O16 0.133134 0.519411 0.041701
#
# Coordination Sequence:
#
# PCOD9337069 Si02
#       8
#     8   8   8   8   4   8   4   8
#     4  11  22  45  73 101 136 185 238 294 364 430
#     4  11  20  43  71 102 139 179 234 286 362 425
#     4  11  25  43  69 104 140 184 232 298 368 423
#     4  10  27  42  68 106 137 182 233 296 352 425
#     4  10  22  43  69  98 128 194 232 280 352 412
#     4  11  24  41  71 102 136 186 235 292 351 430
#     4  12  28  45  67 104 144 188 234 288 352 422
#     4  11  25  45  71  98 140 188 235 288 356 431
#
# _framework density 9.8765429999999999
#
# number of rings (size 3 to 8) (size 9 to 14) (size 15 to 20)
#    0.000    1.143    4.286    1.286    8.000    4.571 
#    0.000    1.429    0.000    0.000    0.000    0.000 
#    0.000    0.000    0.000    0.000    0.000    0.000 
#
# Total GULP energy -156422.334133 kJ/mol
# GULP energy per Si atom -5586.511933 kJ/mol
# Density = 0.985406 g / cm^3
# Si number density = 9.876543 Si / 1000 Ang^3
#
#
#
# Elastic Constant Matrix: (Units=GPa)
#
#
# Indices 1 2 3 4 5 6 
#
# 1 70.2000 57.7698 43.1894 0.0000 0.0000 0.0000
# 2 57.7698 166.4218 46.3261 0.0000 0.0000 0.0000
# 3 43.1894 46.3261 118.8483 0.0000 0.0000 0.0000
# 4 0.0000 0.0000 0.0000 35.0430 0.0000 0.0000
# 5 0.0000 0.0000 0.0000 0.0000 35.5030 0.0000
# 6 0.0000 0.0000 0.0000 0.0000 0.0000 40.3673
#
#
#
# Elastic Compliance Matrix: (Units=1/GPa)
#
#
# Indices 1 2 3 4 5 6 
#
# 1 0.023142 -0.006385 -0.005921 0.000000 0.000000 0.000000
# 2 -0.006385 0.008502 -0.000994 0.000000 0.000000 0.000000
# 3 -0.005921 -0.000994 0.010953 0.000000 0.000000 0.000000
# 4 0.000000 0.000000 0.000000 0.028536 0.000000 0.000000
# 5 0.000000 0.000000 0.000000 0.000000 0.028167 0.000000
# 6 0.000000 0.000000 0.000000 0.000000 0.000000 0.024773
#
#
# Mechanical properties :
#
#
# Convention : Reuss Voigt Hill
#
# Bulk Modulus (GPa) = 62.50882 72.22675 67.36779
# Shear Modulus (GPa) = 32.05020 36.06164 34.05592
#
# Velocity S-wave (km/s) = 4.03245 4.27736 4.15671
# Velocity P-wave (km/s) = 7.30716 7.81272 7.56417
#
# Compressibility (1/GPa) = 0.01599774
#
# Stress axis : x y z
#
# Youngs Moduli (GPa) = 43.21063 117.62087 91.29838
#
# Poissons Ratio (x) = 0.75103 0.54058
# Poissons Ratio (y) = 0.27591 0.09071
# Poissons Ratio (z) = 0.25585 0.11687
#
# Static dielectric constant tensor:
#      x y z
#    x 1.721440 0.000000 0.000000 
#    y 0.000000 1.690480 0.000000 
#    z 0.000000 0.000000 1.709910 
# 
# From -- ./inp_files/32882.got.cif
#   From: 2010.05.17/outbox.ucp.g08.bks.cvg/sg24_17_cif.got.tgz:32882.got - 2010.06.11 15:20:44.
