data_PCOD9337918
_publ_section_title
;
Structure prediction by ZEFSAII (Michael W. Deem and Ramdas Pophale) SiO2 
 PCOD9337918
Probable space group: P M C 21
;
_chemical_formula_sum "Si O2"
_cell_formula_units_Z 22
_cell_length_a 10.718275
_cell_length_b 7.017254
_cell_length_c 14.419012
_cell_angle_alpha 90.000000
_cell_angle_beta 90.000000
_cell_angle_gamma 90.000000
_cell_volume 1084.495104
_symmetry_space_group_name_H-M "P M C 21"
_symmetry_group_IT_number 26
_symmetry_cell_setting 'orthorhombic'
loop_
_space_group_symop_operation_xyz
x,y,z
-x,-y,1/2+z
-x,y,z
x,-y,1/2+z
loop_
_atom_site_type_symbol
_atom_site_label
_atom_site_fract_x
_atom_site_fract_y
_atom_site_fract_z
Si Si1 0.726331 0.012454 0.354070
Si Si2 0.000000 0.265744 0.020411
Si Si3 0.725808 0.339852 0.223107
Si Si4 0.000000 0.847116 0.320821
Si Si5 0.000000 0.498683 0.190186
Si Si6 0.252827 0.047456 0.064588
Si Si7 0.362220 0.241540 0.690599
O O1 0.873646 0.969228 0.331952
O O2 0.655574 0.865422 0.287844
O O3 0.697930 0.222917 0.316212
O O4 0.695710 0.978422 0.461153
O O5 0.000000 0.459748 0.079455
O O6 0.117014 0.135941 0.047902
O O7 0.000000 0.293483 0.910297
O O8 0.657351 0.537481 0.208526
O O9 0.873240 0.394137 0.222845
O O10 0.691270 0.199351 0.137693
O O11 0.000000 0.712368 0.230600
O O12 0.263340 0.848296 0.118880
O O13 0.500000 0.202376 0.652934
#
# Coordination Sequence:
#
# PCOD9337918 Si02
#       7
#     4   2   4   2   2   4   4
#     4  10  21  40  62  89 119 153 192 242 297 356
#     4   8  18  35  60  93 122 152 192 232 294 361
#     4  10  21  37  58  88 117 152 194 238 293 357
#     4  10  17  35  61  90 124 151 188 240 291 361
#     4  10  17  34  57  87 120 159 182 232 301 346
#     4   9  21  40  62  86 122 153 191 240 299 354
#     4  11  24  40  59  84 113 156 204 247 291 341
#
# _framework density 20.285937000000001
#
# number of rings (size 3 to 8) (size 9 to 14) (size 15 to 20)
#    0.000    2.182    1.818    0.545    0.000    8.000 
#    3.273    1.818    0.000    0.000    0.000    0.000 
#    0.000    0.000    0.000    0.000    0.000    0.000 
#
# Total GULP energy -122688.321034 kJ/mol
# GULP energy per Si atom -5576.741865 kJ/mol
# Density = 2.023977 g / cm^3
# Si number density = 20.285937 Si / 1000 Ang^3
#
#
#
# Elastic Constant Matrix: (Units=GPa)
#
#
# Indices 1 2 3 4 5 6 
#
# 1 34.7447 2.3342 10.9769 0.0000 0.0000 0.0000
# 2 2.3342 99.2963 40.2154 0.0000 0.0000 0.0000
# 3 10.9769 40.2154 117.1872 0.0000 0.0000 0.0000
# 4 0.0000 0.0000 0.0000 22.9127 0.0000 0.0000
# 5 0.0000 0.0000 0.0000 0.0000 5.1358 0.0000
# 6 0.0000 0.0000 0.0000 0.0000 0.0000 40.6078
#
#
#
# Elastic Compliance Matrix: (Units=1/GPa)
#
#
# Indices 1 2 3 4 5 6 
#
# 1 0.029680 0.000497 -0.002951 0.000000 0.000000 0.000000
# 2 0.000497 0.011705 -0.004063 0.000000 0.000000 0.000000
# 3 -0.002951 -0.004063 0.010204 0.000000 0.000000 0.000000
# 4 0.000000 0.000000 0.000000 0.043644 0.000000 0.000000
# 5 0.000000 0.000000 0.000000 0.000000 0.194713 0.000000
# 6 0.000000 0.000000 0.000000 0.000000 0.000000 0.024626
#
#
# Mechanical properties :
#
#
# Convention : Reuss Voigt Hill
#
# Bulk Modulus (GPa) = 25.93655 39.80902 32.87278
# Shear Modulus (GPa) = 14.68611 26.91136 20.79874
#
# Velocity S-wave (km/s) = 2.69356 3.64621 3.20547
# Velocity P-wave (km/s) = 4.74204 6.11498 5.47174
#
# Compressibility (1/GPa) = 0.03855563
#
# Stress axis : x y z
#
# Youngs Moduli (GPa) = 33.69248 85.43458 97.99890
#
# Poissons Ratio (x) = -0.04249 0.28918
# Poissons Ratio (y) = -0.01676 0.39821
# Poissons Ratio (z) = 0.09942 0.34715
#
# Static dielectric constant tensor:
#      x y z
#    x 1.747790 0.000000 0.000000 
#    y 0.000000 1.695660 0.000000 
#    z 0.000000 0.000000 1.714190 
# 
# From -- ./inp_files/4434.got.cif
#   From: 2010.05.17/outbox.cif.g08.bks.cpg/sg26_3_cif.got.tgz:4434.got - 2010.06.04 01:07:29.
