data_PCOD9337605
_publ_section_title
;
Structure prediction by ZEFSAII (Michael W. Deem and Ramdas Pophale) SiO2 
 PCOD9337605
Probable space group: P M M 2
;
_chemical_formula_sum "Si O2"
_cell_formula_units_Z 32
_cell_length_a 8.726667
_cell_length_b 14.284006
_cell_length_c 13.390348
_cell_angle_alpha 90.000000
_cell_angle_beta 90.000000
_cell_angle_gamma 90.000000
_cell_volume 1669.130496
_symmetry_space_group_name_H-M "P M M 2"
_symmetry_group_IT_number 25
_symmetry_cell_setting 'orthorhombic'
loop_
_space_group_symop_operation_xyz
x,y,z
-x,-y,z
-x,y,z
x,-y,z
loop_
_atom_site_type_symbol
_atom_site_label
_atom_site_fract_x
_atom_site_fract_y
_atom_site_fract_z
Si Si1 0.686622 0.391213 0.463450
Si Si2 0.175560 0.113806 0.576774
Si Si3 0.685137 0.717072 0.265470
Si Si4 0.819088 0.287014 0.875128
Si Si5 0.314742 0.608180 0.066194
Si Si6 0.185131 0.892165 0.355336
Si Si7 0.317995 0.108364 0.786825
Si Si8 0.319289 0.386741 0.683767
O O1 0.500000 0.388876 0.465376
O O2 0.730817 0.500000 0.453811
O O3 0.738118 0.335924 0.366072
O O4 0.736087 0.356722 0.573169
O O5 0.236304 0.139529 0.467053
O O6 0.273621 0.137779 0.673612
O O7 0.000000 0.146693 0.589635
O O8 0.169899 0.000000 0.573405
O O9 0.500000 0.719124 0.266374
O O10 0.734087 0.661442 0.166980
O O11 0.748801 0.821522 0.274685
O O12 0.760324 0.181142 0.860803
O O13 0.770159 0.341507 0.774655
O O14 0.000000 0.288114 0.885793
O O15 0.743813 0.338142 0.969153
O O16 0.500000 0.607988 0.064600
O O17 0.263824 0.500000 0.066409
O O18 0.000000 0.889205 0.356531
O O19 0.231269 0.000000 0.339843
O O20 0.500000 0.112885 0.797942
O O21 0.268978 0.000000 0.800183
O O22 0.500000 0.363140 0.694076
O O23 0.308286 0.500000 0.687092
#
# Coordination Sequence:
#
# PCOD9337605 Si02
#       8
#     4   4   4   4   4   4   4   4
#     4   8  15  30  53  82 114 144 176 221 280 342
#     4   8  15  30  51  76 111 154 193 229 274 329
#     4  10  20  34  58  89 113 141 190 243 288 336
#     4  12  25  38  57  84 115 151 193 239 289 347
#     4  10  22  42  65  86 112 148 192 243 295 346
#     4   9  19  35  53  77 116 161 196 228 276 339
#     4  10  21  37  58  84 114 149 192 240 288 342
#     4   9  18  34  56  82 115 152 187 228 283 345
#
# _framework density 19.171658000000001
#
# number of rings (size 3 to 8) (size 9 to 14) (size 15 to 20)
#    0.000    2.500    0.000    3.750    1.750    5.500 
#    0.000    1.875    0.000    2.625    0.000    0.000 
#    0.000    0.000    0.000    0.000    0.000    0.000 
#
# Total GULP energy -178642.392003 kJ/mol
# GULP energy per Si atom -5582.574750 kJ/mol
# Density = 1.912802 g / cm^3
# Si number density = 19.171658 Si / 1000 Ang^3
#
#
#
# Elastic Constant Matrix: (Units=GPa)
#
#
# Indices 1 2 3 4 5 6 
#
# 1 19.1225 23.0307 25.8855 0.0000 0.0000 0.0000
# 2 23.0307 119.5719 85.4197 0.0000 0.0000 0.0000
# 3 25.8855 85.4197 142.8021 0.0000 0.0000 0.0000
# 4 0.0000 0.0000 0.0000 35.8407 0.0000 0.0000
# 5 0.0000 0.0000 0.0000 0.0000 7.3172 0.0000
# 6 0.0000 0.0000 0.0000 0.0000 0.0000 9.5060
#
#
#
# Elastic Compliance Matrix: (Units=1/GPa)
#
#
# Indices 1 2 3 4 5 6 
#
# 1 0.073537 -0.008105 -0.008482 0.000000 0.000000 0.000000
# 2 -0.008105 0.015497 -0.007801 0.000000 0.000000 0.000000
# 3 -0.008482 -0.007801 0.013206 0.000000 0.000000 0.000000
# 4 0.000000 0.000000 0.000000 0.027901 0.000000 0.000000
# 5 0.000000 0.000000 0.000000 0.000000 0.136664 0.000000
# 6 0.000000 0.000000 0.000000 0.000000 0.000000 0.105197
#
#
# Mechanical properties :
#
#
# Convention : Reuss Voigt Hill
#
# Bulk Modulus (GPa) = 18.70348 61.12984 39.91666
# Shear Modulus (GPa) = 11.39993 20.34348 15.87171
#
# Velocity S-wave (km/s) = 2.44114 3.26102 2.88040
# Velocity P-wave (km/s) = 4.20981 6.79218 5.65050
#
# Compressibility (1/GPa) = 0.05346599
#
# Stress axis : x y z
#
# Youngs Moduli (GPa) = 13.59851 64.52967 75.72148
#
# Poissons Ratio (x) = 0.52299 0.64228
# Poissons Ratio (y) = 0.11021 0.59067
# Poissons Ratio (z) = 0.11534 0.50337
#
# Static dielectric constant tensor:
#      x y z
#    x 1.642940 0.000000 0.000000 
#    y 0.000000 1.693290 0.000000 
#    z 0.000000 0.000000 1.654940 
# 
# From -- ./inp_files/4156.got.cif
#   From: 2010.05.17/outbox.cif.g08.bks.cpg/sg25_3_cif.got.tgz:4156.got - 2010.06.04 01:04:00.
