data_PCOD9337193
_publ_section_title
;
Structure prediction by ZEFSAII (Michael W. Deem and Ramdas Pophale) SiO2 
 PCOD9337193
Probable space group: P M M 2
;
_chemical_formula_sum "Si O2"
_cell_formula_units_Z 28
_cell_length_a 9.255064
_cell_length_b 18.137781
_cell_length_c 9.722865
_cell_angle_alpha 90.000000
_cell_angle_beta 90.000000
_cell_angle_gamma 90.000000
_cell_volume 1632.141606
_symmetry_space_group_name_H-M "P M M 2"
_symmetry_group_IT_number 25
_symmetry_cell_setting 'orthorhombic'
loop_
_space_group_symop_operation_xyz
x,y,z
-x,-y,z
-x,y,z
x,-y,z
loop_
_atom_site_type_symbol
_atom_site_label
_atom_site_fract_x
_atom_site_fract_y
_atom_site_fract_z
Si Si1 0.673025 0.700326 0.205760
Si Si2 0.338130 0.086575 0.833753
Si Si3 0.834373 0.310656 0.767346
Si Si4 0.826781 0.084613 0.545572
Si Si5 0.165514 0.809290 0.011074
Si Si6 0.326343 0.584913 0.970420
Si Si7 0.826563 0.753179 0.468366
O O1 0.500000 0.703624 0.214319
O O2 0.739164 0.770021 0.125555
O O3 0.744501 0.705318 0.354882
O O4 0.713224 0.630683 0.108537
O O5 0.500000 0.119820 0.830744
O O6 0.257012 0.095996 0.688685
O O7 0.351273 0.000000 0.853127
O O8 0.242351 0.118610 0.955450
O O9 0.739546 0.373844 0.838217
O O10 0.789288 0.277584 0.620415
O O11 0.000000 0.336613 0.753805
O O12 0.834015 0.244667 0.878403
O O13 0.792015 0.158695 0.459094
O O14 0.000000 0.087075 0.570257
O O15 0.794201 0.000000 0.496201
O O16 0.000000 0.819602 0.055608
O O17 0.500000 0.587439 0.960586
O O18 0.280216 0.500000 0.978421
O O19 0.000000 0.746526 0.451102
#
# Coordination Sequence:
#
# PCOD9337193 Si02
#       7
#     4   4   4   4   4   4   4
#     4  10  21  35  53  78 105 139 176 214 265 318
#     4  10  19  29  45  73 105 134 170 221 273 314
#     4   9  18  32  53  80 105 130 168 214 258 305
#     4   9  17  31  51  73 100 138 181 221 262 309
#     4  10  18  33  53  73  98 135 176 216 258 308
#     4   9  19  37  58  79 104 134 171 214 261 319
#     4  10  19  34  52  77 109 140 176 220 261 310
#
# _framework density 17.155373000000001
#
# number of rings (size 3 to 8) (size 9 to 14) (size 15 to 20)
#    0.000    2.429    1.429    1.286    0.000    3.429 
#    0.000    1.429    0.000    5.143    0.000    0.000 
#    0.000    0.000    0.000    0.000    0.000    0.000 
#
# Total GULP energy -155960.791430 kJ/mol
# GULP energy per Si atom -5570.028265 kJ/mol
# Density = 1.711633 g / cm^3
# Si number density = 17.155373 Si / 1000 Ang^3
#
#
#
# Elastic Constant Matrix: (Units=GPa)
#
#
# Indices 1 2 3 4 5 6 
#
# 1 38.0277 35.6872 27.4897 0.0000 0.0000 0.0000
# 2 35.6872 86.2252 32.9826 0.0000 0.0000 0.0000
# 3 27.4897 32.9826 83.0113 0.0000 0.0000 0.0000
# 4 0.0000 0.0000 0.0000 17.8514 0.0000 0.0000
# 5 0.0000 0.0000 0.0000 0.0000 26.9898 0.0000
# 6 0.0000 0.0000 0.0000 0.0000 0.0000 24.7295
#
#
#
# Elastic Compliance Matrix: (Units=1/GPa)
#
#
# Indices 1 2 3 4 5 6 
#
# 1 0.048693 -0.016492 -0.009572 0.000000 0.000000 0.000000
# 2 -0.016492 0.019262 -0.002192 0.000000 0.000000 0.000000
# 3 -0.009572 -0.002192 0.016087 0.000000 0.000000 0.000000
# 4 0.000000 0.000000 0.000000 0.056018 0.000000 0.000000
# 5 0.000000 0.000000 0.000000 0.000000 0.037051 0.000000
# 6 0.000000 0.000000 0.000000 0.000000 0.000000 0.040438
#
#
# Mechanical properties :
#
#
# Convention : Reuss Voigt Hill
#
# Bulk Modulus (GPa) = 36.32375 44.39813 40.36094
# Shear Modulus (GPa) = 17.65307 21.32112 19.48710
#
# Velocity S-wave (km/s) = 3.21130 3.52920 3.37399
# Velocity P-wave (km/s) = 5.91348 6.52251 6.22545
#
# Compressibility (1/GPa) = 0.02753020
#
# Stress axis : x y z
#
# Youngs Moduli (GPa) = 20.53685 51.91693 62.16041
#
# Poissons Ratio (x) = 0.85619 0.59503
# Poissons Ratio (y) = 0.33868 0.13625
# Poissons Ratio (z) = 0.19659 0.11379
#
# Static dielectric constant tensor:
#      x y z
#    x 1.591560 0.000000 0.000000 
#    y 0.000000 1.595380 0.000000 
#    z 0.000000 0.000000 1.571330 
# 
# From -- ./inp_files/2295.got.cif
#   From: 2010.05.17/outbox.cif.g08.bks.cpg/sg25_2_cif.got.tgz:2295.got - 2010.06.04 01:04:00.
