data_PCOD9337744
_publ_section_title
;
Structure prediction by ZEFSAII (Michael W. Deem and Ramdas Pophale) SiO2 
 PCOD9337744
Probable space group: P M M 2
;
_chemical_formula_sum "Si O2"
_cell_formula_units_Z 28
_cell_length_a 8.977551
_cell_length_b 9.448025
_cell_length_c 18.675506
_cell_angle_alpha 90.000000
_cell_angle_beta 90.000000
_cell_angle_gamma 90.000000
_cell_volume 1584.058777
_symmetry_space_group_name_H-M "P M M 2"
_symmetry_group_IT_number 25
_symmetry_cell_setting 'orthorhombic'
loop_
_space_group_symop_operation_xyz
x,y,z
-x,-y,z
-x,y,z
x,-y,z
loop_
_atom_site_type_symbol
_atom_site_label
_atom_site_fract_x
_atom_site_fract_y
_atom_site_fract_z
Si Si1 0.172146 0.172037 0.480210
Si Si2 0.679222 0.835332 0.333673
Si Si3 0.822425 0.832733 0.901978
Si Si4 0.180224 0.833249 0.639424
Si Si5 0.321870 0.666522 0.770813
Si Si6 0.318196 0.337247 0.194549
Si Si7 0.677903 0.833013 0.053698
O O1 0.261342 0.217318 0.410177
O O2 0.226464 0.214429 0.559271
O O3 0.000000 0.214796 0.472867
O O4 0.175720 0.000000 0.481411
O O5 0.500000 0.832019 0.335158
O O6 0.731149 0.744264 0.266011
O O7 0.724368 0.000000 0.324548
O O8 0.745461 0.741514 0.840670
O O9 0.000000 0.814869 0.899216
O O10 0.789462 0.000000 0.890538
O O11 0.760730 0.794848 0.980459
O O12 0.253600 0.742095 0.701287
O O13 0.000000 0.823110 0.642826
O O14 0.217323 0.000000 0.648395
O O15 0.500000 0.682424 0.770821
O O16 0.285871 0.500000 0.770777
O O17 0.500000 0.334632 0.195138
O O18 0.270776 0.500000 0.194506
O O19 0.272776 0.256627 0.122314
O O20 0.500000 0.812868 0.043751
O O21 0.702337 0.000000 0.067726
#
# Coordination Sequence:
#
# PCOD9337744 Si02
#       7
#     4   4   4   4   4   4   4
#     4   8  15  29  49  73  99 126 159 201 247 293
#     4   9  16  27  46  71  96 124 162 204 243 287
#     4  10  21  37  57  80 104 131 166 207 252 303
#     4   9  18  34  56  79 102 131 169 211 255 304
#     4  11  24  38  52  75 106 137 170 207 248 297
#     4   9  17  29  46  69  97 129 164 202 245 291
#     4   9  17  31  52  75  98 126 162 204 248 294
#
# _framework density 17.676110999999999
#
# number of rings (size 3 to 8) (size 9 to 14) (size 15 to 20)
#    0.000    2.714    0.000    2.571    0.000    6.857 
#    0.000    4.286    0.000    7.286    0.000    0.000 
#    0.000    0.000    0.000    0.000    0.000    0.000 
#
# Total GULP energy -156145.153600 kJ/mol
# GULP energy per Si atom -5576.612629 kJ/mol
# Density = 1.763588 g / cm^3
# Si number density = 17.676111 Si / 1000 Ang^3
#
#
#
# Elastic Constant Matrix: (Units=GPa)
#
#
# Indices 1 2 3 4 5 6 
#
# 1 26.6050 43.0235 57.4681 0.0000 0.0000 0.0000
# 2 43.0235 89.8489 108.2077 0.0000 0.0000 0.0000
# 3 57.4681 108.2077 213.9104 0.0000 0.0000 0.0000
# 4 0.0000 0.0000 0.0000 -7.0672 0.0000 0.0000
# 5 0.0000 0.0000 0.0000 0.0000 64.8037 0.0000
# 6 0.0000 0.0000 0.0000 0.0000 0.0000 16.8948
#
#
#
# Elastic Compliance Matrix: (Units=1/GPa)
#
#
# Indices 1 2 3 4 5 6 
#
# 1 0.177902 -0.070697 -0.012032 0.000000 0.000000 0.000000
# 2 -0.070697 0.056575 -0.009626 0.000000 0.000000 0.000000
# 3 -0.012032 -0.009626 0.012777 0.000000 0.000000 0.000000
# 4 0.000000 0.000000 0.000000 -0.141499 0.000000 0.000000
# 5 0.000000 0.000000 0.000000 0.000000 0.015431 0.000000
# 6 0.000000 0.000000 0.000000 0.000000 0.000000 0.059190
#
#
# Mechanical properties :
#
#
# Convention : Reuss Voigt Hill
#
# Bulk Modulus (GPa) = 15.98856 83.08479 49.53667
# Shear Modulus (GPa) = 12.95565 23.03726 17.99646
#
# Velocity S-wave (km/s) = 2.71024 3.61404 3.19427
# Velocity P-wave (km/s) = 4.34267 8.03250 6.45677
#
# Compressibility (1/GPa) = 0.06254470
#
# Stress axis : x y z
#
# Youngs Moduli (GPa) = 5.62108 17.67570 78.26843
#
# Poissons Ratio (x) = 1.24961 0.94173
# Poissons Ratio (y) = 0.39739 0.75339
# Poissons Ratio (z) = 0.06763 0.17014
#
# Static dielectric constant tensor:
#      x y z
#    x 1.591200 0.000000 0.000000 
#    y 0.000000 1.587240 0.000000 
#    z 0.000000 0.000000 1.592680 
# 
# From -- ./inp_files/6027.got.cif
#   From: 2010.05.17/outbox.cif.g08.bks.cpg/sg25_4_cif.got.tgz:6027.got - 2010.06.04 01:04:00.
