data_PCOD9337482
_publ_section_title
;
Structure prediction by ZEFSAII (Michael W. Deem and Ramdas Pophale) SiO2 
 PCOD9337482
Probable space group: P M M 2
;
_chemical_formula_sum "Si O2"
_cell_formula_units_Z 32
_cell_length_a 9.341104
_cell_length_b 7.418205
_cell_length_c 21.579844
_cell_angle_alpha 90.000000
_cell_angle_beta 90.000000
_cell_angle_gamma 90.000000
_cell_volume 1495.358553
_symmetry_space_group_name_H-M "P M M 2"
_symmetry_group_IT_number 25
_symmetry_cell_setting 'orthorhombic'
loop_
_space_group_symop_operation_xyz
x,y,z
-x,-y,z
-x,y,z
x,-y,z
loop_
_atom_site_type_symbol
_atom_site_label
_atom_site_fract_x
_atom_site_fract_y
_atom_site_fract_z
Si Si1 0.838298 0.784017 0.497310
Si Si2 0.335075 0.720048 0.129401
Si Si3 0.667303 0.719754 0.885276
Si Si4 0.336769 0.786427 0.614595
Si Si5 0.164799 0.720337 0.006942
Si Si6 0.165045 0.279612 0.252165
Si Si7 0.334578 0.283797 0.750133
Si Si8 0.337521 0.284349 0.372701
O O1 0.758504 0.713737 0.558679
O O2 0.745069 0.749841 0.436393
O O3 0.000000 0.714436 0.490765
O O4 0.848012 0.000000 0.503727
O O5 0.500000 0.777915 0.130754
O O6 0.335611 0.500000 0.129334
O O7 0.254715 0.777106 0.066934
O O8 0.248966 0.776457 0.190456
O O9 0.500000 0.771629 0.891421
O O10 0.669044 0.500000 0.886088
O O11 0.722346 0.777024 0.817063
O O12 0.759934 0.780182 0.943447
O O13 0.500000 0.712653 0.613785
O O14 0.271652 0.763719 0.683373
O O15 0.348933 0.000000 0.604806
O O16 0.165754 0.500000 0.006703
O O17 0.000000 0.776722 0.010748
O O18 0.164486 0.500000 0.252426
O O19 0.247691 0.218237 0.313692
O O20 0.000000 0.222213 0.251784
O O21 0.500000 0.219980 0.748025
O O22 0.336721 0.500000 0.752230
O O23 0.500000 0.214508 0.374258
O O24 0.346388 0.500000 0.365644
#
# Coordination Sequence:
#
# PCOD9337482 Si02
#       8
#     4   4   4   4   4   4   4   4
#     4  10  21  36  52  70  94 124 156 191 233 279
#     4   9  15  22  33  50  75 110 150 185 216 258
#     4   8  13  22  35  50  71 102 138 173 210 255
#     4   9  17  30  48  68  89 114 146 185 227 270
#     4   9  15  21  30  47  73 105 140 177 217 260
#     4   9  16  26  40  59  86 118 149 184 227 271
#     4   8  14  25  42  63  86 113 145 180 219 265
#     4  10  20  33  50  72  96 123 156 193 233 278
#
# _framework density 21.399550999999999
#
# number of rings (size 3 to 8) (size 9 to 14) (size 15 to 20)
#    0.000    3.000    0.000    2.625    0.000    6.500 
#    0.000    1.875    0.000    0.750    0.000    0.000 
#    0.000    1.000    0.000    5.000    0.000    7.125 
#
# Total GULP energy -178601.549555 kJ/mol
# GULP energy per Si atom -5581.298424 kJ/mol
# Density = 2.135084 g / cm^3
# Si number density = 21.399551 Si / 1000 Ang^3
#
#
#
# Elastic Constant Matrix: (Units=GPa)
#
#
# Indices 1 2 3 4 5 6 
#
# 1 185.0890 6.1140 140.6825 0.0000 0.0000 0.0000
# 2 6.1140 68.4488 1.7755 0.0000 0.0000 0.0000
# 3 140.6825 1.7755 262.8281 0.0000 0.0000 0.0000
# 4 0.0000 0.0000 0.0000 41.7623 0.0000 0.0000
# 5 0.0000 0.0000 0.0000 0.0000 189.8316 0.0000
# 6 0.0000 0.0000 0.0000 0.0000 0.0000 -1.8710
#
#
#
# Elastic Compliance Matrix: (Units=1/GPa)
#
#
# Indices 1 2 3 4 5 6 
#
# 1 0.009141 -0.000690 -0.004888 0.000000 0.000000 0.000000
# 2 -0.000690 0.014664 0.000270 0.000000 0.000000 0.000000
# 3 -0.004888 0.000270 0.006419 0.000000 0.000000 0.000000
# 4 0.000000 0.000000 0.000000 0.023945 0.000000 0.000000
# 5 0.000000 0.000000 0.000000 0.000000 0.005268 0.000000
# 6 0.000000 0.000000 0.000000 0.000000 0.000000 -0.534481
#
#
# Mechanical properties :
#
#
# Convention : Reuss Voigt Hill
#
# Bulk Modulus (GPa) = 50.99718 90.38996 70.69357
# Shear Modulus (GPa) = -10.91962 70.46418 29.77228
#
# Velocity S-wave (km/s) = -2.26137 5.74451 3.73400
# Velocity P-wave (km/s) = 4.13089 9.29140 7.19007
#
# Compressibility (1/GPa) = 0.01960893
#
# Stress axis : x y z
#
# Youngs Moduli (GPa) = 109.39708 68.19394 155.77728
#
# Poissons Ratio (x) = 0.04703 0.76147
# Poissons Ratio (y) = 0.07545 -0.04208
# Poissons Ratio (z) = 0.53475 -0.01842
#
# Static dielectric constant tensor:
#      x y z
#    x 1.701360 0.000000 0.000000 
#    y 0.000000 1.824610 0.000000 
#    z 0.000000 0.000000 1.755130 
# 
# From -- ./inp_files/6270.got.cif
#   From: 2010.05.17/outbox.cif.g08.bks.cpg/sg25_4_cif.got.tgz:6270.got - 2010.06.04 01:04:00.
