data_PCOD9337118
_publ_section_title
;
Structure prediction by ZEFSAII (Michael W. Deem and Ramdas Pophale) SiO2 
 PCOD9337118
Probable space group: P M M 2
;
_chemical_formula_sum "Si O2"
_cell_formula_units_Z 32
_cell_length_a 8.557635
_cell_length_b 14.676738
_cell_length_c 16.208566
_cell_angle_alpha 90.000000
_cell_angle_beta 90.000000
_cell_angle_gamma 90.000000
_cell_volume 2035.766176
_symmetry_space_group_name_H-M "P M M 2"
_symmetry_group_IT_number 25
_symmetry_cell_setting 'orthorhombic'
loop_
_space_group_symop_operation_xyz
x,y,z
-x,-y,z
-x,y,z
x,-y,z
loop_
_atom_site_type_symbol
_atom_site_label
_atom_site_fract_x
_atom_site_fract_y
_atom_site_fract_z
Si Si1 0.685493 0.786514 0.452130
Si Si2 0.313167 0.603375 0.200798
Si Si3 0.808608 0.894274 0.969063
Si Si4 0.810407 0.893981 0.608582
Si Si5 0.188896 0.783578 0.129390
Si Si6 0.810942 0.894187 0.293074
Si Si7 0.819009 0.110717 0.789111
Si Si8 0.187060 0.396463 0.385970
O O1 0.500000 0.790295 0.452303
O O2 0.750672 0.832507 0.534686
O O3 0.747928 0.842326 0.372982
O O4 0.741135 0.682697 0.441144
O O5 0.500000 0.609064 0.207484
O O6 0.271239 0.500000 0.175658
O O7 0.251469 0.682026 0.141601
O O8 0.241413 0.618920 0.291667
O O9 0.751485 0.863246 0.878297
O O10 0.000000 0.893408 0.966580
O O11 0.764025 0.000000 0.982387
O O12 0.759137 0.832171 0.045241
O O13 0.752074 0.863910 0.699738
O O14 0.000000 0.891988 0.610058
O O15 0.765235 0.000000 0.595357
O O16 0.237825 0.842896 0.209268
O O17 0.000000 0.781524 0.129355
O O18 0.000000 0.891681 0.296273
O O19 0.762865 0.000000 0.292370
O O20 0.000000 0.141032 0.788965
O O21 0.820832 0.000000 0.789505
O O22 0.233494 0.500000 0.408362
O O23 0.000000 0.390149 0.388613
#
# Coordination Sequence:
#
# PCOD9337118 Si02
#       8
#     4   4   4   4   4   4   4   4
#     4  12  23  32  45  67  95 126 156 189 231 276
#     4  10  20  33  48  66  90 120 153 192 236 276
#     4   8  13  23  42  70  99 122 150 190 232 273
#     4   9  17  30  48  68  92 125 162 197 232 273
#     4  10  18  28  46  70  94 123 156 190 229 272
#     4  10  20  32  44  61  91 130 165 191 218 261
#     4   7  11  22  42  67  92 118 151 193 236 271
#     4  10  20  35  54  71  87 112 150 195 238 279
#
# _framework density 15.718899
#
# number of rings (size 3 to 8) (size 9 to 14) (size 15 to 20)
#    0.000    2.500    1.250    4.125    0.000    5.000 
#    0.000    0.000    0.000    1.875    0.000    2.625 
#    0.000    3.000    0.000    0.000    0.000    0.000 
#
# Total GULP energy -178352.583693 kJ/mol
# GULP energy per Si atom -5573.518240 kJ/mol
# Density = 1.568312 g / cm^3
# Si number density = 15.718899 Si / 1000 Ang^3
#
#
#
# Elastic Constant Matrix: (Units=GPa)
#
#
# Indices 1 2 3 4 5 6 
#
# 1 15.9790 22.1045 23.6059 0.0000 0.0000 0.0000
# 2 22.1045 108.9841 78.4636 0.0000 0.0000 0.0000
# 3 23.6059 78.4636 155.1402 0.0000 0.0000 0.0000
# 4 0.0000 0.0000 0.0000 9.0527 0.0000 0.0000
# 5 0.0000 0.0000 0.0000 0.0000 -8.1678 0.0000
# 6 0.0000 0.0000 0.0000 0.0000 0.0000 3.0827
#
#
#
# Elastic Compliance Matrix: (Units=1/GPa)
#
#
# Indices 1 2 3 4 5 6 
#
# 1 0.091777 -0.013463 -0.007156 0.000000 0.000000 0.000000
# 2 -0.013463 0.016405 -0.006248 0.000000 0.000000 0.000000
# 3 -0.007156 -0.006248 0.010695 0.000000 0.000000 0.000000
# 4 0.000000 0.000000 0.000000 0.110464 0.000000 0.000000
# 5 0.000000 0.000000 0.000000 0.000000 -0.122432 0.000000
# 6 0.000000 0.000000 0.000000 0.000000 0.000000 0.324391
#
#
# Mechanical properties :
#
#
# Convention : Reuss Voigt Hill
#
# Bulk Modulus (GPa) = 15.35087 58.71681 37.03384
# Shear Modulus (GPa) = 9.86686 11.18881 10.52784
#
# Velocity S-wave (km/s) = 2.50813 2.67086 2.59077
# Velocity P-wave (km/s) = 4.26318 6.85177 5.70620
#
# Compressibility (1/GPa) = 0.06514287
#
# Stress axis : x y z
#
# Youngs Moduli (GPa) = 10.89597 60.95784 93.50349
#
# Poissons Ratio (x) = 0.82066 0.66909
# Poissons Ratio (y) = 0.14669 0.58425
# Poissons Ratio (z) = 0.07797 0.38089
#
# Static dielectric constant tensor:
#      x y z
#    x 1.527820 0.000000 0.000000 
#    y 0.000000 1.515430 0.000000 
#    z 0.000000 0.000000 1.533550 
# 
# From -- ./inp_files/5752.got.cif
#   From: 2010.05.17/outbox.cif.g08.bks.cpg/sg25_3_cif.got.tgz:5752.got - 2010.06.04 01:04:00.
