data_PCOD9337644
_publ_section_title
;
Structure prediction by ZEFSAII (Michael W. Deem and Ramdas Pophale) SiO2 
 PCOD9337644
Probable space group: P M M 2
;
_chemical_formula_sum "Si O2"
_cell_formula_units_Z 24
_cell_length_a 16.919215
_cell_length_b 12.973038
_cell_length_c 5.263284
_cell_angle_alpha 90.000000
_cell_angle_beta 90.000000
_cell_angle_gamma 90.000000
_cell_volume 1155.257254
_symmetry_space_group_name_H-M "P M M 2"
_symmetry_group_IT_number 25
_symmetry_cell_setting 'orthorhombic'
loop_
_space_group_symop_operation_xyz
x,y,z
-x,-y,z
-x,y,z
x,-y,z
loop_
_atom_site_type_symbol
_atom_site_label
_atom_site_fract_x
_atom_site_fract_y
_atom_site_fract_z
Si Si1 0.691123 0.725504 0.397580
Si Si2 0.248744 0.883820 0.002347
Si Si3 0.413530 0.611156 0.050582
Si Si4 0.169282 0.285056 0.732135
Si Si5 0.906308 0.379532 0.237246
Si Si6 0.412063 0.825051 0.752186
O O1 0.657281 0.630627 0.243253
O O2 0.741906 0.687839 0.636786
O O3 0.616625 0.798122 0.469100
O O4 0.744858 0.801500 0.229759
O O5 0.184078 0.834278 0.811964
O O6 0.336773 0.881730 0.875588
O O7 0.230415 0.000000 0.078572
O O8 0.500000 0.611120 0.181862
O O9 0.405826 0.500000 0.920982
O O10 0.414507 0.711222 0.875191
O O11 0.116950 0.314557 0.488184
O O12 0.138083 0.343328 0.981252
O O13 0.887950 0.500000 0.287037
O O14 0.000000 0.370085 0.192850
O O15 0.500000 0.870258 0.769253
#
# Coordination Sequence:
#
# PCOD9337644 Si02
#       6
#     4   4   4   4   4   4
#     4  10  20  36  57  87 124 168 215 269 322 379
#     4  10  22  41  64  88 124 172 221 274 333 377
#     4   9  18  32  50  76 116 169 220 268 323 377
#     4  11  22  43  65 101 134 169 209 258 312 378
#     4  11  24  44  72 104 137 171 203 245 310 385
#     4   9  19  35  54  82 122 164 218 279 328 379
#
# _framework density 20.774592999999999
#
# number of rings (size 3 to 8) (size 9 to 14) (size 15 to 20)
#    0.000    2.000    1.667    1.500    0.000    7.000 
#    0.000    4.167    0.000    3.000    0.000    0.000 
#    0.000    0.000    0.000    0.000    0.000    0.000 
#
# Total GULP energy -133702.806842 kJ/mol
# GULP energy per Si atom -5570.950285 kJ/mol
# Density = 2.072731 g / cm^3
# Si number density = 20.774593 Si / 1000 Ang^3
#
#
#
# Elastic Constant Matrix: (Units=GPa)
#
#
# Indices 1 2 3 4 5 6 
#
# 1 88.7764 40.7737 38.0539 0.0000 0.0000 0.0000
# 2 40.7737 111.3238 34.2534 0.0000 0.0000 0.0000
# 3 38.0539 34.2534 96.4772 0.0000 0.0000 0.0000
# 4 0.0000 0.0000 0.0000 5.9304 0.0000 0.0000
# 5 0.0000 0.0000 0.0000 0.0000 36.7624 0.0000
# 6 0.0000 0.0000 0.0000 0.0000 0.0000 16.2940
#
#
#
# Elastic Compliance Matrix: (Units=1/GPa)
#
#
# Indices 1 2 3 4 5 6 
#
# 1 0.015090 -0.004149 -0.004479 0.000000 0.000000 0.000000
# 2 -0.004149 0.011225 -0.002349 0.000000 0.000000 0.000000
# 3 -0.004479 -0.002349 0.012966 0.000000 0.000000 0.000000
# 4 0.000000 0.000000 0.000000 0.168623 0.000000 0.000000
# 5 0.000000 0.000000 0.000000 0.000000 0.027202 0.000000
# 6 0.000000 0.000000 0.000000 0.000000 0.000000 0.061372
#
#
# Mechanical properties :
#
#
# Convention : Reuss Voigt Hill
#
# Bulk Modulus (GPa) = 57.71229 58.08214 57.89722
# Shear Modulus (GPa) = 15.42228 24.03046 19.72637
#
# Velocity S-wave (km/s) = 2.72759 3.40475 3.08481
# Velocity P-wave (km/s) = 6.14493 6.59359 6.37321
#
# Compressibility (1/GPa) = 0.01732733
#
# Stress axis : x y z
#
# Youngs Moduli (GPa) = 66.27116 89.08651 77.12624
#
# Poissons Ratio (x) = 0.36958 0.34544
# Poissons Ratio (y) = 0.27493 0.18117
# Poissons Ratio (z) = 0.29682 0.20926
#
# Static dielectric constant tensor:
#      x y z
#    x 1.785210 0.000000 0.000000 
#    y 0.000000 1.727110 0.000000 
#    z 0.000000 0.000000 1.829440 
# 
# From -- ./inp_files/629.got.cif
#   From: 2010.05.17/outbox.cif.g08.bks.cpg/sg25_1_cif.got.tgz:629.got - 2010.06.04 01:04:00.
