data_PCOD9337745
_publ_section_title
;
Structure prediction by ZEFSAII (Michael W. Deem and Ramdas Pophale) SiO2 
 PCOD9337745
Probable space group: P M M 2
;
_chemical_formula_sum "Si O2"
_cell_formula_units_Z 28
_cell_length_a 9.821762
_cell_length_b 8.424880
_cell_length_c 18.539711
_cell_angle_alpha 90.000000
_cell_angle_beta 90.000000
_cell_angle_gamma 90.000000
_cell_volume 1534.108548
_symmetry_space_group_name_H-M "P M M 2"
_symmetry_group_IT_number 25
_symmetry_cell_setting 'orthorhombic'
loop_
_space_group_symop_operation_xyz
x,y,z
-x,-y,z
-x,y,z
x,-y,z
loop_
_atom_site_type_symbol
_atom_site_label
_atom_site_fract_x
_atom_site_fract_y
_atom_site_fract_z
Si Si1 0.843872 0.189698 0.626590
Si Si2 0.842884 0.308256 0.050307
Si Si3 0.656802 0.689777 0.497517
Si Si4 0.657262 0.191746 0.338743
Si Si5 0.343859 0.306506 0.919223
Si Si6 0.342571 0.691841 0.755721
Si Si7 0.842669 0.191635 0.206078
O O1 0.759275 0.245996 0.557166
O O2 0.761321 0.244963 0.696909
O O3 0.000000 0.249182 0.626226
O O4 0.847643 0.000000 0.626035
O O5 0.840862 0.500000 0.050216
O O6 0.792609 0.250706 0.128277
O O7 0.000000 0.256365 0.042839
O O8 0.754137 0.251194 0.982847
O O9 0.500000 0.745451 0.510116
O O10 0.655996 0.500000 0.501372
O O11 0.696704 0.742721 0.417014
O O12 0.500000 0.237310 0.325674
O O13 0.752213 0.246173 0.273278
O O14 0.663641 0.000000 0.341946
O O15 0.500000 0.259238 0.932700
O O16 0.340667 0.500000 0.919370
O O17 0.307412 0.257879 0.837627
O O18 0.500000 0.739779 0.740977
O O19 0.340124 0.500000 0.753465
O O20 0.000000 0.243448 0.214238
O O21 0.840748 0.000000 0.205460
#
# Coordination Sequence:
#
# PCOD9337745 Si02
#       7
#     4   4   4   4   4   4   4
#     4  11  24  38  52  75 106 137 170 207 248 297
#     4   9  17  29  46  69  96 127 164 202 241 289
#     4  10  21  37  57  80 104 131 166 207 252 303
#     4   9  18  33  52  73  98 129 164 202 246 296
#     4   8  15  29  49  73  99 126 159 201 247 293
#     4   9  18  34  56  79 102 131 169 211 255 304
#     4   9  18  32  48  67  95 131 166 200 243 293
#
# _framework density 18.251640999999999
#
# number of rings (size 3 to 8) (size 9 to 14) (size 15 to 20)
#    0.000    2.714    0.000    2.143    0.000    6.286 
#    0.000    3.571    0.000    2.571    0.000    0.000 
#    0.000    0.000    0.000    0.000    0.000    0.000 
#
# Total GULP energy -156172.032875 kJ/mol
# GULP energy per Si atom -5577.572603 kJ/mol
# Density = 1.821010 g / cm^3
# Si number density = 18.251641 Si / 1000 Ang^3
#
#
#
# Elastic Constant Matrix: (Units=GPa)
#
#
# Indices 1 2 3 4 5 6 
#
# 1 114.2612 21.7150 129.0070 0.0000 0.0000 0.0000
# 2 21.7150 10.2999 26.5855 0.0000 0.0000 0.0000
# 3 129.0070 26.5855 202.1538 0.0000 0.0000 0.0000
# 4 0.0000 0.0000 0.0000 39.7361 0.0000 0.0000
# 5 0.0000 0.0000 0.0000 0.0000 234.0566 0.0000
# 6 0.0000 0.0000 0.0000 0.0000 0.0000 15.0614
#
#
#
# Elastic Compliance Matrix: (Units=1/GPa)
#
#
# Indices 1 2 3 4 5 6 
#
# 1 0.034942 -0.024391 -0.019091 0.000000 0.000000 0.000000
# 2 -0.024391 0.164007 -0.006003 0.000000 0.000000 0.000000
# 3 -0.019091 -0.006003 0.017920 0.000000 0.000000 0.000000
# 4 0.000000 0.000000 0.000000 0.025166 0.000000 0.000000
# 5 0.000000 0.000000 0.000000 0.000000 0.004272 0.000000
# 6 0.000000 0.000000 0.000000 0.000000 0.000000 0.066395
#
#
# Mechanical properties :
#
#
# Convention : Reuss Voigt Hill
#
# Bulk Modulus (GPa) = 8.48190 75.70334 42.09262
# Shear Modulus (GPa) = 11.08714 67.73128 39.40921
#
# Velocity S-wave (km/s) = 2.46734 6.09838 4.65178
# Velocity P-wave (km/s) = 3.57412 9.54749 7.20864
#
# Compressibility (1/GPa) = 0.11789808
#
# Stress axis : x y z
#
# Youngs Moduli (GPa) = 28.61867 6.09729 55.80509
#
# Poissons Ratio (x) = 0.14872 1.06538
# Poissons Ratio (y) = 0.69803 0.33502
# Poissons Ratio (z) = 0.54636 0.03660
#
# Static dielectric constant tensor:
#      x y z
#    x 1.624120 0.000000 0.000000 
#    y 0.000000 1.630880 0.000000 
#    z 0.000000 0.000000 1.607410 
# 
# From -- ./inp_files/6403.got.cif
#   From: 2010.05.17/outbox.cif.g08.bks.cpg/sg25_4_cif.got.tgz:6403.got - 2010.06.04 01:04:00.
