data_PCOD9337828
_publ_section_title
;
Structure prediction by ZEFSAII (Michael W. Deem and Ramdas Pophale) SiO2 
 PCOD9337828
Probable space group: P M M 2
;
_chemical_formula_sum "Si O2"
_cell_formula_units_Z 32
_cell_length_a 7.484150
_cell_length_b 9.504587
_cell_length_c 21.921337
_cell_angle_alpha 90.000000
_cell_angle_beta 90.000000
_cell_angle_gamma 90.000000
_cell_volume 1559.347011
_symmetry_space_group_name_H-M "P M M 2"
_symmetry_group_IT_number 25
_symmetry_cell_setting 'orthorhombic'
loop_
_space_group_symop_operation_xyz
x,y,z
-x,-y,z
-x,y,z
x,-y,z
loop_
_atom_site_type_symbol
_atom_site_label
_atom_site_fract_x
_atom_site_fract_y
_atom_site_fract_z
Si Si1 0.218849 0.663103 0.699220
Si Si2 0.781186 0.661754 0.463245
Si Si3 0.714521 0.160703 0.082829
Si Si4 0.285617 0.164629 0.214679
Si Si5 0.789089 0.160352 0.348449
Si Si6 0.213748 0.658980 0.963740
Si Si7 0.207454 0.328503 0.832675
Si Si8 0.781785 0.161755 0.581742
O O1 0.270418 0.500000 0.689286
O O2 0.282858 0.710161 0.766497
O O3 0.275383 0.761201 0.643772
O O4 0.000000 0.663899 0.700801
O O5 0.723430 0.500000 0.465600
O O6 0.719106 0.741389 0.402186
O O7 0.726259 0.749210 0.522773
O O8 0.000000 0.660229 0.462955
O O9 0.500000 0.154102 0.086703
O O10 0.776620 0.220554 0.148731
O O11 0.755723 0.249086 0.023181
O O12 0.779826 0.000000 0.076605
O O13 0.500000 0.169129 0.214943
O O14 0.229986 0.222283 0.280274
O O15 0.230292 0.000000 0.215011
O O16 0.000000 0.147477 0.359511
O O17 0.714851 0.000000 0.349613
O O18 0.281565 0.500000 0.973225
O O19 0.000000 0.649868 0.955981
O O20 0.284009 0.715435 0.898391
O O21 0.210189 0.500000 0.833977
O O22 0.000000 0.283348 0.831388
O O23 0.000000 0.161538 0.581905
O O24 0.724092 0.000000 0.578479
#
# Coordination Sequence:
#
# PCOD9337828 Si02
#       8
#     4   4   4   4   4   4   4   4
#     4   8  12  19  32  48  68 100 139 171 202 246
#     4   9  16  25  36  51  75 107 138 167 203 247
#     4   9  18  32  48  66  89 117 149 184 221 263
#     4   8  15  29  47  64  83 109 140 173 210 254
#     4   9  16  26  42  63  83 104 134 172 210 247
#     4   9  17  29  45  66  91 118 149 185 224 266
#     4   7  11  21  36  53  76 107 140 173 210 253
#     4   9  15  21  30  47  73 104 137 172 206 241
#
# _framework density 20.521409999999999
#
# number of rings (size 3 to 8) (size 9 to 14) (size 15 to 20)
#    0.000    3.500    0.000    3.000    0.000    4.000 
#    0.000    2.500    0.000    4.875    0.000    0.000 
#    0.000    1.000    0.000    7.250    0.000    9.500 
#
# Total GULP energy -178247.420355 kJ/mol
# GULP energy per Si atom -5570.231886 kJ/mol
# Density = 2.047470 g / cm^3
# Si number density = 20.521410 Si / 1000 Ang^3
#
#
#
# Elastic Constant Matrix: (Units=GPa)
#
#
# Indices 1 2 3 4 5 6 
#
# 1 54.0341 4.2736 6.1775 0.0000 0.0000 0.0000
# 2 4.2736 99.7724 111.6502 0.0000 0.0000 0.0000
# 3 6.1775 111.6502 266.3697 0.0000 0.0000 0.0000
# 4 0.0000 0.0000 0.0000 36.2503 0.0000 0.0000
# 5 0.0000 0.0000 0.0000 0.0000 64.4978 0.0000
# 6 0.0000 0.0000 0.0000 0.0000 0.0000 3.5551
#
#
#
# Elastic Compliance Matrix: (Units=1/GPa)
#
#
# Indices 1 2 3 4 5 6 
#
# 1 0.018574 -0.000591 -0.000183 0.000000 0.000000 0.000000
# 2 -0.000591 0.018896 -0.007907 0.000000 0.000000 0.000000
# 3 -0.000183 -0.007907 0.007073 0.000000 0.000000 0.000000
# 4 0.000000 0.000000 0.000000 0.027586 0.000000 0.000000
# 5 0.000000 0.000000 0.000000 0.000000 0.015504 0.000000
# 6 0.000000 0.000000 0.000000 0.000000 0.000000 0.281283
#
#
# Mechanical properties :
#
#
# Convention : Reuss Voigt Hill
#
# Bulk Modulus (GPa) = 36.78887 73.81988 55.30437
# Shear Modulus (GPa) = 12.64739 40.73230 26.68984
#
# Velocity S-wave (km/s) = 2.48524 4.46002 3.61028
# Velocity P-wave (km/s) = 5.11871 7.91028 6.66235
#
# Compressibility (1/GPa) = 0.02718213
#
# Stress axis : x y z
#
# Youngs Moduli (GPa) = 53.83729 52.92103 141.39147
#
# Poissons Ratio (x) = 0.03125 0.02591
# Poissons Ratio (y) = 0.03180 1.11794
# Poissons Ratio (z) = 0.00986 0.41843
#
# Static dielectric constant tensor:
#      x y z
#    x 1.786710 0.000000 0.000000 
#    y 0.000000 1.693280 0.000000 
#    z 0.000000 0.000000 1.770130 
# 
# From -- ./inp_files/6368.got.cif
#   From: 2010.05.17/outbox.cif.g08.bks.cpg/sg25_4_cif.got.tgz:6368.got - 2010.06.04 01:04:00.
