data_PCOD9337732
_publ_section_title
;
Structure prediction by ZEFSAII (Michael W. Deem and Ramdas Pophale) SiO2 
 PCOD9337732
Probable space group: P M M 2
;
_chemical_formula_sum "Si O2"
_cell_formula_units_Z 32
_cell_length_a 9.055931
_cell_length_b 14.036575
_cell_length_c 13.201308
_cell_angle_alpha 90.000000
_cell_angle_beta 90.000000
_cell_angle_gamma 90.000000
_cell_volume 1678.074427
_symmetry_space_group_name_H-M "P M M 2"
_symmetry_group_IT_number 25
_symmetry_cell_setting 'orthorhombic'
loop_
_space_group_symop_operation_xyz
x,y,z
-x,-y,z
-x,y,z
x,-y,z
loop_
_atom_site_type_symbol
_atom_site_label
_atom_site_fract_x
_atom_site_fract_y
_atom_site_fract_z
Si Si1 0.171485 0.884784 0.419170
Si Si2 0.823996 0.788788 0.821641
Si Si3 0.324266 0.211033 0.226278
Si Si4 0.175977 0.887443 0.035200
Si Si5 0.672166 0.115131 0.628455
Si Si6 0.325318 0.388093 0.744587
Si Si7 0.167583 0.384412 0.538747
Si Si8 0.822560 0.611280 0.308924
O O1 0.258040 0.844111 0.323350
O O2 0.243478 0.855179 0.525939
O O3 0.000000 0.855392 0.414467
O O4 0.176659 0.000000 0.415087
O O5 0.747764 0.842703 0.728037
O O6 0.762811 0.681425 0.818306
O O7 0.000000 0.789726 0.807906
O O8 0.789043 0.840202 0.927199
O O9 0.500000 0.210279 0.229796
O O10 0.264678 0.161050 0.125524
O O11 0.261184 0.317998 0.235079
O O12 0.000000 0.875176 0.053614
O O13 0.206217 0.000000 0.031545
O O14 0.500000 0.142469 0.623529
O O15 0.679817 0.000000 0.633472
O O16 0.500000 0.375344 0.755366
O O17 0.290613 0.500000 0.758675
O O18 0.274624 0.360206 0.630654
O O19 0.161108 0.500000 0.536062
O O20 0.212775 0.358055 0.425006
O O21 0.000000 0.350592 0.559368
O O22 0.784383 0.500000 0.296327
O O23 0.000000 0.619642 0.298214
#
# Coordination Sequence:
#
# PCOD9337732 Si02
#       8
#     4   4   4   4   4   4   4   4
#     4  10  21  38  60  85 117 158 201 245 294 353
#     4  11  23  39  63  90 117 154 201 249 300 359
#     4  12  25  38  59  90 123 158 197 245 306 366
#     4  10  23  45  69  90 114 150 202 257 302 355
#     4  10  21  37  58  87 123 157 191 239 300 363
#     4  10  21  36  55  83 122 163 201 245 297 353
#     4   8  15  30  53  80 111 151 198 244 288 339
#     4   9  19  37  60  85 117 159 206 251 294 348
#
# _framework density 19.069476000000002
#
# number of rings (size 3 to 8) (size 9 to 14) (size 15 to 20)
#    0.000    2.000    0.000    4.125    1.750    6.250 
#    0.000    1.875    0.000    0.750    0.000    0.000 
#    0.000    0.000    0.000    0.000    0.000    0.000 
#
# Total GULP energy -178879.223360 kJ/mol
# GULP energy per Si atom -5589.975730 kJ/mol
# Density = 1.902607 g / cm^3
# Si number density = 19.069476 Si / 1000 Ang^3
#
#
#
# Elastic Constant Matrix: (Units=GPa)
#
#
# Indices 1 2 3 4 5 6 
#
# 1 111.4651 71.4420 91.3230 0.0000 0.0000 0.0000
# 2 71.4420 106.1940 75.2291 0.0000 0.0000 0.0000
# 3 91.3230 75.2291 140.4468 0.0000 0.0000 0.0000
# 4 0.0000 0.0000 0.0000 37.0350 0.0000 0.0000
# 5 0.0000 0.0000 0.0000 0.0000 -95.4571 0.0000
# 6 0.0000 0.0000 0.0000 0.0000 0.0000 28.2741
#
#
#
# Elastic Compliance Matrix: (Units=1/GPa)
#
#
# Indices 1 2 3 4 5 6 
#
# 1 0.022531 -0.007702 -0.010525 0.000000 0.000000 0.000000
# 2 -0.007702 0.017807 -0.004531 0.000000 0.000000 0.000000
# 3 -0.010525 -0.004531 0.016391 0.000000 0.000000 0.000000
# 4 0.000000 0.000000 0.000000 0.027001 0.000000 0.000000
# 5 0.000000 0.000000 0.000000 0.000000 -0.010476 0.000000
# 6 0.000000 0.000000 0.000000 0.000000 0.000000 0.035368
#
#
# Mechanical properties :
#
#
# Convention : Reuss Voigt Hill
#
# Bulk Modulus (GPa) = 89.16981 92.67712 90.92347
# Shear Modulus (GPa) = 31.67072 1.97786 16.82429
#
# Velocity S-wave (km/s) = 4.07972 1.01953 2.97351
# Velocity P-wave (km/s) = 8.30988 7.07751 7.71833
#
# Compressibility (1/GPa) = 0.01121456
#
# Stress axis : x y z
#
# Youngs Moduli (GPa) = 44.38406 56.15614 61.01085
#
# Poissons Ratio (x) = 0.43249 0.64213
# Poissons Ratio (y) = 0.34183 0.27642
# Poissons Ratio (z) = 0.46714 0.25442
#
# Static dielectric constant tensor:
#      x y z
#    x 1.632480 0.000000 0.000000 
#    y 0.000000 1.705960 0.000000 
#    z 0.000000 0.000000 1.625100 
# 
# From -- ./inp_files/4271.got.cif
#   From: 2010.05.17/outbox.cif.g08.bks.cpg/sg25_3_cif.got.tgz:4271.got - 2010.06.04 01:04:00.
