data_PCOD9337224
_publ_section_title
;
Structure prediction by ZEFSAII (Michael W. Deem and Ramdas Pophale) SiO2 
 PCOD9337224
Probable space group: P M M 2
;
_chemical_formula_sum "Si O2"
_cell_formula_units_Z 32
_cell_length_a 8.886662
_cell_length_b 14.710044
_cell_length_c 15.950261
_cell_angle_alpha 90.000000
_cell_angle_beta 90.000000
_cell_angle_gamma 90.000000
_cell_volume 2085.068984
_symmetry_space_group_name_H-M "P M M 2"
_symmetry_group_IT_number 25
_symmetry_cell_setting 'orthorhombic'
loop_
_space_group_symop_operation_xyz
x,y,z
-x,-y,z
-x,y,z
x,-y,z
loop_
_atom_site_type_symbol
_atom_site_label
_atom_site_fract_x
_atom_site_fract_y
_atom_site_fract_z
Si Si1 0.681200 0.396955 0.951710
Si Si2 0.820243 0.892802 0.529444
Si Si3 0.818664 0.893573 0.179376
Si Si4 0.680931 0.207983 0.687552
Si Si5 0.181386 0.783529 0.015015
Si Si6 0.673295 0.110348 0.354298
Si Si7 0.682791 0.398964 0.756250
Si Si8 0.818894 0.107012 0.847292
O O1 0.500000 0.390318 0.955249
O O2 0.723145 0.500000 0.976214
O O3 0.725816 0.384826 0.853758
O O4 0.753529 0.317050 0.005008
O O5 0.747386 0.835686 0.603900
O O6 0.760442 0.862581 0.438429
O O7 0.000000 0.885706 0.532323
O O8 0.780936 0.000000 0.540351
O O9 0.770182 0.834665 0.099562
O O10 0.748518 0.861183 0.266986
O O11 0.000000 0.889620 0.185675
O O12 0.778582 0.000000 0.166363
O O13 0.500000 0.205019 0.684894
O O14 0.730713 0.312572 0.702232
O O15 0.738686 0.151587 0.767739
O O16 0.000000 0.779790 0.015749
O O17 0.225520 0.841508 0.932700
O O18 0.500000 0.139006 0.358568
O O19 0.677406 0.000000 0.353240
O O20 0.500000 0.400139 0.755088
O O21 0.734045 0.500000 0.730256
O O22 0.000000 0.116191 0.837328
O O23 0.785035 0.000000 0.853171
#
# Coordination Sequence:
#
# PCOD9337224 Si02
#       8
#     4   4   4   4   4   4   4   4
#     4   9  17  31  49  66  88 120 156 195 240 284
#     4  10  20  33  48  66  93 128 158 186 227 279
#     4   9  17  30  47  67  94 128 160 188 227 279
#     4  11  20  30  47  69  91 119 157 197 232 270
#     4  10  19  30  46  68  93 123 160 196 228 269
#     4   9  17  30  48  70  93 117 152 198 236 266
#     4   8  15  29  47  65  87 117 152 191 236 280
#     4  10  20  32  43  59  91 131 162 187 221 268
#
# _framework density 15.347213999999999
#
# number of rings (size 3 to 8) (size 9 to 14) (size 15 to 20)
#    0.000    2.500    1.250    2.625    0.000    6.250 
#    0.000    0.000    0.000    3.750    0.000    0.875 
#    0.000    5.000    0.000    0.000    0.000    0.000 
#
# Total GULP energy -178391.645721 kJ/mol
# GULP energy per Si atom -5574.738929 kJ/mol
# Density = 1.531228 g / cm^3
# Si number density = 15.347214 Si / 1000 Ang^3
#
#
#
# Elastic Constant Matrix: (Units=GPa)
#
#
# Indices 1 2 3 4 5 6 
#
# 1 27.9138 35.5627 42.8348 0.0000 0.0000 0.0000
# 2 35.5627 112.5719 77.7307 0.0000 0.0000 0.0000
# 3 42.8348 77.7307 144.5313 0.0000 0.0000 0.0000
# 4 0.0000 0.0000 0.0000 8.0587 0.0000 0.0000
# 5 0.0000 0.0000 0.0000 0.0000 19.9808 0.0000
# 6 0.0000 0.0000 0.0000 0.0000 0.0000 20.6854
#
#
#
# Elastic Compliance Matrix: (Units=1/GPa)
#
#
# Indices 1 2 3 4 5 6 
#
# 1 0.076912 -0.013613 -0.015473 0.000000 0.000000 0.000000
# 2 -0.013613 0.016540 -0.004861 0.000000 0.000000 0.000000
# 3 -0.015473 -0.004861 0.014119 0.000000 0.000000 0.000000
# 4 0.000000 0.000000 0.000000 0.124089 0.000000 0.000000
# 5 0.000000 0.000000 0.000000 0.000000 0.050048 0.000000
# 6 0.000000 0.000000 0.000000 0.000000 0.000000 0.048343
#
#
# Mechanical properties :
#
#
# Convention : Reuss Voigt Hill
#
# Bulk Modulus (GPa) = 25.20370 66.36372 45.78371
# Shear Modulus (GPa) = 12.16036 18.33758 15.24897
#
# Velocity S-wave (km/s) = 2.81792 3.46041 3.15556
# Velocity P-wave (km/s) = 5.20054 7.70073 6.57065
#
# Compressibility (1/GPa) = 0.03967671
#
# Stress axis : x y z
#
# Youngs Moduli (GPa) = 13.00186 60.45839 70.82656
#
# Poissons Ratio (x) = 0.82303 1.09591
# Poissons Ratio (y) = 0.17700 0.34429
# Poissons Ratio (z) = 0.20118 0.29389
#
# Static dielectric constant tensor:
#      x y z
#    x 1.517650 0.000000 0.000000 
#    y 0.000000 1.505750 0.000000 
#    z 0.000000 0.000000 1.490890 
# 
# From -- ./inp_files/5678.got.cif
#   From: 2010.05.17/outbox.cif.g08.bks.cpg/sg25_3_cif.got.tgz:5678.got - 2010.06.04 01:04:00.
