data_PCOD9337106
_publ_section_title
;
Structure prediction by ZEFSAII (Michael W. Deem and Ramdas Pophale) SiO2 
 PCOD9337106
Probable space group: P M M 2
;
_chemical_formula_sum "Si O2"
_cell_formula_units_Z 32
_cell_length_a 7.498392
_cell_length_b 14.986827
_cell_length_c 16.144180
_cell_angle_alpha 90.000000
_cell_angle_beta 90.000000
_cell_angle_gamma 90.000000
_cell_volume 1814.236190
_symmetry_space_group_name_H-M "P M M 2"
_symmetry_group_IT_number 25
_symmetry_cell_setting 'orthorhombic'
loop_
_space_group_symop_operation_xyz
x,y,z
-x,-y,z
-x,y,z
x,-y,z
loop_
_atom_site_type_symbol
_atom_site_label
_atom_site_fract_x
_atom_site_fract_y
_atom_site_fract_z
Si Si1 0.288635 0.098340 0.582460
Si Si2 0.713128 0.713074 0.634696
Si Si3 0.793782 0.391579 0.977594
Si Si4 0.219015 0.603383 0.159228
Si Si5 0.214694 0.601753 0.797902
Si Si6 0.211525 0.281672 0.313473
Si Si7 0.715391 0.602008 0.476062
Si Si8 0.784268 0.099460 0.387706
O O1 0.500000 0.094133 0.599314
O O2 0.215925 0.186054 0.627499
O O3 0.266343 0.112752 0.483848
O O4 0.213471 0.000000 0.602040
O O5 0.500000 0.718760 0.623258
O O6 0.744446 0.665117 0.721524
O O7 0.780763 0.653059 0.558209
O O8 0.794063 0.500000 0.976792
O O9 0.718481 0.367432 0.067513
O O10 0.000000 0.361609 0.978331
O O11 0.716498 0.366403 0.888056
O O12 0.270648 0.500000 0.173653
O O13 0.281398 0.666914 0.232950
O O14 0.000000 0.603495 0.157814
O O15 0.277793 0.500000 0.782068
O O16 0.000000 0.597137 0.805165
O O17 0.236144 0.343046 0.394312
O O18 0.282603 0.183155 0.334676
O O19 0.000000 0.271722 0.300128
O O20 0.500000 0.599274 0.479810
O O21 0.779425 0.500000 0.472659
O O22 0.000000 0.099880 0.384693
O O23 0.723817 0.000000 0.362937
#
# Coordination Sequence:
#
# PCOD9337106 Si02
#       8
#     4   4   4   4   4   4   4   4
#     4   9  17  30  47  62  76 101 140 178 205 238
#     4  10  19  30  43  60  83 110 138 168 206 249
#     4   7  11  22  39  58  80 104 132 170 209 238
#     4   8  13  22  38  60  83 105 133 170 206 238
#     4   9  17  28  43  63  84 108 141 175 203 238
#     4  10  18  27  42  63  83 107 142 175 200 237
#     4  10  20  31  40  54  83 118 142 161 196 244
#     4   9  17  28  41  59  84 109 133 170 216 246
#
# _framework density 17.638276999999999
#
# number of rings (size 3 to 8) (size 9 to 14) (size 15 to 20)
#    0.000    3.000    1.250    2.250    0.000    2.500 
#    0.000    0.000    0.000    0.750    0.000    2.625 
#    0.000    3.000    0.000    0.000    0.000    0.000 
#
# Total GULP energy -178316.761548 kJ/mol
# GULP energy per Si atom -5572.398798 kJ/mol
# Density = 1.759813 g / cm^3
# Si number density = 17.638277 Si / 1000 Ang^3
#
#
#
# Elastic Constant Matrix: (Units=GPa)
#
#
# Indices 1 2 3 4 5 6 
#
# 1 45.8493 4.1667 -4.5076 0.0000 0.0000 0.0000
# 2 4.1667 151.4776 93.4732 0.0000 0.0000 0.0000
# 3 -4.5076 93.4732 156.8443 0.0000 0.0000 0.0000
# 4 0.0000 0.0000 0.0000 7.1511 0.0000 0.0000
# 5 0.0000 0.0000 0.0000 0.0000 32.0024 0.0000
# 6 0.0000 0.0000 0.0000 0.0000 0.0000 6.5311
#
#
#
# Elastic Compliance Matrix: (Units=1/GPa)
#
#
# Indices 1 2 3 4 5 6 
#
# 1 0.022110 -0.001582 0.001578 0.000000 0.000000 0.000000
# 2 -0.001582 0.010555 -0.006336 0.000000 0.000000 0.000000
# 3 0.001578 -0.006336 0.010197 0.000000 0.000000 0.000000
# 4 0.000000 0.000000 0.000000 0.139839 0.000000 0.000000
# 5 0.000000 0.000000 0.000000 0.000000 0.031248 0.000000
# 6 0.000000 0.000000 0.000000 0.000000 0.000000 0.153112
#
#
# Mechanical properties :
#
#
# Convention : Reuss Voigt Hill
#
# Bulk Modulus (GPa) = 33.13210 60.04841 46.59026
# Shear Modulus (GPa) = 12.82708 26.53951 19.68329
#
# Velocity S-wave (km/s) = 2.69965 3.88320 3.34420
# Velocity P-wave (km/s) = 5.34251 7.36369 6.43297
#
# Compressibility (1/GPa) = 0.03018221
#
# Stress axis : x y z
#
# Youngs Moduli (GPa) = 45.22939 94.74388 98.06854
#
# Poissons Ratio (x) = 0.14989 -0.15478
# Poissons Ratio (y) = 0.07156 0.62133
# Poissons Ratio (z) = -0.07138 0.60027
#
# Static dielectric constant tensor:
#      x y z
#    x 1.673700 0.000000 0.000000 
#    y 0.000000 1.611710 0.000000 
#    z 0.000000 0.000000 1.601100 
# 
# From -- ./inp_files/5723.got.cif
#   From: 2010.05.17/outbox.cif.g08.bks.cpg/sg25_3_cif.got.tgz:5723.got - 2010.06.04 01:04:00.
