data_PCOD9337883
_publ_section_title
;
Structure prediction by ZEFSAII (Michael W. Deem and Ramdas Pophale) SiO2 
 PCOD9337883
Probable space group: P M C 21
;
_chemical_formula_sum "Si O2"
_cell_formula_units_Z 30
_cell_length_a 29.776347
_cell_length_b 9.275310
_cell_length_c 5.450039
_cell_angle_alpha 90.000000
_cell_angle_beta 90.000000
_cell_angle_gamma 90.000000
_cell_volume 1505.218199
_symmetry_space_group_name_H-M "P M C 21"
_symmetry_group_IT_number 26
_symmetry_cell_setting 'orthorhombic'
loop_
_space_group_symop_operation_xyz
x,y,z
-x,-y,1/2+z
-x,y,z
x,-y,1/2+z
loop_
_atom_site_type_symbol
_atom_site_label
_atom_site_fract_x
_atom_site_fract_y
_atom_site_fract_z
Si Si1 0.448383 0.822119 0.384030
Si Si2 0.585667 0.146787 0.383689
Si Si3 0.683983 0.179798 0.218720
Si Si4 0.000000 0.406685 0.750214
Si Si5 0.645157 0.500332 0.683763
Si Si6 0.904994 0.592014 0.347507
Si Si7 0.193702 0.405627 0.793909
Si Si8 0.283317 0.762150 0.218911
O O1 0.500000 0.792436 0.328696
O O2 0.434759 0.768172 0.653207
O O3 0.440574 0.995565 0.410302
O O4 0.417970 0.781277 0.150678
O O5 0.636531 0.115096 0.304313
O O6 0.673265 0.351166 0.188822
O O7 0.717308 0.169264 0.448506
O O8 0.699187 0.141003 0.944712
O O9 0.047635 0.328889 0.797980
O O10 0.000000 0.472187 0.472415
O O11 0.618452 0.499438 0.433869
O O12 0.681339 0.370924 0.690346
O O13 0.905636 0.528130 0.625633
O O14 0.856260 0.662594 0.309637
O O15 0.197277 0.493729 0.536880
O O16 0.235066 0.297421 0.793716
#
# Coordination Sequence:
#
# PCOD9337883 Si02
#       8
#     4   4   4   2   4   4   4   4
#     4  10  19  33  50  66  85  99 110 138 179 211
#     4  10  18  29  45  65  84 100 118 139 171 215
#     4  10  18  26  38  57  78  99 123 147 173 208
#     4   8  12  20  28  38  56  76 100 148 200 232
#     4   8  14  23  34  47  69  96 118 143 172 196
#     4   8  14  20  29  42  57  78 112 150 192 235
#     4  10  16  23  34  48  64  93 128 156 189 230
#     4  10  17  26  36  50  76 102 125 155 184 205
#
# _framework density 19.930664
#
# number of rings (size 3 to 8) (size 9 to 14) (size 15 to 20)
#    0.000    2.667    0.000    6.000    0.000    0.000 
#    0.000    0.000    0.000    0.000    0.000    0.000 
#    0.000  163.200    0.000    0.000    0.000    0.000 
#
# Total GULP energy -167011.551384 kJ/mol
# GULP energy per Si atom -5567.051713 kJ/mol
# Density = 1.988530 g / cm^3
# Si number density = 19.930664 Si / 1000 Ang^3
#
#
#
# Elastic Constant Matrix: (Units=GPa)
#
#
# Indices 1 2 3 4 5 6 
#
# 1 109.5536 -0.7829 3.0419 0.0000 0.0000 0.0000
# 2 -0.7829 41.6623 4.9589 0.0000 0.0000 0.0000
# 3 3.0419 4.9589 175.5488 0.0000 0.0000 0.0000
# 4 0.0000 0.0000 0.0000 -1.9636 0.0000 0.0000
# 5 0.0000 0.0000 0.0000 0.0000 29.3118 0.0000
# 6 0.0000 0.0000 0.0000 0.0000 0.0000 16.5538
#
#
#
# Elastic Compliance Matrix: (Units=1/GPa)
#
#
# Indices 1 2 3 4 5 6 
#
# 1 0.009134 0.000191 -0.000164 0.000000 0.000000 0.000000
# 2 0.000191 0.024088 -0.000684 0.000000 0.000000 0.000000
# 3 -0.000164 -0.000684 0.005719 0.000000 0.000000 0.000000
# 4 0.000000 0.000000 0.000000 -0.509275 0.000000 0.000000
# 5 0.000000 0.000000 0.000000 0.000000 0.034116 0.000000
# 6 0.000000 0.000000 0.000000 0.000000 0.000000 0.060409
#
#
# Mechanical properties :
#
#
# Convention : Reuss Voigt Hill
#
# Bulk Modulus (GPa) = 26.57640 37.91118 32.24379
# Shear Modulus (GPa) = -13.81388 30.08351 8.13482
#
# Velocity S-wave (km/s) = -2.63553 3.88933 2.02248
# Velocity P-wave (km/s) = 2.02535 6.26354 4.65478
#
# Compressibility (1/GPa) = 0.03762737
#
# Stress axis : x y z
#
# Youngs Moduli (GPa) = 109.48271 41.51528 174.86883
#
# Poissons Ratio (x) = -0.00793 0.02862
# Poissons Ratio (y) = -0.02092 0.11956
# Poissons Ratio (z) = 0.01792 0.02839
#
# Static dielectric constant tensor:
#      x y z
#    x 1.727270 0.000000 0.000000 
#    y 0.000000 1.769990 0.000000 
#    z 0.000000 0.000000 1.846780 
# 
# From -- ./inp_files/982.got.cif
#   From: 2010.05.17/outbox.cif.g08.bks.cpg/sg26_1_cif.got.tgz:982.got - 2010.06.04 01:07:29.
