data_PCOD9337027
_publ_section_title
;
Structure prediction by ZEFSAII (Michael W. Deem and Ramdas Pophale) SiO2 
 PCOD9337027
Probable space group: I 21 21 21
;
_chemical_formula_sum "Si O2"
_cell_formula_units_Z 48
_cell_length_a 9.670582
_cell_length_b 13.697766
_cell_length_c 18.139862
_cell_angle_alpha 90.000000
_cell_angle_beta 90.000000
_cell_angle_gamma 90.000000
_cell_volume 2402.903519
_symmetry_space_group_name_H-M "I 21 21 21"
_symmetry_group_IT_number 24
_symmetry_cell_setting 'orthorhombic'
loop_
_space_group_symop_operation_xyz
x,y,z
-x,1/2-y,z
x,-y,1/2-z
1/2-x,y,-z
1/2+x,1/2+y,1/2+z
1/2-x,-y,1/2+z
1/2+x,1/2-y,-z
-x,1/2+y,1/2-z
loop_
_atom_site_type_symbol
_atom_site_label
_atom_site_fract_x
_atom_site_fract_y
_atom_site_fract_z
Si Si1 0.904380 0.656669 0.232769
Si Si2 0.845396 0.789744 0.786399
Si Si3 0.853624 0.952699 0.169337
Si Si4 0.264564 0.360522 0.121140
Si Si5 0.318263 0.860154 0.607731
Si Si6 0.032427 0.865939 0.540427
O O1 0.759173 0.698490 0.205921
O O2 0.873185 0.609558 0.312302
O O3 0.000000 0.750000 0.252164
O O4 0.998385 0.600203 0.174133
O O5 0.772621 0.874699 0.835680
O O6 0.828998 0.830658 0.701764
O O7 0.000000 0.750000 0.799178
O O8 0.839102 0.000000 0.250000
O O9 0.838333 0.048713 0.121529
O O10 0.190327 0.259131 0.099642
O O11 0.386884 0.400940 0.070012
O O12 0.407624 0.894422 0.538643
O O13 0.158015 0.888765 0.596370
O O14 0.000000 0.750000 0.541388
#
# Coordination Sequence:
#
# PCOD9337027 Si02
#       6
#     8   8   8   8   8   8
#     4   9  16  27  43  62  88 127 169 205 248 305
#     4   9  16  29  47  63  86 127 174 210 254 312
#     4   9  18  29  43  63  91 130 168 213 258 291
#     4   9  16  28  43  63  95 132 172 211 252 300
#     4   9  16  26  43  65  94 134 172 199 236 307
#     4   9  16  25  41  67  94 132 169 197 240 301
#
# _framework density 19.975833000000002
#
# number of rings (size 3 to 8) (size 9 to 14) (size 15 to 20)
#    0.000    3.000    0.000    4.000    0.000    0.000 
#    0.000    4.167    0.000    0.000    0.000    0.000 
#    0.000    0.000    0.000  300.000    0.000   45.667 
#
# Total GULP energy -133630.351012 kJ/mol
# GULP energy per Si atom -5567.931292 kJ/mol
# Density = 1.993037 g / cm^3
# Si number density = 19.975833 Si / 1000 Ang^3
#
#
#
# Elastic Constant Matrix: (Units=GPa)
#
#
# Indices 1 2 3 4 5 6 
#
# 1 166.0693 40.6086 24.7902 0.0000 0.0000 0.0000
# 2 40.6086 43.9437 2.9797 0.0000 0.0000 0.0000
# 3 24.7902 2.9797 23.0866 0.0000 0.0000 0.0000
# 4 0.0000 0.0000 0.0000 13.0691 0.0000 0.0000
# 5 0.0000 0.0000 0.0000 0.0000 24.5302 0.0000
# 6 0.0000 0.0000 0.0000 0.0000 0.0000 27.3145
#
#
#
# Elastic Compliance Matrix: (Units=1/GPa)
#
#
# Indices 1 2 3 4 5 6 
#
# 1 0.009318 -0.008002 -0.008973 0.000000 0.000000 0.000000
# 2 -0.008002 0.029830 0.004743 0.000000 0.000000 0.000000
# 3 -0.008973 0.004743 0.052338 0.000000 0.000000 0.000000
# 4 0.000000 0.000000 0.000000 0.076517 0.000000 0.000000
# 5 0.000000 0.000000 0.000000 0.000000 0.040766 0.000000
# 6 0.000000 0.000000 0.000000 0.000000 0.000000 0.036611
#
#
# Mechanical properties :
#
#
# Convention : Reuss Voigt Hill
#
# Bulk Modulus (GPa) = 14.92065 41.09517 28.00791
# Shear Modulus (GPa) = 17.11257 23.96415 20.53836
#
# Velocity S-wave (km/s) = 2.93006 3.46736 3.20997
# Velocity P-wave (km/s) = 4.35115 6.05370 5.27161
#
# Compressibility (1/GPa) = 0.06702119
#
# Stress axis : x y z
#
# Youngs Moduli (GPa) = 107.32242 33.52370 19.10665
#
# Poissons Ratio (x) = 0.26826 0.17143
# Poissons Ratio (y) = 0.85881 -0.09062
# Poissons Ratio (z) = 0.96295 -0.15899
#
# Static dielectric constant tensor:
#      x y z
#    x 1.796750 0.000000 0.000000 
#    y 0.000000 1.777280 0.000000 
#    z 0.000000 0.000000 1.789030 
# 
# From -- ./inp_files/32718.got.cif
#   From: 2010.05.17/outbox.cif.g08.bks.cpg/sg24_17_cif.got.tgz:32718.got - 2010.06.04 00:33:39.
