data_PCOD9337616
_publ_section_title
;
Structure prediction by ZEFSAII (Michael W. Deem and Ramdas Pophale) SiO2 
 PCOD9337616
Probable space group: P M M 2
;
_chemical_formula_sum "Si O2"
_cell_formula_units_Z 32
_cell_length_a 8.178357
_cell_length_b 15.358379
_cell_length_c 12.542317
_cell_angle_alpha 90.000000
_cell_angle_beta 90.000000
_cell_angle_gamma 90.000000
_cell_volume 1575.394112
_symmetry_space_group_name_H-M "P M M 2"
_symmetry_group_IT_number 25
_symmetry_cell_setting 'orthorhombic'
loop_
_space_group_symop_operation_xyz
x,y,z
-x,-y,z
-x,y,z
x,-y,z
loop_
_atom_site_type_symbol
_atom_site_label
_atom_site_fract_x
_atom_site_fract_y
_atom_site_fract_z
Si Si1 0.303164 0.279371 0.764460
Si Si2 0.696029 0.405703 0.947121
Si Si3 0.300621 0.905066 0.837488
Si Si4 0.310157 0.714725 0.377725
Si Si5 0.698453 0.094510 0.313235
Si Si6 0.186648 0.331074 0.153919
Si Si7 0.806902 0.400136 0.570840
Si Si8 0.302680 0.851441 0.076097
O O1 0.500000 0.276028 0.771173
O O2 0.242618 0.330891 0.868832
O O3 0.244303 0.179576 0.771885
O O4 0.261412 0.337659 0.663120
O O5 0.500000 0.396448 0.956668
O O6 0.731540 0.500000 0.898271
O O7 0.767128 0.400390 0.065075
O O8 0.500000 0.905706 0.833256
O O9 0.243189 0.000000 0.800686
O O10 0.258403 0.892886 0.962908
O O11 0.500000 0.720908 0.408445
O O12 0.244110 0.814644 0.366423
O O13 0.294607 0.674529 0.259580
O O14 0.225853 0.650906 0.460943
O O15 0.500000 0.096290 0.321641
O O16 0.734796 0.099044 0.186353
O O17 0.755028 0.000000 0.354642
O O18 0.216950 0.240634 0.092119
O O19 0.000000 0.339499 0.187908
O O20 0.740973 0.500000 0.571227
O O21 0.000000 0.406035 0.586932
O O22 0.500000 0.838232 0.074079
#
# Coordination Sequence:
#
# PCOD9337616 Si02
#       8
#     4   4   4   4   4   4   4   4
#     4  10  20  37  61  87 115 146 189 240 286 334
#     4  10  20  35  56  82 111 146 189 235 284 340
#     4   9  16  28  53  87 118 150 192 239 280 323
#     4  10  21  38  62  87 112 145 189 238 286 335
#     4   8  14  26  50  85 117 145 182 227 273 322
#     4  11  21  33  52  80 119 157 187 226 282 341
#     4  11  25  44  64  84 108 143 189 240 295 352
#     4   9  15  28  50  77 113 155 197 234 269 317
#
# _framework density 20.312376
#
# number of rings (size 3 to 8) (size 9 to 14) (size 15 to 20)
#    0.000    2.250    1.250    3.375    0.000    4.250 
#    0.000    0.625    0.000   17.625    0.000    0.000 
#    0.000    0.000    0.000    0.000    0.000    0.000 
#
# Total GULP energy -178428.770736 kJ/mol
# GULP energy per Si atom -5575.899086 kJ/mol
# Density = 2.026614 g / cm^3
# Si number density = 20.312376 Si / 1000 Ang^3
#
#
#
# Elastic Constant Matrix: (Units=GPa)
#
#
# Indices 1 2 3 4 5 6 
#
# 1 10.0764 17.9467 -4.4938 0.0000 0.0000 0.0000
# 2 17.9467 174.8245 63.2199 0.0000 0.0000 0.0000
# 3 -4.4938 63.2199 76.3973 0.0000 0.0000 0.0000
# 4 0.0000 0.0000 0.0000 17.0619 0.0000 0.0000
# 5 0.0000 0.0000 0.0000 0.0000 -375.2403 0.0000
# 6 0.0000 0.0000 0.0000 0.0000 0.0000 -7.2532
#
#
#
# Elastic Compliance Matrix: (Units=1/GPa)
#
#
# Indices 1 2 3 4 5 6 
#
# 1 0.167209 -0.029570 0.034305 0.000000 0.000000 0.000000
# 2 -0.029570 0.013392 -0.012822 0.000000 0.000000 0.000000
# 3 0.034305 -0.012822 0.025717 0.000000 0.000000 0.000000
# 4 0.000000 0.000000 0.000000 0.058610 0.000000 0.000000
# 5 0.000000 0.000000 0.000000 0.000000 -0.002665 0.000000
# 6 0.000000 0.000000 0.000000 0.000000 0.000000 -0.137869
#
#
# Mechanical properties :
#
#
# Convention : Reuss Voigt Hill
#
# Bulk Modulus (GPa) = 5.25914 46.07153 25.66533
# Shear Modulus (GPa) = 24.51596 -60.77798 -18.13101
#
# Velocity S-wave (km/s) = 3.47788 -5.47600 -2.99090
# Velocity P-wave (km/s) = 4.32693 4.15348 0.85759
#
# Compressibility (1/GPa) = 0.19014520
#
# Stress axis : x y z
#
# Youngs Moduli (GPa) = 5.98055 74.67083 38.88417
#
# Poissons Ratio (x) = 2.20805 -1.33394
# Poissons Ratio (y) = 0.17685 0.49856
# Poissons Ratio (z) = -0.20517 0.95740
#
# Static dielectric constant tensor:
#      x y z
#    x 1.720490 0.000000 0.000000 
#    y 0.000000 1.790330 0.000000 
#    z 0.000000 0.000000 1.706560 
# 
# From -- ./inp_files/4279.got.cif
#   From: 2010.05.17/outbox.cif.g08.bks.cpg/sg25_3_cif.got.tgz:4279.got - 2010.06.04 01:04:00.
