data_PCOD9337713
_publ_section_title
;
Structure prediction by ZEFSAII (Michael W. Deem and Ramdas Pophale) SiO2 
 PCOD9337713
Probable space group: P M M 2
;
_chemical_formula_sum "Si O2"
_cell_formula_units_Z 32
_cell_length_a 9.593870
_cell_length_b 9.024430
_cell_length_c 21.413156
_cell_angle_alpha 90.000000
_cell_angle_beta 90.000000
_cell_angle_gamma 90.000000
_cell_volume 1853.934092
_symmetry_space_group_name_H-M "P M M 2"
_symmetry_group_IT_number 25
_symmetry_cell_setting 'orthorhombic'
loop_
_space_group_symop_operation_xyz
x,y,z
-x,-y,z
-x,y,z
x,-y,z
loop_
_atom_site_type_symbol
_atom_site_label
_atom_site_fract_x
_atom_site_fract_y
_atom_site_fract_z
Si Si1 0.660387 0.319166 0.451670
Si Si2 0.335381 0.177317 0.956636
Si Si3 0.830392 0.671246 0.708387
Si Si4 0.838518 0.681036 0.570834
Si Si5 0.162430 0.821963 0.835843
Si Si6 0.163645 0.322118 0.330810
Si Si7 0.334526 0.676174 0.087319
Si Si8 0.834750 0.823946 0.199074
O O1 0.500000 0.271218 0.451117
O O2 0.661457 0.500000 0.452341
O O3 0.742267 0.270736 0.513762
O O4 0.743184 0.274558 0.389404
O O5 0.500000 0.204803 0.947257
O O6 0.250345 0.226748 0.895819
O O7 0.316234 0.000000 0.964071
O O8 0.291454 0.256969 0.020401
O O9 0.787573 0.500000 0.714227
O O10 0.788544 0.728825 0.639819
O O11 0.785787 0.758535 0.769824
O O12 0.000000 0.674325 0.707004
O O13 0.838341 0.500000 0.572261
O O14 0.000000 0.725477 0.561340
O O15 0.000000 0.778967 0.843449
O O16 0.168614 0.000000 0.833040
O O17 0.177174 0.500000 0.323464
O O18 0.204080 0.244439 0.266202
O O19 0.000000 0.290913 0.343229
O O20 0.500000 0.706341 0.094559
O O21 0.314130 0.500000 0.087717
O O22 0.250894 0.750175 0.143478
O O23 0.000000 0.795260 0.190330
O O24 0.813042 0.000000 0.199410
#
# Coordination Sequence:
#
# PCOD9337713 Si02
#       8
#     4   4   4   4   4   4   4   4
#     4   9  16  25  40  65  94 120 150 192 236 275
#     4   9  18  33  50  67  92 127 161 191 230 283
#     4   8  14  25  42  64  89 117 150 188 230 277
#     4   8  13  23  40  60  83 115 153 188 226 277
#     4   9  17  29  46  68  92 118 152 194 234 273
#     4   9  17  30  48  69  94 124 156 191 234 283
#     4  10  21  36  54  76 101 129 162 200 241 287
#     4  10  21  36  54  76 101 129 162 200 241 287
#
# _framework density 17.260591999999999
#
# number of rings (size 3 to 8) (size 9 to 14) (size 15 to 20)
#    0.000    3.000    0.000    1.875    0.000    4.500 
#    0.000    3.125    0.000    1.500    0.000    3.500 
#    0.000    0.000    0.000    0.000    0.000    0.000 
#
# Total GULP energy -178328.406479 kJ/mol
# GULP energy per Si atom -5572.762702 kJ/mol
# Density = 1.722131 g / cm^3
# Si number density = 17.260592 Si / 1000 Ang^3
#
#
#
# Elastic Constant Matrix: (Units=GPa)
#
#
# Indices 1 2 3 4 5 6 
#
# 1 67.7853 31.5799 97.0669 0.0000 0.0000 0.0000
# 2 31.5799 18.5234 54.3489 0.0000 0.0000 0.0000
# 3 97.0669 54.3489 224.7612 0.0000 0.0000 0.0000
# 4 0.0000 0.0000 0.0000 -110.0755 0.0000 0.0000
# 5 0.0000 0.0000 0.0000 0.0000 -16.5410 0.0000
# 6 0.0000 0.0000 0.0000 0.0000 0.0000 13.9821
#
#
#
# Elastic Compliance Matrix: (Units=1/GPa)
#
#
# Indices 1 2 3 4 5 6 
#
# 1 0.073270 -0.110398 -0.004948 0.000000 0.000000 0.000000
# 2 -0.110398 0.352163 -0.037478 0.000000 0.000000 0.000000
# 3 -0.004948 -0.037478 0.015649 0.000000 0.000000 0.000000
# 4 0.000000 0.000000 0.000000 -0.009085 0.000000 0.000000
# 5 0.000000 0.000000 0.000000 0.000000 -0.060456 0.000000
# 6 0.000000 0.000000 0.000000 0.000000 0.000000 0.071520
#
#
# Mechanical properties :
#
#
# Convention : Reuss Voigt Hill
#
# Bulk Modulus (GPa) = 7.38372 75.22905 41.30638
# Shear Modulus (GPa) = 6.29839 -13.98859 -3.84510
#
# Velocity S-wave (km/s) = 1.91231 -2.84990 -1.49416
# Velocity P-wave (km/s) = 3.02704 5.73146 4.58326
#
# Compressibility (1/GPa) = 0.13543308
#
# Stress axis : x y z
#
# Youngs Moduli (GPa) = 13.64815 2.83959 63.90385
#
# Poissons Ratio (x) = 0.31349 0.31619
# Poissons Ratio (y) = 1.50673 2.39501
# Poissons Ratio (z) = 0.06753 0.10642
#
# Static dielectric constant tensor:
#      x y z
#    x 1.576580 0.000000 0.000000 
#    y 0.000000 1.577230 0.000000 
#    z 0.000000 0.000000 1.577220 
# 
# From -- ./inp_files/6500.got.cif
#   From: 2010.05.17/outbox.cif.g08.bks.cpg/sg25_4_cif.got.tgz:6500.got - 2010.06.04 01:04:00.
