data_PCOD9337169
_publ_section_title
;
Structure prediction by ZEFSAII (Michael W. Deem and Ramdas Pophale) SiO2 
 PCOD9337169
Probable space group: P M M 2
;
_chemical_formula_sum "Si O2"
_cell_formula_units_Z 28
_cell_length_a 14.654418
_cell_length_b 8.826561
_cell_length_c 13.207165
_cell_angle_alpha 90.000000
_cell_angle_beta 90.000000
_cell_angle_gamma 90.000000
_cell_volume 1708.321889
_symmetry_space_group_name_H-M "P M M 2"
_symmetry_group_IT_number 25
_symmetry_cell_setting 'orthorhombic'
loop_
_space_group_symop_operation_xyz
x,y,z
-x,-y,z
-x,y,z
x,-y,z
loop_
_atom_site_type_symbol
_atom_site_label
_atom_site_fract_x
_atom_site_fract_y
_atom_site_fract_z
Si Si1 0.279972 0.317052 0.722780
Si Si2 0.284236 0.180051 0.114549
Si Si3 0.895912 0.180597 0.812962
Si Si4 0.391934 0.318434 0.300404
Si Si5 0.604500 0.315505 0.530333
Si Si6 0.895759 0.318878 0.036895
Si Si7 0.606861 0.317445 0.924801
O O1 0.272184 0.500000 0.721143
O O2 0.181279 0.245444 0.740157
O O3 0.328886 0.266268 0.619637
O O4 0.342959 0.277705 0.819763
O O5 0.333214 0.235787 0.216202
O O6 0.182497 0.246502 0.104868
O O7 0.281460 0.000000 0.109905
O O8 0.341570 0.242764 0.018876
O O9 0.000000 0.213585 0.780476
O O10 0.886260 0.000000 0.823511
O O11 0.882831 0.256362 0.923038
O O12 0.500000 0.290133 0.284690
O O13 0.378560 0.500000 0.291672
O O14 0.369834 0.271679 0.415897
O O15 0.500000 0.267114 0.549845
O O16 0.603565 0.500000 0.531443
O O17 0.885540 0.500000 0.035205
O O18 0.000000 0.282316 0.067309
O O19 0.500000 0.276186 0.922392
O O20 0.612472 0.500000 0.936157
#
# Coordination Sequence:
#
# PCOD9337169 Si02
#       7
#     4   4   4   4   4   4   4
#     4  10  18  30  52  78 103 132 168 211 255 301
#     4  12  23  33  49  74 106 138 168 207 255 307
#     4  10  20  33  49  72 104 138 169 204 250 304
#     4   9  18  34  55  75  99 135 178 219 256 297
#     4   8  15  30  53  79 102 129 171 218 257 294
#     4  10  20  35  55  76  98 128 169 213 255 304
#     4  10  20  32  47  71 104 139 170 202 247 302
#
# _framework density 16.390353999999999
#
# number of rings (size 3 to 8) (size 9 to 14) (size 15 to 20)
#    0.000    2.143    1.429    3.857    0.000    5.714 
#    0.000    0.714    0.000    3.000    0.000    2.000 
#    0.000    0.000    0.000    0.000    0.000    0.000 
#
# Total GULP energy -156257.657351 kJ/mol
# GULP energy per Si atom -5580.630620 kJ/mol
# Density = 1.635305 g / cm^3
# Si number density = 16.390354 Si / 1000 Ang^3
#
#
#
# Elastic Constant Matrix: (Units=GPa)
#
#
# Indices 1 2 3 4 5 6 
#
# 1 135.3477 54.1876 90.6410 0.0000 0.0000 0.0000
# 2 54.1876 40.4010 46.0827 0.0000 0.0000 0.0000
# 3 90.6410 46.0827 127.5419 0.0000 0.0000 0.0000
# 4 0.0000 0.0000 0.0000 -9.2166 0.0000 0.0000
# 5 0.0000 0.0000 0.0000 0.0000 21.8991 0.0000
# 6 0.0000 0.0000 0.0000 0.0000 0.0000 11.1354
#
#
#
# Elastic Compliance Matrix: (Units=1/GPa)
#
#
# Indices 1 2 3 4 5 6 
#
# 1 0.019387 -0.017499 -0.007455 0.000000 0.000000 0.000000
# 2 -0.017499 0.057899 -0.008484 0.000000 0.000000 0.000000
# 3 -0.007455 -0.008484 0.016204 0.000000 0.000000 0.000000
# 4 0.000000 0.000000 0.000000 -0.108500 0.000000 0.000000
# 5 0.000000 0.000000 0.000000 0.000000 0.045664 0.000000
# 6 0.000000 0.000000 0.000000 0.000000 0.000000 0.089804
#
#
# Mechanical properties :
#
#
# Convention : Reuss Voigt Hill
#
# Bulk Modulus (GPa) = 37.57373 76.12368 56.84871
# Shear Modulus (GPa) = 25.48358 12.25553 18.86956
#
# Velocity S-wave (km/s) = 3.94736 2.73743 3.39670
# Velocity P-wave (km/s) = 6.61435 7.51907 7.08117
#
# Compressibility (1/GPa) = 0.02661434
#
# Stress axis : x y z
#
# Youngs Moduli (GPa) = 51.58129 17.27151 61.71306
#
# Poissons Ratio (x) = 0.30223 0.46008
# Poissons Ratio (y) = 0.90262 0.52355
# Poissons Ratio (z) = 0.38455 0.14652
#
# Static dielectric constant tensor:
#      x y z
#    x 1.549870 0.000000 0.000000 
#    y 0.000000 1.543520 0.000000 
#    z 0.000000 0.000000 1.530110 
# 
# From -- ./inp_files/4805.got.cif
#   From: 2010.05.17/outbox.cif.g08.bks.cpg/sg25_3_cif.got.tgz:4805.got - 2010.06.04 01:04:00.
