data_PCOD9337712
_publ_section_title
;
Structure prediction by ZEFSAII (Michael W. Deem and Ramdas Pophale) SiO2 
 PCOD9337712
Probable space group: P M M 2
;
_chemical_formula_sum "Si O2"
_cell_formula_units_Z 32
_cell_length_a 7.544837
_cell_length_b 14.627017
_cell_length_c 13.395783
_cell_angle_alpha 90.000000
_cell_angle_beta 90.000000
_cell_angle_gamma 90.000000
_cell_volume 1478.337970
_symmetry_space_group_name_H-M "P M M 2"
_symmetry_group_IT_number 25
_symmetry_cell_setting 'orthorhombic'
loop_
_space_group_symop_operation_xyz
x,y,z
-x,-y,z
-x,y,z
x,-y,z
loop_
_atom_site_type_symbol
_atom_site_label
_atom_site_fract_x
_atom_site_fract_y
_atom_site_fract_z
Si Si1 0.282981 0.604305 0.657420
Si Si2 0.212206 0.895548 0.345172
Si Si3 0.702536 0.611127 0.438185
Si Si4 0.287795 0.104495 0.563997
Si Si5 0.794488 0.602048 0.215842
Si Si6 0.711891 0.103980 0.947696
Si Si7 0.283074 0.783391 0.756962
Si Si8 0.785934 0.789760 0.150717
O O1 0.500000 0.603039 0.652485
O O2 0.225913 0.500000 0.675212
O O3 0.223705 0.636869 0.546658
O O4 0.229702 0.678482 0.739168
O O5 0.249921 0.855475 0.454523
O O6 0.280323 0.840402 0.250378
O O7 0.000000 0.899871 0.335903
O O8 0.280773 0.000000 0.343851
O O9 0.500000 0.643708 0.431654
O O10 0.700654 0.500000 0.442987
O O11 0.790362 0.632272 0.332561
O O12 0.500000 0.100265 0.572748
O O13 0.224683 0.160873 0.658901
O O14 0.219091 0.000000 0.565980
O O15 0.714567 0.500000 0.208293
O O16 0.717372 0.685553 0.152740
O O17 0.000000 0.593533 0.188014
O O18 0.500000 0.097812 0.934739
O O19 0.779232 0.165984 0.856413
O O20 0.781432 0.000000 0.946307
O O21 0.744174 0.153052 0.052652
O O22 0.500000 0.783979 0.758334
O O23 0.000000 0.785201 0.157761
#
# Coordination Sequence:
#
# PCOD9337712 Si02
#       8
#     4   4   4   4   4   4   4   4
#     4   8  14  25  43  70 102 133 166 201 241 295
#     4   9  18  32  48  68  97 129 159 198 249 301
#     4   8  14  25  43  69 100 133 168 205 242 285
#     4   9  17  29  47  72  99 126 157 194 241 300
#     4   9  18  32  49  71 101 136 172 208 250 301
#     4  10  21  37  56  77 100 128 169 221 266 304
#     4   9  17  30  49  71  98 132 165 200 251 303
#     4  10  21  36  54  74  99 135 175 210 255 310
#
# _framework density 21.645928000000001
#
# number of rings (size 3 to 8) (size 9 to 14) (size 15 to 20)
#    0.000    3.000    0.000    1.500    1.750    3.250 
#    0.000    2.500    0.000    3.000    0.000    0.000 
#    0.000    0.000    0.000    0.000    0.000    0.000 
#
# Total GULP energy -178548.769816 kJ/mol
# GULP energy per Si atom -5579.649057 kJ/mol
# Density = 2.159666 g / cm^3
# Si number density = 21.645928 Si / 1000 Ang^3
#
#
#
# Elastic Constant Matrix: (Units=GPa)
#
#
# Indices 1 2 3 4 5 6 
#
# 1 50.6039 3.2940 -5.7570 0.0000 0.0000 0.0000
# 2 3.2940 152.5877 94.4168 0.0000 0.0000 0.0000
# 3 -5.7570 94.4168 140.2890 0.0000 0.0000 0.0000
# 4 0.0000 0.0000 0.0000 38.8880 0.0000 0.0000
# 5 0.0000 0.0000 0.0000 0.0000 31.1869 0.0000
# 6 0.0000 0.0000 0.0000 0.0000 0.0000 4.1656
#
#
#
# Elastic Compliance Matrix: (Units=1/GPa)
#
#
# Indices 1 2 3 4 5 6 
#
# 1 0.020084 -0.001617 0.001912 0.000000 0.000000 0.000000
# 2 -0.001617 0.011361 -0.007712 0.000000 0.000000 0.000000
# 3 0.001912 -0.007712 0.012397 0.000000 0.000000 0.000000
# 4 0.000000 0.000000 0.000000 0.025715 0.000000 0.000000
# 5 0.000000 0.000000 0.000000 0.000000 0.032065 0.000000
# 6 0.000000 0.000000 0.000000 0.000000 0.000000 0.240059
#
#
# Mechanical properties :
#
#
# Convention : Reuss Voigt Hill
#
# Bulk Modulus (GPa) = 34.47283 58.59867 46.53575
# Shear Modulus (GPa) = 13.65435 31.61657 22.63546
#
# Velocity S-wave (km/s) = 2.51431 3.82596 3.23726
# Velocity P-wave (km/s) = 4.93856 6.82990 5.95973
#
# Compressibility (1/GPa) = 0.02900835
#
# Stress axis : x y z
#
# Youngs Moduli (GPa) = 49.79054 88.02343 80.66418
#
# Poissons Ratio (x) = 0.14232 -0.15426
# Poissons Ratio (y) = 0.08051 0.62210
# Poissons Ratio (z) = -0.09522 0.67886
#
# Static dielectric constant tensor:
#      x y z
#    x 1.750920 0.000000 0.000000 
#    y 0.000000 1.832850 0.000000 
#    z 0.000000 0.000000 1.750490 
# 
# From -- ./inp_files/4292.got.cif
#   From: 2010.05.17/outbox.cif.g08.bks.cpg/sg25_3_cif.got.tgz:4292.got - 2010.06.04 01:04:00.
