data_PCOD9337470
_publ_section_title
;
Structure prediction by ZEFSAII (Michael W. Deem and Ramdas Pophale) SiO2 
 PCOD9337470
Probable space group: P M M 2
;
_chemical_formula_sum "Si O2"
_cell_formula_units_Z 32
_cell_length_a 9.558941
_cell_length_b 7.465012
_cell_length_c 21.835180
_cell_angle_alpha 90.000000
_cell_angle_beta 90.000000
_cell_angle_gamma 90.000000
_cell_volume 1558.106243
_symmetry_space_group_name_H-M "P M M 2"
_symmetry_group_IT_number 25
_symmetry_cell_setting 'orthorhombic'
loop_
_space_group_symop_operation_xyz
x,y,z
-x,-y,z
-x,y,z
x,-y,z
loop_
_atom_site_type_symbol
_atom_site_label
_atom_site_fract_x
_atom_site_fract_y
_atom_site_fract_z
Si Si1 0.162624 0.719598 0.977190
Si Si2 0.343316 0.289611 0.090722
Si Si3 0.339714 0.715789 0.325703
Si Si4 0.837266 0.718968 0.578491
Si Si5 0.661897 0.718196 0.462371
Si Si6 0.157570 0.210213 0.207381
Si Si7 0.831835 0.714866 0.843297
Si Si8 0.167270 0.716358 0.711624
O O1 0.162314 0.500000 0.976775
O O2 0.216039 0.778993 0.909986
O O3 0.000000 0.772341 0.984786
O O4 0.255791 0.784432 0.033477
O O5 0.500000 0.214970 0.097506
O O6 0.357555 0.500000 0.077590
O O7 0.255251 0.278543 0.152928
O O8 0.500000 0.777342 0.314015
O O9 0.345038 0.500000 0.327109
O O10 0.295751 0.776050 0.393874
O O11 0.234433 0.764914 0.272088
O O12 0.833386 0.500000 0.578804
O O13 0.753259 0.781123 0.519287
O O14 0.780266 0.778197 0.645183
O O15 0.000000 0.769732 0.573712
O O16 0.500000 0.767778 0.470551
O O17 0.668136 0.500000 0.462596
O O18 0.000000 0.286385 0.206940
O O19 0.146233 0.000000 0.196562
O O20 0.810214 0.500000 0.842750
O O21 0.778186 0.783558 0.777460
O O22 0.000000 0.742958 0.843387
O O23 0.182814 0.500000 0.712448
O O24 0.000000 0.751125 0.710871
#
# Coordination Sequence:
#
# PCOD9337470 Si02
#       8
#     4   4   4   4   4   4   4   4
#     4   8  13  22  38  59  81 107 142 183 222 257
#     4  10  20  33  50  71  93 119 151 184 219 263
#     4   9  18  33  52  72  92 117 151 186 220 263
#     4   8  12  17  27  45  69  99 137 177 212 247
#     4   8  14  24  37  54  78 106 136 173 213 251
#     4  11  24  38  51  70  94 117 143 179 223 268
#     4   7   9  14  26  45  69  99 136 175 213 251
#     4   7   9  13  22  39  65  97 134 174 210 245
#
# _framework density 20.537752999999999
#
# number of rings (size 3 to 8) (size 9 to 14) (size 15 to 20)
#    0.000    3.500    0.000    4.125    0.000    4.000 
#    0.000    1.250    0.000    0.750    0.000    5.250 
#    0.000    0.000    0.000    1.125    0.000   22.500 
#
# Total GULP energy -178242.863333 kJ/mol
# GULP energy per Si atom -5570.089479 kJ/mol
# Density = 2.049101 g / cm^3
# Si number density = 20.537753 Si / 1000 Ang^3
#
#
#
# Elastic Constant Matrix: (Units=GPa)
#
#
# Indices 1 2 3 4 5 6 
#
# 1 94.6137 2.7085 104.0081 0.0000 0.0000 0.0000
# 2 2.7085 54.9812 -1.8862 0.0000 0.0000 0.0000
# 3 104.0081 -1.8862 231.5794 0.0000 0.0000 0.0000
# 4 0.0000 0.0000 0.0000 -44.4360 0.0000 0.0000
# 5 0.0000 0.0000 0.0000 0.0000 195.6325 0.0000
# 6 0.0000 0.0000 0.0000 0.0000 0.0000 -64.4907
#
#
#
# Elastic Compliance Matrix: (Units=1/GPa)
#
#
# Indices 1 2 3 4 5 6 
#
# 1 0.020977 -0.001357 -0.009432 0.000000 0.000000 0.000000
# 2 -0.001357 0.018281 0.000758 0.000000 0.000000 0.000000
# 3 -0.009432 0.000758 0.008561 0.000000 0.000000 0.000000
# 4 0.000000 0.000000 0.000000 -0.022504 0.000000 0.000000
# 5 0.000000 0.000000 0.000000 0.000000 0.005112 0.000000
# 6 0.000000 0.000000 0.000000 0.000000 0.000000 -0.015506
#
#
# Mechanical properties :
#
#
# Convention : Reuss Voigt Hill
#
# Bulk Modulus (GPa) = 36.02742 65.64834 50.83788
# Shear Modulus (GPa) = 113.03509 35.76409 74.39959
#
# Velocity S-wave (km/s) = 7.42679 4.17752 6.02531
# Velocity P-wave (km/s) = 9.54584 7.43660 8.55646
#
# Compressibility (1/GPa) = 0.02775663
#
# Stress axis : x y z
#
# Youngs Moduli (GPa) = 47.67110 54.70194 116.81338
#
# Poissons Ratio (x) = 0.07423 1.10183
# Poissons Ratio (y) = 0.06469 -0.08858
# Poissons Ratio (z) = 0.44965 -0.04148
#
# Static dielectric constant tensor:
#      x y z
#    x 1.700240 0.000000 0.000000 
#    y 0.000000 1.781180 0.000000 
#    z 0.000000 0.000000 1.767000 
# 
# From -- ./inp_files/6581.got.cif
#   From: 2010.05.17/outbox.cif.g08.bks.cpg/sg25_4_cif.got.tgz:6581.got - 2010.06.04 01:04:00.
