data_PCOD9337726
_publ_section_title
;
Structure prediction by ZEFSAII (Michael W. Deem and Ramdas Pophale) SiO2 
 PCOD9337726
Probable space group: P M M 2
;
_chemical_formula_sum "Si O2"
_cell_formula_units_Z 32
_cell_length_a 8.134465
_cell_length_b 14.593277
_cell_length_c 13.309853
_cell_angle_alpha 90.000000
_cell_angle_beta 90.000000
_cell_angle_gamma 90.000000
_cell_volume 1579.992698
_symmetry_space_group_name_H-M "P M M 2"
_symmetry_group_IT_number 25
_symmetry_cell_setting 'orthorhombic'
loop_
_space_group_symop_operation_xyz
x,y,z
-x,-y,z
-x,y,z
x,-y,z
loop_
_atom_site_type_symbol
_atom_site_label
_atom_site_fract_x
_atom_site_fract_y
_atom_site_fract_z
Si Si1 0.301684 0.212022 0.422900
Si Si2 0.201612 0.395141 0.940788
Si Si3 0.694852 0.397478 0.501509
Si Si4 0.696037 0.892419 0.841357
Si Si5 0.803194 0.106322 0.622086
Si Si6 0.303545 0.103578 0.229013
Si Si7 0.813098 0.611202 0.719925
Si Si8 0.806534 0.785444 0.036969
O O1 0.500000 0.216565 0.415220
O O2 0.237806 0.316107 0.432834
O O3 0.260479 0.160342 0.525980
O O4 0.237916 0.156919 0.326643
O O5 0.252696 0.500000 0.960179
O O6 0.257068 0.364250 0.828927
O O7 0.000000 0.395201 0.936531
O O8 0.254555 0.318549 0.019683
O O9 0.500000 0.403741 0.484385
O O10 0.765581 0.500000 0.488530
O O11 0.720061 0.367877 0.617601
O O12 0.500000 0.887676 0.853158
O O13 0.743269 0.857847 0.730267
O O14 0.745705 0.000000 0.846222
O O15 0.777398 0.838131 0.932281
O O16 0.000000 0.108396 0.621913
O O17 0.748111 0.000000 0.614462
O O18 0.500000 0.096763 0.241612
O O19 0.272771 0.159889 0.127996
O O20 0.237403 0.000000 0.221857
O O21 0.820972 0.500000 0.724452
O O22 0.000000 0.646350 0.710855
O O23 0.000000 0.781393 0.056829
#
# Coordination Sequence:
#
# PCOD9337726 Si02
#       8
#     4   4   4   4   4   4   4   4
#     4  10  21  37  58  81 107 145 190 229 274 333
#     4   8  16  32  52  76 109 147 183 219 268 328
#     4   9  18  32  50  77 112 144 178 224 274 320
#     4  10  21  37  56  79 112 151 184 218 271 340
#     4  10  21  36  55  82 114 143 176 226 284 335
#     4  10  22  41  61  79 105 145 190 233 280 340
#     4   8  14  27  48  72 101 141 182 215 254 314
#     4  11  22  35  57  86 112 141 184 236 284 325
#
# _framework density 20.253257999999999
#
# number of rings (size 3 to 8) (size 9 to 14) (size 15 to 20)
#    0.000    2.500    0.000    2.625    1.750    4.750 
#    0.000    1.250    0.000    3.000    0.000    0.000 
#    0.000    0.000    0.000    0.000    0.000    0.000 
#
# Total GULP energy -178600.827963 kJ/mol
# GULP energy per Si atom -5581.275874 kJ/mol
# Density = 2.020716 g / cm^3
# Si number density = 20.253258 Si / 1000 Ang^3
#
#
#
# Elastic Constant Matrix: (Units=GPa)
#
#
# Indices 1 2 3 4 5 6 
#
# 1 9.0402 6.1901 -3.4314 0.0000 0.0000 0.0000
# 2 6.1901 142.2297 82.0259 0.0000 0.0000 0.0000
# 3 -3.4314 82.0259 116.9063 0.0000 0.0000 0.0000
# 4 0.0000 0.0000 0.0000 32.0465 0.0000 0.0000
# 5 0.0000 0.0000 0.0000 0.0000 42.9691 0.0000
# 6 0.0000 0.0000 0.0000 0.0000 0.0000 14.5079
#
#
#
# Elastic Compliance Matrix: (Units=1/GPa)
#
#
# Indices 1 2 3 4 5 6 
#
# 1 0.123970 -0.012587 0.012470 0.000000 0.000000 0.000000
# 2 -0.012587 0.013088 -0.009552 0.000000 0.000000 0.000000
# 3 0.012470 -0.009552 0.015622 0.000000 0.000000 0.000000
# 4 0.000000 0.000000 0.000000 0.031205 0.000000 0.000000
# 5 0.000000 0.000000 0.000000 0.000000 0.023273 0.000000
# 6 0.000000 0.000000 0.000000 0.000000 0.000000 0.068928
#
#
# Mechanical properties :
#
#
# Convention : Reuss Voigt Hill
#
# Bulk Modulus (GPa) = 7.49955 48.63836 28.06896
# Shear Modulus (GPa) = 14.71151 30.13079 22.42115
#
# Velocity S-wave (km/s) = 2.69806 3.86126 3.33083
# Velocity P-wave (km/s) = 3.66292 6.62920 5.35552
#
# Compressibility (1/GPa) = 0.13334125
#
# Stress axis : x y z
#
# Youngs Moduli (GPa) = 8.06649 76.40821 64.01193
#
# Poissons Ratio (x) = 0.96177 -0.79826
# Poissons Ratio (y) = 0.10154 0.61146
# Poissons Ratio (z) = -0.10059 0.72987
#
# Static dielectric constant tensor:
#      x y z
#    x 1.718500 0.000000 0.000000 
#    y 0.000000 1.775510 0.000000 
#    z 0.000000 0.000000 1.685530 
# 
# From -- ./inp_files/4165.got.cif
#   From: 2010.05.17/outbox.cif.g08.bks.cpg/sg25_3_cif.got.tgz:4165.got - 2010.06.04 01:04:00.
