data_PCOD9337447
_publ_section_title
;
Structure prediction by ZEFSAII (Michael W. Deem and Ramdas Pophale) SiO2 
 PCOD9337447
Probable space group: P M M 2
;
_chemical_formula_sum "Si O2"
_cell_formula_units_Z 28
_cell_length_a 9.521722
_cell_length_b 9.027970
_cell_length_c 18.522406
_cell_angle_alpha 90.000000
_cell_angle_beta 90.000000
_cell_angle_gamma 90.000000
_cell_volume 1592.219741
_symmetry_space_group_name_H-M "P M M 2"
_symmetry_group_IT_number 25
_symmetry_cell_setting 'orthorhombic'
loop_
_space_group_symop_operation_xyz
x,y,z
-x,-y,z
-x,y,z
x,-y,z
loop_
_atom_site_type_symbol
_atom_site_label
_atom_site_fract_x
_atom_site_fract_y
_atom_site_fract_z
Si Si1 0.336573 0.322043 0.473350
Si Si2 0.662060 0.819401 0.740789
Si Si3 0.837142 0.178883 0.601175
Si Si4 0.665008 0.677702 0.306877
Si Si5 0.333667 0.323715 0.048123
Si Si6 0.835479 0.177203 0.178408
Si Si7 0.329347 0.170685 0.899829
O O1 0.500000 0.282689 0.486348
O O2 0.325070 0.500000 0.479412
O O3 0.238959 0.244747 0.531467
O O4 0.303077 0.283281 0.390167
O O5 0.500000 0.772159 0.730606
O O6 0.756713 0.772300 0.673857
O O7 0.714447 0.773804 0.820453
O O8 0.661262 0.000000 0.742606
O O9 0.000000 0.221561 0.603441
O O10 0.829134 0.000000 0.598305
O O11 0.500000 0.710854 0.293755
O O12 0.681245 0.500000 0.299172
O O13 0.761878 0.759903 0.250024
O O14 0.500000 0.288522 0.057257
O O15 0.318406 0.500000 0.053064
O O16 0.244616 0.245519 0.109980
O O17 0.289526 0.266492 0.968938
O O18 0.000000 0.216775 0.177035
O O19 0.823262 0.000000 0.176746
O O20 0.500000 0.169146 0.896806
O O21 0.283543 0.000000 0.909712
#
# Coordination Sequence:
#
# PCOD9337447 Si02
#       7
#     4   4   4   4   4   4   4
#     4   9  19  36  56  77 101 131 169 211 254 301
#     4   8  14  27  48  71  96 131 174 215 254 297
#     4  10  20  32  48  74 107 140 173 209 251 300
#     4   9  19  37  59  80 101 128 166 210 255 304
#     4  10  20  34  54  79 105 134 169 208 252 303
#     4  11  24  38  52  75 106 137 170 207 248 297
#     4   8  14  27  49  74  98 128 169 215 258 298
#
# _framework density 17.585511
#
# number of rings (size 3 to 8) (size 9 to 14) (size 15 to 20)
#    0.000    2.714    0.000    3.429    0.000    6.286 
#    0.000    5.714    0.000    5.143    0.000    0.000 
#    0.000    0.000    0.000    0.000    0.000    0.000 
#
# Total GULP energy -156162.694788 kJ/mol
# GULP energy per Si atom -5577.239100 kJ/mol
# Density = 1.754549 g / cm^3
# Si number density = 17.585511 Si / 1000 Ang^3
#
#
#
# Elastic Constant Matrix: (Units=GPa)
#
#
# Indices 1 2 3 4 5 6 
#
# 1 107.6991 50.0393 114.5966 0.0000 0.0000 0.0000
# 2 50.0393 33.1624 57.7216 0.0000 0.0000 0.0000
# 3 114.5966 57.7216 183.7766 0.0000 0.0000 0.0000
# 4 0.0000 0.0000 0.0000 65.0304 0.0000 0.0000
# 5 0.0000 0.0000 0.0000 0.0000 -8.8541 0.0000
# 6 0.0000 0.0000 0.0000 0.0000 0.0000 22.9902
#
#
#
# Elastic Compliance Matrix: (Units=1/GPa)
#
#
# Indices 1 2 3 4 5 6 
#
# 1 0.043259 -0.040420 -0.014280 0.000000 0.000000 0.000000
# 2 -0.040420 0.104287 -0.007551 0.000000 0.000000 0.000000
# 3 -0.014280 -0.007551 0.016717 0.000000 0.000000 0.000000
# 4 0.000000 0.000000 0.000000 0.015377 0.000000 0.000000
# 5 0.000000 0.000000 0.000000 0.000000 -0.112942 0.000000
# 6 0.000000 0.000000 0.000000 0.000000 0.000000 0.043497
#
#
# Mechanical properties :
#
#
# Convention : Reuss Voigt Hill
#
# Bulk Modulus (GPa) = 25.14873 85.48368 55.31621
# Shear Modulus (GPa) = 20.16533 22.65202 21.40867
#
# Velocity S-wave (km/s) = 3.38997 3.59291 3.49292
# Velocity P-wave (km/s) = 5.44559 8.11960 6.91311
#
# Compressibility (1/GPa) = 0.03976344
#
# Stress axis : x y z
#
# Youngs Moduli (GPa) = 23.11653 9.58889 59.81830
#
# Poissons Ratio (x) = 0.38758 0.85418
# Poissons Ratio (y) = 0.93436 0.45168
# Poissons Ratio (z) = 0.33010 0.07240
#
# Static dielectric constant tensor:
#      x y z
#    x 1.579000 0.000000 0.000000 
#    y 0.000000 1.586770 0.000000 
#    z 0.000000 0.000000 1.595760 
# 
# From -- ./inp_files/6064.got.cif
#   From: 2010.05.17/outbox.cif.g08.bks.cpg/sg25_4_cif.got.tgz:6064.got - 2010.06.04 01:04:00.
