data_PCOD9337454
_publ_section_title
;
Structure prediction by ZEFSAII (Michael W. Deem and Ramdas Pophale) SiO2 
 PCOD9337454
Probable space group: P M M 2
;
_chemical_formula_sum "Si O2"
_cell_formula_units_Z 32
_cell_length_a 15.810338
_cell_length_b 9.473620
_cell_length_c 11.885250
_cell_angle_alpha 90.000000
_cell_angle_beta 90.000000
_cell_angle_gamma 90.000000
_cell_volume 1780.186226
_symmetry_space_group_name_H-M "P M M 2"
_symmetry_group_IT_number 25
_symmetry_cell_setting 'orthorhombic'
loop_
_space_group_symop_operation_xyz
x,y,z
-x,-y,z
-x,y,z
x,-y,z
loop_
_atom_site_type_symbol
_atom_site_label
_atom_site_fract_x
_atom_site_fract_y
_atom_site_fract_z
Si Si1 0.600024 0.654046 0.693690
Si Si2 0.101910 0.670283 0.886934
Si Si3 0.233703 0.167569 0.043520
Si Si4 0.219634 0.838174 0.308814
Si Si5 0.324873 0.156127 0.525271
Si Si6 0.094716 0.658971 0.449789
Si Si7 0.853494 0.164258 0.658508
Si Si8 0.598027 0.168568 0.909999
O O1 0.500000 0.641700 0.705656
O O2 0.640093 0.500000 0.705899
O O3 0.618404 0.721329 0.573667
O O4 0.625134 0.758031 0.793912
O O5 0.113876 0.500000 0.881005
O O6 0.160661 0.739689 0.984187
O O7 0.132956 0.747896 0.772388
O O8 0.000000 0.695143 0.901122
O O9 0.327384 0.203429 0.996979
O O10 0.218497 0.000000 0.018705
O O11 0.235692 0.184007 0.178003
O O12 0.297713 0.827067 0.395910
O O13 0.153365 0.727831 0.356716
O O14 0.188091 0.000000 0.324050
O O15 0.240844 0.163384 0.604310
O O16 0.362419 0.000000 0.540540
O O17 0.122482 0.500000 0.479653
O O18 0.096452 0.756225 0.560039
O O19 0.000000 0.653317 0.406199
O O20 0.877606 0.000000 0.674694
O O21 0.500000 0.209135 0.938555
O O22 0.597623 0.000000 0.895078
#
# Coordination Sequence:
#
# PCOD9337454 Si02
#       8
#     4   4   4   4   4   4   4   4
#     4  10  20  32  49  77 109 136 165 204 251 309
#     4  11  24  38  52  76 111 147 182 221 267 319
#     4  10  21  38  58  79 105 140 183 227 268 313
#     4   9  20  37  54  74 101 134 176 220 259 308
#     4   9  18  33  52  75 102 132 167 209 259 313
#     4  10  20  33  51  76 104 134 171 216 265 316
#     4  10  20  34  54  79 105 134 172 218 267 319
#     4   9  18  34  57  83 109 137 171 215 268 322
#
# _framework density 17.975646999999999
#
# number of rings (size 3 to 8) (size 9 to 14) (size 15 to 20)
#    0.000    2.250    0.000    3.375    0.000   11.250 
#    0.000    3.125    0.000    2.250    0.000    1.750 
#    0.000    0.000    0.000    0.000    0.000    0.000 
#
# Total GULP energy -178309.113205 kJ/mol
# GULP energy per Si atom -5572.159788 kJ/mol
# Density = 1.793473 g / cm^3
# Si number density = 17.975647 Si / 1000 Ang^3
#
#
#
# Elastic Constant Matrix: (Units=GPa)
#
#
# Indices 1 2 3 4 5 6 
#
# 1 38.0419 35.0356 40.2660 0.0000 0.0000 0.0000
# 2 35.0356 84.2857 55.7172 0.0000 0.0000 0.0000
# 3 40.2660 55.7172 110.7769 0.0000 0.0000 0.0000
# 4 0.0000 0.0000 0.0000 8.9468 0.0000 0.0000
# 5 0.0000 0.0000 0.0000 0.0000 0.1300 0.0000
# 6 0.0000 0.0000 0.0000 0.0000 0.0000 23.4212
#
#
#
# Elastic Compliance Matrix: (Units=1/GPa)
#
#
# Indices 1 2 3 4 5 6 
#
# 1 0.051226 -0.013460 -0.011850 0.000000 0.000000 0.000000
# 2 -0.013460 0.021311 -0.005826 0.000000 0.000000 0.000000
# 3 -0.011850 -0.005826 0.016265 0.000000 0.000000 0.000000
# 4 0.000000 0.000000 0.000000 0.111772 0.000000 0.000000
# 5 0.000000 0.000000 0.000000 0.000000 7.690679 0.000000
# 6 0.000000 0.000000 0.000000 0.000000 0.000000 0.042696
#
#
# Mechanical properties :
#
#
# Convention : Reuss Voigt Hill
#
# Bulk Modulus (GPa) = 37.69412 55.01580 46.35496
# Shear Modulus (GPa) = 0.62460 13.30532 6.96496
#
# Velocity S-wave (km/s) = 0.59011 2.72359 1.97055
# Velocity P-wave (km/s) = 4.63458 6.36889 5.56966
#
# Compressibility (1/GPa) = 0.02652933
#
# Stress axis : x y z
#
# Youngs Moduli (GPa) = 19.52135 46.92475 61.48217
#
# Poissons Ratio (x) = 0.63160 0.72857
# Poissons Ratio (y) = 0.26276 0.35820
# Poissons Ratio (z) = 0.23133 0.27339
#
# Static dielectric constant tensor:
#      x y z
#    x 1.649670 0.000000 0.000000 
#    y 0.000000 1.642330 0.000000 
#    z 0.000000 0.000000 1.591070 
# 
# From -- ./inp_files/4941.got.cif
#   From: 2010.05.17/outbox.cif.g08.bks.cpg/sg25_3_cif.got.tgz:4941.got - 2010.06.04 01:04:00.
