data_PCOD9337248
_publ_section_title
;
Structure prediction by ZEFSAII (Michael W. Deem and Ramdas Pophale) SiO2 
 PCOD9337248
Probable space group: P M M 2
;
_chemical_formula_sum "Si O2"
_cell_formula_units_Z 28
_cell_length_a 18.520184
_cell_length_b 8.187636
_cell_length_c 9.899335
_cell_angle_alpha 90.000000
_cell_angle_beta 90.000000
_cell_angle_gamma 90.000000
_cell_volume 1501.100762
_symmetry_space_group_name_H-M "P M M 2"
_symmetry_group_IT_number 25
_symmetry_cell_setting 'orthorhombic'
loop_
_space_group_symop_operation_xyz
x,y,z
-x,-y,z
-x,y,z
x,-y,z
loop_
_atom_site_type_symbol
_atom_site_label
_atom_site_fract_x
_atom_site_fract_y
_atom_site_fract_z
Si Si1 0.084763 0.184459 0.514210
Si Si2 0.798647 0.685076 0.350989
Si Si3 0.689092 0.188191 0.155594
Si Si4 0.702350 0.197983 0.594863
Si Si5 0.082322 0.694046 0.819437
Si Si6 0.417535 0.199362 0.389113
Si Si7 0.760082 0.802566 0.887421
O O1 0.119911 0.280185 0.391013
O O2 0.095240 0.262363 0.661747
O O3 0.000000 0.176416 0.494172
O O4 0.114973 0.000000 0.517882
O O5 0.786631 0.500000 0.307590
O O6 0.762474 0.802320 0.242701
O O7 0.758609 0.722015 0.491982
O O8 0.628650 0.257897 0.258387
O O9 0.668156 0.000000 0.132242
O O10 0.711544 0.261372 0.011821
O O11 0.625436 0.242059 0.526663
O O12 0.723431 0.248401 0.745767
O O13 0.707962 0.000000 0.588309
O O14 0.080299 0.500000 0.834878
O O15 0.155021 0.755642 0.893186
O O16 0.000000 0.756217 0.853242
O O17 0.500000 0.254964 0.387138
O O18 0.417369 0.000000 0.383330
O O19 0.758374 0.000000 0.891845
#
# Coordination Sequence:
#
# PCOD9337248 Si02
#       7
#     4   4   4   4   4   4   4
#     4  10  19  31  49  72  98 130 168 211 258 305
#     4  11  20  31  49  73  98 129 168 211 258 303
#     4   9  19  34  51  72 101 137 176 212 252 307
#     4   9  17  30  50  74 100 129 166 210 254 304
#     4  10  20  32  48  73 103 134 170 215 262 304
#     4   8  14  28  51  76 103 135 169 210 259 306
#     4  10  19  32  51  74 101 137 177 215 256 304
#
# _framework density 18.652977
#
# number of rings (size 3 to 8) (size 9 to 14) (size 15 to 20)
#    0.000    2.429    1.429    3.000    0.000    2.286 
#    0.000    1.429    0.000   12.000    0.000    0.000 
#    0.000   10.286    0.000    0.000    0.000    0.000 
#
# Total GULP energy -155900.140542 kJ/mol
# GULP energy per Si atom -5567.862162 kJ/mol
# Density = 1.861052 g / cm^3
# Si number density = 18.652977 Si / 1000 Ang^3
#
#
#
# Elastic Constant Matrix: (Units=GPa)
#
#
# Indices 1 2 3 4 5 6 
#
# 1 113.8455 3.8058 47.0041 0.0000 0.0000 0.0000
# 2 3.8058 20.6815 0.5275 0.0000 0.0000 0.0000
# 3 47.0041 0.5275 92.8676 0.0000 0.0000 0.0000
# 4 0.0000 0.0000 0.0000 -0.9660 0.0000 0.0000
# 5 0.0000 0.0000 0.0000 0.0000 19.1029 0.0000
# 6 0.0000 0.0000 0.0000 0.0000 0.0000 3.2274
#
#
#
# Elastic Compliance Matrix: (Units=1/GPa)
#
#
# Indices 1 2 3 4 5 6 
#
# 1 0.011180 -0.001913 -0.005648 0.000000 0.000000 0.000000
# 2 -0.001913 0.048687 0.000692 0.000000 0.000000 0.000000
# 3 -0.005648 0.000692 0.013623 0.000000 0.000000 0.000000
# 4 0.000000 0.000000 0.000000 -1.035201 0.000000 0.000000
# 5 0.000000 0.000000 0.000000 0.000000 0.052348 0.000000
# 6 0.000000 0.000000 0.000000 0.000000 0.000000 0.309849
#
#
# Mechanical properties :
#
#
# Convention : Reuss Voigt Hill
#
# Bulk Modulus (GPa) = 16.73614 36.67437 26.70526
# Shear Modulus (GPa) = -8.83609 16.01001 3.58696
#
# Velocity S-wave (km/s) = -2.17885 2.93287 1.38823
# Velocity P-wave (km/s) = 1.63157 5.58328 4.11309
#
# Compressibility (1/GPa) = 0.05975093
#
# Stress axis : x y z
#
# Youngs Moduli (GPa) = 89.44920 20.53949 73.40766
#
# Poissons Ratio (x) = 0.03930 0.41457
# Poissons Ratio (y) = 0.17113 -0.05079
# Poissons Ratio (z) = 0.50517 -0.01421
#
# Static dielectric constant tensor:
#      x y z
#    x 1.691730 0.000000 0.000000 
#    y 0.000000 1.679970 0.000000 
#    z 0.000000 0.000000 1.649430 
# 
# From -- ./inp_files/3551.got.cif
#   From: 2010.05.17/outbox.cif.g08.bks.cpg/sg25_2_cif.got.tgz:3551.got - 2010.06.04 01:04:00.
