data_PCOD9337588
_publ_section_title
;
Structure prediction by ZEFSAII (Michael W. Deem and Ramdas Pophale) SiO2 
 PCOD9337588
Probable space group: P M M 2
;
_chemical_formula_sum "Si O2"
_cell_formula_units_Z 20
_cell_length_a 7.462747
_cell_length_b 15.985384
_cell_length_c 7.253196
_cell_angle_alpha 90.000000
_cell_angle_beta 90.000000
_cell_angle_gamma 90.000000
_cell_volume 865.269121
_symmetry_space_group_name_H-M "P M M 2"
_symmetry_group_IT_number 25
_symmetry_cell_setting 'orthorhombic'
loop_
_space_group_symop_operation_xyz
x,y,z
-x,-y,z
-x,y,z
x,-y,z
loop_
_atom_site_type_symbol
_atom_site_label
_atom_site_fract_x
_atom_site_fract_y
_atom_site_fract_z
Si Si1 0.209681 0.590329 0.018440
Si Si2 0.214387 0.770301 0.972062
Si Si3 0.282408 0.410896 0.580307
Si Si4 0.712494 0.094021 0.271138
Si Si5 0.710295 0.232233 0.541004
O O1 0.288696 0.500000 0.078285
O O2 0.284993 0.682841 0.061540
O O3 0.000000 0.589259 0.068090
O O4 0.225262 0.589929 0.794690
O O5 0.264773 0.851666 0.086923
O O6 0.000000 0.763449 0.969927
O O7 0.274724 0.777506 0.760791
O O8 0.500000 0.409513 0.577608
O O9 0.222581 0.500000 0.500963
O O10 0.214772 0.324479 0.494881
O O11 0.500000 0.085702 0.303493
O O12 0.788475 0.154121 0.431211
O O13 0.786096 0.000000 0.262455
O O14 0.500000 0.235279 0.494805
#
# Coordination Sequence:
#
# PCOD9337588 Si02
#       5
#     4   4   4   4   4
#     4   8  14  26  45  70 102 138 170 199 239 298
#     4  10  20  34  55  82 109 137 171 214 262 308
#     4   8  13  23  43  71 100 129 163 206 253 298
#     4  10  22  39  56  74 100 137 179 220 263 314
#     4   9  18  34  55  77 103 137 176 214 255 309
#
# _framework density 23.114196
#
# number of rings (size 3 to 8) (size 9 to 14) (size 15 to 20)
#    0.000    3.000    0.000    0.600    0.000    2.800 
#    0.000    3.000    0.000    1.200    0.000    5.600 
#    0.000    0.000    0.000    0.000    0.000    0.000 
#
# Total GULP energy -111552.732413 kJ/mol
# GULP energy per Si atom -5577.636621 kJ/mol
# Density = 2.306159 g / cm^3
# Si number density = 23.114196 Si / 1000 Ang^3
#
#
#
# Elastic Constant Matrix: (Units=GPa)
#
#
# Indices 1 2 3 4 5 6 
#
# 1 84.1844 7.6084 -16.9437 0.0000 0.0000 0.0000
# 2 7.6084 287.4863 62.3267 0.0000 0.0000 0.0000
# 3 -16.9437 62.3267 86.3329 0.0000 0.0000 0.0000
# 4 0.0000 0.0000 0.0000 15.1644 0.0000 0.0000
# 5 0.0000 0.0000 0.0000 0.0000 26.2889 0.0000
# 6 0.0000 0.0000 0.0000 0.0000 0.0000 51.8729
#
#
#
# Elastic Compliance Matrix: (Units=1/GPa)
#
#
# Indices 1 2 3 4 5 6 
#
# 1 0.012621 -0.001033 0.003222 0.000000 0.000000 0.000000
# 2 -0.001033 0.004208 -0.003241 0.000000 0.000000 0.000000
# 3 0.003222 -0.003241 0.014555 0.000000 0.000000 0.000000
# 4 0.000000 0.000000 0.000000 0.065944 0.000000 0.000000
# 5 0.000000 0.000000 0.000000 0.000000 0.038039 0.000000
# 6 0.000000 0.000000 0.000000 0.000000 0.000000 0.019278
#
#
# Mechanical properties :
#
#
# Convention : Reuss Voigt Hill
#
# Bulk Modulus (GPa) = 34.15068 62.66516 48.40792
# Shear Modulus (GPa) = 30.02869 45.66607 37.84738
#
# Velocity S-wave (km/s) = 3.60828 4.44968 4.05088
# Velocity P-wave (km/s) = 5.67154 7.31912 6.54736
#
# Compressibility (1/GPa) = 0.02928200
#
# Stress axis : x y z
#
# Youngs Moduli (GPa) = 79.23569 237.62217 68.70418
#
# Poissons Ratio (x) = 0.24537 -0.22139
# Poissons Ratio (y) = 0.08182 0.22266
# Poissons Ratio (z) = -0.25533 0.77009
#
# Static dielectric constant tensor:
#      x y z
#    x 1.916090 0.000000 0.000000 
#    y 0.000000 1.942940 0.000000 
#    z 0.000000 0.000000 1.858970 
# 
# From -- ./inp_files/556.got.cif
#   From: 2010.05.17/outbox.cif.g08.bks.cpg/sg25_1_cif.got.tgz:556.got - 2010.06.04 01:04:00.
