data_PCOD9337576
_publ_section_title
;
Structure prediction by ZEFSAII (Michael W. Deem and Ramdas Pophale) SiO2 
 PCOD9337576
Probable space group: P M M 2
;
_chemical_formula_sum "Si O2"
_cell_formula_units_Z 28
_cell_length_a 8.022664
_cell_length_b 9.372395
_cell_length_c 18.527584
_cell_angle_alpha 90.000000
_cell_angle_beta 90.000000
_cell_angle_gamma 90.000000
_cell_volume 1393.118240
_symmetry_space_group_name_H-M "P M M 2"
_symmetry_group_IT_number 25
_symmetry_cell_setting 'orthorhombic'
loop_
_space_group_symop_operation_xyz
x,y,z
-x,-y,z
-x,y,z
x,-y,z
loop_
_atom_site_type_symbol
_atom_site_label
_atom_site_fract_x
_atom_site_fract_y
_atom_site_fract_z
Si Si1 0.701405 0.163384 0.377080
Si Si2 0.801341 0.163858 0.934978
Si Si3 0.704043 0.664011 0.235796
Si Si4 0.302502 0.661725 0.796475
Si Si5 0.201300 0.663087 0.519170
Si Si6 0.199486 0.838333 0.657630
Si Si7 0.298687 0.835781 0.095495
O O1 0.500000 0.159608 0.374543
O O2 0.758643 0.244236 0.304798
O O3 0.752065 0.250899 0.447607
O O4 0.761498 0.000000 0.379948
O O5 0.731960 0.265052 0.873150
O O6 0.000000 0.160905 0.927597
O O7 0.738793 0.000000 0.926508
O O8 0.757224 0.211019 0.016045
O O9 0.500000 0.664743 0.235768
O O10 0.757517 0.500000 0.241188
O O11 0.758576 0.737457 0.161266
O O12 0.500000 0.655375 0.786084
O O13 0.235127 0.500000 0.793870
O O14 0.231908 0.758129 0.732330
O O15 0.262676 0.500000 0.516836
O O16 0.263898 0.746456 0.590022
O O17 0.000000 0.657889 0.523168
O O18 0.000000 0.847638 0.648982
O O19 0.266180 0.000000 0.658191
O O20 0.500000 0.836108 0.096245
O O21 0.242629 0.000000 0.105892
#
# Coordination Sequence:
#
# PCOD9337576 Si02
#       7
#     4   4   4   4   4   4   4
#     4  10  20  34  54  80 109 143 184 226 268 317
#     4  10  21  37  57  81 109 142 180 220 265 319
#     4   9  17  30  50  76 105 138 178 225 274 320
#     4  11  24  39  56  81 111 142 178 220 266 316
#     4  10  21  37  57  81 110 144 180 219 267 321
#     4  10  21  38  60  83 107 139 179 220 265 319
#     4   9  17  31  52  76 103 137 177 221 269 321
#
# _framework density 20.098796
#
# number of rings (size 3 to 8) (size 9 to 14) (size 15 to 20)
#    0.000    2.143    0.000    3.000    0.000    9.143 
#    0.000    2.143    0.000    2.571    0.000    0.000 
#    0.000    0.000    0.000    0.000    0.000    0.000 
#
# Total GULP energy -156420.916224 kJ/mol
# GULP energy per Si atom -5586.461294 kJ/mol
# Density = 2.005305 g / cm^3
# Si number density = 20.098796 Si / 1000 Ang^3
#
#
#
# Elastic Constant Matrix: (Units=GPa)
#
#
# Indices 1 2 3 4 5 6 
#
# 1 12.4230 9.1866 -2.1235 0.0000 0.0000 0.0000
# 2 9.1866 196.3919 121.9453 0.0000 0.0000 0.0000
# 3 -2.1235 121.9453 167.4772 0.0000 0.0000 0.0000
# 4 0.0000 0.0000 0.0000 78.8364 0.0000 0.0000
# 5 0.0000 0.0000 0.0000 0.0000 34.7975 0.0000
# 6 0.0000 0.0000 0.0000 0.0000 0.0000 35.6285
#
#
#
# Elastic Compliance Matrix: (Units=1/GPa)
#
#
# Indices 1 2 3 4 5 6 
#
# 1 0.088296 -0.008807 0.007532 0.000000 0.000000 0.000000
# 2 -0.008807 0.010172 -0.007518 0.000000 0.000000 0.000000
# 3 0.007532 -0.007518 0.011541 0.000000 0.000000 0.000000
# 4 0.000000 0.000000 0.000000 0.012684 0.000000 0.000000
# 5 0.000000 0.000000 0.000000 0.000000 0.028738 0.000000
# 6 0.000000 0.000000 0.000000 0.000000 0.000000 0.028067
#
#
# Mechanical properties :
#
#
# Convention : Reuss Voigt Hill
#
# Bulk Modulus (GPa) = 10.81982 70.47877 40.64929
# Shear Modulus (GPa) = 21.94009 46.33807 34.13908
#
# Velocity S-wave (km/s) = 3.30754 4.80679 4.12583
# Velocity P-wave (km/s) = 4.47006 8.12091 6.55479
#
# Compressibility (1/GPa) = 0.09242301
#
# Stress axis : x y z
#
# Youngs Moduli (GPa) = 11.32548 98.30711 86.64895
#
# Poissons Ratio (x) = 0.86582 -0.65268
# Poissons Ratio (y) = 0.09975 0.65146
# Poissons Ratio (z) = -0.08531 0.73911
#
# Static dielectric constant tensor:
#      x y z
#    x 1.724970 0.000000 0.000000 
#    y 0.000000 1.705250 0.000000 
#    z 0.000000 0.000000 1.663380 
# 
# From -- ./inp_files/6082.got.cif
#   From: 2010.05.17/outbox.cif.g08.bks.cpg/sg25_4_cif.got.tgz:6082.got - 2010.06.04 01:04:00.
