data_PCOD9337805
_publ_section_title
;
Structure prediction by ZEFSAII (Michael W. Deem and Ramdas Pophale) SiO2 
 PCOD9337805
Probable space group: P M M 2
;
_chemical_formula_sum "Si O2"
_cell_formula_units_Z 28
_cell_length_a 7.622052
_cell_length_b 21.201643
_cell_length_c 7.771922
_cell_angle_alpha 90.000000
_cell_angle_beta 90.000000
_cell_angle_gamma 90.000000
_cell_volume 1255.942793
_symmetry_space_group_name_H-M "P M M 2"
_symmetry_group_IT_number 25
_symmetry_cell_setting 'orthorhombic'
loop_
_space_group_symop_operation_xyz
x,y,z
-x,-y,z
-x,y,z
x,-y,z
loop_
_atom_site_type_symbol
_atom_site_label
_atom_site_fract_x
_atom_site_fract_y
_atom_site_fract_z
Si Si1 0.214738 0.427816 0.123960
Si Si2 0.214895 0.661183 0.429128
Si Si3 0.210900 0.333378 0.826785
Si Si4 0.804582 0.203088 0.386266
Si Si5 0.204393 0.932068 0.893061
Si Si6 0.304116 0.798425 0.757222
Si Si7 0.206024 0.932197 0.306006
O O1 0.272292 0.500000 0.110411
O O2 0.267473 0.394893 0.302964
O O3 0.000000 0.427840 0.121624
O O4 0.273541 0.384454 0.964310
O O5 0.270724 0.655406 0.628722
O O6 0.273874 0.728401 0.348135
O O7 0.000000 0.663802 0.430512
O O8 0.261036 0.261482 0.875340
O O9 0.000000 0.336570 0.825232
O O10 0.818830 0.205485 0.592512
O O11 0.715609 0.135597 0.353492
O O12 0.000000 0.200320 0.305171
O O13 0.290280 0.867385 0.836220
O O14 0.000000 0.928940 0.841040
O O15 0.275205 0.000000 0.830804
O O16 0.209886 0.933805 0.099578
O O17 0.500000 0.789207 0.691408
O O18 0.000000 0.931055 0.360917
O O19 0.278916 0.000000 0.367495
#
# Coordination Sequence:
#
# PCOD9337805 Si02
#       7
#     4   4   4   4   4   4   4
#     4   9  17  28  48  81 110 132 165 212 267 319
#     4   8  15  27  44  71 102 132 164 206 257 309
#     4   9  18  33  53  75 104 139 175 215 262 314
#     4   9  17  31  51  73  97 130 172 213 260 310
#     4   9  18  33  53  76 101 132 171 214 261 313
#     4  11  22  34  49  72 103 138 176 216 259 304
#     4   8  15  28  49  76  99 123 164 214 257 302
#
# _framework density 22.294008999999999
#
# number of rings (size 3 to 8) (size 9 to 14) (size 15 to 20)
#    0.000    3.000    0.000    3.000    2.000    1.429 
#    0.000    5.000    0.000    1.286    0.000    0.000 
#    0.000    0.000    0.000    0.000    0.000    0.000 
#
# Total GULP energy -156065.912299 kJ/mol
# GULP energy per Si atom -5573.782582 kJ/mol
# Density = 2.224327 g / cm^3
# Si number density = 22.294009 Si / 1000 Ang^3
#
#
#
# Elastic Constant Matrix: (Units=GPa)
#
#
# Indices 1 2 3 4 5 6 
#
# 1 57.7266 12.7243 6.5496 0.0000 0.0000 0.0000
# 2 12.7243 228.2207 64.0324 0.0000 0.0000 0.0000
# 3 6.5496 64.0324 61.9701 0.0000 0.0000 0.0000
# 4 0.0000 0.0000 0.0000 68.4894 0.0000 0.0000
# 5 0.0000 0.0000 0.0000 0.0000 -96.8462 0.0000
# 6 0.0000 0.0000 0.0000 0.0000 0.0000 -28.8004
#
#
#
# Elastic Compliance Matrix: (Units=1/GPa)
#
#
# Indices 1 2 3 4 5 6 
#
# 1 0.017601 -0.000647 -0.001192 0.000000 0.000000 0.000000
# 2 -0.000647 0.006194 -0.006332 0.000000 0.000000 0.000000
# 3 -0.001192 -0.006332 0.022806 0.000000 0.000000 0.000000
# 4 0.000000 0.000000 0.000000 0.014601 0.000000 0.000000
# 5 0.000000 0.000000 0.000000 0.000000 -0.010326 0.000000
# 6 0.000000 0.000000 0.000000 0.000000 0.000000 -0.034722
#
#
# Mechanical properties :
#
#
# Convention : Reuss Voigt Hill
#
# Bulk Modulus (GPa) = 33.04783 57.16999 45.10891
# Shear Modulus (GPa) = 117.41886 6.20929 61.81408
#
# Velocity S-wave (km/s) = 7.26517 1.67070 5.27133
# Velocity P-wave (km/s) = 9.23216 5.42411 7.57145
#
# Compressibility (1/GPa) = 0.03025918
#
# Stress axis : x y z
#
# Youngs Moduli (GPa) = 56.81545 161.43535 43.84868
#
# Poissons Ratio (x) = 0.10444 0.05226
# Poissons Ratio (y) = 0.03676 0.27766
# Poissons Ratio (z) = 0.06771 1.02224
#
# Static dielectric constant tensor:
#      x y z
#    x 2.262530 0.000000 0.000000 
#    y 0.000000 1.858120 0.000000 
#    z 0.000000 0.000000 1.796730 
# 
# From -- ./inp_files/2323.got.cif
#   From: 2010.05.17/outbox.cif.g08.bks.cpg/sg25_2_cif.got.tgz:2323.got - 2010.06.04 01:04:00.
