data_PCOD9337540
_publ_section_title
;
Structure prediction by ZEFSAII (Michael W. Deem and Ramdas Pophale) SiO2 
 PCOD9337540
Probable space group: P M M 2
;
_chemical_formula_sum "Si O2"
_cell_formula_units_Z 32
_cell_length_a 8.526290
_cell_length_b 14.687668
_cell_length_c 16.209126
_cell_angle_alpha 90.000000
_cell_angle_beta 90.000000
_cell_angle_gamma 90.000000
_cell_volume 2029.890193
_symmetry_space_group_name_H-M "P M M 2"
_symmetry_group_IT_number 25
_symmetry_cell_setting 'orthorhombic'
loop_
_space_group_symop_operation_xyz
x,y,z
-x,-y,z
-x,y,z
x,-y,z
loop_
_atom_site_type_symbol
_atom_site_label
_atom_site_fract_x
_atom_site_fract_y
_atom_site_fract_z
Si Si1 0.812130 0.214471 0.321960
Si Si2 0.192017 0.894405 0.160966
Si Si3 0.190164 0.894374 0.800620
Si Si4 0.310354 0.105595 0.480645
Si Si5 0.818421 0.110650 0.981050
Si Si6 0.687833 0.603119 0.389517
Si Si7 0.812127 0.603272 0.575336
Si Si8 0.312255 0.785316 0.644638
O O1 0.757624 0.167310 0.237235
O O2 0.751978 0.157071 0.400265
O O3 0.754173 0.317423 0.332768
O O4 0.000000 0.213071 0.323054
O O5 0.000000 0.893446 0.158226
O O6 0.237311 0.000000 0.174317
O O7 0.249544 0.863404 0.070218
O O8 0.248998 0.864077 0.891704
O O9 0.248887 0.832413 0.726753
O O10 0.000000 0.893079 0.802821
O O11 0.237438 0.000000 0.787236
O O12 0.500000 0.108212 0.478451
O O13 0.259186 0.157307 0.563911
O O14 0.260998 0.000000 0.481624
O O15 0.000000 0.141119 0.980964
O O16 0.820431 0.000000 0.981438
O O17 0.500000 0.608596 0.391043
O O18 0.733800 0.500000 0.365749
O O19 0.749096 0.618689 0.482576
O O20 0.766643 0.500000 0.599194
O O21 0.745687 0.682467 0.632450
O O22 0.000000 0.608514 0.573641
O O23 0.500000 0.786897 0.645792
#
# Coordination Sequence:
#
# PCOD9337540 Si02
#       8
#     4   4   4   4   4   4   4   4
#     4  11  20  29  46  71  95 121 155 195 236 273
#     4   8  14  25  42  67  97 124 152 188 231 277
#     4   9  17  29  47  70  94 123 160 199 235 271
#     4  10  21  34  44  58  89 132 167 188 215 264
#     4   7  11  23  43  65  90 120 153 191 234 275
#     4  10  20  34  50  66  88 121 157 191 232 281
#     4  10  20  34  52  72  91 113 149 198 241 273
#     4  11  21  32  47  67  94 129 160 186 227 279
#
# _framework density 15.764398999999999
#
# number of rings (size 3 to 8) (size 9 to 14) (size 15 to 20)
#    0.000    2.500    1.250    3.750    0.000    3.500 
#    0.000    0.000    0.000    1.500    0.000    4.375 
#    0.000    3.000    0.000    0.000    0.000    0.000 
#
# Total GULP energy -178355.720544 kJ/mol
# GULP energy per Si atom -5573.616267 kJ/mol
# Density = 1.572852 g / cm^3
# Si number density = 15.764399 Si / 1000 Ang^3
#
#
#
# Elastic Constant Matrix: (Units=GPa)
#
#
# Indices 1 2 3 4 5 6 
#
# 1 16.4410 21.8814 22.9778 0.0000 0.0000 0.0000
# 2 21.8814 113.6365 82.1009 0.0000 0.0000 0.0000
# 3 22.9778 82.1009 158.2503 0.0000 0.0000 0.0000
# 4 0.0000 0.0000 0.0000 8.9923 0.0000 0.0000
# 5 0.0000 0.0000 0.0000 0.0000 -26.6463 0.0000
# 6 0.0000 0.0000 0.0000 0.0000 0.0000 21.0206
#
#
#
# Elastic Compliance Matrix: (Units=1/GPa)
#
#
# Indices 1 2 3 4 5 6 
#
# 1 0.085410 -0.011975 -0.006189 0.000000 0.000000 0.000000
# 2 -0.011975 0.015755 -0.006435 0.000000 0.000000 0.000000
# 3 -0.006189 -0.006435 0.010556 0.000000 0.000000 0.000000
# 4 0.000000 0.000000 0.000000 0.111206 0.000000 0.000000
# 5 0.000000 0.000000 0.000000 0.000000 -0.037529 0.000000
# 6 0.000000 0.000000 0.000000 0.000000 0.000000 0.047572
#
#
# Mechanical properties :
#
#
# Convention : Reuss Voigt Hill
#
# Bulk Modulus (GPa) = 15.99385 60.24980 38.12183
# Shear Modulus (GPa) = 16.50106 11.43116 13.96611
#
# Velocity S-wave (km/s) = 3.23883 2.69574 2.97968
# Velocity P-wave (km/s) = 4.91470 6.92757 6.00606
#
# Compressibility (1/GPa) = 0.06252404
#
# Stress axis : x y z
#
# Youngs Moduli (GPa) = 11.70818 63.47168 94.73056
#
# Poissons Ratio (x) = 0.76007 0.58628
# Poissons Ratio (y) = 0.14020 0.60960
# Poissons Ratio (z) = 0.07246 0.40844
#
# Static dielectric constant tensor:
#      x y z
#    x 1.536740 0.000000 0.000000 
#    y 0.000000 1.517640 0.000000 
#    z 0.000000 0.000000 1.533630 
# 
# From -- ./inp_files/5684.got.cif
#   From: 2010.05.17/outbox.cif.g08.bks.cpg/sg25_3_cif.got.tgz:5684.got - 2010.06.04 01:04:00.
