data_PCOD9337462
_publ_section_title
;
Structure prediction by ZEFSAII (Michael W. Deem and Ramdas Pophale) SiO2 
 PCOD9337462
Probable space group: P M M 2
;
_chemical_formula_sum "Si O2"
_cell_formula_units_Z 32
_cell_length_a 7.427570
_cell_length_b 9.375066
_cell_length_c 21.527791
_cell_angle_alpha 90.000000
_cell_angle_beta 90.000000
_cell_angle_gamma 90.000000
_cell_volume 1499.065315
_symmetry_space_group_name_H-M "P M M 2"
_symmetry_group_IT_number 25
_symmetry_cell_setting 'orthorhombic'
loop_
_space_group_symop_operation_xyz
x,y,z
-x,-y,z
-x,y,z
x,-y,z
loop_
_atom_site_type_symbol
_atom_site_label
_atom_site_fract_x
_atom_site_fract_y
_atom_site_fract_z
Si Si1 0.216692 0.837152 0.400280
Si Si2 0.284687 0.661898 0.763581
Si Si3 0.208732 0.826290 0.265538
Si Si4 0.215467 0.838211 0.888288
Si Si5 0.220302 0.834604 0.130006
Si Si6 0.279528 0.835810 0.643078
Si Si7 0.220151 0.663978 0.008451
Si Si8 0.714285 0.339084 0.523619
O O1 0.285585 0.785445 0.332730
O O2 0.257823 0.736844 0.457817
O O3 0.000000 0.844128 0.394884
O O4 0.279970 0.000000 0.411593
O O5 0.500000 0.652602 0.756790
O O6 0.214834 0.500000 0.766777
O O7 0.250212 0.748722 0.826304
O O8 0.219181 0.748279 0.703501
O O9 0.284339 0.785211 0.198302
O O10 0.000000 0.779908 0.265151
O O11 0.210500 0.000000 0.265725
O O12 0.281555 0.754821 0.949106
O O13 0.000000 0.847387 0.894891
O O14 0.284934 0.000000 0.883826
O O15 0.000000 0.833609 0.131792
O O16 0.272448 0.000000 0.120499
O O17 0.276765 0.738011 0.072589
O O18 0.500000 0.836775 0.643190
O O19 0.218201 0.757601 0.580335
O O20 0.222102 0.000000 0.645268
O O21 0.276950 0.500000 0.004175
O O22 0.000000 0.664808 0.008160
O O23 0.500000 0.348863 0.532782
O O24 0.786667 0.500000 0.524623
#
# Coordination Sequence:
#
# PCOD9337462 Si02
#       8
#     4   4   4   4   4   4   4   4
#     4   9  17  30  48  70  96 125 157 194 236 281
#     4  10  20  34  53  76 100 125 153 188 233 283
#     4   7  11  21  38  60  86 116 149 186 229 275
#     4  10  20  33  49  70  97 129 163 197 233 274
#     4   8  12  20  36  57  82 114 151 188 227 274
#     4   9  17  31  52  74  94 119 154 195 234 272
#     4   9  16  25  38  59  89 122 154 191 235 279
#     4  10  20  33  49  70  96 125 157 193 233 278
#
# _framework density 21.346634000000002
#
# number of rings (size 3 to 8) (size 9 to 14) (size 15 to 20)
#    0.000    3.000    0.000    3.375    0.000    5.500 
#    0.000    1.250    0.000    6.000    0.000    0.875 
#    0.000    5.000    0.000    0.000    0.000    0.000 
#
# Total GULP energy -178601.092305 kJ/mol
# GULP energy per Si atom -5581.284135 kJ/mol
# Density = 2.129805 g / cm^3
# Si number density = 21.346634 Si / 1000 Ang^3
#
#
#
# Elastic Constant Matrix: (Units=GPa)
#
#
# Indices 1 2 3 4 5 6 
#
# 1 67.7401 7.4514 2.8120 0.0000 0.0000 0.0000
# 2 7.4514 192.1254 140.8028 0.0000 0.0000 0.0000
# 3 2.8120 140.8028 251.1050 0.0000 0.0000 0.0000
# 4 0.0000 0.0000 0.0000 78.1779 0.0000 0.0000
# 5 0.0000 0.0000 0.0000 0.0000 21.4822 0.0000
# 6 0.0000 0.0000 0.0000 0.0000 0.0000 6.0990
#
#
#
# Elastic Compliance Matrix: (Units=1/GPa)
#
#
# Indices 1 2 3 4 5 6 
#
# 1 0.014836 -0.000770 0.000266 0.000000 0.000000 0.000000
# 2 -0.000770 0.008876 -0.004968 0.000000 0.000000 0.000000
# 3 0.000266 -0.004968 0.006765 0.000000 0.000000 0.000000
# 4 0.000000 0.000000 0.000000 0.012791 0.000000 0.000000
# 5 0.000000 0.000000 0.000000 0.000000 0.046550 0.000000
# 6 0.000000 0.000000 0.000000 0.000000 0.000000 0.163961
#
#
# Mechanical properties :
#
#
# Convention : Reuss Voigt Hill
#
# Bulk Modulus (GPa) = 51.19896 90.34478 70.77187
# Shear Modulus (GPa) = 18.43413 45.14545 31.78979
#
# Velocity S-wave (km/s) = 2.94183 4.60377 3.86323
# Velocity P-wave (km/s) = 5.96454 8.40679 7.28869
#
# Compressibility (1/GPa) = 0.01953165
#
# Stress axis : x y z
#
# Youngs Moduli (GPa) = 67.40367 112.66294 147.81092
#
# Poissons Ratio (x) = 0.08676 -0.03927
# Poissons Ratio (y) = 0.05191 0.73439
# Poissons Ratio (z) = -0.01791 0.55976
#
# Static dielectric constant tensor:
#      x y z
#    x 1.859800 0.000000 0.000000 
#    y 0.000000 1.719010 0.000000 
#    z 0.000000 0.000000 1.754710 
# 
# From -- ./inp_files/6361.got.cif
#   From: 2010.05.17/outbox.cif.g08.bks.cpg/sg25_4_cif.got.tgz:6361.got - 2010.06.04 01:04:00.
