data_PCOD9337567
_publ_section_title
;
Structure prediction by ZEFSAII (Michael W. Deem and Ramdas Pophale) SiO2 
 PCOD9337567
Probable space group: P M M 2
;
_chemical_formula_sum "Si O2"
_cell_formula_units_Z 32
_cell_length_a 7.947067
_cell_length_b 9.436044
_cell_length_c 21.397080
_cell_angle_alpha 90.000000
_cell_angle_beta 90.000000
_cell_angle_gamma 90.000000
_cell_volume 1604.542934
_symmetry_space_group_name_H-M "P M M 2"
_symmetry_group_IT_number 25
_symmetry_cell_setting 'orthorhombic'
loop_
_space_group_symop_operation_xyz
x,y,z
-x,-y,z
-x,y,z
x,-y,z
loop_
_atom_site_type_symbol
_atom_site_label
_atom_site_fract_x
_atom_site_fract_y
_atom_site_fract_z
Si Si1 0.298651 0.337688 0.914430
Si Si2 0.297383 0.838132 0.277348
Si Si3 0.201101 0.338092 0.154922
Si Si4 0.705292 0.835241 0.519440
Si Si5 0.702761 0.837724 0.658189
Si Si6 0.702852 0.161334 0.032729
Si Si7 0.706175 0.336762 0.398401
Si Si8 0.199986 0.660248 0.778613
O O1 0.500000 0.345514 0.921329
O O2 0.232642 0.500000 0.918438
O O3 0.263041 0.280958 0.844948
O O4 0.233420 0.239932 0.970318
O O5 0.500000 0.845378 0.281667
O O6 0.255518 0.749081 0.215817
O O7 0.237524 0.755248 0.338989
O O8 0.234127 0.000000 0.274093
O O9 0.266812 0.500000 0.155828
O O10 0.256193 0.254729 0.093108
O O11 0.000000 0.344470 0.154850
O O12 0.500000 0.833345 0.518833
O O13 0.759339 0.788930 0.589060
O O14 0.761869 0.736992 0.462746
O O15 0.754208 0.000000 0.510366
O O16 0.500000 0.838743 0.656831
O O17 0.755650 0.746457 0.717067
O O18 0.760224 0.000000 0.665813
O O19 0.500000 0.153964 0.028378
O O20 0.765957 0.000000 0.038436
O O21 0.500000 0.336125 0.398324
O O22 0.759468 0.500000 0.393783
O O23 0.268993 0.500000 0.773216
O O24 0.000000 0.653384 0.782977
#
# Coordination Sequence:
#
# PCOD9337567 Si02
#       8
#     4   4   4   4   4   4   4   4
#     4   9  18  34  55  77 103 137 174 211 253 302
#     4  10  20  34  54  79 106 138 175 214 257 306
#     4  11  24  39  55  77 106 140 176 214 256 302
#     4   8  14  26  44  68  99 131 164 208 261 311
#     4   9  18  32  51  75 102 134 173 216 261 309
#     4  10  21  37  58  84 110 135 167 209 256 306
#     4   9  16  26  44  73 105 134 167 210 259 308
#     4  10  21  35  51  74 105 139 174 213 257 306
#
# _framework density 19.943373999999999
#
# number of rings (size 3 to 8) (size 9 to 14) (size 15 to 20)
#    0.000    2.500    0.000    3.000    0.000    8.000 
#    0.000    3.750    0.000    0.750    0.000    3.500 
#    0.000    0.000    0.000    0.000    0.000    0.000 
#
# Total GULP energy -178601.636806 kJ/mol
# GULP energy per Si atom -5581.301150 kJ/mol
# Density = 1.989798 g / cm^3
# Si number density = 19.943374 Si / 1000 Ang^3
#
#
#
# Elastic Constant Matrix: (Units=GPa)
#
#
# Indices 1 2 3 4 5 6 
#
# 1 15.6852 9.9843 5.9282 0.0000 0.0000 0.0000
# 2 9.9843 159.9238 128.8539 0.0000 0.0000 0.0000
# 3 5.9282 128.8539 225.6294 0.0000 0.0000 0.0000
# 4 0.0000 0.0000 0.0000 107.5916 0.0000 0.0000
# 5 0.0000 0.0000 0.0000 0.0000 -58.7934 0.0000
# 6 0.0000 0.0000 0.0000 0.0000 0.0000 10.8874
#
#
#
# Elastic Compliance Matrix: (Units=1/GPa)
#
#
# Indices 1 2 3 4 5 6 
#
# 1 0.066555 -0.005087 0.001156 0.000000 0.000000 0.000000
# 2 -0.005087 0.011971 -0.006703 0.000000 0.000000 0.000000
# 3 0.001156 -0.006703 0.008230 0.000000 0.000000 0.000000
# 4 0.000000 0.000000 0.000000 0.009294 0.000000 0.000000
# 5 0.000000 0.000000 0.000000 0.000000 -0.017009 0.000000
# 6 0.000000 0.000000 0.000000 0.000000 0.000000 0.091850
#
#
# Mechanical properties :
#
#
# Convention : Reuss Voigt Hill
#
# Bulk Modulus (GPa) = 15.26971 76.75237 46.01104
# Shear Modulus (GPa) = 23.36578 29.03525 26.20052
#
# Velocity S-wave (km/s) = 3.42659 3.81975 3.62849
# Velocity P-wave (km/s) = 4.82996 7.61726 6.37774
#
# Compressibility (1/GPa) = 0.06548914
#
# Stress axis : x y z
#
# Youngs Moduli (GPa) = 15.02513 83.53319 121.51184
#
# Poissons Ratio (x) = 0.42492 -0.14051
# Poissons Ratio (y) = 0.07643 0.81449
# Poissons Ratio (z) = -0.01737 0.55992
#
# Static dielectric constant tensor:
#      x y z
#    x 1.715160 0.000000 0.000000 
#    y 0.000000 1.684990 0.000000 
#    z 0.000000 0.000000 1.679760 
# 
# From -- ./inp_files/6583.got.cif
#   From: 2010.05.17/outbox.cif.g08.bks.cpg/sg25_4_cif.got.tgz:6583.got - 2010.06.04 01:04:00.
