data_PCOD9337465
_publ_section_title
;
Structure prediction by ZEFSAII (Michael W. Deem and Ramdas Pophale) SiO2 
 PCOD9337465
Probable space group: P M M 2
;
_chemical_formula_sum "Si O2"
_cell_formula_units_Z 32
_cell_length_a 7.404866
_cell_length_b 9.467314
_cell_length_c 21.413399
_cell_angle_alpha 90.000000
_cell_angle_beta 90.000000
_cell_angle_gamma 90.000000
_cell_volume 1501.169025
_symmetry_space_group_name_H-M "P M M 2"
_symmetry_group_IT_number 25
_symmetry_cell_setting 'orthorhombic'
loop_
_space_group_symop_operation_xyz
x,y,z
-x,-y,z
-x,y,z
x,-y,z
loop_
_atom_site_type_symbol
_atom_site_label
_atom_site_fract_x
_atom_site_fract_y
_atom_site_fract_z
Si Si1 0.219945 0.163825 0.314700
Si Si2 0.779069 0.337310 0.194128
Si Si3 0.284119 0.339289 0.949761
Si Si4 0.715142 0.661489 0.710726
Si Si5 0.779875 0.836750 0.453661
Si Si6 0.784065 0.839334 0.074277
Si Si7 0.278862 0.837316 0.829737
Si Si8 0.783646 0.339610 0.571597
O O1 0.278997 0.262756 0.258286
O O2 0.276199 0.210708 0.384239
O O3 0.000000 0.164189 0.314221
O O4 0.274045 0.000000 0.305540
O O5 0.722211 0.500000 0.189744
O O6 0.717979 0.245518 0.134888
O O7 0.000000 0.337189 0.193855
O O8 0.500000 0.349030 0.942913
O O9 0.214482 0.500000 0.953610
O O10 0.218421 0.253569 0.889362
O O11 0.249967 0.250405 0.012138
O O12 0.500000 0.652025 0.718718
O O13 0.786428 0.500000 0.714312
O O14 0.781504 0.760750 0.766202
O O15 0.747002 0.718006 0.640871
O O16 0.715425 0.747812 0.512628
O O17 0.000000 0.832740 0.454041
O O18 0.727617 0.000000 0.460375
O O19 0.000000 0.849020 0.081154
O O20 0.714585 0.000000 0.070011
O O21 0.500000 0.838202 0.829987
O O22 0.221546 0.000000 0.833523
O O23 0.713915 0.500000 0.570268
O O24 0.000000 0.345407 0.565658
#
# Coordination Sequence:
#
# PCOD9337465 Si02
#       8
#     4   4   4   4   4   4   4   4
#     4   8  13  22  36  55  81 113 148 184 222 265
#     4   9  16  25  39  61  89 120 153 189 229 272
#     4  10  20  34  53  75  97 123 156 193 233 278
#     4   9  17  30  47  65  86 114 147 181 219 265
#     4   8  14  24  38  57  83 115 147 179 219 266
#     4  10  20  33  49  70  98 130 160 192 233 279
#     4   9  17  30  49  71  92 115 148 190 229 265
#     4   9  17  28  42  62  88 115 143 178 220 264
#
# _framework density 21.316718000000002
#
# number of rings (size 3 to 8) (size 9 to 14) (size 15 to 20)
#    0.000    3.000    0.000    2.250    0.000    5.500 
#    0.000    3.125    0.000    2.250    0.000    0.875 
#    0.000    3.000    0.000    0.000    0.000    0.000 
#
# Total GULP energy -178649.543209 kJ/mol
# GULP energy per Si atom -5582.798225 kJ/mol
# Density = 2.126820 g / cm^3
# Si number density = 21.316718 Si / 1000 Ang^3
#
#
#
# Elastic Constant Matrix: (Units=GPa)
#
#
# Indices 1 2 3 4 5 6 
#
# 1 71.3924 6.5156 1.3298 0.0000 0.0000 0.0000
# 2 6.5156 177.3567 148.2958 0.0000 0.0000 0.0000
# 3 1.3298 148.2958 255.0245 0.0000 0.0000 0.0000
# 4 0.0000 0.0000 0.0000 43.3029 0.0000 0.0000
# 5 0.0000 0.0000 0.0000 0.0000 20.1816 0.0000
# 6 0.0000 0.0000 0.0000 0.0000 0.0000 -4.1933
#
#
#
# Elastic Compliance Matrix: (Units=1/GPa)
#
#
# Indices 1 2 3 4 5 6 
#
# 1 0.014080 -0.000887 0.000443 0.000000 0.000000 0.000000
# 2 -0.000887 0.011030 -0.006409 0.000000 0.000000 0.000000
# 3 0.000443 -0.006409 0.007646 0.000000 0.000000 0.000000
# 4 0.000000 0.000000 0.000000 0.023093 0.000000 0.000000
# 5 0.000000 0.000000 0.000000 0.000000 0.049550 0.000000
# 6 0.000000 0.000000 0.000000 0.000000 0.000000 -0.238475
#
#
# Mechanical properties :
#
#
# Convention : Reuss Voigt Hill
#
# Bulk Modulus (GPa) = 52.49991 90.67288 71.58639
# Shear Modulus (GPa) = -44.24033 35.03375 -4.60329
#
# Velocity S-wave (km/s) = -4.56058 4.05839 -1.47111
# Velocity P-wave (km/s) = 1.74638 8.03674 5.54704
#
# Compressibility (1/GPa) = 0.01904765
#
# Stress axis : x y z
#
# Youngs Moduli (GPa) = 71.02361 90.66134 130.78951
#
# Poissons Ratio (x) = 0.08044 -0.05788
# Poissons Ratio (y) = 0.06302 0.83827
# Poissons Ratio (z) = -0.03143 0.58108
#
# Static dielectric constant tensor:
#      x y z
#    x 1.848220 0.000000 0.000000 
#    y 0.000000 1.731350 0.000000 
#    z 0.000000 0.000000 1.736930 
# 
# From -- ./inp_files/6286.got.cif
#   From: 2010.05.17/outbox.cif.g08.bks.cpg/sg25_4_cif.got.tgz:6286.got - 2010.06.04 01:04:00.
