data_PCOD9337671
_publ_section_title
;
Structure prediction by ZEFSAII (Michael W. Deem and Ramdas Pophale) SiO2 
 PCOD9337671
Probable space group: P M M 2
;
_chemical_formula_sum "Si O2"
_cell_formula_units_Z 20
_cell_length_a 13.485436
_cell_length_b 7.688184
_cell_length_c 10.106721
_cell_angle_alpha 90.000000
_cell_angle_beta 90.000000
_cell_angle_gamma 90.000000
_cell_volume 1047.849807
_symmetry_space_group_name_H-M "P M M 2"
_symmetry_group_IT_number 25
_symmetry_cell_setting 'orthorhombic'
loop_
_space_group_symop_operation_xyz
x,y,z
-x,-y,z
-x,y,z
x,-y,z
loop_
_atom_site_type_symbol
_atom_site_label
_atom_site_fract_x
_atom_site_fract_y
_atom_site_fract_z
Si Si1 0.388615 0.292577 0.800150
Si Si2 0.785849 0.791969 0.000544
Si Si3 0.000000 0.799155 0.985202
Si Si4 0.782984 0.214288 0.303226
Si Si5 0.000000 0.798936 0.307265
Si Si6 0.611303 0.207389 0.497049
O O1 0.500000 0.225252 0.831220
O O2 0.393099 0.500000 0.800738
O O3 0.305154 0.240111 0.903937
O O4 0.363926 0.236262 0.650791
O O5 0.892638 0.721499 0.950023
O O6 0.799000 0.000000 0.010739
O O7 0.766616 0.731206 0.150829
O O8 0.000000 0.000000 0.937991
O O9 0.000000 0.800306 0.146305
O O10 0.893094 0.275075 0.345994
O O11 0.695767 0.274622 0.399166
O O12 0.784906 0.000000 0.305067
O O13 0.000000 0.000000 0.351359
O O14 0.500000 0.278080 0.474102
O O15 0.606706 0.000000 0.475923
#
# Coordination Sequence:
#
# PCOD9337671 Si02
#       6
#     4   4   2   4   2   4
#     4  10  21  35  47  62  90 127 162 194 230 272
#     4   9  16  29  51  75  96 119 150 188 229 273
#     4   7  12  24  44  71  98 120 144 179 224 273
#     4   8  14  25  45  72  95 114 142 183 226 269
#     4   7  10  20  39  65  96 120 136 167 222 275
#     4   9  17  30  47  66  89 118 152 189 229 272
#
# _framework density 19.086704999999998
#
# number of rings (size 3 to 8) (size 9 to 14) (size 15 to 20)
#    0.000    3.400    0.000    3.000    0.000    2.000 
#    0.000    4.500    0.000    6.000    0.000    1.400 
#    0.000    0.000    0.000    0.000    0.000    0.000 
#
# Total GULP energy -111352.125719 kJ/mol
# GULP energy per Si atom -5567.606286 kJ/mol
# Density = 1.904326 g / cm^3
# Si number density = 19.086705 Si / 1000 Ang^3
#
#
#
# Elastic Constant Matrix: (Units=GPa)
#
#
# Indices 1 2 3 4 5 6 
#
# 1 212.9795 5.6328 122.4729 0.0000 0.0000 0.0000
# 2 5.6328 30.5967 -0.0204 0.0000 0.0000 0.0000
# 3 122.4729 -0.0204 93.8622 0.0000 0.0000 0.0000
# 4 0.0000 0.0000 0.0000 -292.2504 0.0000 0.0000
# 5 0.0000 0.0000 0.0000 0.0000 -6.9669 0.0000
# 6 0.0000 0.0000 0.0000 0.0000 0.0000 -7.9888
#
#
#
# Elastic Compliance Matrix: (Units=1/GPa)
#
#
# Indices 1 2 3 4 5 6 
#
# 1 0.019184 -0.003548 -0.025032 0.000000 0.000000 0.000000
# 2 -0.003548 0.033340 0.004637 0.000000 0.000000 0.000000
# 3 -0.025032 0.004637 0.043317 0.000000 0.000000 0.000000
# 4 0.000000 0.000000 0.000000 -0.003422 0.000000 0.000000
# 5 0.000000 0.000000 0.000000 0.000000 -0.143536 0.000000
# 6 0.000000 0.000000 0.000000 0.000000 0.000000 -0.125175
#
#
# Mechanical properties :
#
#
# Convention : Reuss Voigt Hill
#
# Bulk Modulus (GPa) = 20.85325 65.95656 43.40490
# Shear Modulus (GPa) = -44.47550 -47.48437 -45.97993
#
# Velocity S-wave (km/s) = -4.83243 -4.99322 -4.91348
# Velocity P-wave (km/s) = 4.49303 1.17826 3.06586
#
# Compressibility (1/GPa) = 0.04795416
#
# Stress axis : x y z
#
# Youngs Moduli (GPa) = 52.12797 29.99433 23.08571
#
# Poissons Ratio (x) = 0.10643 0.57788
# Poissons Ratio (y) = 0.18497 -0.10705
# Poissons Ratio (z) = 1.30486 -0.13909
#
# Static dielectric constant tensor:
#      x y z
#    x 1.709600 0.000000 0.000000 
#    y 0.000000 1.700000 0.000000 
#    z 0.000000 0.000000 1.619190 
# 
# From -- ./inp_files/2996.got.cif
#   From: 2010.05.17/outbox.cif.g08.bks.cpg/sg25_2_cif.got.tgz:2996.got - 2010.06.04 01:04:00.
