data_PCOD9337406
_publ_section_title
;
Structure prediction by ZEFSAII (Michael W. Deem and Ramdas Pophale) SiO2 
 PCOD9337406
Probable space group: P M M 2
;
_chemical_formula_sum "Si O2"
_cell_formula_units_Z 32
_cell_length_a 7.482992
_cell_length_b 9.875861
_cell_length_c 21.560447
_cell_angle_alpha 90.000000
_cell_angle_beta 90.000000
_cell_angle_gamma 90.000000
_cell_volume 1593.338353
_symmetry_space_group_name_H-M "P M M 2"
_symmetry_group_IT_number 25
_symmetry_cell_setting 'orthorhombic'
loop_
_space_group_symop_operation_xyz
x,y,z
-x,-y,z
-x,y,z
x,-y,z
loop_
_atom_site_type_symbol
_atom_site_label
_atom_site_fract_x
_atom_site_fract_y
_atom_site_fract_z
Si Si1 0.206437 0.335352 0.330820
Si Si2 0.217757 0.157175 0.082723
Si Si3 0.718206 0.343625 0.692574
Si Si4 0.215384 0.345315 0.466161
Si Si5 0.713217 0.153587 0.582018
Si Si6 0.713626 0.651947 0.831473
Si Si7 0.219158 0.343203 0.195644
Si Si8 0.213640 0.847244 0.945370
O O1 0.205454 0.500000 0.329950
O O2 0.284169 0.300385 0.398087
O O3 0.282033 0.295229 0.263881
O O4 0.000000 0.289171 0.331094
O O5 0.279198 0.251043 0.138790
O O6 0.000000 0.161791 0.083856
O O7 0.268264 0.000000 0.090929
O O8 0.276582 0.200200 0.013491
O O9 0.500000 0.342213 0.691237
O O10 0.770841 0.500000 0.680404
O O11 0.782707 0.240555 0.640302
O O12 0.776066 0.306778 0.762566
O O13 0.277158 0.500000 0.479481
O O14 0.257810 0.240983 0.520166
O O15 0.000000 0.352363 0.461279
O O16 0.500000 0.143756 0.590352
O O17 0.783191 0.000000 0.578278
O O18 0.500000 0.643791 0.826608
O O19 0.781348 0.500000 0.844205
O O20 0.750407 0.751520 0.887687
O O21 0.270530 0.500000 0.186892
O O22 0.000000 0.341121 0.197345
O O23 0.000000 0.855884 0.950415
O O24 0.281629 0.000000 0.934816
#
# Coordination Sequence:
#
# PCOD9337406 Si02
#       8
#     4   4   4   4   4   4   4   4
#     4   7  11  21  37  58  84 111 140 177 218 258
#     4   8  14  24  36  53  82 116 146 178 214 252
#     4   8  15  30  50  68  87 113 146 184 223 263
#     4   9  17  30  48  68  91 121 153 183 220 267
#     4  10  20  32  47  69  94 118 147 184 223 263
#     4   9  18  32  50  72  93 112 142 186 229 267
#     4   8  12  19  34  56  80 107 141 179 217 257
#     4   9  18  31  45  64  93 126 155 182 216 262
#
# _framework density 20.083618999999999
#
# number of rings (size 3 to 8) (size 9 to 14) (size 15 to 20)
#    0.000    3.500    0.000    3.375    0.000    2.500 
#    0.000    3.750    0.000    3.000    0.000    0.875 
#    0.000    1.000    0.000    0.000    0.000    0.000 
#
# Total GULP energy -178291.764520 kJ/mol
# GULP energy per Si atom -5571.617641 kJ/mol
# Density = 2.003791 g / cm^3
# Si number density = 20.083619 Si / 1000 Ang^3
#
#
#
# Elastic Constant Matrix: (Units=GPa)
#
#
# Indices 1 2 3 4 5 6 
#
# 1 54.4197 4.4271 5.9169 0.0000 0.0000 0.0000
# 2 4.4271 116.5182 136.8100 0.0000 0.0000 0.0000
# 3 5.9169 136.8100 248.0201 0.0000 0.0000 0.0000
# 4 0.0000 0.0000 0.0000 -32.3293 0.0000 0.0000
# 5 0.0000 0.0000 0.0000 0.0000 21.6086 0.0000
# 6 0.0000 0.0000 0.0000 0.0000 0.0000 8.5535
#
#
#
# Elastic Compliance Matrix: (Units=1/GPa)
#
#
# Indices 1 2 3 4 5 6 
#
# 1 0.018435 -0.000522 -0.000152 0.000000 0.000000 0.000000
# 2 -0.000522 0.024374 -0.013432 0.000000 0.000000 0.000000
# 3 -0.000152 -0.013432 0.011445 0.000000 0.000000 0.000000
# 4 0.000000 0.000000 0.000000 -0.030932 0.000000 0.000000
# 5 0.000000 0.000000 0.000000 0.000000 0.046278 0.000000
# 6 0.000000 0.000000 0.000000 0.000000 0.000000 0.116912
#
#
# Mechanical properties :
#
#
# Convention : Reuss Voigt Hill
#
# Bulk Modulus (GPa) = 38.40138 79.25178 58.82658
# Shear Modulus (GPa) = 22.38097 17.68683 20.03390
#
# Velocity S-wave (km/s) = 3.34187 2.97081 3.16179
# Velocity P-wave (km/s) = 5.83550 7.16339 6.53327
#
# Compressibility (1/GPa) = 0.02604073
#
# Stress axis : x y z
#
# Youngs Moduli (GPa) = 54.24557 41.02766 87.37486
#
# Poissons Ratio (x) = 0.02143 0.01325
# Poissons Ratio (y) = 0.02834 1.17365
# Poissons Ratio (z) = 0.00823 0.55110
#
# Static dielectric constant tensor:
#      x y z
#    x 1.797890 0.000000 0.000000 
#    y 0.000000 1.682990 0.000000 
#    z 0.000000 0.000000 1.730220 
# 
# From -- ./inp_files/6540.got.cif
#   From: 2010.05.17/outbox.cif.g08.bks.cpg/sg25_4_cif.got.tgz:6540.got - 2010.06.04 01:04:00.
