data_PCOD9337783
_publ_section_title
;
Structure prediction by ZEFSAII (Michael W. Deem and Ramdas Pophale) SiO2 
 PCOD9337783
Probable space group: P M M 2
;
_chemical_formula_sum "Si O2"
_cell_formula_units_Z 32
_cell_length_a 8.328810
_cell_length_b 15.972173
_cell_length_c 12.209347
_cell_angle_alpha 90.000000
_cell_angle_beta 90.000000
_cell_angle_gamma 90.000000
_cell_volume 1624.199593
_symmetry_space_group_name_H-M "P M M 2"
_symmetry_group_IT_number 25
_symmetry_cell_setting 'orthorhombic'
loop_
_space_group_symop_operation_xyz
x,y,z
-x,-y,z
-x,y,z
x,-y,z
loop_
_atom_site_type_symbol
_atom_site_label
_atom_site_fract_x
_atom_site_fract_y
_atom_site_fract_z
Si Si1 0.308026 0.664970 0.459940
Si Si2 0.188636 0.145707 0.466990
Si Si3 0.805716 0.406112 0.687157
Si Si4 0.306726 0.248873 0.082407
Si Si5 0.305749 0.093109 0.228477
Si Si6 0.309817 0.907033 0.699797
Si Si7 0.304259 0.593697 0.223421
Si Si8 0.809363 0.251213 0.835059
O O1 0.500000 0.678425 0.457134
O O2 0.224730 0.755191 0.466789
O O3 0.262139 0.612674 0.566821
O O4 0.261044 0.619234 0.347423
O O5 0.247519 0.109702 0.351624
O O6 0.277080 0.106466 0.571195
O O7 0.000000 0.130924 0.479796
O O8 0.761110 0.500000 0.722482
O O9 0.749444 0.332793 0.768495
O O10 0.000000 0.401785 0.681008
O O11 0.500000 0.248806 0.090795
O O12 0.248372 0.167552 0.149495
O O13 0.248204 0.333614 0.141658
O O14 0.261570 0.246041 0.956004
O O15 0.500000 0.095515 0.229566
O O16 0.255746 0.000000 0.192885
O O17 0.500000 0.902833 0.719406
O O18 0.230075 0.831656 0.765883
O O19 0.252265 0.000000 0.731542
O O20 0.500000 0.592770 0.219585
O O21 0.248123 0.500000 0.197228
O O22 0.000000 0.259051 0.844649
#
# Coordination Sequence:
#
# PCOD9337783 Si02
#       8
#     4   4   4   4   4   4   4   4
#     4  11  20  35  61  90 121 157 199 244 294 354
#     4  12  23  36  59  91 126 159 191 236 300 362
#     4  10  22  40  60  86 123 162 198 243 302 361
#     4  10  21  39  60  84 116 156 202 250 295 345
#     4  10  21  39  62  87 116 154 199 244 293 350
#     4  11  24  42  65  91 119 155 199 246 297 356
#     4   9  18  34  58  88 119 150 191 245 296 342
#     4  11  24  41  61  87 120 160 202 249 300 353
#
# _framework density 19.702013000000001
#
# number of rings (size 3 to 8) (size 9 to 14) (size 15 to 20)
#    0.000    1.500    2.500    3.000    0.000    5.500 
#    0.000    1.250    0.000    1.500    0.000    0.000 
#    0.000    0.000    0.000    0.000    0.000    0.000 
#
# Total GULP energy -178853.537856 kJ/mol
# GULP energy per Si atom -5589.173058 kJ/mol
# Density = 1.965717 g / cm^3
# Si number density = 19.702013 Si / 1000 Ang^3
#
#
#
# Elastic Constant Matrix: (Units=GPa)
#
#
# Indices 1 2 3 4 5 6 
#
# 1 6.2439 4.4667 -3.3461 0.0000 0.0000 0.0000
# 2 4.4667 159.0107 58.0857 0.0000 0.0000 0.0000
# 3 -3.3461 58.0857 124.6615 0.0000 0.0000 0.0000
# 4 0.0000 0.0000 0.0000 1.2222 0.0000 0.0000
# 5 0.0000 0.0000 0.0000 0.0000 1486.4910 0.0000
# 6 0.0000 0.0000 0.0000 0.0000 0.0000 36.2785
#
#
#
# Elastic Compliance Matrix: (Units=1/GPa)
#
#
# Indices 1 2 3 4 5 6 
#
# 1 0.170099 -0.007768 0.008185 0.000000 0.000000 0.000000
# 2 -0.007768 0.007934 -0.003905 0.000000 0.000000 0.000000
# 3 0.008185 -0.003905 0.010061 0.000000 0.000000 0.000000
# 4 0.000000 0.000000 0.000000 0.818202 0.000000 0.000000
# 5 0.000000 0.000000 0.000000 0.000000 0.000673 0.000000
# 6 0.000000 0.000000 0.000000 0.000000 0.000000 0.027565
#
#
# Mechanical properties :
#
#
# Convention : Reuss Voigt Hill
#
# Bulk Modulus (GPa) = 5.52127 45.36986 25.44557
# Shear Modulus (GPa) = 4.53769 320.17898 162.35834
#
# Velocity S-wave (km/s) = 1.51926 12.76180 9.08768
# Velocity P-wave (km/s) = 2.42611 15.49934 11.09314
#
# Compressibility (1/GPa) = 0.18111761
#
# Stress axis : x y z
#
# Youngs Moduli (GPa) = 5.87892 126.04563 99.39344
#
# Poissons Ratio (x) = 0.97915 -0.81356
# Poissons Ratio (y) = 0.04567 0.38815
# Poissons Ratio (z) = -0.04812 0.49223
#
# Static dielectric constant tensor:
#      x y z
#    x 1.626210 0.000000 0.000000 
#    y 0.000000 1.706840 0.000000 
#    z 0.000000 0.000000 1.645120 
# 
# From -- ./inp_files/4187.got.cif
#   From: 2010.05.17/outbox.cif.g08.bks.cpg/sg25_3_cif.got.tgz:4187.got - 2010.06.04 01:04:00.
