data_PCOD9337459
_publ_section_title
;
Structure prediction by ZEFSAII (Michael W. Deem and Ramdas Pophale) SiO2 
 PCOD9337459
Probable space group: P M M 2
;
_chemical_formula_sum "Si O2"
_cell_formula_units_Z 32
_cell_length_a 9.507632
_cell_length_b 7.445568
_cell_length_c 21.894996
_cell_angle_alpha 90.000000
_cell_angle_beta 90.000000
_cell_angle_gamma 90.000000
_cell_volume 1549.940649
_symmetry_space_group_name_H-M "P M M 2"
_symmetry_group_IT_number 25
_symmetry_cell_setting 'orthorhombic'
loop_
_space_group_symop_operation_xyz
x,y,z
-x,-y,z
-x,y,z
x,-y,z
loop_
_atom_site_type_symbol
_atom_site_label
_atom_site_fract_x
_atom_site_fract_y
_atom_site_fract_z
Si Si1 0.828730 0.791097 0.837320
Si Si2 0.662729 0.784431 0.454761
Si Si3 0.339488 0.287397 0.320878
Si Si4 0.160707 0.216293 0.970144
Si Si5 0.161725 0.279794 0.205448
Si Si6 0.658883 0.286241 0.089622
Si Si7 0.163183 0.779967 0.704569
Si Si8 0.335888 0.781106 0.587418
O O1 0.784850 0.716695 0.771396
O O2 0.000000 0.787485 0.836767
O O3 0.784904 0.000000 0.837296
O O4 0.789425 0.714942 0.903534
O O5 0.500000 0.721359 0.453037
O O6 0.723204 0.735919 0.388863
O O7 0.720575 0.723835 0.520506
O O8 0.660809 0.000000 0.456673
O O9 0.500000 0.213685 0.319397
O O10 0.351581 0.500000 0.311073
O O11 0.242434 0.218872 0.266436
O O12 0.262117 0.258287 0.025807
O O13 0.000000 0.278997 0.981658
O O14 0.153822 0.000000 0.965117
O O15 0.160515 0.500000 0.205390
O O16 0.247122 0.218749 0.145802
O O17 0.000000 0.222300 0.203834
O O18 0.500000 0.214149 0.089393
O O19 0.648758 0.500000 0.098569
O O20 0.251303 0.719091 0.646379
O O21 0.000000 0.729545 0.697675
O O22 0.167036 0.000000 0.705988
O O23 0.500000 0.730962 0.591375
O O24 0.331244 0.000000 0.588266
#
# Coordination Sequence:
#
# PCOD9337459 Si02
#       8
#     4   4   4   4   4   4   4   4
#     4   7  11  21  37  57  82 111 140 171 210 254
#     4   8  14  25  40  58  83 113 138 163 204 254
#     4   9  16  27  45  66  83 102 135 176 210 245
#     4   9  17  30  48  69  93 120 149 183 224 268
#     4   9  17  30  48  67  86 110 141 177 216 256
#     4  10  20  33  49  69  92 118 149 184 220 261
#     4   8  12  19  33  53  77 105 136 169 205 244
#     4   8  13  21  33  50  74 104 136 168 201 239
#
# _framework density 20.645952000000001
#
# number of rings (size 3 to 8) (size 9 to 14) (size 15 to 20)
#    0.000    3.500    0.000    3.000    0.000    2.500 
#    0.000    1.875    0.000    5.625    0.000    0.875 
#    0.000    3.000    0.000    0.000    0.000    0.000 
#
# Total GULP energy -178274.474808 kJ/mol
# GULP energy per Si atom -5571.077338 kJ/mol
# Density = 2.059896 g / cm^3
# Si number density = 20.645952 Si / 1000 Ang^3
#
#
#
# Elastic Constant Matrix: (Units=GPa)
#
#
# Indices 1 2 3 4 5 6 
#
# 1 98.8380 4.9942 110.0479 0.0000 0.0000 0.0000
# 2 4.9942 61.0401 4.0700 0.0000 0.0000 0.0000
# 3 110.0479 4.0700 265.1864 0.0000 0.0000 0.0000
# 4 0.0000 0.0000 0.0000 20.2362 0.0000 0.0000
# 5 0.0000 0.0000 0.0000 0.0000 35.4553 0.0000
# 6 0.0000 0.0000 0.0000 0.0000 0.0000 -0.9905
#
#
#
# Elastic Compliance Matrix: (Units=1/GPa)
#
#
# Indices 1 2 3 4 5 6 
#
# 1 0.018871 -0.001023 -0.007816 0.000000 0.000000 0.000000
# 2 -0.001023 0.016455 0.000172 0.000000 0.000000 0.000000
# 3 -0.007816 0.000172 0.007012 0.000000 0.000000 0.000000
# 4 0.000000 0.000000 0.000000 0.049417 0.000000 0.000000
# 5 0.000000 0.000000 0.000000 0.000000 0.028205 0.000000
# 6 0.000000 0.000000 0.000000 0.000000 0.000000 -1.009593
#
#
# Mechanical properties :
#
#
# Convention : Reuss Voigt Hill
#
# Bulk Modulus (GPa) = 39.99245 73.69874 56.84560
# Shear Modulus (GPa) = -5.78726 31.33703 12.77489
#
# Velocity S-wave (km/s) = -1.67606 3.90016 2.49019
# Velocity P-wave (km/s) = 3.95817 7.48703 5.98843
#
# Compressibility (1/GPa) = 0.02500472
#
# Stress axis : x y z
#
# Youngs Moduli (GPa) = 52.99086 60.77221 142.62077
#
# Poissons Ratio (x) = 0.06216 1.11466
# Poissons Ratio (y) = 0.05420 -0.02452
# Poissons Ratio (z) = 0.41415 -0.01045
#
# Static dielectric constant tensor:
#      x y z
#    x 1.696630 0.000000 0.000000 
#    y 0.000000 1.813660 0.000000 
#    z 0.000000 0.000000 1.770240 
# 
# From -- ./inp_files/6303.got.cif
#   From: 2010.05.17/outbox.cif.g08.bks.cpg/sg25_4_cif.got.tgz:6303.got - 2010.06.04 01:04:00.
