data_PCOD9337326
_publ_section_title
;
Structure prediction by ZEFSAII (Michael W. Deem and Ramdas Pophale) SiO2 
 PCOD9337326
Probable space group: P M M 2
;
_chemical_formula_sum "Si O2"
_cell_formula_units_Z 26
_cell_length_a 16.194434
_cell_length_b 7.174687
_cell_length_c 9.935700
_cell_angle_alpha 90.000000
_cell_angle_beta 90.000000
_cell_angle_gamma 90.000000
_cell_volume 1154.428934
_symmetry_space_group_name_H-M "P M M 2"
_symmetry_group_IT_number 25
_symmetry_cell_setting 'orthorhombic'
loop_
_space_group_symop_operation_xyz
x,y,z
-x,-y,z
-x,y,z
x,-y,z
loop_
_atom_site_type_symbol
_atom_site_label
_atom_site_fract_x
_atom_site_fract_y
_atom_site_fract_z
Si Si1 0.367932 0.224316 0.000000
Si Si2 0.861063 0.776833 0.316028
Si Si3 0.825042 0.225213 0.015729
Si Si4 0.590284 0.774460 0.690994
Si Si5 0.754759 0.775401 0.549159
Si Si6 0.500000 0.500000 0.110261
Si Si7 0.093184 0.226652 0.738105
Si Si8 0.000000 0.500000 0.408398
O O1 0.271212 0.276290 0.006170
O O2 0.427178 0.337618 0.097591
O O3 0.374338 0.000000 0.018575
O O4 0.397582 0.270547 0.848075
O O5 0.859673 0.719983 0.160571
O O6 0.775751 0.736850 0.394369
O O7 0.929264 0.662352 0.393304
O O8 0.875575 0.000000 0.324061
O O9 0.826163 0.000000 0.012502
O O10 0.879509 0.283937 0.888423
O O11 0.500000 0.711272 0.645762
O O12 0.668113 0.707438 0.605830
O O13 0.590714 0.000000 0.684344
O O14 0.832166 0.714458 0.641152
O O15 0.753207 0.000000 0.562843
O O16 0.000000 0.290983 0.704196
O O17 0.090985 0.000000 0.734028
#
# Coordination Sequence:
#
# PCOD9337326 Si02
#       8
#     4   4   4   4   4   1   4   1
#     4  10  19  34  55  84 120 152 191 245 303 357
#     4  10  23  41  64  89 117 158 209 248 292 365
#     4   9  18  35  59  86 119 159 199 247 302 356
#     4   9  15  28  55  85 116 153 193 240 299 356
#     4   9  17  32  56  88 119 154 197 246 299 355
#     4  12  22  30  54  90 116 150 196 246 296 358
#     4   9  16  26  50  87 121 152 190 240 301 353
#     4  12  26  42  62  88 122 162 200 248 306 350
#
# _framework density 22.521955999999999
#
# number of rings (size 3 to 8) (size 9 to 14) (size 15 to 20)
#    0.000    2.462    2.308    0.462    2.154    0.615 
#    0.000    0.769    1.692    0.923    0.000    0.000 
#    0.000    0.000    0.000    0.000    0.000    0.000 
#
# Total GULP energy -144754.556309 kJ/mol
# GULP energy per Si atom -5567.482935 kJ/mol
# Density = 2.247070 g / cm^3
# Si number density = 22.521956 Si / 1000 Ang^3
#
#
#
# Elastic Constant Matrix: (Units=GPa)
#
#
# Indices 1 2 3 4 5 6 
#
# 1 137.6536 7.6408 18.2765 0.0000 0.0000 0.0000
# 2 7.6408 126.4022 -2.3782 0.0000 0.0000 0.0000
# 3 18.2765 -2.3782 71.4910 0.0000 0.0000 0.0000
# 4 0.0000 0.0000 0.0000 -34.7145 0.0000 0.0000
# 5 0.0000 0.0000 0.0000 0.0000 -5.9771 0.0000
# 6 0.0000 0.0000 0.0000 0.0000 0.0000 30.8621
#
#
#
# Elastic Compliance Matrix: (Units=1/GPa)
#
#
# Indices 1 2 3 4 5 6 
#
# 1 0.007550 -0.000493 -0.001947 0.000000 0.000000 0.000000
# 2 -0.000493 0.007948 0.000390 0.000000 0.000000 0.000000
# 3 -0.001947 0.000390 0.014498 0.000000 0.000000 0.000000
# 4 0.000000 0.000000 0.000000 -0.028806 0.000000 0.000000
# 5 0.000000 0.000000 0.000000 0.000000 -0.167304 0.000000
# 6 0.000000 0.000000 0.000000 0.000000 0.000000 0.032402
#
#
# Mechanical properties :
#
#
# Convention : Reuss Voigt Hill
#
# Bulk Modulus (GPa) = 38.61184 42.51389 40.56287
# Shear Modulus (GPa) = -41.32923 18.83460 -11.24732
#
# Velocity S-wave (km/s) = -4.28841 2.89498 -2.23714
# Velocity P-wave (km/s) = 2.70912 5.48563 3.37290
#
# Compressibility (1/GPa) = 0.02589879
#
# Stress axis : x y z
#
# Youngs Moduli (GPa) = 132.44256 125.81136 68.97304
#
# Poissons Ratio (x) = 0.06203 0.13427
# Poissons Ratio (y) = 0.06530 -0.02693
# Poissons Ratio (z) = 0.25782 -0.04912
#
# Static dielectric constant tensor:
#      x y z
#    x 1.815220 0.000000 0.000000 
#    y 0.000000 1.880170 0.000000 
#    z 0.000000 0.000000 1.827460 
# 
# From -- ./inp_files/4837.got.cif
#   From: 2010.05.17/outbox.cif.g08.bks.cpg/sg25_3_cif.got.tgz:4837.got - 2010.06.04 01:04:00.
