data_PCOD9337881
_publ_section_title
;
Structure prediction by ZEFSAII (Michael W. Deem and Ramdas Pophale) SiO2 
 PCOD9337881
Probable space group: P M C 21
;
_chemical_formula_sum "Si O2"
_cell_formula_units_Z 26
_cell_length_a 32.833971
_cell_length_b 6.607710
_cell_length_c 5.140444
_cell_angle_alpha 90.000000
_cell_angle_beta 90.000000
_cell_angle_gamma 90.000000
_cell_volume 1115.257152
_symmetry_space_group_name_H-M "P M C 21"
_symmetry_group_IT_number 26
_symmetry_cell_setting 'orthorhombic'
loop_
_space_group_symop_operation_xyz
x,y,z
-x,-y,1/2+z
-x,y,z
x,-y,1/2+z
loop_
_atom_site_type_symbol
_atom_site_label
_atom_site_fract_x
_atom_site_fract_y
_atom_site_fract_z
Si Si1 0.882511 0.752811 0.227380
Si Si2 0.289113 0.139987 0.657804
Si Si3 0.544723 0.632697 0.160582
Si Si4 0.000000 0.358249 0.062122
Si Si5 0.915311 0.208875 0.225174
Si Si6 0.374055 0.870786 0.029991
Si Si7 0.203122 0.860871 0.044346
O O1 0.885395 0.680426 0.522461
O O2 0.837730 0.740795 0.108970
O O3 0.896141 0.988451 0.275172
O O4 0.915240 0.692293 0.009841
O O5 0.332166 0.246829 0.600274
O O6 0.288909 0.045710 0.946729
O O7 0.246239 0.247503 0.599882
O O8 0.500000 0.731185 0.121316
O O9 0.546339 0.447714 0.955015
O O10 0.583913 0.763067 0.094422
O O11 0.040074 0.221562 0.104611
O O12 0.000000 0.529599 0.286543
O O13 0.372775 0.940070 0.731212
O O14 0.202313 0.954112 0.755425
#
# Coordination Sequence:
#
# PCOD9337881 Si02
#       7
#     4   4   4   2   4   4   4
#     4  10  17  30  52  83 102 112 145 198 262 294
#     4   8  16  25  42  69 107 133 155 196 244 307
#     4  10  21  36  53  75 104 143 187 230 278 329
#     4  12  26  42  52  66  92 136 178 196 226 286
#     4  10  20  33  52  74  99 121 154 197 244 288
#     4  10  19  33  51  78 109 139 184 224 277 323
#     4  10  14  25  43  73 111 124 146 182 252 312
#
# _framework density 23.313009000000001
#
# number of rings (size 3 to 8) (size 9 to 14) (size 15 to 20)
#    0.000    2.154    3.077    1.846    0.000    3.077 
#    0.000    0.000    0.000    0.000    0.000    6.462 
#    0.000    0.000    0.000    0.000    0.000    0.000 
#
# Total GULP energy -144990.383921 kJ/mol
# GULP energy per Si atom -5576.553228 kJ/mol
# Density = 2.325995 g / cm^3
# Si number density = 23.313009 Si / 1000 Ang^3
#
#
#
# Elastic Constant Matrix: (Units=GPa)
#
#
# Indices 1 2 3 4 5 6 
#
# 1 194.2394 4.9150 -12.8261 0.0000 0.0000 0.0000
# 2 4.9150 31.8960 -18.0723 0.0000 0.0000 0.0000
# 3 -12.8261 -18.0723 121.7185 0.0000 0.0000 0.0000
# 4 0.0000 0.0000 0.0000 -3.3233 0.0000 0.0000
# 5 0.0000 0.0000 0.0000 0.0000 38.3117 0.0000
# 6 0.0000 0.0000 0.0000 0.0000 0.0000 0.5049
#
#
#
# Elastic Compliance Matrix: (Units=1/GPa)
#
#
# Indices 1 2 3 4 5 6 
#
# 1 0.005193 -0.000535 0.000468 0.000000 0.000000 0.000000
# 2 -0.000535 0.034287 0.005034 0.000000 0.000000 0.000000
# 3 0.000468 0.005034 0.009012 0.000000 0.000000 0.000000
# 4 0.000000 0.000000 0.000000 -0.300904 0.000000 0.000000
# 5 0.000000 0.000000 0.000000 0.000000 0.026102 0.000000
# 6 0.000000 0.000000 0.000000 0.000000 0.000000 1.980675
#
#
# Mechanical properties :
#
#
# Convention : Reuss Voigt Hill
#
# Bulk Modulus (GPa) = 17.11570 32.87636 24.99603
# Shear Modulus (GPa) = 2.83462 32.02114 17.42788
#
# Velocity S-wave (km/s) = 1.10387 3.71014 2.73712
# Velocity P-wave (km/s) = 2.99706 5.69967 4.55349
#
# Compressibility (1/GPa) = 0.05842587
#
# Stress axis : x y z
#
# Youngs Moduli (GPa) = 192.57759 29.16573 110.95764
#
# Poissons Ratio (x) = 0.01561 -0.05190
# Poissons Ratio (y) = 0.10306 -0.55860
# Poissons Ratio (z) = -0.09007 -0.14683
#
# Static dielectric constant tensor:
#      x y z
#    x 1.933360 0.000000 0.000000 
#    y 0.000000 2.253390 0.000000 
#    z 0.000000 0.000000 1.923320 
# 
# From -- ./inp_files/1053.got.cif
#   From: 2010.05.17/outbox.cif.g08.bks.cpg/sg26_1_cif.got.tgz:1053.got - 2010.06.04 01:07:29.
