data_PCOD9337905
_publ_section_title
;
Structure prediction by ZEFSAII (Michael W. Deem and Ramdas Pophale) SiO2 
 PCOD9337905
Probable space group: P M C 21
;
_chemical_formula_sum "Si O2"
_cell_formula_units_Z 32
_cell_length_a 12.673090
_cell_length_b 15.955461
_cell_length_c 9.949776
_cell_angle_alpha 90.000000
_cell_angle_beta 90.000000
_cell_angle_gamma 90.000000
_cell_volume 2011.894389
_symmetry_space_group_name_H-M "P M C 21"
_symmetry_group_IT_number 26
_symmetry_cell_setting 'orthorhombic'
loop_
_space_group_symop_operation_xyz
x,y,z
-x,-y,1/2+z
-x,y,z
x,-y,1/2+z
loop_
_atom_site_type_symbol
_atom_site_label
_atom_site_fract_x
_atom_site_fract_y
_atom_site_fract_z
Si Si1 0.687315 0.288173 0.115460
Si Si2 0.628065 0.901838 0.647490
Si Si3 0.123596 0.590123 0.595912
Si Si4 0.377468 0.671663 0.314935
Si Si5 0.628050 0.955522 0.945495
Si Si6 0.225494 0.480353 0.830099
Si Si7 0.620929 0.371018 0.386031
Si Si8 0.627213 0.782792 0.075083
O O1 0.678673 0.189642 0.141384
O O2 0.626930 0.336702 0.234036
O O3 0.804634 0.327050 0.114393
O O4 0.651208 0.247253 0.725447
O O5 0.500000 0.890687 0.644471
O O6 0.660630 0.961048 0.523957
O O7 0.654798 0.946512 0.788853
O O8 0.363230 0.691363 0.471465
O O9 0.163348 0.524489 0.709053
O O10 0.151271 0.553999 0.448496
O O11 0.000000 0.605509 0.609785
O O12 0.500000 0.650614 0.286617
O O13 0.300278 0.595182 0.280088
O O14 0.500000 0.955505 0.951635
O O15 0.666710 0.872233 0.023736
O O16 0.303772 0.549415 0.894494
O O17 0.500000 0.391790 0.421193
O O18 0.658515 0.293961 0.478513
O O19 0.500000 0.787799 0.064631
#
# Coordination Sequence:
#
# PCOD9337905 Si02
#       8
#     4   4   4   4   4   4   4   4
#     4  10  20  31  48  69  94 129 167 196 243 289
#     4  10  18  30  45  69 100 128 159 191 226 281
#     4  10  21  37  53  70  92 121 164 214 254 286
#     4  10  19  29  43  69 104 133 159 193 228 284
#     4   9  18  28  43  65  95 133 162 186 224 271
#     4  10  20  32  50  74  95 124 165 197 244 292
#     4  10  17  29  47  67  99 134 160 192 229 285
#     4   9  17  28  41  61  95 136 162 185 224 266
#
# _framework density 15.905405999999999
#
# number of rings (size 3 to 8) (size 9 to 14) (size 15 to 20)
#    0.000    2.250    1.250    2.625    1.750    0.000 
#    0.000    3.750    0.000    0.000    0.000    0.875 
#    0.000    0.000    0.000    0.000    0.000    0.000 
#
# Total GULP energy -178411.962604 kJ/mol
# GULP energy per Si atom -5575.373831 kJ/mol
# Density = 1.586920 g / cm^3
# Si number density = 15.905406 Si / 1000 Ang^3
#
#
#
# Elastic Constant Matrix: (Units=GPa)
#
#
# Indices 1 2 3 4 5 6 
#
# 1 68.9851 25.7587 20.6077 0.0000 0.0000 0.0000
# 2 25.7587 76.2308 20.7814 0.0000 0.0000 0.0000
# 3 20.6077 20.7814 69.6954 0.0000 0.0000 0.0000
# 4 0.0000 0.0000 0.0000 26.4329 0.0000 0.0000
# 5 0.0000 0.0000 0.0000 0.0000 12.1463 0.0000
# 6 0.0000 0.0000 0.0000 0.0000 0.0000 9.3754
#
#
#
# Elastic Compliance Matrix: (Units=1/GPa)
#
#
# Indices 1 2 3 4 5 6 
#
# 1 0.017422 -0.004879 -0.003697 0.000000 0.000000 0.000000
# 2 -0.004879 0.015645 -0.003222 0.000000 0.000000 0.000000
# 3 -0.003697 -0.003222 0.016402 0.000000 0.000000 0.000000
# 4 0.000000 0.000000 0.000000 0.037832 0.000000 0.000000
# 5 0.000000 0.000000 0.000000 0.000000 0.082329 0.000000
# 6 0.000000 0.000000 0.000000 0.000000 0.000000 0.106662
#
#
# Mechanical properties :
#
#
# Convention : Reuss Voigt Hill
#
# Bulk Modulus (GPa) = 38.65025 38.80076 38.72551
# Shear Modulus (GPa) = 16.20680 19.44184 17.82432
#
# Velocity S-wave (km/s) = 3.19556 3.49999 3.35124
# Velocity P-wave (km/s) = 6.16184 6.38599 6.27492
#
# Compressibility (1/GPa) = 0.02587305
#
# Stress axis : x y z
#
# Youngs Moduli (GPa) = 57.39863 63.91727 60.96837
#
# Poissons Ratio (x) = 0.31187 0.22537
# Poissons Ratio (y) = 0.28006 0.19646
# Poissons Ratio (z) = 0.21217 0.20596
#
# Static dielectric constant tensor:
#      x y z
#    x 1.497300 0.000000 0.000000 
#    y 0.000000 1.532250 0.000000 
#    z 0.000000 0.000000 1.557780 
# 
# From -- ./inp_files/2005.got.cif
#   From: 2010.05.17/outbox.cif.g08.bks.cpg/sg26_2_cif.got.tgz:2005.got - 2010.06.04 01:07:29.
