data_PCOD9337344
_publ_section_title
;
Structure prediction by ZEFSAII (Michael W. Deem and Ramdas Pophale) SiO2 
 PCOD9337344
Probable space group: P M M 2
;
_chemical_formula_sum "Si O2"
_cell_formula_units_Z 28
_cell_length_a 8.861070
_cell_length_b 18.136903
_cell_length_c 9.568428
_cell_angle_alpha 90.000000
_cell_angle_beta 90.000000
_cell_angle_gamma 90.000000
_cell_volume 1537.764713
_symmetry_space_group_name_H-M "P M M 2"
_symmetry_group_IT_number 25
_symmetry_cell_setting 'orthorhombic'
loop_
_space_group_symop_operation_xyz
x,y,z
-x,-y,z
-x,y,z
x,-y,z
loop_
_atom_site_type_symbol
_atom_site_label
_atom_site_fract_x
_atom_site_fract_y
_atom_site_fract_z
Si Si1 0.680737 0.846912 0.024140
Si Si2 0.820938 0.412755 0.034101
Si Si3 0.318594 0.844604 0.351122
Si Si4 0.320604 0.587251 0.336691
Si Si5 0.180432 0.711060 0.527648
Si Si6 0.827380 0.000000 0.014900
Si Si7 0.174866 0.000000 0.354467
Si Si8 0.318354 0.292820 0.835444
O O1 0.500000 0.853088 0.021588
O O2 0.723356 0.834854 0.186897
O O3 0.748342 0.924140 0.972389
O O4 0.725176 0.778165 0.928889
O O5 0.799339 0.500000 0.008905
O O6 0.745897 0.395289 0.183687
O O7 0.000000 0.398175 0.039923
O O8 0.743378 0.364176 0.915797
O O9 0.500000 0.841531 0.362118
O O10 0.243983 0.780505 0.441177
O O11 0.258722 0.924996 0.396901
O O12 0.500000 0.601605 0.337587
O O13 0.296626 0.500000 0.362017
O O14 0.239310 0.637900 0.449577
O O15 0.246990 0.712860 0.683045
O O16 0.000000 0.712434 0.530108
O O17 0.822498 0.000000 0.184686
O O18 0.000000 0.000000 0.969591
O O19 0.000000 0.000000 0.398642
O O20 0.500000 0.295509 0.826129
#
# Coordination Sequence:
#
# PCOD9337344 Si02
#       8
#     4   4   4   4   4   2   2   4
#     4   9  19  35  57  82 109 142 182 228 275 326
#     4  10  21  38  61  89 118 147 182 228 281 333
#     4  10  19  35  59  85 112 145 187 233 282 338
#     4  10  21  39  63  88 113 145 187 232 278 334
#     4  12  25  39  56  81 115 152 189 235 288 339
#     4   9  17  29  52  83 112 141 176 222 274 327
#     4   9  17  31  52  83 116 145 182 228 280 333
#     4  11  23  39  58  81 112 152 194 233 277 334
#
# _framework density 18.208247
#
# number of rings (size 3 to 8) (size 9 to 14) (size 15 to 20)
#    0.000    1.857    0.000    4.286    0.000    6.857 
#    0.000    0.714    0.000    2.571    0.000    0.000 
#    0.000    0.000    0.000    0.000    0.000    0.000 
#
# Total GULP energy -156430.287367 kJ/mol
# GULP energy per Si atom -5586.795977 kJ/mol
# Density = 1.816680 g / cm^3
# Si number density = 18.208247 Si / 1000 Ang^3
#
#
#
# Elastic Constant Matrix: (Units=GPa)
#
#
# Indices 1 2 3 4 5 6 
#
# 1 106.7271 73.1042 69.4691 0.0000 0.0000 0.0000
# 2 73.1042 105.6641 86.4327 0.0000 0.0000 0.0000
# 3 69.4691 86.4327 122.1000 0.0000 0.0000 0.0000
# 4 0.0000 0.0000 0.0000 -10.9547 0.0000 0.0000
# 5 0.0000 0.0000 0.0000 0.0000 27.1536 0.0000
# 6 0.0000 0.0000 0.0000 0.0000 0.0000 33.6075
#
#
#
# Elastic Compliance Matrix: (Units=1/GPa)
#
#
# Indices 1 2 3 4 5 6 
#
# 1 0.018406 -0.009902 -0.003463 0.000000 0.000000 0.000000
# 2 -0.009902 0.027809 -0.014052 0.000000 0.000000 0.000000
# 3 -0.003463 -0.014052 0.020107 0.000000 0.000000 0.000000
# 4 0.000000 0.000000 0.000000 -0.091285 0.000000 0.000000
# 5 0.000000 0.000000 0.000000 0.000000 0.036828 0.000000
# 6 0.000000 0.000000 0.000000 0.000000 0.000000 0.029755
#
#
# Mechanical properties :
#
#
# Convention : Reuss Voigt Hill
#
# Bulk Modulus (GPa) = 87.03748 88.05593 87.54671
# Shear Modulus (GPa) = 49.85903 16.99361 33.42632
#
# Velocity S-wave (km/s) = 5.23852 3.05830 4.28925
# Velocity P-wave (km/s) = 9.19208 7.80617 8.52733
#
# Compressibility (1/GPa) = 0.01148930
#
# Stress axis : x y z
#
# Youngs Moduli (GPa) = 54.33023 35.95990 49.73304
#
# Poissons Ratio (x) = 0.35606 0.17222
# Poissons Ratio (y) = 0.53795 0.69884
# Poissons Ratio (z) = 0.18814 0.50530
#
# Static dielectric constant tensor:
#      x y z
#    x 1.606400 0.000000 0.000000 
#    y 0.000000 1.614310 0.000000 
#    z 0.000000 0.000000 1.597290 
# 
# From -- ./inp_files/2252.got.cif
#   From: 2010.05.17/outbox.cif.g08.bks.cpg/sg25_2_cif.got.tgz:2252.got - 2010.06.04 01:04:00.
