data_PCOD9337485
_publ_section_title
;
Structure prediction by ZEFSAII (Michael W. Deem and Ramdas Pophale) SiO2 
 PCOD9337485
Probable space group: P M M 2
;
_chemical_formula_sum "Si O2"
_cell_formula_units_Z 32
_cell_length_a 7.403236
_cell_length_b 9.468408
_cell_length_c 21.405310
_cell_angle_alpha 90.000000
_cell_angle_beta 90.000000
_cell_angle_gamma 90.000000
_cell_volume 1500.444996
_symmetry_space_group_name_H-M "P M M 2"
_symmetry_group_IT_number 25
_symmetry_cell_setting 'orthorhombic'
loop_
_space_group_symop_operation_xyz
x,y,z
-x,-y,z
-x,y,z
x,-y,z
loop_
_atom_site_type_symbol
_atom_site_label
_atom_site_fract_x
_atom_site_fract_y
_atom_site_fract_z
Si Si1 0.720769 0.836939 0.398490
Si Si2 0.283488 0.660460 0.898105
Si Si3 0.279936 0.163877 0.641047
Si Si4 0.720606 0.662568 0.520625
Si Si5 0.783606 0.160034 0.154196
Si Si6 0.284134 0.660770 0.278485
Si Si7 0.215283 0.661455 0.037298
Si Si8 0.720162 0.836771 0.780076
O O1 0.500000 0.838280 0.398035
O O2 0.776243 0.754954 0.461034
O O3 0.782253 0.750844 0.337601
O O4 0.778654 0.000000 0.397650
O O5 0.500000 0.654926 0.892395
O O6 0.214108 0.500000 0.896662
O O7 0.215474 0.747797 0.839060
O O8 0.246011 0.718025 0.967354
O O9 0.500000 0.164452 0.640478
O O10 0.220226 0.262730 0.584649
O O11 0.223811 0.210722 0.710630
O O12 0.226113 0.000000 0.631962
O O13 0.500000 0.662228 0.520835
O O14 0.778133 0.500000 0.516012
O O15 0.748985 0.254822 0.214849
O O16 0.714040 0.239640 0.092407
O O17 0.000000 0.150301 0.147937
O O18 0.714521 0.000000 0.161072
O O19 0.500000 0.651186 0.285946
O O20 0.214362 0.500000 0.276363
O O21 0.286518 0.500000 0.040727
O O22 0.000000 0.652066 0.045602
O O23 0.500000 0.832777 0.780456
O O24 0.772469 0.000000 0.786798
#
# Coordination Sequence:
#
# PCOD9337485 Si02
#       8
#     4   4   4   4   4   4   4   4
#     4   9  16  26  40  58  84 118 152 187 228 271
#     4   9  17  28  43  64  88 113 144 183 223 263
#     4   8  13  21  32  47  71 106 145 179 213 259
#     4   9  15  21  31  50  77 110 148 186 222 263
#     4  10  21  36  53  73  96 122 154 192 233 278
#     4  10  20  33  50  72  97 125 157 193 233 278
#     4   9  18  33  50  66  88 119 150 181 223 273
#     4   8  14  24  37  54  79 111 144 178 219 266
#
# _framework density 21.327006000000001
#
# number of rings (size 3 to 8) (size 9 to 14) (size 15 to 20)
#    0.000    3.000    0.000    2.250    0.000    6.000 
#    0.000    3.750    0.000    0.000    0.000    0.000 
#    0.000    1.000    0.000    6.500    0.000   10.500 
#
# Total GULP energy -178651.712829 kJ/mol
# GULP energy per Si atom -5582.866026 kJ/mol
# Density = 2.127846 g / cm^3
# Si number density = 21.327006 Si / 1000 Ang^3
#
#
#
# Elastic Constant Matrix: (Units=GPa)
#
#
# Indices 1 2 3 4 5 6 
#
# 1 71.9469 5.9930 0.6996 0.0000 0.0000 0.0000
# 2 5.9930 177.9669 148.1993 0.0000 0.0000 0.0000
# 3 0.6996 148.1993 253.5559 0.0000 0.0000 0.0000
# 4 0.0000 0.0000 0.0000 41.3111 0.0000 0.0000
# 5 0.0000 0.0000 0.0000 0.0000 40.8775 0.0000
# 6 0.0000 0.0000 0.0000 0.0000 0.0000 -1.0820
#
#
#
# Elastic Compliance Matrix: (Units=1/GPa)
#
#
# Indices 1 2 3 4 5 6 
#
# 1 0.013966 -0.000854 0.000460 0.000000 0.000000 0.000000
# 2 -0.000854 0.010999 -0.006427 0.000000 0.000000 0.000000
# 3 0.000460 -0.006427 0.007699 0.000000 0.000000 0.000000
# 4 0.000000 0.000000 0.000000 0.024207 0.000000 0.000000
# 5 0.000000 0.000000 0.000000 0.000000 0.024463 0.000000
# 6 0.000000 0.000000 0.000000 0.000000 0.000000 -0.924208
#
#
# Mechanical properties :
#
#
# Convention : Reuss Voigt Hill
#
# Bulk Modulus (GPa) = 52.56435 90.36150 71.46293
# Shear Modulus (GPa) = -6.07613 39.45983 16.69185
#
# Velocity S-wave (km/s) = -1.68974 4.30609 2.80065
# Velocity P-wave (km/s) = 4.57093 8.19663 6.63620
#
# Compressibility (1/GPa) = 0.01902430
#
# Stress axis : x y z
#
# Youngs Moduli (GPa) = 71.60356 90.91341 129.88848
#
# Poissons Ratio (x) = 0.07762 -0.05981
# Poissons Ratio (y) = 0.06113 0.83475
# Poissons Ratio (z) = -0.03297 0.58427
#
# Static dielectric constant tensor:
#      x y z
#    x 1.826940 0.000000 0.000000 
#    y 0.000000 1.746370 0.000000 
#    z 0.000000 0.000000 1.736840 
# 
# From -- ./inp_files/6294.got.cif
#   From: 2010.05.17/outbox.cif.g08.bks.cpg/sg25_4_cif.got.tgz:6294.got - 2010.06.04 01:04:00.
