data_PCOD9337277
_publ_section_title
;
Structure prediction by ZEFSAII (Michael W. Deem and Ramdas Pophale) SiO2 
 PCOD9337277
Probable space group: P M M 2
;
_chemical_formula_sum "Si O2"
_cell_formula_units_Z 24
_cell_length_a 12.320068
_cell_length_b 7.516252
_cell_length_c 12.977447
_cell_angle_alpha 90.000000
_cell_angle_beta 90.000000
_cell_angle_gamma 90.000000
_cell_volume 1201.721140
_symmetry_space_group_name_H-M "P M M 2"
_symmetry_group_IT_number 25
_symmetry_cell_setting 'orthorhombic'
loop_
_space_group_symop_operation_xyz
x,y,z
-x,-y,z
-x,y,z
x,-y,z
loop_
_atom_site_type_symbol
_atom_site_label
_atom_site_fract_x
_atom_site_fract_y
_atom_site_fract_z
Si Si1 0.623696 0.717451 0.497610
Si Si2 0.000000 0.790136 0.012570
Si Si3 0.000000 0.283527 0.769296
Si Si4 0.227485 0.710090 0.680572
Si Si5 0.234330 0.211009 0.068283
Si Si6 0.376202 0.784642 0.876867
Si Si7 0.622036 0.285922 0.262632
O O1 0.500000 0.770354 0.525054
O O2 0.624616 0.500000 0.499310
O O3 0.711607 0.782278 0.579736
O O4 0.644865 0.772957 0.379729
O O5 0.112880 0.714894 0.056199
O O6 0.000000 0.771284 0.888892
O O7 0.000000 0.000000 0.037700
O O8 0.890341 0.219429 0.713518
O O9 0.000000 0.500000 0.769290
O O10 0.212071 0.500000 0.662466
O O11 0.308089 0.732392 0.776822
O O12 0.290096 0.234609 0.178335
O O13 0.226208 0.000000 0.049167
O O14 0.313326 0.280895 0.978463
O O15 0.500000 0.720973 0.872952
O O16 0.379333 0.000000 0.879911
O O17 0.500000 0.223830 0.234014
O O18 0.618838 0.500000 0.264850
#
# Coordination Sequence:
#
# PCOD9337277 Si02
#       7
#     4   2   2   4   4   4   4
#     4   8  15  30  51  73  99 132 167 202 246 299
#     4  10  20  36  55  70  94 138 175 199 244 305
#     4  10  20  32  49  76 104 130 167 211 244 285
#     4  10  19  32  51  74 101 133 167 204 247 295
#     4  10  20  34  52  73  98 131 169 207 249 297
#     4  10  20  32  48  73 102 128 160 206 254 301
#     4   9  18  33  53  76 102 133 167 204 248 298
#
# _framework density 19.971356
#
# number of rings (size 3 to 8) (size 9 to 14) (size 15 to 20)
#    0.000    2.500    1.667    2.000    0.000    3.333 
#    0.000    1.667    0.000    3.000    0.000    0.000 
#    0.000    0.000    0.000    0.000    0.000    0.000 
#
# Total GULP energy -133966.254233 kJ/mol
# GULP energy per Si atom -5581.927260 kJ/mol
# Density = 1.992590 g / cm^3
# Si number density = 19.971356 Si / 1000 Ang^3
#
#
#
# Elastic Constant Matrix: (Units=GPa)
#
#
# Indices 1 2 3 4 5 6 
#
# 1 217.8950 -1.7508 112.6737 0.0000 0.0000 0.0000
# 2 -1.7508 45.0286 -14.6200 0.0000 0.0000 0.0000
# 3 112.6737 -14.6200 127.7900 0.0000 0.0000 0.0000
# 4 0.0000 0.0000 0.0000 29.3021 0.0000 0.0000
# 5 0.0000 0.0000 0.0000 0.0000 19.2124 0.0000
# 6 0.0000 0.0000 0.0000 0.0000 0.0000 -0.3307
#
#
#
# Elastic Compliance Matrix: (Units=1/GPa)
#
#
# Indices 1 2 3 4 5 6 
#
# 1 0.008644 -0.002221 -0.007876 0.000000 0.000000 0.000000
# 2 -0.002221 0.023636 0.004662 0.000000 0.000000 0.000000
# 3 -0.007876 0.004662 0.015303 0.000000 0.000000 0.000000
# 4 0.000000 0.000000 0.000000 0.034127 0.000000 0.000000
# 5 0.000000 0.000000 0.000000 0.000000 0.052050 0.000000
# 6 0.000000 0.000000 0.000000 0.000000 0.000000 -3.023478
#
#
# Mechanical properties :
#
#
# Convention : Reuss Voigt Hill
#
# Bulk Modulus (GPa) = 27.23778 64.81329 46.02553
# Shear Modulus (GPa) = -1.74422 29.26413 13.75996
#
# Velocity S-wave (km/s) = -0.93555 3.83208 2.62770
# Velocity P-wave (km/s) = 3.53568 7.21827 5.68350
#
# Compressibility (1/GPa) = 0.03671371
#
# Stress axis : x y z
#
# Youngs Moduli (GPa) = 115.68730 42.30922 65.34790
#
# Poissons Ratio (x) = 0.09397 0.51465
# Poissons Ratio (y) = 0.25694 -0.30467
# Poissons Ratio (z) = 0.91110 -0.19726
#
# Static dielectric constant tensor:
#      x y z
#    x 1.709070 0.000000 0.000000 
#    y 0.000000 1.756020 0.000000 
#    z 0.000000 0.000000 1.665240 
# 
# From -- ./inp_files/2665.got.cif
#   From: 2010.05.17/outbox.cif.g08.bks.cpg/sg25_2_cif.got.tgz:2665.got - 2010.06.04 01:04:00.
