data_PCOD9337448
_publ_section_title
;
Structure prediction by ZEFSAII (Michael W. Deem and Ramdas Pophale) SiO2 
 PCOD9337448
Probable space group: P M M 2
;
_chemical_formula_sum "Si O2"
_cell_formula_units_Z 28
_cell_length_a 8.347709
_cell_length_b 9.586093
_cell_length_c 18.800810
_cell_angle_alpha 90.000000
_cell_angle_beta 90.000000
_cell_angle_gamma 90.000000
_cell_volume 1504.476816
_symmetry_space_group_name_H-M "P M M 2"
_symmetry_group_IT_number 25
_symmetry_cell_setting 'orthorhombic'
loop_
_space_group_symop_operation_xyz
x,y,z
-x,-y,z
-x,y,z
x,-y,z
loop_
_atom_site_type_symbol
_atom_site_label
_atom_site_fract_x
_atom_site_fract_y
_atom_site_fract_z
Si Si1 0.808254 0.160525 0.518730
Si Si2 0.305812 0.161277 0.940605
Si Si3 0.303695 0.161730 0.250928
Si Si4 0.685252 0.830279 0.095721
Si Si5 0.308222 0.160642 0.675309
Si Si6 0.191600 0.340567 0.807685
Si Si7 0.693582 0.659680 0.386200
O O1 0.748797 0.203888 0.596852
O O2 0.746020 0.258408 0.456363
O O3 0.000000 0.161539 0.518547
O O4 0.753156 0.000000 0.507116
O O5 0.500000 0.160751 0.943515
O O6 0.251989 0.258361 0.876815
O O7 0.255880 0.000000 0.928601
O O8 0.245094 0.208628 0.018864
O O9 0.500000 0.163505 0.248573
O O10 0.245432 0.209179 0.172580
O O11 0.251143 0.257782 0.315856
O O12 0.257564 0.000000 0.262468
O O13 0.500000 0.782664 0.095712
O O14 0.682699 0.000000 0.095846
O O15 0.500000 0.161093 0.676871
O O16 0.245579 0.259054 0.737315
O O17 0.253164 0.000000 0.686675
O O18 0.250951 0.500000 0.807234
O O19 0.000000 0.342490 0.809311
O O20 0.500000 0.658730 0.384367
O O21 0.749710 0.500000 0.386705
#
# Coordination Sequence:
#
# PCOD9337448 Si02
#       7
#     4   4   4   4   4   4   4
#     4  10  21  37  57  79 102 131 168 208 251 300
#     4   9  17  31  53  79 104 131 168 214 260 305
#     4   8  13  24  45  71  99 132 169 211 257 300
#     4   7  11  22  43  72 101 127 161 209 260 303
#     4  10  21  38  61  85 104 125 160 207 256 304
#     4  11  24  38  51  72 105 142 175 206 245 296
#     4  10  20  32  48  74 107 140 173 209 251 300
#
# _framework density 18.61112
#
# number of rings (size 3 to 8) (size 9 to 14) (size 15 to 20)
#    0.000    2.714    0.000    3.857    0.000    6.286 
#    0.000    0.714    0.000    3.429    0.000    2.000 
#    0.000    0.000    0.000    0.000    0.000    0.000 
#
# Total GULP energy -156126.160398 kJ/mol
# GULP energy per Si atom -5575.934300 kJ/mol
# Density = 1.856876 g / cm^3
# Si number density = 18.611120 Si / 1000 Ang^3
#
#
#
# Elastic Constant Matrix: (Units=GPa)
#
#
# Indices 1 2 3 4 5 6 
#
# 1 14.5118 18.4739 22.4098 0.0000 0.0000 0.0000
# 2 18.4739 109.9537 122.4196 0.0000 0.0000 0.0000
# 3 22.4098 122.4196 227.2682 0.0000 0.0000 0.0000
# 4 0.0000 0.0000 0.0000 -21.0044 0.0000 0.0000
# 5 0.0000 0.0000 0.0000 0.0000 -45.7653 0.0000
# 6 0.0000 0.0000 0.0000 0.0000 0.0000 17.3329
#
#
#
# Elastic Compliance Matrix: (Units=1/GPa)
#
#
# Indices 1 2 3 4 5 6 
#
# 1 0.087946 -0.012794 -0.001780 0.000000 0.000000 0.000000
# 2 -0.012794 0.024583 -0.011980 0.000000 0.000000 0.000000
# 3 -0.001780 -0.011980 0.011029 0.000000 0.000000 0.000000
# 4 0.000000 0.000000 0.000000 -0.047609 0.000000 0.000000
# 5 0.000000 0.000000 0.000000 0.000000 -0.021851 0.000000
# 6 0.000000 0.000000 0.000000 0.000000 0.000000 0.057694
#
#
# Mechanical properties :
#
#
# Convention : Reuss Voigt Hill
#
# Bulk Modulus (GPa) = 14.19479 75.37114 44.78296
# Shear Modulus (GPa) = 26.54164 2.67465 14.60815
#
# Velocity S-wave (km/s) = 3.78049 1.20010 2.80467
# Velocity P-wave (km/s) = 5.16718 6.51967 5.88243
#
# Compressibility (1/GPa) = 0.07044841
#
# Stress axis : x y z
#
# Youngs Moduli (GPa) = 11.37062 40.67920 90.67213
#
# Poissons Ratio (x) = 0.52046 0.16142
# Poissons Ratio (y) = 0.14548 1.08625
# Poissons Ratio (z) = 0.02024 0.48734
#
# Static dielectric constant tensor:
#      x y z
#    x 1.643680 0.000000 0.000000 
#    y 0.000000 1.625290 0.000000 
#    z 0.000000 0.000000 1.647670 
# 
# From -- ./inp_files/6407.got.cif
#   From: 2010.05.17/outbox.cif.g08.bks.cpg/sg25_4_cif.got.tgz:6407.got - 2010.06.04 01:04:00.
