data_PCOD9337430
_publ_section_title
;
Structure prediction by ZEFSAII (Michael W. Deem and Ramdas Pophale) SiO2 
 PCOD9337430
Probable space group: P M M 2
;
_chemical_formula_sum "Si O2"
_cell_formula_units_Z 32
_cell_length_a 7.399418
_cell_length_b 9.590107
_cell_length_c 21.180377
_cell_angle_alpha 90.000000
_cell_angle_beta 90.000000
_cell_angle_gamma 90.000000
_cell_volume 1502.985188
_symmetry_space_group_name_H-M "P M M 2"
_symmetry_group_IT_number 25
_symmetry_cell_setting 'orthorhombic'
loop_
_space_group_symop_operation_xyz
x,y,z
-x,-y,z
-x,y,z
x,-y,z
loop_
_atom_site_type_symbol
_atom_site_label
_atom_site_fract_x
_atom_site_fract_y
_atom_site_fract_z
Si Si1 0.779666 0.160256 0.523340
Si Si2 0.215967 0.341133 0.022516
Si Si3 0.220746 0.660230 0.261697
Si Si4 0.284080 0.341309 0.879169
Si Si5 0.216467 0.657724 0.640336
Si Si6 0.716114 0.842491 0.763650
Si Si7 0.779911 0.160264 0.380621
Si Si8 0.779028 0.160240 0.140388
O O1 0.716046 0.263624 0.577740
O O2 0.723612 0.196817 0.451960
O O3 0.000000 0.161719 0.523736
O O4 0.725907 0.000000 0.536204
O O5 0.285867 0.500000 0.029308
O O6 0.250922 0.294330 0.950892
O O7 0.000000 0.348647 0.029921
O O8 0.281855 0.238070 0.076766
O O9 0.278832 0.500000 0.257574
O O10 0.279716 0.735701 0.326026
O O11 0.276524 0.750699 0.201292
O O12 0.000000 0.659701 0.261864
O O13 0.500000 0.349003 0.871316
O O14 0.213634 0.500000 0.872620
O O15 0.213676 0.238836 0.825274
O O16 0.285537 0.500000 0.647127
O O17 0.251643 0.750712 0.701686
O O18 0.000000 0.649137 0.634013
O O19 0.500000 0.852633 0.770794
O O20 0.786480 0.000000 0.757377
O O21 0.000000 0.161407 0.380325
O O22 0.726021 0.000000 0.367719
O O23 0.000000 0.158907 0.140255
O O24 0.720604 0.000000 0.143576
#
# Coordination Sequence:
#
# PCOD9337430 Si02
#       8
#     4   4   4   4   4   4   4   4
#     4   8  14  25  40  58  84 118 152 187 228 271
#     4   9  17  29  45  65  89 116 146 181 220 263
#     4   9  15  21  31  49  75 109 147 184 221 262
#     4   9  18  33  51  69  91 119 148 181 225 274
#     4  10  20  32  48  71  97 125 157 193 234 280
#     4  10  21  36  53  72  94 122 156 193 233 277
#     4   8  13  21  33  50  75 110 149 184 220 264
#     4   9  16  25  37  54  79 111 145 181 221 264
#
# _framework density 21.290963000000001
#
# number of rings (size 3 to 8) (size 9 to 14) (size 15 to 20)
#    0.000    3.000    0.000    2.250    0.000    6.000 
#    0.000    3.750    0.000    0.000    0.000    0.000 
#    0.000    1.000    0.000    6.500    0.000    9.875 
#
# Total GULP energy -178684.693999 kJ/mol
# GULP energy per Si atom -5583.896687 kJ/mol
# Density = 2.124250 g / cm^3
# Si number density = 21.290963 Si / 1000 Ang^3
#
#
#
# Elastic Constant Matrix: (Units=GPa)
#
#
# Indices 1 2 3 4 5 6 
#
# 1 72.5373 6.7101 1.2016 0.0000 0.0000 0.0000
# 2 6.7101 203.2142 168.3510 0.0000 0.0000 0.0000
# 3 1.2016 168.3510 223.1772 0.0000 0.0000 0.0000
# 4 0.0000 0.0000 0.0000 7.5900 0.0000 0.0000
# 5 0.0000 0.0000 0.0000 0.0000 41.2477 0.0000
# 6 0.0000 0.0000 0.0000 0.0000 0.0000 -4.3667
#
#
#
# Elastic Compliance Matrix: (Units=1/GPa)
#
#
# Indices 1 2 3 4 5 6 
#
# 1 0.013872 -0.001056 0.000722 0.000000 0.000000 0.000000
# 2 -0.001056 0.013200 -0.009952 0.000000 0.000000 0.000000
# 3 0.000722 -0.009952 0.011984 0.000000 0.000000 0.000000
# 4 0.000000 0.000000 0.000000 0.131752 0.000000 0.000000
# 5 0.000000 0.000000 0.000000 0.000000 0.024244 0.000000
# 6 0.000000 0.000000 0.000000 0.000000 0.000000 -0.229008
#
#
# Mechanical properties :
#
#
# Convention : Reuss Voigt Hill
#
# Bulk Modulus (GPa) = 54.10083 94.60600 74.35342
# Shear Modulus (GPa) = -692.25491 30.40527 -330.92482
#
# Velocity S-wave (km/s) = -18.05121 3.78310 -12.48067
# Velocity P-wave (km/s) = 20.22365 7.97582 13.14120
#
# Compressibility (1/GPa) = 0.01848400
#
# Stress axis : x y z
#
# Youngs Moduli (GPa) = 72.08892 75.75636 83.44583
#
# Poissons Ratio (x) = 0.08002 -0.06025
# Poissons Ratio (y) = 0.07614 0.83043
# Poissons Ratio (z) = -0.05205 0.75391
#
# Static dielectric constant tensor:
#      x y z
#    x 1.825210 0.000000 0.000000 
#    y 0.000000 1.782880 0.000000 
#    z 0.000000 0.000000 1.726010 
# 
# From -- ./inp_files/6314.got.cif
#   From: 2010.05.17/outbox.cif.g08.bks.cpg/sg25_4_cif.got.tgz:6314.got - 2010.06.04 01:04:00.
