data_PCOD9337477
_publ_section_title
;
Structure prediction by ZEFSAII (Michael W. Deem and Ramdas Pophale) SiO2 
 PCOD9337477
Probable space group: P M M 2
;
_chemical_formula_sum "Si O2"
_cell_formula_units_Z 32
_cell_length_a 14.114102
_cell_length_b 13.563778
_cell_length_c 9.429991
_cell_angle_alpha 90.000000
_cell_angle_beta 90.000000
_cell_angle_gamma 90.000000
_cell_volume 1805.282628
_symmetry_space_group_name_H-M "P M M 2"
_symmetry_group_IT_number 25
_symmetry_cell_setting 'orthorhombic'
loop_
_space_group_symop_operation_xyz
x,y,z
-x,-y,z
-x,y,z
x,-y,z
loop_
_atom_site_type_symbol
_atom_site_label
_atom_site_fract_x
_atom_site_fract_y
_atom_site_fract_z
Si Si1 0.742129 0.886642 0.889610
Si Si2 0.732218 0.386082 0.849062
Si Si3 0.610844 0.884148 0.613898
Si Si4 0.387286 0.758422 0.049833
Si Si5 0.887249 0.384545 0.283607
Si Si6 0.240407 0.386532 0.533001
Si Si7 0.611119 0.721368 0.377246
Si Si8 0.112823 0.719070 0.989555
O O1 0.686729 0.869914 0.740351
O O2 0.828865 0.813497 0.930160
O O3 0.771935 0.000000 0.895045
O O4 0.660653 0.860486 0.003396
O O5 0.703728 0.500000 0.852104
O O6 0.736046 0.346956 0.688256
O O7 0.838990 0.371015 0.905091
O O8 0.662882 0.322509 0.948603
O O9 0.500000 0.863512 0.657906
O O10 0.632804 0.814067 0.480253
O O11 0.614125 0.000000 0.575077
O O12 0.500000 0.758010 0.030467
O O13 0.364890 0.738779 0.213792
O O14 0.855646 0.500000 0.257839
O O15 0.841509 0.346802 0.430142
O O16 0.000000 0.388024 0.296777
O O17 0.866075 0.311541 0.152776
O O18 0.216101 0.500000 0.557758
O O19 0.332907 0.370851 0.438743
O O20 0.500000 0.704424 0.385605
O O21 0.000000 0.728053 0.971792
#
# Coordination Sequence:
#
# PCOD9337477 Si02
#       8
#     4   4   4   4   4   4   4   4
#     4  10  20  34  53  76 103 136 172 212 260 312
#     4  10  21  35  52  77 107 138 173 213 257 306
#     4   9  18  34  55  76  99 131 171 214 259 304
#     4  10  21  35  52  77 107 138 173 213 257 306
#     4   9  18  34  55  76  99 131 171 214 259 304
#     4  10  20  33  50  72 100 134 171 212 252 295
#     4  10  20  33  50  72 100 134 171 212 252 295
#     4  10  20  34  53  76 103 136 172 212 260 312
#
# _framework density 17.725756000000001
#
# number of rings (size 3 to 8) (size 9 to 14) (size 15 to 20)
#    0.000    2.250    0.000    3.750    0.000    6.250 
#    0.000    5.000    0.000    0.000    0.000    0.000 
#    0.000   10.000    0.000    0.000    0.000    0.000 
#
# Total GULP energy -178161.963647 kJ/mol
# GULP energy per Si atom -5567.561364 kJ/mol
# Density = 1.768541 g / cm^3
# Si number density = 17.725756 Si / 1000 Ang^3
#
#
#
# Elastic Constant Matrix: (Units=GPa)
#
#
# Indices 1 2 3 4 5 6 
#
# 1 76.9066 13.2584 41.6148 0.0000 0.0000 0.0000
# 2 13.2584 49.8108 7.0790 0.0000 0.0000 0.0000
# 3 41.6148 7.0790 97.6890 0.0000 0.0000 0.0000
# 4 0.0000 0.0000 0.0000 16.9896 0.0000 0.0000
# 5 0.0000 0.0000 0.0000 0.0000 25.4630 0.0000
# 6 0.0000 0.0000 0.0000 0.0000 0.0000 26.4926
#
#
#
# Elastic Compliance Matrix: (Units=1/GPa)
#
#
# Indices 1 2 3 4 5 6 
#
# 1 0.017528 -0.003642 -0.007203 0.000000 0.000000 0.000000
# 2 -0.003642 0.021042 0.000027 0.000000 0.000000 0.000000
# 3 -0.007203 0.000027 0.013303 0.000000 0.000000 0.000000
# 4 0.000000 0.000000 0.000000 0.058859 0.000000 0.000000
# 5 0.000000 0.000000 0.000000 0.000000 0.039273 0.000000
# 6 0.000000 0.000000 0.000000 0.000000 0.000000 0.037746
#
#
# Mechanical properties :
#
#
# Convention : Reuss Voigt Hill
#
# Bulk Modulus (GPa) = 33.07272 38.70118 35.88695
# Shear Modulus (GPa) = 22.78250 24.61932 23.70091
#
# Velocity S-wave (km/s) = 3.58896 3.73084 3.66059
# Velocity P-wave (km/s) = 5.98938 6.35921 6.17707
#
# Compressibility (1/GPa) = 0.03023640
#
# Stress axis : x y z
#
# Youngs Moduli (GPa) = 57.05082 47.52498 75.17069
#
# Poissons Ratio (x) = 0.17308 0.54145
# Poissons Ratio (y) = 0.20777 -0.00200
# Poissons Ratio (z) = 0.41094 -0.00127
#
# Static dielectric constant tensor:
#      x y z
#    x 1.611110 0.000000 0.000000 
#    y 0.000000 1.630650 0.000000 
#    z 0.000000 0.000000 1.637450 
# 
# From -- ./inp_files/3294.got.cif
#   From: 2010.05.17/outbox.cif.g08.bks.cpg/sg25_2_cif.got.tgz:3294.got - 2010.06.04 01:04:00.
