data_PCOD9337922
_publ_section_title
;
Structure prediction by ZEFSAII (Michael W. Deem and Ramdas Pophale) SiO2 
 PCOD9337922
Probable space group: P M C 21
;
_chemical_formula_sum "Si O2"
_cell_formula_units_Z 24
_cell_length_a 21.083845
_cell_length_b 9.246859
_cell_length_c 5.519212
_cell_angle_alpha 90.000000
_cell_angle_beta 90.000000
_cell_angle_gamma 90.000000
_cell_volume 1076.021939
_symmetry_space_group_name_H-M "P M C 21"
_symmetry_group_IT_number 26
_symmetry_cell_setting 'orthorhombic'
loop_
_space_group_symop_operation_xyz
x,y,z
-x,-y,1/2+z
-x,y,z
x,-y,1/2+z
loop_
_atom_site_type_symbol
_atom_site_label
_atom_site_fract_x
_atom_site_fract_y
_atom_site_fract_z
Si Si1 0.811592 0.652582 0.230650
Si Si2 0.269798 0.994975 0.923657
Si Si3 0.000000 0.594505 0.785197
Si Si4 0.628075 0.738542 0.881533
Si Si5 0.139084 0.324149 0.229552
Si Si6 0.500000 0.090190 0.286118
Si Si7 0.670570 0.309655 0.880346
O O1 0.840639 0.731959 0.465447
O O2 0.845228 0.496618 0.209252
O O3 0.738377 0.628094 0.298037
O O4 0.821914 0.723601 0.967312
O O5 0.314911 0.137356 0.916607
O O6 0.233083 0.000899 0.673620
O O7 0.316500 0.858236 0.916030
O O8 0.935428 0.685901 0.777618
O O9 0.000000 0.497796 0.536728
O O10 0.563074 0.814728 0.809800
O O11 0.648944 0.644100 0.648729
O O12 0.624014 0.673404 0.151991
O O13 0.500000 0.986269 0.523116
#
# Coordination Sequence:
#
# PCOD9337922 Si02
#       7
#     4   4   2   4   4   2   4
#     4  10  18  29  43  63  92 121 153 184 213 263
#     4   8  14  25  38  54  78 109 140 165 207 259
#     4  12  16  30  48  68  94 132 144 172 226 276
#     4  10  19  30  43  64  89 119 149 180 229 274
#     4  10  19  30  45  69  94 121 151 179 219 271
#     4  12  20  30  48  68  92 122 156 188 222 290
#     4  10  18  29  43  60  88 122 148 183 224 262
#
# _framework density 22.304376999999999
#
# number of rings (size 3 to 8) (size 9 to 14) (size 15 to 20)
#    0.000    2.000    3.333    5.000    0.000    0.000 
#    0.000    0.000    0.000    0.000    0.000    0.000 
#    0.000   53.333    0.000  229.500    0.000    0.000 
#
# Total GULP energy -133901.910781 kJ/mol
# GULP energy per Si atom -5579.246283 kJ/mol
# Density = 2.225361 g / cm^3
# Si number density = 22.304377 Si / 1000 Ang^3
#
#
#
# Elastic Constant Matrix: (Units=GPa)
#
#
# Indices 1 2 3 4 5 6 
#
# 1 98.3125 -2.3748 8.0534 0.0000 0.0000 0.0000
# 2 -2.3748 52.3307 4.6774 0.0000 0.0000 0.0000
# 3 8.0534 4.6774 226.0311 0.0000 0.0000 0.0000
# 4 0.0000 0.0000 0.0000 -1.9003 0.0000 0.0000
# 5 0.0000 0.0000 0.0000 0.0000 30.9692 0.0000
# 6 0.0000 0.0000 0.0000 0.0000 0.0000 18.0533
#
#
#
# Elastic Compliance Matrix: (Units=1/GPa)
#
#
# Indices 1 2 3 4 5 6 
#
# 1 0.010214 0.000497 -0.000374 0.000000 0.000000 0.000000
# 2 0.000497 0.019169 -0.000414 0.000000 0.000000 0.000000
# 3 -0.000374 -0.000414 0.004446 0.000000 0.000000 0.000000
# 4 0.000000 0.000000 0.000000 -0.526242 0.000000 0.000000
# 5 0.000000 0.000000 0.000000 0.000000 0.032290 0.000000
# 6 0.000000 0.000000 0.000000 0.000000 0.000000 0.055391
#
#
# Mechanical properties :
#
#
# Convention : Reuss Voigt Hill
#
# Bulk Modulus (GPa) = 30.07883 44.15403 37.11643
# Shear Modulus (GPa) = -12.72050 33.84566 10.56258
#
# Velocity S-wave (km/s) = -2.39072 3.89967 2.17852
# Velocity P-wave (km/s) = 2.42780 6.33369 4.79634
#
# Compressibility (1/GPa) = 0.03324597
#
# Stress axis : x y z
#
# Youngs Moduli (GPa) = 97.90186 52.16807 224.91736
#
# Poissons Ratio (x) = -0.02593 0.08417
# Poissons Ratio (y) = -0.04865 0.09320
# Poissons Ratio (z) = 0.03664 0.02162
#
# Static dielectric constant tensor:
#      x y z
#    x 1.762360 0.000000 0.000000 
#    y 0.000000 1.918400 0.000000 
#    z 0.000000 0.000000 1.973280 
# 
# From -- ./inp_files/608.got.cif
#   From: 2010.05.17/outbox.cif.g08.bks.cpg/sg26_1_cif.got.tgz:608.got - 2010.06.04 01:07:29.
