data_PCOD9337909
_publ_section_title
;
Structure prediction by ZEFSAII (Michael W. Deem and Ramdas Pophale) SiO2 
 PCOD9337909
Probable space group: P M C 21
;
_chemical_formula_sum "Si O2"
_cell_formula_units_Z 32
_cell_length_a 7.790359
_cell_length_b 10.760342
_cell_length_c 19.841225
_cell_angle_alpha 90.000000
_cell_angle_beta 90.000000
_cell_angle_gamma 90.000000
_cell_volume 1663.228922
_symmetry_space_group_name_H-M "P M C 21"
_symmetry_group_IT_number 26
_symmetry_cell_setting 'orthorhombic'
loop_
_space_group_symop_operation_xyz
x,y,z
-x,-y,1/2+z
-x,y,z
x,-y,1/2+z
loop_
_atom_site_type_symbol
_atom_site_label
_atom_site_fract_x
_atom_site_fract_y
_atom_site_fract_z
Si Si1 0.202523 0.985634 0.503000
Si Si2 0.705840 0.270688 0.348847
Si Si3 0.292783 0.985035 0.352323
Si Si4 0.704977 0.628269 0.140857
Si Si5 0.298981 0.875737 0.638152
Si Si6 0.710574 0.122406 0.713211
Si Si7 0.796005 0.269392 0.500052
Si Si8 0.711035 0.374733 0.208446
O O1 0.281294 0.896142 0.558703
O O2 0.000000 0.989405 0.515535
O O3 0.233881 0.946263 0.426267
O O4 0.273023 0.127550 0.509454
O O5 0.500000 0.266223 0.344634
O O6 0.767567 0.127630 0.340753
O O7 0.750260 0.311434 0.424534
O O8 0.764829 0.353613 0.286075
O O9 0.500000 0.988013 0.352505
O O10 0.238726 0.898412 0.290659
O O11 0.500000 0.627646 0.150314
O O12 0.772249 0.751588 0.178482
O O13 0.736564 0.645468 0.061416
O O14 0.771510 0.501456 0.173779
O O15 0.500000 0.874362 0.656085
O O16 0.230025 0.746854 0.667041
O O17 0.228292 0.000527 0.672836
O O18 0.500000 0.124005 0.710609
O O19 0.000000 0.261206 0.503438
O O20 0.500000 0.377342 0.207221
#
# Coordination Sequence:
#
# PCOD9337909 Si02
#       8
#     4   4   4   4   4   4   4   4
#     4  10  20  32  47  74 106 134 169 212 252 295
#     4   9  16  30  52  74  97 129 168 210 255 301
#     4   9  16  29  50  74  98 130 169 209 255 304
#     4  10  19  33  53  78 104 133 168 208 253 299
#     4  10  17  31  53  76 100 129 164 205 253 300
#     4   9  16  28  51  77  98 123 164 207 247 297
#     4  10  20  33  49  73 104 136 171 209 247 297
#     4   9  18  32  53  80 105 128 165 214 254 295
#
# _framework density 19.239684
#
# number of rings (size 3 to 8) (size 9 to 14) (size 15 to 20)
#    0.000    2.500    2.500    0.750    0.000    1.000 
#    0.000    4.375    0.000    4.500    0.000    0.000 
#    0.000    0.000    0.000    0.000    0.000    0.000 
#
# Total GULP energy -178482.840524 kJ/mol
# GULP energy per Si atom -5577.588766 kJ/mol
# Density = 1.919589 g / cm^3
# Si number density = 19.239684 Si / 1000 Ang^3
#
#
#
# Elastic Constant Matrix: (Units=GPa)
#
#
# Indices 1 2 3 4 5 6 
#
# 1 21.6558 10.4047 -4.5131 0.0000 0.0000 0.0000
# 2 10.4047 135.9026 99.3254 0.0000 0.0000 0.0000
# 3 -4.5131 99.3254 164.6298 0.0000 0.0000 0.0000
# 4 0.0000 0.0000 0.0000 29.3423 0.0000 0.0000
# 5 0.0000 0.0000 0.0000 0.0000 -74.9121 0.0000
# 6 0.0000 0.0000 0.0000 0.0000 0.0000 4.0402
#
#
#
# Elastic Compliance Matrix: (Units=1/GPa)
#
#
# Indices 1 2 3 4 5 6 
#
# 1 0.051911 -0.008969 0.006834 0.000000 0.000000 0.000000
# 2 -0.008969 0.014712 -0.009122 0.000000 0.000000 0.000000
# 3 0.006834 -0.009122 0.011765 0.000000 0.000000 0.000000
# 4 0.000000 0.000000 0.000000 0.034080 0.000000 0.000000
# 5 0.000000 0.000000 0.000000 0.000000 -0.013349 0.000000
# 6 0.000000 0.000000 0.000000 0.000000 0.000000 0.247514
#
#
# Mechanical properties :
#
#
# Convention : Reuss Voigt Hill
#
# Bulk Modulus (GPa) = 17.89737 59.18022 38.53880
# Shear Modulus (GPa) = 12.89421 6.15882 9.52652
#
# Velocity S-wave (km/s) = 2.59161 1.79110 2.22761
# Velocity P-wave (km/s) = 4.27525 5.92483 5.16630
#
# Compressibility (1/GPa) = 0.05587412
#
# Stress axis : x y z
#
# Youngs Moduli (GPa) = 19.26385 67.97341 84.99780
#
# Poissons Ratio (x) = 0.60967 -0.58092
# Poissons Ratio (y) = 0.17278 0.77533
# Poissons Ratio (z) = -0.13166 0.62004
#
# Static dielectric constant tensor:
#      x y z
#    x 1.694630 0.000000 0.000000 
#    y 0.000000 1.662420 0.000000 
#    z 0.000000 0.000000 1.673240 
# 
# From -- ./inp_files/4989.got.cif
#   From: 2010.05.17/outbox.cif.g08.bks.cpg/sg26_3_cif.got.tgz:4989.got - 2010.06.04 01:07:29.
