data_PCOD9337637
_publ_section_title
;
Structure prediction by ZEFSAII (Michael W. Deem and Ramdas Pophale) SiO2 
 PCOD9337637
Probable space group: P M M 2
;
_chemical_formula_sum "Si O2"
_cell_formula_units_Z 32
_cell_length_a 17.829134
_cell_length_b 15.449578
_cell_length_c 5.267115
_cell_angle_alpha 90.000000
_cell_angle_beta 90.000000
_cell_angle_gamma 90.000000
_cell_volume 1450.840502
_symmetry_space_group_name_H-M "P M M 2"
_symmetry_group_IT_number 25
_symmetry_cell_setting 'orthorhombic'
loop_
_space_group_symop_operation_xyz
x,y,z
-x,-y,z
-x,y,z
x,-y,z
loop_
_atom_site_type_symbol
_atom_site_label
_atom_site_fract_x
_atom_site_fract_y
_atom_site_fract_z
Si Si1 0.583380 0.857602 0.990250
Si Si2 0.812981 0.898128 0.769508
Si Si3 0.817347 0.601239 0.792642
Si Si4 0.787232 0.248236 0.162653
Si Si5 0.643825 0.402969 0.736367
Si Si6 0.664078 0.904211 0.497160
Si Si7 0.372824 0.692324 0.256313
Si Si8 0.088183 0.242404 0.554018
O O1 0.500000 0.894807 0.964599
O O2 0.621144 0.848640 0.712505
O O3 0.578163 0.764098 0.121502
O O4 0.632901 0.903021 0.211024
O O5 0.775557 0.829860 0.964652
O O6 0.754052 0.896502 0.534174
O O7 0.888642 0.844212 0.710129
O O8 0.822034 0.000000 0.841130
O O9 0.840415 0.500000 0.817926
O O10 0.802842 0.656152 0.047388
O O11 0.733685 0.600345 0.672899
O O12 0.875510 0.667122 0.657109
O O13 0.708144 0.260801 0.302035
O O14 0.864114 0.227524 0.301979
O O15 0.617597 0.500000 0.704890
O O16 0.636692 0.376803 0.030041
O O17 0.603793 0.345435 0.524575
O O18 0.646943 0.000000 0.601120
O O19 0.000000 0.250540 0.527281
#
# Coordination Sequence:
#
# PCOD9337637 Si02
#       8
#     4   4   4   4   4   4   4   4
#     4  12  25  40  63  96 134 171 207 254 323 391
#     4  10  23  42  65  89 117 162 219 269 317 379
#     4   9  20  36  57  87 120 158 204 257 318 385
#     4  10  20  37  62  87 119 161 209 265 314 378
#     4  10  20  35  62  94 121 161 216 271 314 365
#     4  11  24  42  66  93 126 168 214 264 318 381
#     4  11  20  37  62  88 127 163 212 261 309 382
#     4  11  23  39  59  87 125 165 205 263 329 384
#
# _framework density 22.056182
#
# number of rings (size 3 to 8) (size 9 to 14) (size 15 to 20)
#    0.000    1.500    2.500    2.625    1.750    5.500 
#    0.000    0.000    0.000    2.250    0.000    0.000 
#    0.000    0.000    0.000    0.000    0.000    0.000 
#
# Total GULP energy -178219.726737 kJ/mol
# GULP energy per Si atom -5569.366461 kJ/mol
# Density = 2.200598 g / cm^3
# Si number density = 22.056182 Si / 1000 Ang^3
#
#
#
# Elastic Constant Matrix: (Units=GPa)
#
#
# Indices 1 2 3 4 5 6 
#
# 1 84.1678 7.5327 3.5946 0.0000 0.0000 0.0000
# 2 7.5327 148.6818 11.0175 0.0000 0.0000 0.0000
# 3 3.5946 11.0175 62.9573 0.0000 0.0000 0.0000
# 4 0.0000 0.0000 0.0000 19.8278 0.0000 0.0000
# 5 0.0000 0.0000 0.0000 0.0000 10.9259 0.0000
# 6 0.0000 0.0000 0.0000 0.0000 0.0000 -5.2665
#
#
#
# Elastic Compliance Matrix: (Units=1/GPa)
#
#
# Indices 1 2 3 4 5 6 
#
# 1 0.011956 -0.000562 -0.000584 0.000000 0.000000 0.000000
# 2 -0.000562 0.006841 -0.001165 0.000000 0.000000 0.000000
# 3 -0.000584 -0.001165 0.016121 0.000000 0.000000 0.000000
# 4 0.000000 0.000000 0.000000 0.050434 0.000000 0.000000
# 5 0.000000 0.000000 0.000000 0.000000 0.091526 0.000000
# 6 0.000000 0.000000 0.000000 0.000000 0.000000 -0.189880
#
#
# Mechanical properties :
#
#
# Convention : Reuss Voigt Hill
#
# Bulk Modulus (GPa) = 33.00919 37.78849 35.39884
# Shear Modulus (GPa) = 2907.81842 23.34158 1465.58000
#
# Velocity S-wave (km/s) = 36.34874 3.25665 25.80539
# Velocity P-wave (km/s) = 42.15020 5.59563 30.06618
#
# Compressibility (1/GPa) = 0.03029460
#
# Stress axis : x y z
#
# Youngs Moduli (GPa) = 83.63777 146.18608 62.03084
#
# Poissons Ratio (x) = 0.08222 0.03624
# Poissons Ratio (y) = 0.04704 0.07227
# Poissons Ratio (z) = 0.04886 0.17030
#
# Static dielectric constant tensor:
#      x y z
#    x 1.804540 0.000000 0.000000 
#    y 0.000000 1.895780 0.000000 
#    z 0.000000 0.000000 1.896870 
# 
# From -- ./inp_files/975.got.cif
#   From: 2010.05.17/outbox.cif.g08.bks.cpg/sg25_1_cif.got.tgz:975.got - 2010.06.04 01:04:00.
