data_PCOD9337387
_publ_section_title
;
Structure prediction by ZEFSAII (Michael W. Deem and Ramdas Pophale) SiO2 
 PCOD9337387
Probable space group: P M M 2
;
_chemical_formula_sum "Si O2"
_cell_formula_units_Z 32
_cell_length_a 9.507056
_cell_length_b 7.451410
_cell_length_c 21.894326
_cell_angle_alpha 90.000000
_cell_angle_beta 90.000000
_cell_angle_gamma 90.000000
_cell_volume 1551.015338
_symmetry_space_group_name_H-M "P M M 2"
_symmetry_group_IT_number 25
_symmetry_cell_setting 'orthorhombic'
loop_
_space_group_symop_operation_xyz
x,y,z
-x,-y,z
-x,y,z
x,-y,z
loop_
_atom_site_type_symbol
_atom_site_label
_atom_site_fract_x
_atom_site_fract_y
_atom_site_fract_z
Si Si1 0.662238 0.715145 0.916800
Si Si2 0.837100 0.779841 0.669038
Si Si3 0.341093 0.286306 0.283925
Si Si4 0.828718 0.791356 0.536208
Si Si5 0.161911 0.280222 0.168144
Si Si6 0.659590 0.213202 0.783893
Si Si7 0.335802 0.281222 0.050253
Si Si8 0.160706 0.783841 0.403409
O O1 0.500000 0.780140 0.914454
O O2 0.659200 0.500000 0.919112
O O3 0.726023 0.761259 0.851165
O O4 0.717441 0.775739 0.982865
O O5 0.784985 0.717231 0.602144
O O6 0.747748 0.717544 0.726757
O O7 0.000000 0.728319 0.676045
O O8 0.834705 0.000000 0.667645
O O9 0.500000 0.214442 0.284266
O O10 0.351091 0.500000 0.274962
O O11 0.247471 0.218473 0.227636
O O12 0.261900 0.258316 0.347674
O O13 0.789364 0.715111 0.469994
O O14 0.000000 0.787839 0.536674
O O15 0.784712 0.000000 0.536159
O O16 0.161845 0.500000 0.168257
O O17 0.241541 0.221962 0.106695
O O18 0.000000 0.223361 0.169924
O O19 0.500000 0.286586 0.784480
O O20 0.649557 0.000000 0.775395
O O21 0.500000 0.228571 0.056993
O O22 0.335050 0.500000 0.051116
O O23 0.000000 0.721195 0.391894
O O24 0.153902 0.000000 0.408363
#
# Coordination Sequence:
#
# PCOD9337387 Si02
#       8
#     4   4   4   4   4   4   4   4
#     4   8  14  25  41  59  80 109 140 166 201 254
#     4   8  13  23  40  60  82 109 139 170 207 251
#     4  10  20  32  46  66  93 123 152 182 217 260
#     4   7  11  22  41  63  84 107 138 174 210 251
#     4   9  16  26  42  64  87 110 140 180 221 256
#     4   9  16  25  39  61  85 106 134 174 210 239
#     4   8  13  23  40  59  77 101 137 176 209 247
#     4   9  17  30  49  71  92 115 146 185 227 269
#
# _framework density 20.631646
#
# number of rings (size 3 to 8) (size 9 to 14) (size 15 to 20)
#    0.000    3.500    0.000    3.000    0.000    2.500 
#    0.000    1.250    0.000    4.875    0.000    5.250 
#    0.000    0.000    0.000    0.000    0.000    0.000 
#
# Total GULP energy -178274.648016 kJ/mol
# GULP energy per Si atom -5571.082750 kJ/mol
# Density = 2.058469 g / cm^3
# Si number density = 20.631646 Si / 1000 Ang^3
#
#
#
# Elastic Constant Matrix: (Units=GPa)
#
#
# Indices 1 2 3 4 5 6 
#
# 1 100.0989 4.5830 110.0653 0.0000 0.0000 0.0000
# 2 4.5830 60.5911 4.5676 0.0000 0.0000 0.0000
# 3 110.0653 4.5676 265.9359 0.0000 0.0000 0.0000
# 4 0.0000 0.0000 0.0000 17.1304 0.0000 0.0000
# 5 0.0000 0.0000 0.0000 0.0000 35.8682 0.0000
# 6 0.0000 0.0000 0.0000 0.0000 0.0000 1.5165
#
#
#
# Elastic Compliance Matrix: (Units=1/GPa)
#
#
# Indices 1 2 3 4 5 6 
#
# 1 0.018374 -0.000818 -0.007590 0.000000 0.000000 0.000000
# 2 -0.000818 0.016562 0.000054 0.000000 0.000000 0.000000
# 3 -0.007590 0.000054 0.006901 0.000000 0.000000 0.000000
# 4 0.000000 0.000000 0.000000 0.058376 0.000000 0.000000
# 5 0.000000 0.000000 0.000000 0.000000 0.027880 0.000000
# 6 0.000000 0.000000 0.000000 0.000000 0.000000 0.659395
#
#
# Mechanical properties :
#
#
# Convention : Reuss Voigt Hill
#
# Bulk Modulus (GPa) = 39.79578 73.89529 56.84553
# Shear Modulus (GPa) = 6.15331 31.39701 18.77516
#
# Velocity S-wave (km/s) = 1.72885 3.90524 3.01992
# Velocity P-wave (km/s) = 4.82865 7.49859 6.30653
#
# Compressibility (1/GPa) = 0.02512829
#
# Stress axis : x y z
#
# Youngs Moduli (GPa) = 54.42538 60.37974 144.90823
#
# Poissons Ratio (x) = 0.04936 1.09992
# Poissons Ratio (y) = 0.04450 -0.00781
# Poissons Ratio (z) = 0.41311 -0.00326
#
# Static dielectric constant tensor:
#      x y z
#    x 1.697940 0.000000 0.000000 
#    y 0.000000 1.819310 0.000000 
#    z 0.000000 0.000000 1.769590 
# 
# From -- ./inp_files/6309.got.cif
#   From: 2010.05.17/outbox.cif.g08.bks.cpg/sg25_4_cif.got.tgz:6309.got - 2010.06.04 01:04:00.
