data_PCOD9337559
_publ_section_title
;
Structure prediction by ZEFSAII (Michael W. Deem and Ramdas Pophale) SiO2 
 PCOD9337559
Probable space group: P M M 2
;
_chemical_formula_sum "Si O2"
_cell_formula_units_Z 24
_cell_length_a 7.401979
_cell_length_b 9.409928
_cell_length_c 18.010020
_cell_angle_alpha 90.000000
_cell_angle_beta 90.000000
_cell_angle_gamma 90.000000
_cell_volume 1254.435524
_symmetry_space_group_name_H-M "P M M 2"
_symmetry_group_IT_number 25
_symmetry_cell_setting 'orthorhombic'
loop_
_space_group_symop_operation_xyz
x,y,z
-x,-y,z
-x,y,z
x,-y,z
loop_
_atom_site_type_symbol
_atom_site_label
_atom_site_fract_x
_atom_site_fract_y
_atom_site_fract_z
Si Si1 0.279245 0.336712 0.591000
Si Si2 0.279706 0.163264 0.735995
Si Si3 0.286102 0.667567 0.882865
Si Si4 0.706052 0.827100 0.282806
Si Si5 0.000000 0.828259 0.163203
Si Si6 0.000000 0.669445 0.007843
Si Si7 0.720472 0.163994 0.446706
O O1 0.500000 0.335517 0.590998
O O2 0.222248 0.500000 0.594478
O O3 0.221062 0.249326 0.663348
O O4 0.221599 0.260038 0.515252
O O5 0.500000 0.163945 0.735124
O O6 0.226910 0.241331 0.811881
O O7 0.221339 0.000000 0.733813
O O8 0.500000 0.689472 0.894592
O O9 0.257920 0.500000 0.866559
O O10 0.172349 0.702593 0.955928
O O11 0.500000 0.779096 0.273623
O O12 0.775174 0.784529 0.364627
O O13 0.829156 0.786232 0.213963
O O14 0.705331 0.000000 0.285517
O O15 0.000000 0.754892 0.083860
O O16 0.000000 0.000000 0.155120
O O17 0.000000 0.500000 0.022540
O O18 0.500000 0.163194 0.445386
O O19 0.776754 0.000000 0.457363
#
# Coordination Sequence:
#
# PCOD9337559 Si02
#       7
#     4   4   4   4   2   2   4
#     4   9  15  22  36  63  98 131 165 204 242 285
#     4   9  16  26  43  69  99 130 166 206 245 285
#     4   9  18  34  54  73  97 131 166 199 241 293
#     4   8  15  29  49  73 100 129 162 202 247 291
#     4  10  20  34  54  77  98 125 162 201 244 297
#     4  10  22  38  54  75 102 129 158 197 248 301
#     4   8  13  23  40  61  88 124 163 201 241 284
#
# _framework density 19.132111999999999
#
# number of rings (size 3 to 8) (size 9 to 14) (size 15 to 20)
#    0.000    3.167    0.000    2.000    0.000    5.333 
#    0.000    0.833    0.000    2.000    0.000    3.500 
#    0.000    0.000    0.000    0.000    0.000    0.000 
#
# Total GULP energy -133916.397120 kJ/mol
# GULP energy per Si atom -5579.849880 kJ/mol
# Density = 1.908857 g / cm^3
# Si number density = 19.132112 Si / 1000 Ang^3
#
#
#
# Elastic Constant Matrix: (Units=GPa)
#
#
# Indices 1 2 3 4 5 6 
#
# 1 78.0107 34.4020 59.6274 0.0000 0.0000 0.0000
# 2 34.4020 100.6419 109.8789 0.0000 0.0000 0.0000
# 3 59.6274 109.8789 232.0113 0.0000 0.0000 0.0000
# 4 0.0000 0.0000 0.0000 -91.6147 0.0000 0.0000
# 5 0.0000 0.0000 0.0000 0.0000 47.2002 0.0000
# 6 0.0000 0.0000 0.0000 0.0000 0.0000 2.3692
#
#
#
# Elastic Compliance Matrix: (Units=1/GPa)
#
#
# Indices 1 2 3 4 5 6 
#
# 1 0.016154 -0.002048 -0.003182 0.000000 0.000000 0.000000
# 2 -0.002048 0.020834 -0.009340 0.000000 0.000000 0.000000
# 3 -0.003182 -0.009340 0.009551 0.000000 0.000000 0.000000
# 4 0.000000 0.000000 0.000000 -0.010915 0.000000 0.000000
# 5 0.000000 0.000000 0.000000 0.000000 0.021186 0.000000
# 6 0.000000 0.000000 0.000000 0.000000 0.000000 0.422087
#
#
# Mechanical properties :
#
#
# Convention : Reuss Voigt Hill
#
# Bulk Modulus (GPa) = 57.47529 90.94227 74.20878
# Shear Modulus (GPa) = 9.73070 5.37465 7.55267
#
# Velocity S-wave (km/s) = 2.25768 1.67789 1.98902
# Velocity P-wave (km/s) = 6.07475 7.16874 6.64430
#
# Compressibility (1/GPa) = 0.01739878
#
# Stress axis : x y z
#
# Youngs Moduli (GPa) = 61.90494 47.99814 104.69682
#
# Poissons Ratio (x) = 0.09831 0.33310
# Poissons Ratio (y) = 0.12680 0.97792
# Poissons Ratio (z) = 0.19695 0.44833
#
# Static dielectric constant tensor:
#      x y z
#    x 1.729260 0.000000 0.000000 
#    y 0.000000 1.634940 0.000000 
#    z 0.000000 0.000000 1.625910 
# 
# From -- ./inp_files/5999.got.cif
#   From: 2010.05.17/outbox.cif.g08.bks.cpg/sg25_3_cif.got.tgz:5999.got - 2010.06.04 01:04:00.
