data_PCOD9337227
_publ_section_title
;
Structure prediction by ZEFSAII (Michael W. Deem and Ramdas Pophale) SiO2 
 PCOD9337227
Probable space group: P M M 2
;
_chemical_formula_sum "Si O2"
_cell_formula_units_Z 28
_cell_length_a 9.100690
_cell_length_b 18.116605
_cell_length_c 9.670258
_cell_angle_alpha 90.000000
_cell_angle_beta 90.000000
_cell_angle_gamma 90.000000
_cell_volume 1594.370307
_symmetry_space_group_name_H-M "P M M 2"
_symmetry_group_IT_number 25
_symmetry_cell_setting 'orthorhombic'
loop_
_space_group_symop_operation_xyz
x,y,z
-x,-y,z
-x,y,z
x,-y,z
loop_
_atom_site_type_symbol
_atom_site_label
_atom_site_fract_x
_atom_site_fract_y
_atom_site_fract_z
Si Si1 0.830535 0.690129 0.466960
Si Si2 0.829268 0.192217 0.699091
Si Si3 0.336937 0.586565 0.311534
Si Si4 0.175241 0.087156 0.446268
Si Si5 0.324526 0.801938 0.255538
Si Si6 0.325025 0.262613 0.951694
Si Si7 0.823834 0.586433 0.022236
O O1 0.823913 0.732225 0.610751
O O2 0.735888 0.617379 0.449623
O O3 0.755486 0.743135 0.354221
O O4 0.000000 0.677096 0.432563
O O5 0.781117 0.129670 0.588320
O O6 0.733097 0.208028 0.832747
O O7 0.000000 0.177613 0.735937
O O8 0.500000 0.618637 0.286103
O O9 0.350497 0.500000 0.323756
O O10 0.233796 0.598891 0.178931
O O11 0.259086 0.121692 0.315024
O O12 0.000000 0.102017 0.429968
O O13 0.197840 0.000000 0.458077
O O14 0.500000 0.801818 0.274813
O O15 0.293047 0.776828 0.099071
O O16 0.500000 0.273048 0.941548
O O17 0.248030 0.343598 0.943555
O O18 0.783875 0.500000 0.985705
O O19 0.000000 0.591513 0.014938
#
# Coordination Sequence:
#
# PCOD9337227 Si02
#       7
#     4   4   4   4   4   4   4
#     4  10  19  33  53  76 101 136 181 225 268 319
#     4   9  20  36  55  79 108 143 181 221 268 322
#     4  10  19  30  47  74 106 138 176 225 278 327
#     4   9  19  38  62  86 110 139 179 223 269 327
#     4  10  20  33  53  81 110 139 174 218 269 321
#     4  11  22  35  53  80 112 147 185 226 272 326
#     4  10  20  33  52  77 105 142 186 231 279 326
#
# _framework density 17.561793999999999
#
# number of rings (size 3 to 8) (size 9 to 14) (size 15 to 20)
#    0.000    2.143    1.429    3.000    0.000    6.571 
#    0.000    1.429    0.000    3.429    0.000    0.000 
#    0.000    0.000    0.000    0.000    0.000    0.000 
#
# Total GULP energy -155988.021245 kJ/mol
# GULP energy per Si atom -5571.000759 kJ/mol
# Density = 1.752182 g / cm^3
# Si number density = 17.561794 Si / 1000 Ang^3
#
#
#
# Elastic Constant Matrix: (Units=GPa)
#
#
# Indices 1 2 3 4 5 6 
#
# 1 75.4493 33.4566 46.4380 0.0000 0.0000 0.0000
# 2 33.4566 85.3364 33.0600 0.0000 0.0000 0.0000
# 3 46.4380 33.0600 73.5279 0.0000 0.0000 0.0000
# 4 0.0000 0.0000 0.0000 21.5169 0.0000 0.0000
# 5 0.0000 0.0000 0.0000 0.0000 20.4048 0.0000
# 6 0.0000 0.0000 0.0000 0.0000 0.0000 20.0848
#
#
#
# Elastic Compliance Matrix: (Units=1/GPa)
#
#
# Indices 1 2 3 4 5 6 
#
# 1 0.022792 -0.004068 -0.012566 0.000000 0.000000 0.000000
# 2 -0.004068 0.014916 -0.004138 0.000000 0.000000 0.000000
# 3 -0.012566 -0.004138 0.023397 0.000000 0.000000 0.000000
# 4 0.000000 0.000000 0.000000 0.046475 0.000000 0.000000
# 5 0.000000 0.000000 0.000000 0.000000 0.049008 0.000000
# 6 0.000000 0.000000 0.000000 0.000000 0.000000 0.049789
#
#
# Mechanical properties :
#
#
# Convention : Reuss Voigt Hill
#
# Bulk Modulus (GPa) = 51.11774 51.13585 51.12679
# Shear Modulus (GPa) = 19.65108 20.49190 20.07149
#
# Velocity S-wave (km/s) = 3.34873 3.41962 3.38436
# Velocity P-wave (km/s) = 6.64248 6.69123 6.66690
#
# Compressibility (1/GPa) = 0.01956268
#
# Stress axis : x y z
#
# Youngs Moduli (GPa) = 43.87590 67.04214 42.74107
#
# Poissons Ratio (x) = 0.27270 0.53707
# Poissons Ratio (y) = 0.17847 0.17685
# Poissons Ratio (z) = 0.55133 0.27740
#
# Static dielectric constant tensor:
#      x y z
#    x 1.609700 0.000000 0.000000 
#    y 0.000000 1.667340 0.000000 
#    z 0.000000 0.000000 1.587530 
# 
# From -- ./inp_files/2291.got.cif
#   From: 2010.05.17/outbox.cif.g08.bks.cpg/sg25_2_cif.got.tgz:2291.got - 2010.06.04 01:04:00.
