data_PCOD9337229
_publ_section_title
;
Structure prediction by ZEFSAII (Michael W. Deem and Ramdas Pophale) SiO2 
 PCOD9337229
Probable space group: P M M 2
;
_chemical_formula_sum "Si O2"
_cell_formula_units_Z 24
_cell_length_a 15.978367
_cell_length_b 9.211997
_cell_length_c 9.781825
_cell_angle_alpha 90.000000
_cell_angle_beta 90.000000
_cell_angle_gamma 90.000000
_cell_volume 1439.812928
_symmetry_space_group_name_H-M "P M M 2"
_symmetry_group_IT_number 25
_symmetry_cell_setting 'orthorhombic'
loop_
_space_group_symop_operation_xyz
x,y,z
-x,-y,z
-x,y,z
x,-y,z
loop_
_atom_site_type_symbol
_atom_site_label
_atom_site_fract_x
_atom_site_fract_y
_atom_site_fract_z
Si Si1 0.902756 0.826783 0.801020
Si Si2 0.406580 0.169673 0.624531
Si Si3 0.241280 0.326622 0.298482
Si Si4 0.904059 0.326820 0.091481
Si Si5 0.591563 0.830604 0.292655
Si Si6 0.237146 0.326182 0.619918
O O1 0.837463 0.749288 0.701571
O O2 0.000000 0.797987 0.762597
O O3 0.890226 0.000000 0.801218
O O4 0.890781 0.761355 0.952409
O O5 0.500000 0.214524 0.671529
O O6 0.408478 0.176982 0.458591
O O7 0.327400 0.264821 0.668024
O O8 0.394367 0.000000 0.660608
O O9 0.250035 0.500000 0.291922
O O10 0.162482 0.284076 0.206438
O O11 0.327058 0.255233 0.246588
O O12 0.229004 0.289680 0.458335
O O13 0.894717 0.500000 0.064351
O O14 0.000000 0.303305 0.136800
O O15 0.500000 0.776574 0.246654
O O16 0.598446 0.000000 0.256121
O O17 0.234292 0.500000 0.634980
#
# Coordination Sequence:
#
# PCOD9337229 Si02
#       6
#     4   4   4   4   4   4
#     4  10  21  36  52  70  93 124 163 202 240 287
#     4   8  14  26  44  66  95 130 163 195 233 277
#     4   9  18  30  47  74 101 125 156 194 236 280
#     4   9  18  34  53  70  92 124 159 195 238 288
#     4   8  14  25  42  65  94 128 161 191 228 275
#     4  10  19  30  48  75 103 129 158 195 239 285
#
# _framework density 16.668831999999998
#
# number of rings (size 3 to 8) (size 9 to 14) (size 15 to 20)
#    0.000    3.000    0.000    2.000    0.000    3.667 
#    0.000    5.000    0.000    3.000    0.000    4.667 
#    0.000    0.000    0.000    0.000    0.000    0.000 
#
# Total GULP energy -133662.529485 kJ/mol
# GULP energy per Si atom -5569.272062 kJ/mol
# Density = 1.663089 g / cm^3
# Si number density = 16.668832 Si / 1000 Ang^3
#
#
#
# Elastic Constant Matrix: (Units=GPa)
#
#
# Indices 1 2 3 4 5 6 
#
# 1 186.6687 80.1672 77.0770 0.0000 0.0000 0.0000
# 2 80.1672 54.0190 38.0877 0.0000 0.0000 0.0000
# 3 77.0770 38.0877 44.3815 0.0000 0.0000 0.0000
# 4 0.0000 0.0000 0.0000 16.0692 0.0000 0.0000
# 5 0.0000 0.0000 0.0000 0.0000 -10.3995 0.0000
# 6 0.0000 0.0000 0.0000 0.0000 0.0000 31.9980
#
#
#
# Elastic Compliance Matrix: (Units=1/GPa)
#
#
# Indices 1 2 3 4 5 6 
#
# 1 0.022938 -0.015076 -0.026899 0.000000 0.000000 0.000000
# 2 -0.015076 0.056785 -0.022550 0.000000 0.000000 0.000000
# 3 -0.026899 -0.022550 0.088599 0.000000 0.000000 0.000000
# 4 0.000000 0.000000 0.000000 0.062231 0.000000 0.000000
# 5 0.000000 0.000000 0.000000 0.000000 -0.096158 0.000000
# 6 0.000000 0.000000 0.000000 0.000000 0.000000 0.031252
#
#
# Mechanical properties :
#
#
# Convention : Reuss Voigt Hill
#
# Bulk Modulus (GPa) = 25.46290 75.08145 50.27217
# Shear Modulus (GPa) = 16.24495 13.51604 14.88050
#
# Velocity S-wave (km/s) = 3.12520 2.85064 2.99107
# Velocity P-wave (km/s) = 5.32272 7.48169 6.49258
#
# Compressibility (1/GPa) = 0.03927283
#
# Stress axis : x y z
#
# Youngs Moduli (GPa) = 43.59505 17.61019 11.28680
#
# Poissons Ratio (x) = 0.26549 0.30360
# Poissons Ratio (y) = 0.65724 0.25452
# Poissons Ratio (z) = 1.17265 0.39711
#
# Static dielectric constant tensor:
#      x y z
#    x 1.574290 0.000000 0.000000 
#    y 0.000000 1.553850 0.000000 
#    z 0.000000 0.000000 1.540710 
# 
# From -- ./inp_files/3339.got.cif
#   From: 2010.05.17/outbox.cif.g08.bks.cpg/sg25_2_cif.got.tgz:3339.got - 2010.06.04 01:04:00.
