data_PCOD9337545
_publ_section_title
;
Structure prediction by ZEFSAII (Michael W. Deem and Ramdas Pophale) SiO2 
 PCOD9337545
Probable space group: P M M 2
;
_chemical_formula_sum "Si O2"
_cell_formula_units_Z 32
_cell_length_a 8.960025
_cell_length_b 14.310872
_cell_length_c 15.832287
_cell_angle_alpha 90.000000
_cell_angle_beta 90.000000
_cell_angle_gamma 90.000000
_cell_volume 2030.107206
_symmetry_space_group_name_H-M "P M M 2"
_symmetry_group_IT_number 25
_symmetry_cell_setting 'orthorhombic'
loop_
_space_group_symop_operation_xyz
x,y,z
-x,-y,z
-x,y,z
x,-y,z
loop_
_atom_site_type_symbol
_atom_site_label
_atom_site_fract_x
_atom_site_fract_y
_atom_site_fract_z
Si Si1 0.322413 0.107774 0.530670
Si Si2 0.322662 0.611863 0.754067
Si Si3 0.172005 0.613426 0.930193
Si Si4 0.677587 0.892226 0.329716
Si Si5 0.677337 0.388137 0.106319
Si Si6 0.822201 0.291056 0.267668
Si Si7 0.324534 0.388001 0.430193
Si Si8 0.177800 0.291056 0.592719
O O1 0.500000 0.121690 0.543794
O O2 0.294737 0.120647 0.430193
O O3 0.230454 0.184292 0.581194
O O4 0.287176 0.000000 0.551279
O O5 0.500000 0.627862 0.751651
O O6 0.298073 0.500000 0.744563
O O7 0.255928 0.641315 0.844558
O O8 0.242819 0.664766 0.677950
O O9 0.172036 0.500000 0.930194
O O10 0.000000 0.644404 0.930193
O O11 0.255928 0.641315 0.015829
O O12 0.500000 0.878310 0.316592
O O13 0.769546 0.815708 0.279191
O O14 0.712823 0.000000 0.309107
O O15 0.500000 0.372137 0.108736
O O16 0.701926 0.500000 0.115824
O O17 0.757181 0.335235 0.182437
O O18 0.752159 0.346247 0.347149
O O19 0.000000 0.298279 0.269416
O O20 0.500000 0.362436 0.430193
O O21 0.312969 0.500000 0.430194
O O22 0.247842 0.346248 0.513238
O O23 0.000000 0.298279 0.590970
#
# Coordination Sequence:
#
# PCOD9337545 Si02
#       8
#     4   4   4   4   4   4   4   4
#     4   9  18  34  55  74  95 128 168 209 252 300
#     4  10  20  34  52  73 100 137 176 209 245 297
#     4   9  17  31  51  75 102 129 162 211 261 297
#     4   9  18  34  55  74  95 128 168 209 252 300
#     4  10  20  34  52  73 100 137 176 209 245 297
#     4  12  23  33  49  75 103 132 166 209 256 299
#     4  11  23  37  50  65  94 137 177 208 242 293
#     4  12  23  33  49  75 103 132 166 209 256 299
#
# _framework density 15.762715
#
# number of rings (size 3 to 8) (size 9 to 14) (size 15 to 20)
#    0.000    1.750    1.250    5.250    0.000    7.500 
#    0.000    1.250    0.000    0.000    0.000    0.875 
#    0.000    7.000    0.000    0.000    0.000    0.000 
#
# Total GULP energy -178706.291327 kJ/mol
# GULP energy per Si atom -5584.571604 kJ/mol
# Density = 1.572684 g / cm^3
# Si number density = 15.762715 Si / 1000 Ang^3
#
#
#
# Elastic Constant Matrix: (Units=GPa)
#
#
# Indices 1 2 3 4 5 6 
#
# 1 142.0322 75.4194 92.1048 0.0000 0.0000 0.0000
# 2 75.4194 80.0867 65.1892 0.0000 0.0000 0.0000
# 3 92.1048 65.1892 152.7507 0.0000 0.0000 0.0000
# 4 0.0000 0.0000 0.0000 4.0237 0.0000 0.0000
# 5 0.0000 0.0000 0.0000 0.0000 22.1252 0.0000
# 6 0.0000 0.0000 0.0000 0.0000 0.0000 13.3251
#
#
#
# Elastic Compliance Matrix: (Units=1/GPa)
#
#
# Indices 1 2 3 4 5 6 
#
# 1 0.016248 -0.011226 -0.005006 0.000000 0.000000 0.000000
# 2 -0.011226 0.026890 -0.004706 0.000000 0.000000 0.000000
# 3 -0.005006 -0.004706 0.011574 0.000000 0.000000 0.000000
# 4 0.000000 0.000000 0.000000 0.248525 0.000000 0.000000
# 5 0.000000 0.000000 0.000000 0.000000 0.045197 0.000000
# 6 0.000000 0.000000 0.000000 0.000000 0.000000 0.075047
#
#
# Mechanical properties :
#
#
# Convention : Reuss Voigt Hill
#
# Bulk Modulus (GPa) = 77.92053 93.36626 85.64340
# Shear Modulus (GPa) = 10.64653 17.37188 14.00920
#
# Velocity S-wave (km/s) = 2.60171 3.32337 2.98443
# Velocity P-wave (km/s) = 7.65284 8.60740 8.14412
#
# Compressibility (1/GPa) = 0.01283359
#
# Stress axis : x y z
#
# Youngs Moduli (GPa) = 61.54466 37.18921 86.40207
#
# Poissons Ratio (x) = 0.41750 0.43255
# Poissons Ratio (y) = 0.69093 0.40664
# Poissons Ratio (z) = 0.30811 0.17503
#
# Static dielectric constant tensor:
#      x y z
#    x 1.521250 0.000000 0.000000 
#    y 0.000000 1.520500 0.000000 
#    z 0.000000 0.000000 1.499280 
# 
# From -- ./inp_files/5748.got.cif
#   From: 2010.05.17/outbox.cif.g08.bks.cpg/sg25_3_cif.got.tgz:5748.got - 2010.06.04 01:04:00.
