data_PCOD9337646
_publ_section_title
;
Structure prediction by ZEFSAII (Michael W. Deem and Ramdas Pophale) SiO2 
 PCOD9337646
Probable space group: P M M 2
;
_chemical_formula_sum "Si O2"
_cell_formula_units_Z 32
_cell_length_a 8.945587
_cell_length_b 14.859550
_cell_length_c 12.606512
_cell_angle_alpha 90.000000
_cell_angle_beta 90.000000
_cell_angle_gamma 90.000000
_cell_volume 1675.750829
_symmetry_space_group_name_H-M "P M M 2"
_symmetry_group_IT_number 25
_symmetry_cell_setting 'orthorhombic'
loop_
_space_group_symop_operation_xyz
x,y,z
-x,-y,z
-x,y,z
x,-y,z
loop_
_atom_site_type_symbol
_atom_site_label
_atom_site_fract_x
_atom_site_fract_y
_atom_site_fract_z
Si Si1 0.327300 0.898990 0.119360
Si Si2 0.171110 0.362633 0.250267
Si Si3 0.678959 0.788699 0.541266
Si Si4 0.321755 0.398765 0.026090
Si Si5 0.828384 0.843573 0.322903
Si Si6 0.177838 0.777187 0.945227
Si Si7 0.819448 0.400113 0.489735
Si Si8 0.180287 0.893973 0.737774
O O1 0.500000 0.870112 0.120876
O O2 0.263039 0.899733 0.237765
O O3 0.318231 0.000000 0.075269
O O4 0.233030 0.832663 0.046912
O O5 0.266956 0.385668 0.147631
O O6 0.169178 0.256076 0.271390
O O7 0.221794 0.400025 0.364372
O O8 0.000000 0.391982 0.231124
O O9 0.500000 0.787729 0.537063
O O10 0.747527 0.833263 0.435102
O O11 0.740946 0.685757 0.542567
O O12 0.738530 0.846227 0.639861
O O13 0.500000 0.390367 0.023435
O O14 0.279715 0.500000 0.992899
O O15 0.250350 0.320982 0.954463
O O16 0.000000 0.873614 0.335744
O O17 0.218370 0.836407 0.842625
O O18 0.000000 0.767725 0.948548
O O19 0.785874 0.500000 0.533045
O O20 0.000000 0.386498 0.493613
O O21 0.000000 0.888797 0.723277
O O22 0.218705 0.000000 0.747828
#
# Coordination Sequence:
#
# PCOD9337646 Si02
#       8
#     4   4   4   4   4   4   4   4
#     4  11  23  37  57  88 124 159 194 239 300 365
#     4   9  17  31  53  82 115 156 203 247 289 340
#     4  11  23  38  60  90 124 158 196 247 306 363
#     4  11  23  36  54  84 123 164 201 242 296 355
#     4  10  20  36  58  84 119 163 203 243 293 349
#     4  11  23  41  65  90 117 153 199 251 302 356
#     4   9  18  34  57  85 120 163 208 249 291 347
#     4  10  23  45  70  91 112 147 201 257 304 359
#
# _framework density 19.095917
#
# number of rings (size 3 to 8) (size 9 to 14) (size 15 to 20)
#    0.000    1.750    1.250    4.125    0.000    7.000 
#    0.000    0.625    0.000    0.750    0.000    0.000 
#    0.000    0.000    0.000    0.000    0.000    0.000 
#
# Total GULP energy -178700.618014 kJ/mol
# GULP energy per Si atom -5584.394313 kJ/mol
# Density = 1.905245 g / cm^3
# Si number density = 19.095917 Si / 1000 Ang^3
#
#
#
# Elastic Constant Matrix: (Units=GPa)
#
#
# Indices 1 2 3 4 5 6 
#
# 1 65.1830 53.2250 55.2539 0.0000 0.0000 0.0000
# 2 53.2250 138.2014 71.9247 0.0000 0.0000 0.0000
# 3 55.2539 71.9247 110.9927 0.0000 0.0000 0.0000
# 4 0.0000 0.0000 0.0000 12.3863 0.0000 0.0000
# 5 0.0000 0.0000 0.0000 0.0000-1150.1804 0.0000
# 6 0.0000 0.0000 0.0000 0.0000 0.0000 25.6375
#
#
#
# Elastic Compliance Matrix: (Units=1/GPa)
#
#
# Indices 1 2 3 4 5 6 
#
# 1 0.029100 -0.005534 -0.010900 0.000000 0.000000 0.000000
# 2 -0.005534 0.011970 -0.005002 0.000000 0.000000 0.000000
# 3 -0.010900 -0.005002 0.017677 0.000000 0.000000 0.000000
# 4 0.000000 0.000000 0.000000 0.080734 0.000000 0.000000
# 5 0.000000 0.000000 0.000000 0.000000 -0.000869 0.000000
# 6 0.000000 0.000000 0.000000 0.000000 0.000000 0.039005
#
#
# Mechanical properties :
#
#
# Convention : Reuss Voigt Hill
#
# Bulk Modulus (GPa) = 62.99251 75.02048 69.00649
# Shear Modulus (GPa) = 22.14517 -213.49975 -95.67729
#
# Velocity S-wave (km/s) = 3.40910 -10.58521 -7.08606
# Velocity P-wave (km/s) = 6.96814 10.48923 5.54387
#
# Compressibility (1/GPa) = 0.01587490
#
# Stress axis : x y z
#
# Youngs Moduli (GPa) = 34.36374 83.53927 56.57018
#
# Poissons Ratio (x) = 0.46235 0.61663
# Poissons Ratio (y) = 0.19019 0.28295
# Poissons Ratio (z) = 0.37457 0.41785
#
# Static dielectric constant tensor:
#      x y z
#    x 1.673320 0.000000 0.000000 
#    y 0.000000 1.709310 0.000000 
#    z 0.000000 0.000000 1.640860 
# 
# From -- ./inp_files/4235.got.cif
#   From: 2010.05.17/outbox.cif.g08.bks.cpg/sg25_3_cif.got.tgz:4235.got - 2010.06.04 01:04:00.
