data_PCOD9337981
_publ_section_title
;
Structure prediction by ZEFSAII (Michael W. Deem and Ramdas Pophale) SiO2 
 PCOD9337981
Probable space group: P M C 21
;
_chemical_formula_sum "Si O2"
_cell_formula_units_Z 32
_cell_length_a 7.953166
_cell_length_b 10.839587
_cell_length_c 14.537712
_cell_angle_alpha 90.000000
_cell_angle_beta 90.000000
_cell_angle_gamma 90.000000
_cell_volume 1253.282119
_symmetry_space_group_name_H-M "P M C 21"
_symmetry_group_IT_number 26
_symmetry_cell_setting 'orthorhombic'
loop_
_space_group_symop_operation_xyz
x,y,z
-x,-y,1/2+z
-x,y,z
x,-y,1/2+z
loop_
_atom_site_type_symbol
_atom_site_label
_atom_site_fract_x
_atom_site_fract_y
_atom_site_fract_z
Si Si1 0.294550 0.292135 0.360060
Si Si2 0.700348 0.189189 0.642639
Si Si3 0.190293 0.352384 0.803149
Si Si4 0.308452 0.206467 0.969304
Si Si5 0.804296 0.074414 0.148093
Si Si6 0.297486 0.563704 0.025347
Si Si7 0.694423 0.580114 0.690243
Si Si8 0.800934 0.028234 0.354293
O O1 0.500000 0.289859 0.360745
O O2 0.236386 0.405536 0.423904
O O3 0.230699 0.317119 0.256739
O O4 0.228985 0.163087 0.396653
O O5 0.500000 0.172446 0.650204
O O6 0.775030 0.230424 0.741079
O O7 0.729867 0.307224 0.578439
O O8 0.780103 0.063222 0.607068
O O9 0.215909 0.309955 0.908102
O O10 0.303615 0.457078 0.755100
O O11 0.000000 0.392684 0.788225
O O12 0.500000 0.245549 0.966172
O O13 0.284017 0.078925 0.912756
O O14 0.264644 0.172095 0.074390
O O15 0.730548 0.051144 0.250518
O O16 0.000000 0.100352 0.158824
O O17 0.500000 0.545264 0.020407
O O18 0.228083 0.459294 0.093222
O O19 0.500000 0.612862 0.674582
O O20 0.000000 0.000442 0.350138
#
# Coordination Sequence:
#
# PCOD9337981 Si02
#       8
#     4   4   4   4   4   4   4   4
#     4  10  20  37  61  86 117 158 205 253 302 359
#     4  10  18  32  57  85 115 151 197 247 291 351
#     4  11  21  36  58  83 115 151 194 247 304 358
#     4  12  24  39  62  89 120 158 206 252 297 364
#     4  11  23  38  57  85 124 163 196 241 307 370
#     4   8  16  32  55  84 113 146 193 248 298 342
#     4   9  19  37  59  84 115 152 200 254 302 355
#     4  11  24  41  61  88 127 163 197 248 309 371
#
# _framework density 25.532959000000002
#
# number of rings (size 3 to 8) (size 9 to 14) (size 15 to 20)
#    0.000    1.750    1.250    4.875    0.000    3.000 
#    2.250    2.500    0.000    0.000    0.000    0.000 
#    0.000    0.000    0.000    0.000    0.000    0.000 
#
# Total GULP energy -178996.984349 kJ/mol
# GULP energy per Si atom -5593.655761 kJ/mol
# Density = 2.547484 g / cm^3
# Si number density = 25.532959 Si / 1000 Ang^3
#
#
#
# Elastic Constant Matrix: (Units=GPa)
#
#
# Indices 1 2 3 4 5 6 
#
# 1 49.4386 -8.7621 7.4670 0.0000 0.0000 0.0000
# 2 -8.7621 100.7903 16.6822 0.0000 0.0000 0.0000
# 3 7.4670 16.6822 154.7492 0.0000 0.0000 0.0000
# 4 0.0000 0.0000 0.0000 49.2981 0.0000 0.0000
# 5 0.0000 0.0000 0.0000 0.0000 16.1909 0.0000
# 6 0.0000 0.0000 0.0000 0.0000 0.0000 23.6195
#
#
#
# Elastic Compliance Matrix: (Units=1/GPa)
#
#
# Indices 1 2 3 4 5 6 
#
# 1 0.020767 0.002007 -0.001218 0.000000 0.000000 0.000000
# 2 0.002007 0.010296 -0.001207 0.000000 0.000000 0.000000
# 3 -0.001218 -0.001207 0.006651 0.000000 0.000000 0.000000
# 4 0.000000 0.000000 0.000000 0.020285 0.000000 0.000000
# 5 0.000000 0.000000 0.000000 0.000000 0.061763 0.000000
# 6 0.000000 0.000000 0.000000 0.000000 0.000000 0.042338
#
#
# Mechanical properties :
#
#
# Convention : Reuss Voigt Hill
#
# Bulk Modulus (GPa) = 27.11697 37.30584 32.21140
# Shear Modulus (GPa) = 28.53424 37.12775 32.83100
#
# Velocity S-wave (km/s) = 3.34660 3.81742 3.58973
# Velocity P-wave (km/s) = 5.05731 5.83719 5.46119
#
# Compressibility (1/GPa) = 0.03687727
#
# Stress axis : x y z
#
# Youngs Moduli (GPa) = 48.15368 97.12702 150.35446
#
# Poissons Ratio (x) = -0.19493 0.18319
# Poissons Ratio (y) = -0.09664 0.18144
# Poissons Ratio (z) = 0.05867 0.11721
#
# Static dielectric constant tensor:
#      x y z
#    x 1.897420 0.000000 0.000000 
#    y 0.000000 2.049160 0.000000 
#    z 0.000000 0.000000 2.114570 
# 
# From -- ./inp_files/4139.got.cif
#   From: 2010.05.17/outbox.cif.g08.bks.cpg/sg26_3_cif.got.tgz:4139.got - 2010.06.04 01:07:29.
