data_PCOD9337254
_publ_section_title
;
Structure prediction by ZEFSAII (Michael W. Deem and Ramdas Pophale) SiO2 
 PCOD9337254
Probable space group: P M M 2
;
_chemical_formula_sum "Si O2"
_cell_formula_units_Z 20
_cell_length_a 9.162612
_cell_length_b 7.957363
_cell_length_c 15.102218
_cell_angle_alpha 90.000000
_cell_angle_beta 90.000000
_cell_angle_gamma 90.000000
_cell_volume 1101.106184
_symmetry_space_group_name_H-M "P M M 2"
_symmetry_group_IT_number 25
_symmetry_cell_setting 'orthorhombic'
loop_
_space_group_symop_operation_xyz
x,y,z
-x,-y,z
-x,y,z
x,-y,z
loop_
_atom_site_type_symbol
_atom_site_label
_atom_site_fract_x
_atom_site_fract_y
_atom_site_fract_z
Si Si1 0.322126 0.806619 0.209130
Si Si2 0.333047 0.797194 0.012277
Si Si3 0.177134 0.500000 0.527038
Si Si4 0.323191 0.500000 0.335865
Si Si5 0.177722 0.814482 0.647320
Si Si6 0.832605 0.698494 0.836279
O O1 0.500000 0.809391 0.205552
O O2 0.273367 0.754643 0.109985
O O3 0.280639 0.666954 0.280541
O O4 0.276121 0.000000 0.227424
O O5 0.500000 0.737200 0.007294
O O6 0.333991 0.000000 0.009112
O O7 0.248553 0.732095 0.927475
O O8 0.248915 0.500000 0.431125
O O9 0.222216 0.664468 0.582938
O O10 0.000000 0.500000 0.519814
O O11 0.500000 0.500000 0.344039
O O12 0.229132 0.785916 0.748239
O O13 0.000000 0.807398 0.651228
O O14 0.220255 0.000000 0.616254
O O15 0.832871 0.500000 0.817353
O O16 0.000000 0.754997 0.847336
#
# Coordination Sequence:
#
# PCOD9337254 Si02
#       6
#     4   4   2   2   4   4
#     4   8  16  32  52  74 100 131 169 205 239 295
#     4   9  18  32  50  74 103 135 172 209 245 292
#     4  10  20  36  53  74 100 124 163 212 251 298
#     4  10  20  34  55  76  96 128 165 204 257 302
#     4   9  17  32  54  74  97 133 169 201 244 298
#     4  10  19  31  49  76 106 135 170 208 245 294
#
# _framework density 18.163553
#
# number of rings (size 3 to 8) (size 9 to 14) (size 15 to 20)
#    0.000    2.800    1.000    1.800    1.400    2.400 
#    0.000    2.000    0.000    2.400    0.000    0.000 
#    0.000    0.000    0.000    0.000    0.000    0.000 
#
# Total GULP energy -111466.098634 kJ/mol
# GULP energy per Si atom -5573.304932 kJ/mol
# Density = 1.812221 g / cm^3
# Si number density = 18.163553 Si / 1000 Ang^3
#
#
#
# Elastic Constant Matrix: (Units=GPa)
#
#
# Indices 1 2 3 4 5 6 
#
# 1 14.3889 19.4326 31.2183 0.0000 0.0000 0.0000
# 2 19.4326 121.1580 91.5479 0.0000 0.0000 0.0000
# 3 31.2183 91.5479 165.6011 0.0000 0.0000 0.0000
# 4 0.0000 0.0000 0.0000 1.5104 0.0000 0.0000
# 5 0.0000 0.0000 0.0000 0.0000 32.7970 0.0000
# 6 0.0000 0.0000 0.0000 0.0000 0.0000 10.6791
#
#
#
# Elastic Compliance Matrix: (Units=1/GPa)
#
#
# Indices 1 2 3 4 5 6 
#
# 1 0.118530 -0.003653 -0.020325 0.000000 0.000000 0.000000
# 2 -0.003653 0.014287 -0.007210 0.000000 0.000000 0.000000
# 3 -0.020325 -0.007210 0.013856 0.000000 0.000000 0.000000
# 4 0.000000 0.000000 0.000000 0.662061 0.000000 0.000000
# 5 0.000000 0.000000 0.000000 0.000000 0.030491 0.000000
# 6 0.000000 0.000000 0.000000 0.000000 0.000000 0.093641
#
#
# Mechanical properties :
#
#
# Convention : Reuss Voigt Hill
#
# Bulk Modulus (GPa) = 11.86284 65.06063 38.46174
# Shear Modulus (GPa) = 4.88596 19.59392 12.23994
#
# Velocity S-wave (km/s) = 1.64190 3.28800 2.59872
# Velocity P-wave (km/s) = 3.18429 7.09307 5.49779
#
# Compressibility (1/GPa) = 0.08429682
#
# Stress axis : x y z
#
# Youngs Moduli (GPa) = 8.43671 69.99232 72.17185
#
# Poissons Ratio (x) = 0.25570 1.46689
# Poissons Ratio (y) = 0.03082 0.52033
# Poissons Ratio (z) = 0.17148 0.50462
#
# Static dielectric constant tensor:
#      x y z
#    x 1.616920 0.000000 0.000000 
#    y 0.000000 1.643390 0.000000 
#    z 0.000000 0.000000 1.609120 
# 
# From -- ./inp_files/5199.got.cif
#   From: 2010.05.17/outbox.cif.g08.bks.cpg/sg25_3_cif.got.tgz:5199.got - 2010.06.04 01:04:00.
