data_PCOD9337065
_publ_section_title
;
Structure prediction by ZEFSAII (Michael W. Deem and Ramdas Pophale) SiO2 
 PCOD9337065
Probable space group: I 21 21 21
;
_chemical_formula_sum "Si O2"
_cell_formula_units_Z 24
_cell_length_a 18.000000
_cell_length_b 9.000000
_cell_length_c 15.000000
_cell_angle_alpha 90.000000
_cell_angle_beta 90.000000
_cell_angle_gamma 90.000000
_cell_volume 2430.000000
_symmetry_space_group_name_H-M "I 21 21 21"
_symmetry_group_IT_number 24
_symmetry_cell_setting 'orthorhombic'
loop_
_space_group_symop_operation_xyz
x,y,z
-x,1/2-y,z
x,-y,1/2-z
1/2-x,y,-z
1/2+x,1/2+y,1/2+z
1/2-x,-y,1/2+z
1/2+x,1/2-y,-z
-x,1/2+y,1/2-z
loop_
_atom_site_type_symbol
_atom_site_label
_atom_site_fract_x
_atom_site_fract_y
_atom_site_fract_z
Si Si1 0.750000 0.814175 0.500000
Si Si2 0.666400 0.500000 0.250000
Si Si3 0.697346 0.589467 0.633176
Si Si4 0.590508 0.258234 0.370567
Si Si5 0.217147 0.543322 0.849722
Si Si6 0.000000 0.750000 0.139946
Si Si7 0.340769 0.762602 0.936668
Si Si8 0.072347 0.000000 0.250000
O O1 0.695643 0.705403 0.553656
O O2 0.712945 0.912674 0.422831
O O3 0.724278 0.588535 0.314503
O O4 0.614246 0.389011 0.304156
O O5 0.683863 0.423079 0.598566
O O6 0.628794 0.611612 0.699796
O O7 0.500000 0.250000 0.382084
O O8 0.634739 0.112177 0.337314
O O9 0.640272 0.284684 0.459519
O O10 0.243457 0.500000 0.750000
O O11 0.279035 0.651302 0.896573
O O12 0.922724 0.786931 0.092666
O O13 0.978728 0.601483 0.190933
#
# Coordination Sequence:
#
# PCOD9337065 Si02
#       8
#     4   4   8   8   8   4   8   4
#     4  12  24  38  68 106 132 166 234 292 334 404
#     4  11  22  42  74  95 132 192 234 285 330 420
#     4  10  22  41  67  99 131 179 238 277 339 415
#     4  12  25  45  67 101 141 185 232 285 350 414
#     4  12  27  45  72 103 139 182 230 295 347 407
#     4  10  22  38  64 100 136 178 220 284 344 422
#     4  11  22  46  70  97 141 185 231 279 352 415
#     4   9  22  38  62  97 136 176 226 277 344 408
#
# _framework density 9.8765429999999999
#
# number of rings (size 3 to 8) (size 9 to 14) (size 15 to 20)
#    0.000    1.000    4.167    2.000    7.000    0.000 
#    0.000    0.000    0.000    2.000    0.000    0.000 
#    0.000    0.000    0.000    0.000    0.000    0.000 
#
# Total GULP energy -133678.127865 kJ/mol
# GULP energy per Si atom -5569.921994 kJ/mol
# Density = 0.985406 g / cm^3
# Si number density = 9.876543 Si / 1000 Ang^3
#
#
#
# Elastic Constant Matrix: (Units=GPa)
#
#
# Indices 1 2 3 4 5 6 
#
# 1 143.1566 36.6711 47.8806 0.0000 0.0000 0.0000
# 2 36.6711 75.6827 51.6010 0.0000 0.0000 0.0000
# 3 47.8806 51.6010 131.5590 0.0000 0.0000 0.0000
# 4 0.0000 0.0000 0.0000 -35.2735 0.0000 0.0000
# 5 0.0000 0.0000 0.0000 0.0000 1749.4453 0.0000
# 6 0.0000 0.0000 0.0000 0.0000 0.0000 -13.2086
#
#
#
# Elastic Compliance Matrix: (Units=1/GPa)
#
#
# Indices 1 2 3 4 5 6 
#
# 1 0.008336 -0.002690 -0.001979 0.000000 0.000000 0.000000
# 2 -0.002690 0.018904 -0.006436 0.000000 0.000000 0.000000
# 3 -0.001979 -0.006436 0.010846 0.000000 0.000000 0.000000
# 4 0.000000 0.000000 0.000000 -0.028350 0.000000 0.000000
# 5 0.000000 0.000000 0.000000 0.000000 0.000572 0.000000
# 6 0.000000 0.000000 0.000000 0.000000 0.000000 -0.075708
#
#
# Mechanical properties :
#
#
# Convention : Reuss Voigt Hill
#
# Bulk Modulus (GPa) = 62.98427 69.18930 66.08679
# Shear Modulus (GPa) = -131.93273 354.47567 111.27147
#
# Velocity S-wave (km/s) = -8.18144 13.41055 7.51355
# Velocity P-wave (km/s) = 7.56921 16.57992 10.43074
#
# Compressibility (1/GPa) = 0.01587698
#
# Stress axis : x y z
#
# Youngs Moduli (GPa) = 119.95732 52.89749 92.20275
#
# Poissons Ratio (x) = 0.14230 0.18246
# Poissons Ratio (y) = 0.32269 0.59340
# Poissons Ratio (z) = 0.23738 0.34044
#
# Static dielectric constant tensor:
#      x y z
#    x 1.670420 0.000000 0.000000 
#    y 0.000000 1.486650 0.000000 
#    z 0.000000 0.000000 1.860710 
# 
# From -- ./inp_files/27092.got.cif
#   From: 2010.05.17/outbox.ucp.g08.bks.cvg/sg24_14_cif.got.tgz:27092.got - 2010.06.11 15:20:44.
