data_PCOD9337110
_publ_section_title
;
Structure prediction by ZEFSAII (Michael W. Deem and Ramdas Pophale) SiO2 
 PCOD9337110
Probable space group: P M M 2
;
_chemical_formula_sum "Si O2"
_cell_formula_units_Z 20
_cell_length_a 7.436952
_cell_length_b 13.507687
_cell_length_c 10.063996
_cell_angle_alpha 90.000000
_cell_angle_beta 90.000000
_cell_angle_gamma 90.000000
_cell_volume 1010.988982
_symmetry_space_group_name_H-M "P M M 2"
_symmetry_group_IT_number 25
_symmetry_cell_setting 'orthorhombic'
loop_
_space_group_symop_operation_xyz
x,y,z
-x,-y,z
-x,y,z
x,-y,z
loop_
_atom_site_type_symbol
_atom_site_label
_atom_site_fract_x
_atom_site_fract_y
_atom_site_fract_z
Si Si1 0.279035 0.285626 0.985220
Si Si2 0.719462 0.887898 0.484196
Si Si3 0.280951 0.111492 0.178950
Si Si4 0.207483 0.500000 0.705964
Si Si5 0.298477 0.500000 0.008305
Si Si6 0.284885 0.716428 0.679462
O O1 0.500000 0.288492 0.984573
O O2 0.221088 0.273741 0.831988
O O3 0.221442 0.195610 0.077629
O O4 0.216953 0.392996 0.038317
O O5 0.500000 0.886906 0.485682
O O6 0.773597 0.870033 0.331428
O O7 0.783041 0.802320 0.582930
O O8 0.773586 0.000000 0.521519
O O9 0.500000 0.112317 0.177556
O O10 0.225130 0.000000 0.142039
O O11 0.246080 0.603738 0.634743
O O12 0.000000 0.500000 0.743263
O O13 0.310184 0.500000 0.846622
O O14 0.500000 0.500000 0.064912
O O15 0.500000 0.726200 0.683652
#
# Coordination Sequence:
#
# PCOD9337110 Si02
#       6
#     4   4   4   2   2   4
#     4   8  13  21  35  54  77 105 133 163 198 236
#     4   8  14  24  38  58  86 115 138 165 205 249
#     4   8  13  21  33  54  85 112 131 159 202 244
#     4  10  18  28  43  62  84 110 140 172 210 250
#     4   8  14  26  41  58  82 108 134 166 206 246
#     4   9  16  27  43  63  86 110 138 171 206 244
#
# _framework density 19.782609999999998
#
# number of rings (size 3 to 8) (size 9 to 14) (size 15 to 20)
#    0.000    3.600    0.000    3.300    0.000    0.800 
#    0.000    5.000    0.000    5.400    0.000   11.200 
#    0.000    6.400    0.000    0.000    0.000    0.000 
#
# Total GULP energy -111419.334234 kJ/mol
# GULP energy per Si atom -5570.966712 kJ/mol
# Density = 1.973758 g / cm^3
# Si number density = 19.782610 Si / 1000 Ang^3
#
#
#
# Elastic Constant Matrix: (Units=GPa)
#
#
# Indices 1 2 3 4 5 6 
#
# 1 64.5507 2.1380 3.7798 0.0000 0.0000 0.0000
# 2 2.1380 245.8374 121.1252 0.0000 0.0000 0.0000
# 3 3.7798 121.1252 85.4218 0.0000 0.0000 0.0000
# 4 0.0000 0.0000 0.0000 -19.8486 0.0000 0.0000
# 5 0.0000 0.0000 0.0000 0.0000 -13.7876 0.0000
# 6 0.0000 0.0000 0.0000 0.0000 0.0000 -28.6225
#
#
#
# Elastic Compliance Matrix: (Units=1/GPa)
#
#
# Indices 1 2 3 4 5 6 
#
# 1 0.015566 0.000677 -0.001649 0.000000 0.000000 0.000000
# 2 0.000677 0.013527 -0.019211 0.000000 0.000000 0.000000
# 3 -0.001649 -0.019211 0.039020 0.000000 0.000000 0.000000
# 4 0.000000 0.000000 0.000000 -0.050381 0.000000 0.000000
# 5 0.000000 0.000000 0.000000 0.000000 -0.072529 0.000000
# 6 0.000000 0.000000 0.000000 0.000000 0.000000 -0.034938
#
#
# Mechanical properties :
#
#
# Convention : Reuss Voigt Hill
#
# Bulk Modulus (GPa) = 36.03893 72.21064 54.12479
# Shear Modulus (GPa) = -124.62705 5.46606 -59.58050
#
# Velocity S-wave (km/s) = -7.94576 1.66405 -5.49391
# Velocity P-wave (km/s) = 8.11930 6.34613 3.58118
#
# Compressibility (1/GPa) = 0.02774777
#
# Stress axis : x y z
#
# Youngs Moduli (GPa) = 64.24335 73.92474 25.62766
#
# Poissons Ratio (x) = -0.05004 0.04225
# Poissons Ratio (y) = -0.04348 0.49234
# Poissons Ratio (z) = 0.10591 1.42018
#
# Static dielectric constant tensor:
#      x y z
#    x 1.726070 0.000000 0.000000 
#    y 0.000000 1.715680 0.000000 
#    z 0.000000 0.000000 1.649270 
# 
# From -- ./inp_files/1886.got.cif
#   From: 2010.05.17/outbox.cif.g08.bks.cpg/sg25_1_cif.got.tgz:1886.got - 2010.06.04 01:04:00.
