data_PCOD9337268
_publ_section_title
;
Structure prediction by ZEFSAII (Michael W. Deem and Ramdas Pophale) SiO2 
 PCOD9337268
Probable space group: P M M 2
;
_chemical_formula_sum "Si O2"
_cell_formula_units_Z 32
_cell_length_a 8.936595
_cell_length_b 14.840007
_cell_length_c 12.689316
_cell_angle_alpha 90.000000
_cell_angle_beta 90.000000
_cell_angle_gamma 90.000000
_cell_volume 1682.846078
_symmetry_space_group_name_H-M "P M M 2"
_symmetry_group_IT_number 25
_symmetry_cell_setting 'orthorhombic'
loop_
_space_group_symop_operation_xyz
x,y,z
-x,-y,z
-x,y,z
x,-y,z
loop_
_atom_site_type_symbol
_atom_site_label
_atom_site_fract_x
_atom_site_fract_y
_atom_site_fract_z
Si Si1 0.319327 0.105530 0.697740
Si Si2 0.178427 0.397784 0.407940
Si Si3 0.678186 0.224514 0.494207
Si Si4 0.819919 0.202482 0.899424
Si Si5 0.179956 0.597650 0.960877
Si Si6 0.671776 0.152980 0.117237
Si Si7 0.328086 0.638064 0.182123
Si Si8 0.826825 0.898750 0.322560
O O1 0.500000 0.108865 0.708924
O O2 0.278949 0.165317 0.595771
O O3 0.243537 0.151039 0.798666
O O4 0.277611 0.000000 0.686156
O O5 0.212383 0.500000 0.441937
O O6 0.245877 0.321788 0.483756
O O7 0.246195 0.384116 0.290913
O O8 0.000000 0.387098 0.401937
O O9 0.500000 0.235247 0.492819
O O10 0.730073 0.167976 0.392781
O O11 0.774980 0.309165 0.903474
O O12 0.000000 0.197621 0.902367
O O13 0.750540 0.157928 0.004275
O O14 0.222929 0.500000 0.913375
O O15 0.000000 0.600223 0.967795
O O16 0.245832 0.600836 0.078827
O O17 0.500000 0.121872 0.108705
O O18 0.670383 0.254877 0.162286
O O19 0.765751 0.100528 0.204054
O O20 0.500000 0.607410 0.186922
O O21 0.000000 0.870048 0.323414
O O22 0.816364 0.000000 0.366097
#
# Coordination Sequence:
#
# PCOD9337268 Si02
#       8
#     4   4   4   4   4   4   4   4
#     4  10  23  44  67  88 112 147 193 245 302 363
#     4  11  23  37  56  84 120 161 199 239 292 352
#     4  11  23  41  64  88 116 152 196 249 302 355
#     4  10  21  37  60  88 118 152 195 247 296 348
#     4   9  18  33  53  80 117 159 197 234 284 344
#     4  10  20  35  56  83 119 161 198 239 294 351
#     4  10  19  31  51  82 117 156 200 243 285 337
#     4  11  23  37  57  87 121 156 194 240 297 361
#
# _framework density 19.015404
#
# number of rings (size 3 to 8) (size 9 to 14) (size 15 to 20)
#    0.000    1.750    1.250    3.000    0.000    7.500 
#    0.000    0.625    0.000    2.250    0.000    0.000 
#    0.000    0.000    0.000    0.000    0.000    0.000 
#
# Total GULP energy -178693.945703 kJ/mol
# GULP energy per Si atom -5584.185803 kJ/mol
# Density = 1.897212 g / cm^3
# Si number density = 19.015404 Si / 1000 Ang^3
#
#
#
# Elastic Constant Matrix: (Units=GPa)
#
#
# Indices 1 2 3 4 5 6 
#
# 1 46.7279 42.7750 39.8869 0.0000 0.0000 0.0000
# 2 42.7750 130.6972 68.6421 0.0000 0.0000 0.0000
# 3 39.8869 68.6421 116.6497 0.0000 0.0000 0.0000
# 4 0.0000 0.0000 0.0000 13.5905 0.0000 0.0000
# 5 0.0000 0.0000 0.0000 0.0000 66.5797 0.0000
# 6 0.0000 0.0000 0.0000 0.0000 0.0000 21.2222
#
#
#
# Elastic Compliance Matrix: (Units=1/GPa)
#
#
# Indices 1 2 3 4 5 6 
#
# 1 0.034527 -0.007381 -0.007463 0.000000 0.000000 0.000000
# 2 -0.007381 0.012651 -0.004921 0.000000 0.000000 0.000000
# 3 -0.007463 -0.004921 0.014020 0.000000 0.000000 0.000000
# 4 0.000000 0.000000 0.000000 0.073581 0.000000 0.000000
# 5 0.000000 0.000000 0.000000 0.000000 0.015020 0.000000
# 6 0.000000 0.000000 0.000000 0.000000 0.000000 0.047121
#
#
# Mechanical properties :
#
#
# Convention : Reuss Voigt Hill
#
# Bulk Modulus (GPa) = 46.14750 66.29810 56.22280
# Shear Modulus (GPa) = 20.51940 29.79653 25.15796
#
# Velocity S-wave (km/s) = 3.28852 3.96279 3.64130
# Velocity P-wave (km/s) = 6.22417 7.47525 6.87822
#
# Compressibility (1/GPa) = 0.02166965
#
# Stress axis : x y z
#
# Youngs Moduli (GPa) = 28.96264 79.04353 71.32533
#
# Poissons Ratio (x) = 0.58339 0.53231
# Poissons Ratio (y) = 0.21376 0.35098
# Poissons Ratio (z) = 0.21615 0.38896
#
# Static dielectric constant tensor:
#      x y z
#    x 1.639450 0.000000 0.000000 
#    y 0.000000 1.712520 0.000000 
#    z 0.000000 0.000000 1.618370 
# 
# From -- ./inp_files/4236.got.cif
#   From: 2010.05.17/outbox.cif.g08.bks.cpg/sg25_3_cif.got.tgz:4236.got - 2010.06.04 01:04:00.
