data_PCOD9337452
_publ_section_title
;
Structure prediction by ZEFSAII (Michael W. Deem and Ramdas Pophale) SiO2 
 PCOD9337452
Probable space group: P M M 2
;
_chemical_formula_sum "Si O2"
_cell_formula_units_Z 28
_cell_length_a 8.214899
_cell_length_b 9.872468
_cell_length_c 18.497887
_cell_angle_alpha 90.000000
_cell_angle_beta 90.000000
_cell_angle_gamma 90.000000
_cell_volume 1500.203192
_symmetry_space_group_name_H-M "P M M 2"
_symmetry_group_IT_number 25
_symmetry_cell_setting 'orthorhombic'
loop_
_space_group_symop_operation_xyz
x,y,z
-x,-y,z
-x,y,z
x,-y,z
loop_
_atom_site_type_symbol
_atom_site_label
_atom_site_fract_x
_atom_site_fract_y
_atom_site_fract_z
Si Si1 0.695789 0.154513 0.705050
Si Si2 0.194536 0.155534 0.286245
Si Si3 0.696598 0.844477 0.128379
Si Si4 0.698739 0.655867 0.834873
Si Si5 0.698606 0.344460 0.998483
Si Si6 0.806245 0.344942 0.576374
Si Si7 0.694431 0.345280 0.415944
O O1 0.500000 0.147987 0.711023
O O2 0.756458 0.239814 0.774296
O O3 0.736082 0.240383 0.633875
O O4 0.757351 0.000000 0.702511
O O5 0.251347 0.205556 0.207485
O O6 0.254506 0.247456 0.351568
O O7 0.000000 0.153552 0.287082
O O8 0.254371 0.000000 0.294067
O O9 0.500000 0.844996 0.126415
O O10 0.755881 0.753568 0.061943
O O11 0.753290 0.000000 0.121162
O O12 0.500000 0.656404 0.833932
O O13 0.748266 0.500000 0.819817
O O14 0.748934 0.692006 0.916731
O O15 0.500000 0.341145 0.998838
O O16 0.746678 0.500000 0.011813
O O17 0.744575 0.500000 0.587917
O O18 0.764049 0.305779 0.494172
O O19 0.000000 0.347172 0.584464
O O20 0.500000 0.345144 0.421494
O O21 0.749460 0.500000 0.401410
#
# Coordination Sequence:
#
# PCOD9337452 Si02
#       7
#     4   4   4   4   4   4   4
#     4  10  20  32  49  76 106 135 170 211 253 298
#     4  10  21  36  53  74 103 139 174 207 248 299
#     4   9  17  29  46  69  97 129 166 209 255 301
#     4   8  14  26  45  69  98 131 166 208 257 303
#     4   8  14  25  43  69  98 127 163 208 255 299
#     4  10  21  37  56  76 100 133 170 206 249 302
#     4  10  21  37  58  82 104 128 163 208 255 301
#
# _framework density 18.664137
#
# number of rings (size 3 to 8) (size 9 to 14) (size 15 to 20)
#    0.000    2.714    0.000    2.571    0.000    5.143 
#    0.000    4.286    0.000    0.857    0.000    4.000 
#    0.000    0.000    0.000    0.000    0.000    0.000 
#
# Total GULP energy -156181.203843 kJ/mol
# GULP energy per Si atom -5577.900137 kJ/mol
# Density = 1.862166 g / cm^3
# Si number density = 18.664137 Si / 1000 Ang^3
#
#
#
# Elastic Constant Matrix: (Units=GPa)
#
#
# Indices 1 2 3 4 5 6 
#
# 1 11.2583 11.0028 7.2421 0.0000 0.0000 0.0000
# 2 11.0028 115.7005 120.4553 0.0000 0.0000 0.0000
# 3 7.2421 120.4553 174.9495 0.0000 0.0000 0.0000
# 4 0.0000 0.0000 0.0000 59.2818 0.0000 0.0000
# 5 0.0000 0.0000 0.0000 0.0000 -40.4735 0.0000
# 6 0.0000 0.0000 0.0000 0.0000 0.0000 14.8765
#
#
#
# Elastic Compliance Matrix: (Units=1/GPa)
#
#
# Indices 1 2 3 4 5 6 
#
# 1 0.101485 -0.018635 0.008630 0.000000 0.000000 0.000000
# 2 -0.018635 0.033942 -0.022598 0.000000 0.000000 0.000000
# 3 0.008630 -0.022598 0.020918 0.000000 0.000000 0.000000
# 4 0.000000 0.000000 0.000000 0.016869 0.000000 0.000000
# 5 0.000000 0.000000 0.000000 0.000000 -0.024708 0.000000
# 6 0.000000 0.000000 0.000000 0.000000 0.000000 0.067220
#
#
# Mechanical properties :
#
#
# Convention : Reuss Voigt Hill
#
# Bulk Modulus (GPa) = 10.97245 64.36764 37.67004
# Shear Modulus (GPa) = 16.06101 17.61748 16.83925
#
# Velocity S-wave (km/s) = 2.93666 3.07566 3.00696
# Velocity P-wave (km/s) = 4.17016 6.86842 5.68179
#
# Compressibility (1/GPa) = 0.09113734
#
# Stress axis : x y z
#
# Youngs Moduli (GPa) = 9.85368 29.46200 47.80598
#
# Poissons Ratio (x) = 0.54903 -0.41255
# Poissons Ratio (y) = 0.18363 1.08033
# Poissons Ratio (z) = -0.08503 0.66579
#
# Static dielectric constant tensor:
#      x y z
#    x 1.650010 0.000000 0.000000 
#    y 0.000000 1.646100 0.000000 
#    z 0.000000 0.000000 1.620640 
# 
# From -- ./inp_files/6078.got.cif
#   From: 2010.05.17/outbox.cif.g08.bks.cpg/sg25_4_cif.got.tgz:6078.got - 2010.06.04 01:04:00.
