data_PCOD9337704
_publ_section_title
;
Structure prediction by ZEFSAII (Michael W. Deem and Ramdas Pophale) SiO2 
 PCOD9337704
Probable space group: P M M 2
;
_chemical_formula_sum "Si O2"
_cell_formula_units_Z 32
_cell_length_a 7.434354
_cell_length_b 9.606299
_cell_length_c 21.788427
_cell_angle_alpha 90.000000
_cell_angle_beta 90.000000
_cell_angle_gamma 90.000000
_cell_volume 1556.055973
_symmetry_space_group_name_H-M "P M M 2"
_symmetry_group_IT_number 25
_symmetry_cell_setting 'orthorhombic'
loop_
_space_group_symop_operation_xyz
x,y,z
-x,-y,z
-x,y,z
x,-y,z
loop_
_atom_site_type_symbol
_atom_site_label
_atom_site_fract_x
_atom_site_fract_y
_atom_site_fract_z
Si Si1 0.217888 0.834397 0.931330
Si Si2 0.783175 0.159632 0.665588
Si Si3 0.287031 0.843203 0.435403
Si Si4 0.713876 0.657142 0.546717
Si Si5 0.216558 0.340826 0.317517
Si Si6 0.219092 0.660968 0.180422
Si Si7 0.212577 0.168994 0.799394
Si Si8 0.219758 0.838102 0.064781
O O1 0.285455 0.780609 0.865302
O O2 0.000000 0.821790 0.929913
O O3 0.256527 0.000000 0.932626
O O4 0.277943 0.780775 0.997886
O O5 0.738684 0.260509 0.610022
O O6 0.715693 0.210184 0.732551
O O7 0.000000 0.153340 0.669735
O O8 0.721160 0.000000 0.654529
O O9 0.500000 0.855434 0.446666
O O10 0.211960 0.748757 0.490500
O O11 0.266614 0.763431 0.371282
O O12 0.213108 0.000000 0.434043
O O13 0.500000 0.645548 0.536919
O O14 0.786449 0.500000 0.548593
O O15 0.278701 0.500000 0.329400
O O16 0.276995 0.297436 0.249138
O O17 0.000000 0.345723 0.315901
O O18 0.269325 0.500000 0.171811
O O19 0.281980 0.753446 0.123824
O O20 0.000000 0.666694 0.180112
O O21 0.000000 0.202778 0.799588
O O22 0.226311 0.000000 0.799879
O O23 0.000000 0.834976 0.064532
O O24 0.271422 0.000000 0.069618
#
# Coordination Sequence:
#
# PCOD9337704 Si02
#       8
#     4   4   4   4   4   4   4   4
#     4   7   9  14  26  46  73 105 140 175 209 248
#     4   9  17  29  47  71  95 119 149 185 225 267
#     4  10  21  36  53  72  92 114 143 182 226 268
#     4  10  21  36  52  68  88 118 152 182 217 264
#     4   9  18  32  49  69  93 122 154 184 217 262
#     4   8  14  24  36  52  79 113 144 175 212 252
#     4   7  10  18  33  54  81 111 141 174 213 256
#     4   8  12  17  28  48  73 104 143 180 211 248
#
# _framework density 20.564813999999998
#
# number of rings (size 3 to 8) (size 9 to 14) (size 15 to 20)
#    0.000    3.500    0.000    3.750    0.000    3.000 
#    0.000    1.250    0.000    0.750    0.000    3.500 
#    0.000    1.000    0.000    5.000    0.000    8.500 
#
# Total GULP energy -178270.544731 kJ/mol
# GULP energy per Si atom -5570.954523 kJ/mol
# Density = 2.051801 g / cm^3
# Si number density = 20.564814 Si / 1000 Ang^3
#
#
#
# Elastic Constant Matrix: (Units=GPa)
#
#
# Indices 1 2 3 4 5 6 
#
# 1 62.3122 5.9813 2.5735 0.0000 0.0000 0.0000
# 2 5.9813 105.1101 118.5972 0.0000 0.0000 0.0000
# 3 2.5735 118.5972 248.3666 0.0000 0.0000 0.0000
# 4 0.0000 0.0000 0.0000 -73.3719 0.0000 0.0000
# 5 0.0000 0.0000 0.0000 0.0000 37.8920 0.0000
# 6 0.0000 0.0000 0.0000 0.0000 0.0000 262.8516
#
#
#
# Elastic Compliance Matrix: (Units=1/GPa)
#
#
# Indices 1 2 3 4 5 6 
#
# 1 0.016176 -0.001586 0.000590 0.000000 0.000000 0.000000
# 2 -0.001586 0.020783 -0.009908 0.000000 0.000000 0.000000
# 3 0.000590 -0.009908 0.008751 0.000000 0.000000 0.000000
# 4 0.000000 0.000000 0.000000 -0.013629 0.000000 0.000000
# 5 0.000000 0.000000 0.000000 0.000000 0.026391 0.000000
# 6 0.000000 0.000000 0.000000 0.000000 0.000000 0.003804
#
#
# Mechanical properties :
#
#
# Convention : Reuss Voigt Hill
#
# Bulk Modulus (GPa) = 41.83630 74.45477 58.14553
# Shear Modulus (GPa) = 54.31751 64.71679 59.51715
#
# Velocity S-wave (km/s) = 5.14492 5.61587 5.38554
# Velocity P-wave (km/s) = 7.46199 8.85066 8.18583
#
# Compressibility (1/GPa) = 0.02390269
#
# Stress axis : x y z
#
# Youngs Moduli (GPa) = 61.81966 48.11631 114.27040
#
# Poissons Ratio (x) = 0.07630 -0.06737
# Poissons Ratio (y) = 0.09803 1.13215
# Poissons Ratio (z) = -0.03645 0.47672
#
# Static dielectric constant tensor:
#      x y z
#    x 1.799870 0.000000 0.000000 
#    y 0.000000 1.695360 0.000000 
#    z 0.000000 0.000000 1.767490 
# 
# From -- ./inp_files/6568.got.cif
#   From: 2010.05.17/outbox.cif.g08.bks.cpg/sg25_4_cif.got.tgz:6568.got - 2010.06.04 01:04:00.
