data_PCOD9337489
_publ_section_title
;
Structure prediction by ZEFSAII (Michael W. Deem and Ramdas Pophale) SiO2 
 PCOD9337489
Probable space group: P M M 2
;
_chemical_formula_sum "Si O2"
_cell_formula_units_Z 32
_cell_length_a 7.424430
_cell_length_b 9.377263
_cell_length_c 21.519146
_cell_angle_alpha 90.000000
_cell_angle_beta 90.000000
_cell_angle_gamma 90.000000
_cell_volume 1498.180864
_symmetry_space_group_name_H-M "P M M 2"
_symmetry_group_IT_number 25
_symmetry_cell_setting 'orthorhombic'
loop_
_space_group_symop_operation_xyz
x,y,z
-x,-y,z
-x,y,z
x,-y,z
loop_
_atom_site_type_symbol
_atom_site_label
_atom_site_fract_x
_atom_site_fract_y
_atom_site_fract_z
Si Si1 0.720220 0.835644 0.398490
Si Si2 0.283115 0.837105 0.912704
Si Si3 0.279537 0.165432 0.642259
Si Si4 0.719912 0.663877 0.520836
Si Si5 0.784413 0.161367 0.153328
Si Si6 0.284380 0.662030 0.277971
Si Si7 0.214441 0.660827 0.036070
Si Si8 0.708852 0.826343 0.777865
O O1 0.500000 0.836154 0.398143
O O2 0.776320 0.755192 0.461144
O O3 0.781403 0.749796 0.337684
O O4 0.777650 0.000000 0.397281
O O5 0.500000 0.843788 0.907476
O O6 0.214383 0.785503 0.845093
O O7 0.220145 0.000000 0.923979
O O8 0.241180 0.736940 0.970222
O O9 0.500000 0.166628 0.643955
O O10 0.222435 0.261948 0.584854
O O11 0.215624 0.214813 0.710600
O O12 0.227644 0.000000 0.632828
O O13 0.500000 0.664400 0.520961
O O14 0.777224 0.500000 0.516381
O O15 0.750817 0.252863 0.214847
O O16 0.713779 0.242794 0.092424
O O17 0.000000 0.151133 0.146599
O O18 0.714409 0.000000 0.158793
O O19 0.500000 0.653212 0.284666
O O20 0.215036 0.500000 0.275503
O O21 0.286872 0.500000 0.036871
O O22 0.000000 0.650888 0.045530
O O23 0.500000 0.780101 0.777498
O O24 0.710734 0.000000 0.778043
#
# Coordination Sequence:
#
# PCOD9337489 Si02
#       8
#     4   4   4   4   4   4   4   4
#     4   9  16  26  40  58  83 117 155 192 229 270
#     4   9  17  30  49  72  96 123 156 194 236 281
#     4   8  12  19  32  49  72 107 148 183 217 264
#     4   9  15  21  30  48  77 112 149 188 228 270
#     4  10  21  37  56  75  94 120 156 195 233 275
#     4  10  20  33  50  73 100 128 156 189 233 282
#     4  10  21  36  52  70  94 124 156 191 233 279
#     4   7  11  21  37  57  82 112 146 184 225 269
#
# _framework density 21.359237
#
# number of rings (size 3 to 8) (size 9 to 14) (size 15 to 20)
#    0.000    3.000    0.000    3.375    0.000    6.000 
#    0.000    0.625    0.000    2.250    0.000    0.000 
#    0.000    1.000    0.000    5.250    0.000    9.875 
#
# Total GULP energy -178604.161978 kJ/mol
# GULP energy per Si atom -5581.380062 kJ/mol
# Density = 2.131062 g / cm^3
# Si number density = 21.359237 Si / 1000 Ang^3
#
#
#
# Elastic Constant Matrix: (Units=GPa)
#
#
# Indices 1 2 3 4 5 6 
#
# 1 68.6018 7.5259 2.5029 0.0000 0.0000 0.0000
# 2 7.5259 192.4251 140.5503 0.0000 0.0000 0.0000
# 3 2.5029 140.5503 249.5094 0.0000 0.0000 0.0000
# 4 0.0000 0.0000 0.0000 31.0090 0.0000 0.0000
# 5 0.0000 0.0000 0.0000 0.0000 45.2594 0.0000
# 6 0.0000 0.0000 0.0000 0.0000 0.0000 -5.5381
#
#
#
# Elastic Compliance Matrix: (Units=1/GPa)
#
#
# Indices 1 2 3 4 5 6 
#
# 1 0.014653 -0.000791 0.000299 0.000000 0.000000 0.000000
# 2 -0.000791 0.008873 -0.004990 0.000000 0.000000 0.000000
# 3 0.000299 -0.004990 0.006816 0.000000 0.000000 0.000000
# 4 0.000000 0.000000 0.000000 0.032249 0.000000 0.000000
# 5 0.000000 0.000000 0.000000 0.000000 0.022095 0.000000
# 6 0.000000 0.000000 0.000000 0.000000 0.000000 -0.180569
#
#
# Mechanical properties :
#
#
# Convention : Reuss Voigt Hill
#
# Bulk Modulus (GPa) = 51.61026 90.18828 70.89927
# Shear Modulus (GPa) = -63.72652 38.14322 -12.79165
#
# Velocity S-wave (km/s) = -5.46812 4.23045 -2.44986
# Velocity P-wave (km/s) = 3.95622 8.13501 5.02627
#
# Compressibility (1/GPa) = 0.01937599
#
# Stress axis : x y z
#
# Youngs Moduli (GPa) = 68.24636 112.70669 146.71798
#
# Poissons Ratio (x) = 0.08919 -0.04383
# Poissons Ratio (y) = 0.05400 0.73213
# Poissons Ratio (z) = -0.02039 0.56241
#
# Static dielectric constant tensor:
#      x y z
#    x 1.837210 0.000000 0.000000 
#    y 0.000000 1.724720 0.000000 
#    z 0.000000 0.000000 1.753850 
# 
# From -- ./inp_files/6362.got.cif
#   From: 2010.05.17/outbox.cif.g08.bks.cpg/sg25_4_cif.got.tgz:6362.got - 2010.06.04 01:04:00.
