data_PCOD9337039
_publ_section_title
;
Structure prediction by ZEFSAII (Michael W. Deem and Ramdas Pophale) SiO2 
 PCOD9337039
Probable space group: I 21 21 21
;
_chemical_formula_sum "Si O2"
_cell_formula_units_Z 28
_cell_length_a 6.000000
_cell_length_b 24.000000
_cell_length_c 21.000000
_cell_angle_alpha 90.000000
_cell_angle_beta 90.000000
_cell_angle_gamma 90.000000
_cell_volume 3024.000000
_symmetry_space_group_name_H-M "I 21 21 21"
_symmetry_group_IT_number 24
_symmetry_cell_setting 'orthorhombic'
loop_
_space_group_symop_operation_xyz
x,y,z
-x,1/2-y,z
x,-y,1/2-z
1/2-x,y,-z
1/2+x,1/2+y,1/2+z
1/2-x,-y,1/2+z
1/2+x,1/2-y,-z
-x,1/2+y,1/2-z
loop_
_atom_site_type_symbol
_atom_site_label
_atom_site_fract_x
_atom_site_fract_y
_atom_site_fract_z
Si Si1 0.934403 0.029105 0.055334
Si Si2 0.881462 0.025074 0.645745
Si Si3 0.507235 0.898216 0.799523
Si Si4 0.750000 0.378790 0.000000
Si Si5 0.278812 0.000000 0.250000
Si Si6 0.264684 0.918908 0.930481
Si Si7 0.016548 0.182877 0.885025
Si Si8 0.486192 0.682688 0.680689
O O1 0.098103 0.080784 0.044294
O O2 0.789784 0.020806 0.119084
O O3 0.750000 0.029855 0.000000
O O4 0.082407 0.973125 0.055730
O O5 0.741306 0.072057 0.683097
O O6 0.061614 0.994796 0.689370
O O7 0.024414 0.057530 0.591999
O O8 0.378732 0.889473 0.868170
O O9 0.528790 0.847491 0.749870
O O10 0.367723 0.945953 0.763056
O O11 0.580422 0.344297 0.045927
O O12 0.250000 0.889479 0.000000
O O13 0.257109 0.169431 0.847247
O O14 0.000000 0.250000 0.890728
O O15 0.759389 0.168667 0.856373
O O16 0.500000 0.750000 0.685333
#
# Coordination Sequence:
#
# PCOD9337039 Si02
#       8
#     8   8   8   4   4   8   8   8
#     4  11  21  37  55  87 119 171 209 252 311 385
#     4  10  21  37  57  83 130 165 210 253 317 386
#     4  10  23  37  62  92 122 173 211 271 328 393
#     4  12  26  40  64  94 122 172 228 272 328 386
#     4  10  22  38  52  88 130 160 206 262 312 394
#     4  10  19  38  58  87 130 163 208 248 319 399
#     4  10  26  47  69  92 129 169 219 288 337 388
#     4  10  24  49  71  96 126 171 228 281 341 394
#
# _framework density 9.2592590000000001
#
# number of rings (size 3 to 8) (size 9 to 14) (size 15 to 20)
#    0.000    1.714    2.143    0.429    6.000    7.429 
#    2.571    0.000    0.000    0.000    3.714    0.000 
#    0.000    0.000    0.000    0.000    0.000    0.000 
#
# Total GULP energy -155968.445146 kJ/mol
# GULP energy per Si atom -5570.301612 kJ/mol
# Density = 0.923818 g / cm^3
# Si number density = 9.259259 Si / 1000 Ang^3
#
#
#
# Elastic Constant Matrix: (Units=GPa)
#
#
# Indices 1 2 3 4 5 6 
#
# 1 132.2845 28.8666 39.7255 0.0000 0.0000 0.0000
# 2 28.8666 49.2091 36.0925 0.0000 0.0000 0.0000
# 3 39.7255 36.0925 108.5115 0.0000 0.0000 0.0000
# 4 0.0000 0.0000 0.0000 33.2020 0.0000 0.0000
# 5 0.0000 0.0000 0.0000 0.0000 46.1726 0.0000
# 6 0.0000 0.0000 0.0000 0.0000 0.0000 21.7941
#
#
#
# Elastic Compliance Matrix: (Units=1/GPa)
#
#
# Indices 1 2 3 4 5 6 
#
# 1 0.008996 -0.003785 -0.002035 0.000000 0.000000 0.000000
# 2 -0.003785 0.028471 -0.008084 0.000000 0.000000 0.000000
# 3 -0.002035 -0.008084 0.012649 0.000000 0.000000 0.000000
# 4 0.000000 0.000000 0.000000 0.030119 0.000000 0.000000
# 5 0.000000 0.000000 0.000000 0.000000 0.021658 0.000000
# 6 0.000000 0.000000 0.000000 0.000000 0.000000 0.045884
#
#
# Mechanical properties :
#
#
# Convention : Reuss Voigt Hill
#
# Bulk Modulus (GPa) = 44.82458 55.48603 50.15530
# Shear Modulus (GPa) = 27.31917 32.58846 29.95381
#
# Velocity S-wave (km/s) = 3.84505 4.19952 4.02619
# Velocity P-wave (km/s) = 6.63101 7.31725 6.98257
#
# Compressibility (1/GPa) = 0.02230919
#
# Stress axis : x y z
#
# Youngs Moduli (GPa) = 111.15525 35.12322 79.05532
#
# Poissons Ratio (x) = 0.13295 0.16084
# Poissons Ratio (y) = 0.42074 0.63910
# Poissons Ratio (z) = 0.22615 0.28394
#
# Static dielectric constant tensor:
#      x y z
#    x 1.696020 0.000000 0.000000 
#    y 0.000000 1.615740 0.000000 
#    z 0.000000 0.000000 1.722720 
# 
# From -- ./inp_files/32278.got.cif
#   From: 2010.05.17/outbox.ucp.g08.bks.cvg/sg24_17_cif.got.tgz:32278.got - 2010.06.11 15:20:44.
