data_PCOD9337878
_publ_section_title
;
Structure prediction by ZEFSAII (Michael W. Deem and Ramdas Pophale) SiO2 
 PCOD9337878
Probable space group: P M C 21
;
_chemical_formula_sum "Si O2"
_cell_formula_units_Z 22
_cell_length_a 27.426710
_cell_length_b 6.422907
_cell_length_c 5.134024
_cell_angle_alpha 90.000000
_cell_angle_beta 90.000000
_cell_angle_gamma 90.000000
_cell_volume 904.405600
_symmetry_space_group_name_H-M "P M C 21"
_symmetry_group_IT_number 26
_symmetry_cell_setting 'orthorhombic'
loop_
_space_group_symop_operation_xyz
x,y,z
-x,-y,1/2+z
-x,y,z
x,-y,1/2+z
loop_
_atom_site_type_symbol
_atom_site_label
_atom_site_fract_x
_atom_site_fract_y
_atom_site_fract_z
Si Si1 0.602276 0.855850 0.898110
Si Si2 0.500000 0.145097 0.280527
Si Si3 0.053695 0.353100 0.795536
Si Si4 0.192467 0.738379 0.966685
Si Si5 0.705685 0.144063 0.287332
Si Si6 0.847144 0.201548 0.963279
O O1 0.602197 0.047973 0.688126
O O2 0.551227 0.742321 0.838483
O O3 0.653743 0.746590 0.840579
O O4 0.500000 0.953880 0.491981
O O5 0.056498 0.472275 0.521708
O O6 0.099177 0.200671 0.842192
O O7 0.000000 0.252485 0.815464
O O8 0.246298 0.725457 0.851330
O O9 0.152018 0.694663 0.747118
O O10 0.178485 0.982902 0.018957
O O11 0.187435 0.670896 0.265746
O O12 0.706972 0.954325 0.499307
#
# Coordination Sequence:
#
# PCOD9337878 Si02
#       6
#     4   2   4   4   4   4
#     4   8  14  18  29  40  62  93 129 169 194 219
#     4   8  12  20  24  38  56  86 130 172 196 210
#     4  10  21  37  53  67  84 109 141 171 198 237
#     4  10  17  28  43  67  92 110 133 167 206 249
#     4  10  14  23  34  53  77 105 132 163 198 239
#     4  10  18  30  47  66  87 110 132 166 206 240
#
# _framework density 24.325369999999999
#
# number of rings (size 3 to 8) (size 9 to 14) (size 15 to 20)
#    0.000    2.545    3.636    1.091    0.000    0.000 
#    0.000    3.636    0.000    0.000    0.000    0.000 
#    0.000    0.000    0.000    0.000    0.000    0.000 
#
# Total GULP energy -122619.300236 kJ/mol
# GULP energy per Si atom -5573.604556 kJ/mol
# Density = 2.427000 g / cm^3
# Si number density = 24.325370 Si / 1000 Ang^3
#
#
#
# Elastic Constant Matrix: (Units=GPa)
#
#
# Indices 1 2 3 4 5 6 
#
# 1 214.1396 -8.6536 -14.3829 0.0000 0.0000 0.0000
# 2 -8.6536 30.4844 -30.6157 0.0000 0.0000 0.0000
# 3 -14.3829 -30.6157 143.1950 0.0000 0.0000 0.0000
# 4 0.0000 0.0000 0.0000 -98.8375 0.0000 0.0000
# 5 0.0000 0.0000 0.0000 0.0000 36.7949 0.0000
# 6 0.0000 0.0000 0.0000 0.0000 0.0000 8.5130
#
#
#
# Elastic Compliance Matrix: (Units=1/GPa)
#
#
# Indices 1 2 3 4 5 6 
#
# 1 0.004832 0.002368 0.000992 0.000000 0.000000 0.000000
# 2 0.002368 0.042933 0.009417 0.000000 0.000000 0.000000
# 3 0.000992 0.009417 0.009097 0.000000 0.000000 0.000000
# 4 0.000000 0.000000 0.000000 -0.010118 0.000000 0.000000
# 5 0.000000 0.000000 0.000000 0.000000 0.027178 0.000000
# 6 0.000000 0.000000 0.000000 0.000000 0.000000 0.117467
#
#
# Mechanical properties :
#
#
# Convention : Reuss Voigt Hill
#
# Bulk Modulus (GPa) = 12.13379 31.16828 21.65103
# Shear Modulus (GPa) = 25.86543 18.72549 22.29546
#
# Velocity S-wave (km/s) = 3.26438 2.77752 3.03074
# Velocity P-wave (km/s) = 4.38260 4.80906 4.60078
#
# Compressibility (1/GPa) = 0.08241450
#
# Stress axis : x y z
#
# Youngs Moduli (GPa) = 206.94838 23.29184 109.93238
#
# Poissons Ratio (x) = -0.05514 -0.10900
# Poissons Ratio (y) = -0.48995 -1.03525
# Poissons Ratio (z) = -0.20520 -0.21934
#
# Static dielectric constant tensor:
#      x y z
#    x 2.007070 0.000000 0.000000 
#    y 0.000000 4.499440 0.000000 
#    z 0.000000 0.000000 2.024180 
# 
# From -- ./inp_files/1022.got.cif
#   From: 2010.05.17/outbox.cif.g08.bks.cpg/sg26_1_cif.got.tgz:1022.got - 2010.06.04 01:07:29.
