data_PCOD9337222
_publ_section_title
;
Structure prediction by ZEFSAII (Michael W. Deem and Ramdas Pophale) SiO2 
 PCOD9337222
Probable space group: P M M 2
;
_chemical_formula_sum "Si O2"
_cell_formula_units_Z 28
_cell_length_a 11.223037
_cell_length_b 16.413344
_cell_length_c 8.447557
_cell_angle_alpha 90.000000
_cell_angle_beta 90.000000
_cell_angle_gamma 90.000000
_cell_volume 1556.103922
_symmetry_space_group_name_H-M "P M M 2"
_symmetry_group_IT_number 25
_symmetry_cell_setting 'orthorhombic'
loop_
_space_group_symop_operation_xyz
x,y,z
-x,-y,z
-x,y,z
x,-y,z
loop_
_atom_site_type_symbol
_atom_site_label
_atom_site_fract_x
_atom_site_fract_y
_atom_site_fract_z
Si Si1 0.863165 0.798463 0.764850
Si Si2 0.638677 0.407609 0.629161
Si Si3 0.366869 0.804513 0.181594
Si Si4 0.870370 0.588740 0.209672
Si Si5 0.790127 0.723760 0.439619
Si Si6 0.638645 0.903739 0.881210
Si Si7 0.721480 0.666990 0.952685
O O1 0.854842 0.768508 0.583492
O O2 0.750317 0.859364 0.795092
O O3 0.827744 0.721791 0.876729
O O4 0.000000 0.825870 0.797879
O O5 0.500000 0.410360 0.591635
O O6 0.686988 0.500000 0.613216
O O7 0.697993 0.339556 0.519458
O O8 0.656575 0.376319 0.808309
O O9 0.500000 0.808120 0.247139
O O10 0.274837 0.786447 0.321225
O O11 0.346025 0.881589 0.067407
O O12 0.355914 0.729849 0.056212
O O13 0.854156 0.500000 0.286515
O O14 0.865877 0.663127 0.330949
O O15 0.000000 0.589228 0.132213
O O16 0.772899 0.603255 0.076668
O O17 0.500000 0.877388 0.840409
O O18 0.644859 0.000000 0.854753
#
# Coordination Sequence:
#
# PCOD9337222 Si02
#       7
#     4   4   4   4   4   4   4
#     4  10  20  34  54  78 106 140 173 208 252 305
#     4  10  19  30  45  67  98 136 177 222 266 303
#     4   9  17  31  52  75  99 131 167 206 254 307
#     4  10  19  31  47  66  92 129 172 218 262 299
#     4  10  20  32  47  71 103 136 172 209 251 305
#     4   9  19  37  60  84 106 128 161 206 254 306
#     4   9  18  31  48  70  96 129 175 221 260 302
#
# _framework density 17.993656000000001
#
# number of rings (size 3 to 8) (size 9 to 14) (size 15 to 20)
#    0.000    2.429    0.000    2.571    0.000    4.286 
#    0.000    1.429    0.000   15.429    0.000    0.000 
#    0.000    0.000    0.000    0.000    0.000    0.000 
#
# Total GULP energy -155871.612907 kJ/mol
# GULP energy per Si atom -5566.843318 kJ/mol
# Density = 1.795270 g / cm^3
# Si number density = 17.993656 Si / 1000 Ang^3
#
#
#
# Elastic Constant Matrix: (Units=GPa)
#
#
# Indices 1 2 3 4 5 6 
#
# 1 95.1544 31.1544 17.8166 0.0000 0.0000 0.0000
# 2 31.1544 57.8485 7.0851 0.0000 0.0000 0.0000
# 3 17.8166 7.0851 50.5553 0.0000 0.0000 0.0000
# 4 0.0000 0.0000 0.0000 11.0767 0.0000 0.0000
# 5 0.0000 0.0000 0.0000 0.0000 4.5020 0.0000
# 6 0.0000 0.0000 0.0000 0.0000 0.0000 16.2711
#
#
#
# Elastic Compliance Matrix: (Units=1/GPa)
#
#
# Indices 1 2 3 4 5 6 
#
# 1 0.013435 -0.006772 -0.003786 0.000000 0.000000 0.000000
# 2 -0.006772 0.021002 -0.000557 0.000000 0.000000 0.000000
# 3 -0.003786 -0.000557 0.021193 0.000000 0.000000 0.000000
# 4 0.000000 0.000000 0.000000 0.090279 0.000000 0.000000
# 5 0.000000 0.000000 0.000000 0.000000 0.222126 0.000000
# 6 0.000000 0.000000 0.000000 0.000000 0.000000 0.061459
#
#
# Mechanical properties :
#
#
# Convention : Reuss Voigt Hill
#
# Bulk Modulus (GPa) = 29.93955 35.07449 32.50702
# Shear Modulus (GPa) = 10.80250 16.20343 13.50296
#
# Velocity S-wave (km/s) = 2.45286 3.00410 2.74237
# Velocity P-wave (km/s) = 4.96962 5.61853 5.30401
#
# Compressibility (1/GPa) = 0.03340064
#
# Stress axis : x y z
#
# Youngs Moduli (GPa) = 74.43096 47.61508 47.18650
#
# Poissons Ratio (x) = 0.32245 0.17864
# Poissons Ratio (y) = 0.50404 0.02627
# Poissons Ratio (z) = 0.28178 0.02651
#
# Static dielectric constant tensor:
#      x y z
#    x 1.629950 0.000000 0.000000 
#    y 0.000000 1.626890 0.000000 
#    z 0.000000 0.000000 1.599410 
# 
# From -- ./inp_files/2834.got.cif
#   From: 2010.05.17/outbox.cif.g08.bks.cpg/sg25_2_cif.got.tgz:2834.got - 2010.06.04 01:04:00.
