data_PCOD9337194
_publ_section_title
;
Structure prediction by ZEFSAII (Michael W. Deem and Ramdas Pophale) SiO2 
 PCOD9337194
Probable space group: P M M 2
;
_chemical_formula_sum "Si O2"
_cell_formula_units_Z 28
_cell_length_a 8.620195
_cell_length_b 18.506233
_cell_length_c 9.773702
_cell_angle_alpha 90.000000
_cell_angle_beta 90.000000
_cell_angle_gamma 90.000000
_cell_volume 1559.172654
_symmetry_space_group_name_H-M "P M M 2"
_symmetry_group_IT_number 25
_symmetry_cell_setting 'orthorhombic'
loop_
_space_group_symop_operation_xyz
x,y,z
-x,-y,z
-x,y,z
x,-y,z
loop_
_atom_site_type_symbol
_atom_site_label
_atom_site_fract_x
_atom_site_fract_y
_atom_site_fract_z
Si Si1 0.680993 0.692015 0.203060
Si Si2 0.324708 0.084817 0.833088
Si Si3 0.820083 0.308377 0.755344
Si Si4 0.813218 0.081936 0.531533
Si Si5 0.176358 0.802522 0.007128
Si Si6 0.188224 0.583649 0.979495
Si Si7 0.812250 0.758876 0.471960
O O1 0.500000 0.678834 0.220289
O O2 0.713116 0.763896 0.114054
O O3 0.753964 0.628152 0.111203
O O4 0.759261 0.708823 0.347663
O O5 0.500000 0.114849 0.823348
O O6 0.237321 0.093983 0.688901
O O7 0.334379 0.000000 0.855721
O O8 0.233660 0.120764 0.956942
O O9 0.754005 0.276585 0.614724
O O10 0.000000 0.326616 0.724972
O O11 0.819951 0.245276 0.868673
O O12 0.753841 0.376192 0.840855
O O13 0.761164 0.156555 0.458029
O O14 0.000000 0.079955 0.523885
O O15 0.757972 0.000000 0.491710
O O16 0.000000 0.802314 0.059620
O O17 0.232762 0.500000 0.983835
O O18 0.000000 0.588521 0.978933
O O19 0.000000 0.760935 0.476645
#
# Coordination Sequence:
#
# PCOD9337194 Si02
#       7
#     4   4   4   4   4   4   4
#     4  11  23  36  52  78 110 145 179 218 274 331
#     4  10  19  29  45  74 109 140 173 220 278 329
#     4   8  15  29  53  81 103 127 169 220 264 303
#     4   9  17  30  50  75 103 141 188 231 269 312
#     4  10  18  34  55  75  98 134 182 227 265 313
#     4   9  18  36  61  85 108 138 177 220 266 322
#     4  10  18  33  53  77 109 145 184 227 267 315
#
# _framework density 17.958241999999998
#
# number of rings (size 3 to 8) (size 9 to 14) (size 15 to 20)
#    0.000    2.429    1.429    3.000    0.000    1.714 
#    0.000    2.143    0.000    5.143    0.000    0.000 
#    0.000    0.000    0.000    0.000    0.000    0.000 
#
# Total GULP energy -155920.736305 kJ/mol
# GULP energy per Si atom -5568.597725 kJ/mol
# Density = 1.791737 g / cm^3
# Si number density = 17.958242 Si / 1000 Ang^3
#
#
#
# Elastic Constant Matrix: (Units=GPa)
#
#
# Indices 1 2 3 4 5 6 
#
# 1 11.1585 14.8508 4.7702 0.0000 0.0000 0.0000
# 2 14.8508 103.9044 43.8580 0.0000 0.0000 0.0000
# 3 4.7702 43.8580 80.0869 0.0000 0.0000 0.0000
# 4 0.0000 0.0000 0.0000 18.9401 0.0000 0.0000
# 5 0.0000 0.0000 0.0000 0.0000 2.5403 0.0000
# 6 0.0000 0.0000 0.0000 0.0000 0.0000 14.1904
#
#
#
# Elastic Compliance Matrix: (Units=1/GPa)
#
#
# Indices 1 2 3 4 5 6 
#
# 1 0.111118 -0.017023 0.002704 0.000000 0.000000 0.000000
# 2 -0.017023 0.015126 -0.007269 0.000000 0.000000 0.000000
# 3 0.002704 -0.007269 0.016306 0.000000 0.000000 0.000000
# 4 0.000000 0.000000 0.000000 0.052798 0.000000 0.000000
# 5 0.000000 0.000000 0.000000 0.000000 0.393654 0.000000
# 6 0.000000 0.000000 0.000000 0.000000 0.000000 0.070470
#
#
# Mechanical properties :
#
#
# Convention : Reuss Voigt Hill
#
# Bulk Modulus (GPa) = 10.06311 35.78974 22.92642
# Shear Modulus (GPa) = 6.79557 15.91223 11.35390
#
# Velocity S-wave (km/s) = 1.94739 2.97992 2.51716
# Velocity P-wave (km/s) = 3.26683 5.64026 4.60895
#
# Compressibility (1/GPa) = 0.09937282
#
# Stress axis : x y z
#
# Youngs Moduli (GPa) = 8.99945 66.11269 61.32596
#
# Poissons Ratio (x) = 1.12544 -0.16582
# Poissons Ratio (y) = 0.15320 0.44580
# Poissons Ratio (z) = -0.02433 0.48060
#
# Static dielectric constant tensor:
#      x y z
#    x 1.626210 0.000000 0.000000 
#    y 0.000000 1.646660 0.000000 
#    z 0.000000 0.000000 1.600840 
# 
# From -- ./inp_files/2294.got.cif
#   From: 2010.05.17/outbox.cif.g08.bks.cpg/sg25_2_cif.got.tgz:2294.got - 2010.06.04 01:04:00.
