data_PCOD9337165
_publ_section_title
;
Structure prediction by ZEFSAII (Michael W. Deem and Ramdas Pophale) SiO2 
 PCOD9337165
Probable space group: P M M 2
;
_chemical_formula_sum "Si O2"
_cell_formula_units_Z 32
_cell_length_a 8.409338
_cell_length_b 15.232990
_cell_length_c 12.730696
_cell_angle_alpha 90.000000
_cell_angle_beta 90.000000
_cell_angle_gamma 90.000000
_cell_volume 1630.794031
_symmetry_space_group_name_H-M "P M M 2"
_symmetry_group_IT_number 25
_symmetry_cell_setting 'orthorhombic'
loop_
_space_group_symop_operation_xyz
x,y,z
-x,-y,z
-x,y,z
x,-y,z
loop_
_atom_site_type_symbol
_atom_site_label
_atom_site_fract_x
_atom_site_fract_y
_atom_site_fract_z
Si Si1 0.312032 0.678287 0.751070
Si Si2 0.812532 0.275652 0.128537
Si Si3 0.807637 0.291033 0.526263
Si Si4 0.805475 0.601949 0.319139
Si Si5 0.193741 0.904927 0.581194
Si Si6 0.689722 0.594706 0.960995
Si Si7 0.688873 0.095818 0.046735
Si Si8 0.813574 0.136560 0.815933
O O1 0.500000 0.699587 0.751276
O O2 0.255845 0.664916 0.632792
O O3 0.286360 0.602866 0.836301
O O4 0.215787 0.760837 0.796347
O O5 0.749463 0.337608 0.222160
O O6 0.749029 0.177589 0.114494
O O7 0.000000 0.268956 0.142789
O O8 0.773369 0.327649 0.022213
O O9 0.758422 0.347077 0.425350
O O10 0.755420 0.187808 0.529490
O O11 0.000000 0.290503 0.529698
O O12 0.753164 0.500000 0.314516
O O13 0.000000 0.600107 0.316562
O O14 0.242123 0.902693 0.704327
O O15 0.000000 0.903295 0.579836
O O16 0.244046 0.000000 0.536433
O O17 0.500000 0.602076 0.979156
O O18 0.745793 0.500000 0.999866
O O19 0.500000 0.095436 0.054699
O O20 0.751894 0.000000 0.079486
O O21 0.731596 0.108844 0.923672
O O22 0.000000 0.117122 0.827005
#
# Coordination Sequence:
#
# PCOD9337165 Si02
#       8
#     4   4   4   4   4   4   4   4
#     4  10  19  32  51  77 115 153 183 226 283 337
#     4  11  22  37  59  83 109 143 191 245 289 338
#     4   9  18  33  54  78 105 141 186 232 282 338
#     4   9  19  37  59  83 110 141 183 241 299 342
#     4   8  14  25  44  73 106 137 173 217 264 316
#     4  10  21  36  54  78 112 151 184 224 287 352
#     4  11  23  37  54  79 114 154 189 225 280 345
#     4  10  18  30  51  78 109 148 191 231 273 325
#
# _framework density 19.622343000000001
#
# number of rings (size 3 to 8) (size 9 to 14) (size 15 to 20)
#    0.000    2.250    1.250    3.000    0.000    3.250 
#    0.000    1.875    0.000    7.125    0.000    0.000 
#    0.000    0.000    0.000    0.000    0.000    0.000 
#
# Total GULP energy -178414.103139 kJ/mol
# GULP energy per Si atom -5575.440723 kJ/mol
# Density = 1.957768 g / cm^3
# Si number density = 19.622343 Si / 1000 Ang^3
#
#
#
# Elastic Constant Matrix: (Units=GPa)
#
#
# Indices 1 2 3 4 5 6 
#
# 1 14.4198 22.1589 12.6236 0.0000 0.0000 0.0000
# 2 22.1589 160.4332 70.3179 0.0000 0.0000 0.0000
# 3 12.6236 70.3179 110.7808 0.0000 0.0000 0.0000
# 4 0.0000 0.0000 0.0000 12.9455 0.0000 0.0000
# 5 0.0000 0.0000 0.0000 0.0000 -179.1021 0.0000
# 6 0.0000 0.0000 0.0000 0.0000 0.0000 9.2952
#
#
#
# Elastic Compliance Matrix: (Units=1/GPa)
#
#
# Indices 1 2 3 4 5 6 
#
# 1 0.088863 -0.010856 -0.003236 0.000000 0.000000 0.000000
# 2 -0.010856 0.009962 -0.005086 0.000000 0.000000 0.000000
# 3 -0.003236 -0.005086 0.012624 0.000000 0.000000 0.000000
# 4 0.000000 0.000000 0.000000 0.077247 0.000000 0.000000
# 5 0.000000 0.000000 0.000000 0.000000 -0.005583 0.000000
# 6 0.000000 0.000000 0.000000 0.000000 0.000000 0.107582
#
#
# Mechanical properties :
#
#
# Convention : Reuss Voigt Hill
#
# Bulk Modulus (GPa) = 13.68095 55.09275 34.38685
# Shear Modulus (GPa) = 14.14772 -19.33672 -2.59450
#
# Velocity S-wave (km/s) = 2.68806 -3.14258 -1.15112
# Velocity P-wave (km/s) = 4.07694 3.86907 3.97437
#
# Compressibility (1/GPa) = 0.07309434
#
# Stress axis : x y z
#
# Youngs Moduli (GPa) = 11.25325 100.38371 79.21426
#
# Poissons Ratio (x) = 1.08972 0.25630
# Poissons Ratio (y) = 0.12216 0.40290
# Poissons Ratio (z) = 0.03641 0.51057
#
# Static dielectric constant tensor:
#      x y z
#    x 1.676210 0.000000 0.000000 
#    y 0.000000 1.717270 0.000000 
#    z 0.000000 0.000000 1.683620 
# 
# From -- ./inp_files/4176.got.cif
#   From: 2010.05.17/outbox.cif.g08.bks.cpg/sg25_3_cif.got.tgz:4176.got - 2010.06.04 01:04:00.
