data_PCOD9337340
_publ_section_title
;
Structure prediction by ZEFSAII (Michael W. Deem and Ramdas Pophale) SiO2 
 PCOD9337340
Probable space group: P M M 2
;
_chemical_formula_sum "Si O2"
_cell_formula_units_Z 24
_cell_length_a 8.535884
_cell_length_b 14.518800
_cell_length_c 10.574591
_cell_angle_alpha 90.000000
_cell_angle_beta 90.000000
_cell_angle_gamma 90.000000
_cell_volume 1310.517444
_symmetry_space_group_name_H-M "P M M 2"
_symmetry_group_IT_number 25
_symmetry_cell_setting 'orthorhombic'
loop_
_space_group_symop_operation_xyz
x,y,z
-x,-y,z
-x,y,z
x,-y,z
loop_
_atom_site_type_symbol
_atom_site_label
_atom_site_fract_x
_atom_site_fract_y
_atom_site_fract_z
Si Si1 0.310722 0.396128 0.291220
Si Si2 0.690835 0.894406 0.430502
Si Si3 0.312222 0.213264 0.681733
Si Si4 0.187530 0.106575 0.925803
Si Si5 0.812481 0.604940 0.575111
Si Si6 0.310421 0.208573 0.173526
O O1 0.500000 0.394259 0.298173
O O2 0.261636 0.500000 0.255890
O O3 0.248809 0.376983 0.432569
O O4 0.262638 0.314751 0.196855
O O5 0.500000 0.893817 0.431799
O O6 0.742517 0.839441 0.554554
O O7 0.738127 0.845798 0.300465
O O8 0.742920 0.000000 0.434667
O O9 0.500000 0.212403 0.683726
O O10 0.250558 0.160017 0.803577
O O11 0.254516 0.317825 0.667539
O O12 0.000000 0.105836 0.921652
O O13 0.242901 0.000000 0.927299
O O14 0.242374 0.159813 0.050947
O O15 0.765208 0.500000 0.607353
O O16 0.000000 0.609671 0.574414
O O17 0.500000 0.205449 0.165315
#
# Coordination Sequence:
#
# PCOD9337340 Si02
#       6
#     4   4   4   4   4   4
#     4   9  17  32  56  86 117 147 186 236 285 336
#     4   9  17  30  52  83 112 136 178 238 288 332
#     4  11  21  37  60  85 112 149 195 240 287 338
#     4  11  25  42  57  79 115 156 194 236 291 351
#     4  10  20  34  55  85 120 154 186 228 287 347
#     4  10  19  35  58  84 112 148 191 236 286 339
#
# _framework density 18.313376999999999
#
# number of rings (size 3 to 8) (size 9 to 14) (size 15 to 20)
#    0.000    2.000    1.667    2.500    0.000    4.333 
#    0.000    0.833    0.000    6.000    0.000    0.000 
#    0.000    0.000    0.000    0.000    0.000    0.000 
#
# Total GULP energy -133988.513667 kJ/mol
# GULP energy per Si atom -5582.854736 kJ/mol
# Density = 1.827170 g / cm^3
# Si number density = 18.313377 Si / 1000 Ang^3
#
#
#
# Elastic Constant Matrix: (Units=GPa)
#
#
# Indices 1 2 3 4 5 6 
#
# 1 23.6747 38.1233 30.1442 0.0000 0.0000 0.0000
# 2 38.1233 189.2642 100.6227 0.0000 0.0000 0.0000
# 3 30.1442 100.6227 149.8020 0.0000 0.0000 0.0000
# 4 0.0000 0.0000 0.0000 33.1513 0.0000 0.0000
# 5 0.0000 0.0000 0.0000 0.0000 -45.7949 0.0000
# 6 0.0000 0.0000 0.0000 0.0000 0.0000 23.0884
#
#
#
# Elastic Compliance Matrix: (Units=1/GPa)
#
#
# Indices 1 2 3 4 5 6 
#
# 1 0.066743 -0.009805 -0.006844 0.000000 0.000000 0.000000
# 2 -0.009805 0.009659 -0.004515 0.000000 0.000000 0.000000
# 3 -0.006844 -0.004515 0.011085 0.000000 0.000000 0.000000
# 4 0.000000 0.000000 0.000000 0.030165 0.000000 0.000000
# 5 0.000000 0.000000 0.000000 0.000000 -0.021837 0.000000
# 6 0.000000 0.000000 0.000000 0.000000 0.000000 0.043312
#
#
# Mechanical properties :
#
#
# Convention : Reuss Voigt Hill
#
# Bulk Modulus (GPa) = 22.14410 77.83569 49.98989
# Shear Modulus (GPa) = 25.44403 15.01234 20.22818
#
# Velocity S-wave (km/s) = 3.73147 2.86623 3.32709
# Velocity P-wave (km/s) = 5.53924 7.31765 6.48965
#
# Compressibility (1/GPa) = 0.04515875
#
# Stress axis : x y z
#
# Youngs Moduli (GPa) = 14.98279 103.52959 90.20836
#
# Poissons Ratio (x) = 1.01513 0.61741
# Poissons Ratio (y) = 0.14691 0.40729
# Poissons Ratio (z) = 0.10255 0.46743
#
# Static dielectric constant tensor:
#      x y z
#    x 1.626090 0.000000 0.000000 
#    y 0.000000 1.652090 0.000000 
#    z 0.000000 0.000000 1.586440 
# 
# From -- ./inp_files/1988.got.cif
#   From: 2010.05.17/outbox.cif.g08.bks.cpg/sg25_1_cif.got.tgz:1988.got - 2010.06.04 01:04:00.
