data_PCOD9337544
_publ_section_title
;
Structure prediction by ZEFSAII (Michael W. Deem and Ramdas Pophale) SiO2 
 PCOD9337544
Probable space group: P M M 2
;
_chemical_formula_sum "Si O2"
_cell_formula_units_Z 28
_cell_length_a 14.678902
_cell_length_b 8.755823
_cell_length_c 13.234122
_cell_angle_alpha 90.000000
_cell_angle_beta 90.000000
_cell_angle_gamma 90.000000
_cell_volume 1700.927014
_symmetry_space_group_name_H-M "P M M 2"
_symmetry_group_IT_number 25
_symmetry_cell_setting 'orthorhombic'
loop_
_space_group_symop_operation_xyz
x,y,z
-x,-y,z
-x,y,z
x,-y,z
loop_
_atom_site_type_symbol
_atom_site_label
_atom_site_fract_x
_atom_site_fract_y
_atom_site_fract_z
Si Si1 0.283356 0.316580 0.706220
Si Si2 0.282427 0.182641 0.097810
Si Si3 0.896186 0.182596 0.788944
Si Si4 0.392946 0.316261 0.283106
Si Si5 0.604423 0.314116 0.511932
Si Si6 0.896334 0.317464 0.013630
Si Si7 0.606542 0.184335 0.896015
O O1 0.282250 0.500000 0.708526
O O2 0.181708 0.254024 0.720123
O O3 0.329952 0.264373 0.601818
O O4 0.342947 0.257070 0.800445
O O5 0.332167 0.239441 0.198152
O O6 0.182378 0.252815 0.084378
O O7 0.276473 0.000000 0.097608
O O8 0.342198 0.228992 0.999427
O O9 0.000000 0.220472 0.758533
O O10 0.886612 0.000000 0.791472
O O11 0.882896 0.245874 0.902409
O O12 0.500000 0.280826 0.267008
O O13 0.383397 0.500000 0.276815
O O14 0.369777 0.268134 0.398030
O O15 0.500000 0.265464 0.531342
O O16 0.603891 0.500000 0.512076
O O17 0.888477 0.500000 0.005929
O O18 0.000000 0.280293 0.045669
O O19 0.500000 0.227064 0.899197
O O20 0.612091 0.000000 0.887620
#
# Coordination Sequence:
#
# PCOD9337544 Si02
#       7
#     4   4   4   4   4   4   4
#     4  11  20  31  52  78 103 132 170 214 257 303
#     4  11  21  33  51  75 106 139 169 206 255 307
#     4  10  20  34  51  72 102 138 171 205 252 308
#     4   9  18  34  55  75  99 135 178 219 256 297
#     4   8  16  32  52  75 102 133 171 215 258 298
#     4  10  20  34  53  77 102 130 170 214 252 299
#     4  10  21  34  46  67 104 143 170 198 246 305
#
# _framework density 16.461611999999999
#
# number of rings (size 3 to 8) (size 9 to 14) (size 15 to 20)
#    0.000    2.143    1.429    3.429    0.000    4.000 
#    0.000    1.429    0.000    2.571    0.000    2.000 
#    0.000    0.000    0.000    0.000    0.000    0.000 
#
# Total GULP energy -156256.340732 kJ/mol
# GULP energy per Si atom -5580.583598 kJ/mol
# Density = 1.642414 g / cm^3
# Si number density = 16.461612 Si / 1000 Ang^3
#
#
#
# Elastic Constant Matrix: (Units=GPa)
#
#
# Indices 1 2 3 4 5 6 
#
# 1 139.8378 45.6939 93.9009 0.0000 0.0000 0.0000
# 2 45.6939 32.4170 37.6208 0.0000 0.0000 0.0000
# 3 93.9009 37.6208 133.6383 0.0000 0.0000 0.0000
# 4 0.0000 0.0000 0.0000 -61.0762 0.0000 0.0000
# 5 0.0000 0.0000 0.0000 0.0000 22.2914 0.0000
# 6 0.0000 0.0000 0.0000 0.0000 0.0000 27.2525
#
#
#
# Elastic Compliance Matrix: (Units=1/GPa)
#
#
# Indices 1 2 3 4 5 6 
#
# 1 0.017586 -0.015518 -0.007988 0.000000 0.000000 0.000000
# 2 -0.015518 0.059510 -0.005849 0.000000 0.000000 0.000000
# 3 -0.007988 -0.005849 0.014742 0.000000 0.000000 0.000000
# 4 0.000000 0.000000 0.000000 -0.016373 0.000000 0.000000
# 5 0.000000 0.000000 0.000000 0.000000 0.044860 0.000000
# 6 0.000000 0.000000 0.000000 0.000000 0.000000 0.036694
#
#
# Mechanical properties :
#
#
# Convention : Reuss Voigt Hill
#
# Bulk Modulus (GPa) = 30.18640 73.36934 51.77787
# Shear Modulus (GPa) = 22.04857 6.27203 14.16030
#
# Velocity S-wave (km/s) = 3.66374 1.95406 2.93610
# Velocity P-wave (km/s) = 6.02284 7.05393 6.55868
#
# Compressibility (1/GPa) = 0.03312750
#
# Stress axis : x y z
#
# Youngs Moduli (GPa) = 56.86352 16.80404 67.83157
#
# Poissons Ratio (x) = 0.26076 0.54186
# Poissons Ratio (y) = 0.88241 0.39674
# Poissons Ratio (z) = 0.45424 0.09829
#
# Static dielectric constant tensor:
#      x y z
#    x 1.553690 0.000000 0.000000 
#    y 0.000000 1.552600 0.000000 
#    z 0.000000 0.000000 1.529940 
# 
# From -- ./inp_files/4804.got.cif
#   From: 2010.05.17/outbox.cif.g08.bks.cpg/sg25_3_cif.got.tgz:4804.got - 2010.06.04 01:04:00.
