data_PCOD9337079
_publ_section_title
;
Structure prediction by ZEFSAII (Michael W. Deem and Ramdas Pophale) SiO2 
 PCOD9337079
Probable space group: I 21 21 21
;
_chemical_formula_sum "Si O2"
_cell_formula_units_Z 32
_cell_length_a 18.000000
_cell_length_b 12.000000
_cell_length_c 15.000000
_cell_angle_alpha 90.000000
_cell_angle_beta 90.000000
_cell_angle_gamma 90.000000
_cell_volume 3240.000000
_symmetry_space_group_name_H-M "I 21 21 21"
_symmetry_group_IT_number 24
_symmetry_cell_setting 'orthorhombic'
loop_
_space_group_symop_operation_xyz
x,y,z
-x,1/2-y,z
x,-y,1/2-z
1/2-x,y,-z
1/2+x,1/2+y,1/2+z
1/2-x,-y,1/2+z
1/2+x,1/2-y,-z
-x,1/2+y,1/2-z
loop_
_atom_site_type_symbol
_atom_site_label
_atom_site_fract_x
_atom_site_fract_y
_atom_site_fract_z
Si Si1 0.393237 0.924117 0.471642
Si Si2 0.569625 0.978484 0.456154
Si Si3 0.949542 0.641535 0.164496
Si Si4 0.083318 0.780152 0.362603
Si Si5 0.910422 0.766331 0.654992
Si Si6 0.090064 0.477355 0.151498
Si Si7 0.582409 0.800322 0.146328
Si Si8 0.835683 0.343932 0.498732
O O1 0.480939 0.959221 0.471871
O O2 0.380180 0.856572 0.563131
O O3 0.379480 0.844683 0.388447
O O4 0.343275 0.031522 0.464452
O O5 0.602211 0.866096 0.414394
O O6 0.607428 0.013897 0.549830
O O7 0.577361 0.072393 0.382364
O O8 0.922337 0.661259 0.266133
O O9 0.000000 0.750000 0.144106
O O10 0.006645 0.536219 0.158542
O O11 0.881743 0.646430 0.094599
O O12 0.109015 0.653945 0.353116
O O13 0.000000 0.750000 0.396043
O O14 0.884115 0.787750 0.755101
O O15 0.000000 0.750000 0.658184
O O16 0.122171 0.500000 0.250000
O O17 0.500000 0.750000 0.149456
O O18 0.623144 0.736110 0.067519
O O19 0.750000 0.310786 0.500000
#
# Coordination Sequence:
#
# PCOD9337079 Si02
#       8
#     8   8   8   8   8   8   8   8
#     4  11  19  37  57  84 123 157 196 251 297 361
#     4  11  18  32  59  92 121 150 190 251 307 347
#     4  11  21  34  57  91 126 152 194 249 302 359
#     4  11  18  30  54  88 127 153 186 243 302 364
#     4   9  20  33  58  90 119 151 202 254 303 345
#     4  12  18  28  53  95 129 147 182 246 314 361
#     4  11  21  38  59  91 120 155 202 259 301 348
#     4  12  26  41  58  84 122 168 205 244 301 365
#
# _framework density 9.8765429999999999
#
# number of rings (size 3 to 8) (size 9 to 14) (size 15 to 20)
#    0.000    1.000    7.500    1.875    0.000    0.500 
#    0.000    2.500    0.000    0.750   13.000    0.000 
#    0.000    0.000    0.000    0.000    0.000    0.000 
#
# Total GULP energy -178213.276310 kJ/mol
# GULP energy per Si atom -5569.164885 kJ/mol
# Density = 0.985406 g / cm^3
# Si number density = 9.876543 Si / 1000 Ang^3
#
#
#
# Elastic Constant Matrix: (Units=GPa)
#
#
# Indices 1 2 3 4 5 6 
#
# 1 25.0338 7.0441 9.4179 0.0000 0.0000 0.0000
# 2 7.0441 56.4331 55.4474 0.0000 0.0000 0.0000
# 3 9.4179 55.4474 101.7037 0.0000 0.0000 0.0000
# 4 0.0000 0.0000 0.0000 2.0845 0.0000 0.0000
# 5 0.0000 0.0000 0.0000 0.0000 5.8318 0.0000
# 6 0.0000 0.0000 0.0000 0.0000 0.0000 6.0719
#
#
#
# Elastic Compliance Matrix: (Units=1/GPa)
#
#
# Indices 1 2 3 4 5 6 
#
# 1 0.041628 -0.003034 -0.002201 0.000000 0.000000 0.000000
# 2 -0.003034 0.038383 -0.020645 0.000000 0.000000 0.000000
# 3 -0.002201 -0.020645 0.021292 0.000000 0.000000 0.000000
# 4 0.000000 0.000000 0.000000 0.479741 0.000000 0.000000
# 5 0.000000 0.000000 0.000000 0.000000 0.171475 0.000000
# 6 0.000000 0.000000 0.000000 0.000000 0.000000 0.164692
#
#
# Mechanical properties :
#
#
# Convention : Reuss Voigt Hill
#
# Bulk Modulus (GPa) = 20.18435 36.33217 28.25826
# Shear Modulus (GPa) = 5.07365 10.21505 7.64435
#
# Velocity S-wave (km/s) = 1.60440 2.27653 1.96935
# Velocity P-wave (km/s) = 3.69766 5.03420 4.41678
#
# Compressibility (1/GPa) = 0.04954334
#
# Stress axis : x y z
#
# Youngs Moduli (GPa) = 24.02253 26.05310 46.96680
#
# Poissons Ratio (x) = 0.07904 0.10337
# Poissons Ratio (y) = 0.07288 0.96963
# Poissons Ratio (z) = 0.05287 0.53787
#
# Static dielectric constant tensor:
#      x y z
#    x 1.726040 0.000000 0.000000 
#    y 0.000000 1.720340 0.000000 
#    z 0.000000 0.000000 1.716350 
# 
# From -- ./inp_files/26027.got.cif
#   From: 2010.05.17/outbox.ucp.g08.bks.cvg/sg24_14_cif.got.tgz:26027.got - 2010.06.11 15:20:44.
