data_PCOD9337976
_publ_section_title
;
Structure prediction by ZEFSAII (Michael W. Deem and Ramdas Pophale) SiO2 
 PCOD9337976
Probable space group: P M C 21
;
_chemical_formula_sum "Si O2"
_cell_formula_units_Z 32
_cell_length_a 7.510619
_cell_length_b 13.661723
_cell_length_c 14.014220
_cell_angle_alpha 90.000000
_cell_angle_beta 90.000000
_cell_angle_gamma 90.000000
_cell_volume 1437.971034
_symmetry_space_group_name_H-M "P M C 21"
_symmetry_group_IT_number 26
_symmetry_cell_setting 'orthorhombic'
loop_
_space_group_symop_operation_xyz
x,y,z
-x,-y,1/2+z
-x,y,z
x,-y,1/2+z
loop_
_atom_site_type_symbol
_atom_site_label
_atom_site_fract_x
_atom_site_fract_y
_atom_site_fract_z
Si Si1 0.713480 0.104926 0.938040
Si Si2 0.702254 0.850496 0.651214
Si Si3 0.286520 0.104926 0.364389
Si Si4 0.214098 0.245207 0.545219
Si Si5 0.214995 0.628425 0.651214
Si Si6 0.217013 0.534235 0.298892
Si Si7 0.217014 0.465765 0.503537
Si Si8 0.785902 0.245207 0.757210
O O1 0.500000 0.101143 0.947038
O O2 0.745527 0.183286 0.852869
O O3 0.778981 0.000000 0.901214
O O4 0.782092 0.123299 0.046564
O O5 0.500000 0.890369 0.651214
O O6 0.782092 0.876701 0.755865
O O7 0.699690 0.733367 0.651214
O O8 0.500000 0.101143 0.355391
O O9 0.254473 0.183286 0.449559
O O10 0.277759 0.357699 0.533117
O O11 0.274945 0.208704 0.651214
O O12 0.000000 0.247386 0.549379
O O13 0.267072 0.558348 0.736662
O O14 0.267074 0.558348 0.565767
O O15 0.000000 0.642741 0.651214
O O16 0.275179 0.500000 0.401214
O O17 0.277760 0.642301 0.269311
O O18 0.000000 0.539524 0.295478
O O19 0.000000 0.460477 0.506952
O O20 0.000000 0.247386 0.753050
#
# Coordination Sequence:
#
# PCOD9337976 Si02
#       8
#     4   4   4   4   4   4   4   4
#     4  10  23  41  62  83 108 150 197 239 288 346
#     4  10  22  40  57  82 116 144 187 248 291 330
#     4  10  23  41  62  83 108 150 197 239 288 346
#     4  10  20  36  58  89 123 149 184 237 286 331
#     4  10  18  32  55  82 110 148 187 216 269 342
#     4   9  16  28  50  80 113 147 183 221 265 326
#     4   9  16  28  50  80 113 147 183 221 265 326
#     4  10  20  36  58  89 123 149 184 237 286 331
#
# _framework density 22.253575999999999
#
# number of rings (size 3 to 8) (size 9 to 14) (size 15 to 20)
#    0.000    2.250    1.250    1.500    1.750    4.000 
#    0.000    1.250    0.000    4.500    0.000    0.000 
#    0.000    0.000    0.000    0.000    0.000    0.000 
#
# Total GULP energy -178368.204179 kJ/mol
# GULP energy per Si atom -5574.006381 kJ/mol
# Density = 2.220293 g / cm^3
# Si number density = 22.253576 Si / 1000 Ang^3
#
#
#
# Elastic Constant Matrix: (Units=GPa)
#
#
# Indices 1 2 3 4 5 6 
#
# 1 59.5470 2.2728 11.3762 0.0000 0.0000 0.0000
# 2 2.2728 127.8749 89.1890 0.0000 0.0000 0.0000
# 3 11.3762 89.1890 254.6951 0.0000 0.0000 0.0000
# 4 0.0000 0.0000 0.0000 47.1927 0.0000 0.0000
# 5 0.0000 0.0000 0.0000 0.0000 19.0666 0.0000
# 6 0.0000 0.0000 0.0000 0.0000 0.0000 11.0026
#
#
#
# Elastic Compliance Matrix: (Units=1/GPa)
#
#
# Indices 1 2 3 4 5 6 
#
# 1 0.016947 0.000300 -0.000862 0.000000 0.000000 0.000000
# 2 0.000300 0.010353 -0.003639 0.000000 0.000000 0.000000
# 3 -0.000862 -0.003639 0.005239 0.000000 0.000000 0.000000
# 4 0.000000 0.000000 0.000000 0.021190 0.000000 0.000000
# 5 0.000000 0.000000 0.000000 0.000000 0.052448 0.000000
# 6 0.000000 0.000000 0.000000 0.000000 0.000000 0.090888
#
#
# Mechanical properties :
#
#
# Convention : Reuss Voigt Hill
#
# Bulk Modulus (GPa) = 41.43022 71.97699 56.70361
# Shear Modulus (GPa) = 23.41807 38.07099 30.74453
#
# Velocity S-wave (km/s) = 3.24748 4.14065 3.72096
# Velocity P-wave (km/s) = 5.72007 7.43466 6.63300
#
# Compressibility (1/GPa) = 0.02413697
#
# Stress axis : x y z
#
# Youngs Moduli (GPa) = 59.00862 96.59316 190.87741
#
# Poissons Ratio (x) = -0.02898 0.16454
# Poissons Ratio (y) = -0.01770 0.69455
# Poissons Ratio (z) = 0.05087 0.35147
#
# Static dielectric constant tensor:
#      x y z
#    x 1.870770 0.000000 0.000000 
#    y 0.000000 1.767150 0.000000 
#    z 0.000000 0.000000 1.821410 
# 
# From -- ./inp_files/4319.got.cif
#   From: 2010.05.17/outbox.cif.g08.bks.cpg/sg26_3_cif.got.tgz:4319.got - 2010.06.04 01:07:29.
