data_PCOD9337622
_publ_section_title
;
Structure prediction by ZEFSAII (Michael W. Deem and Ramdas Pophale) SiO2 
 PCOD9337622
Probable space group: P M M 2
;
_chemical_formula_sum "Si O2"
_cell_formula_units_Z 28
_cell_length_a 9.361523
_cell_length_b 8.037958
_cell_length_c 18.579651
_cell_angle_alpha 90.000000
_cell_angle_beta 90.000000
_cell_angle_gamma 90.000000
_cell_volume 1398.072822
_symmetry_space_group_name_H-M "P M M 2"
_symmetry_group_IT_number 25
_symmetry_cell_setting 'orthorhombic'
loop_
_space_group_symop_operation_xyz
x,y,z
-x,-y,z
-x,y,z
x,-y,z
loop_
_atom_site_type_symbol
_atom_site_label
_atom_site_fract_x
_atom_site_fract_y
_atom_site_fract_z
Si Si1 0.337983 0.699757 0.965690
Si Si2 0.836715 0.700737 0.386703
Si Si3 0.664254 0.703746 0.527470
Si Si4 0.663256 0.801037 0.245140
Si Si5 0.162894 0.700632 0.103823
Si Si6 0.835869 0.299361 0.667383
Si Si7 0.836411 0.801535 0.826655
O O1 0.500000 0.764565 0.968267
O O2 0.344798 0.500000 0.972876
O O3 0.262366 0.737618 0.890402
O O4 0.243453 0.763256 0.032413
O O5 0.842277 0.500000 0.390258
O O6 0.755828 0.758805 0.458616
O O7 0.747811 0.746769 0.316190
O O8 0.000000 0.761956 0.383056
O O9 0.500000 0.756928 0.522228
O O10 0.664966 0.500000 0.527396
O O11 0.737968 0.758530 0.601709
O O12 0.500000 0.736999 0.245517
O O13 0.747565 0.743663 0.174506
O O14 0.658189 0.000000 0.244308
O O15 0.156315 0.500000 0.099264
O O16 0.000000 0.762851 0.108125
O O17 0.838123 0.500000 0.665078
O O18 0.786529 0.247902 0.746797
O O19 0.000000 0.240715 0.658452
O O20 0.000000 0.737745 0.835041
O O21 0.840375 0.000000 0.830689
#
# Coordination Sequence:
#
# PCOD9337622 Si02
#       7
#     4   4   4   4   4   4   4
#     4  10  21  37  58  83 109 139 177 221 269 319
#     4  10  20  35  57  83 109 140 181 225 268 317
#     4   9  17  30  51  79 107 136 175 224 274 320
#     4  11  24  39  55  79 112 147 181 218 264 318
#     4  10  21  38  61  86 109 137 177 222 267 317
#     4   9  17  31  52  76 103 137 178 224 271 319
#     4  10  21  36  54  78 109 145 183 221 265 319
#
# _framework density 20.027569
#
# number of rings (size 3 to 8) (size 9 to 14) (size 15 to 20)
#    0.000    2.143    0.000    3.000    0.000    9.143 
#    0.000    2.143    0.000    2.571    0.000    0.000 
#    0.000    0.000    0.000    0.000    0.000    0.000 
#
# Total GULP energy -156418.394471 kJ/mol
# GULP energy per Si atom -5586.371231 kJ/mol
# Density = 1.998199 g / cm^3
# Si number density = 20.027569 Si / 1000 Ang^3
#
#
#
# Elastic Constant Matrix: (Units=GPa)
#
#
# Indices 1 2 3 4 5 6 
#
# 1 201.9478 13.2494 140.5134 0.0000 0.0000 0.0000
# 2 13.2494 12.7848 4.8398 0.0000 0.0000 0.0000
# 3 140.5134 4.8398 210.6737 0.0000 0.0000 0.0000
# 4 0.0000 0.0000 0.0000 -89.5123 0.0000 0.0000
# 5 0.0000 0.0000 0.0000 0.0000 38.2401 0.0000
# 6 0.0000 0.0000 0.0000 0.0000 0.0000 14.4314
#
#
#
# Elastic Compliance Matrix: (Units=1/GPa)
#
#
# Indices 1 2 3 4 5 6 
#
# 1 0.009970 -0.007883 -0.006468 0.000000 0.000000 0.000000
# 2 -0.007883 0.085137 0.003302 0.000000 0.000000 0.000000
# 3 -0.006468 0.003302 0.008985 0.000000 0.000000 0.000000
# 4 0.000000 0.000000 0.000000 -0.011172 0.000000 0.000000
# 5 0.000000 0.000000 0.000000 0.000000 0.026151 0.000000
# 6 0.000000 0.000000 0.000000 0.000000 0.000000 0.069293
#
#
# Mechanical properties :
#
#
# Convention : Reuss Voigt Hill
#
# Bulk Modulus (GPa) = 12.19616 82.51242 47.35429
# Shear Modulus (GPa) = 21.02657 10.41876 15.72266
#
# Velocity S-wave (km/s) = 3.24370 2.28331 2.80492
# Velocity P-wave (km/s) = 4.48684 6.94552 5.84688
#
# Compressibility (1/GPa) = 0.08199299
#
# Stress axis : x y z
#
# Youngs Moduli (GPa) = 100.30515 11.74571 111.29648
#
# Poissons Ratio (x) = 0.09259 0.71990
# Poissons Ratio (y) = 0.79073 -0.36750
# Poissons Ratio (z) = 0.64881 -0.03878
#
# Static dielectric constant tensor:
#      x y z
#    x 1.702370 0.000000 0.000000 
#    y 0.000000 1.710310 0.000000 
#    z 0.000000 0.000000 1.661310 
# 
# From -- ./inp_files/6118.got.cif
#   From: 2010.05.17/outbox.cif.g08.bks.cpg/sg25_4_cif.got.tgz:6118.got - 2010.06.04 01:04:00.
