data_PCOD9337775
_publ_section_title
;
Structure prediction by ZEFSAII (Michael W. Deem and Ramdas Pophale) SiO2 
 PCOD9337775
Probable space group: P M M 2
;
_chemical_formula_sum "Si O2"
_cell_formula_units_Z 32
_cell_length_a 14.662310
_cell_length_b 8.984452
_cell_length_c 12.691042
_cell_angle_alpha 90.000000
_cell_angle_beta 90.000000
_cell_angle_gamma 90.000000
_cell_volume 1671.826757
_symmetry_space_group_name_H-M "P M M 2"
_symmetry_group_IT_number 25
_symmetry_cell_setting 'orthorhombic'
loop_
_space_group_symop_operation_xyz
x,y,z
-x,-y,z
-x,y,z
x,-y,z
loop_
_atom_site_type_symbol
_atom_site_label
_atom_site_fract_x
_atom_site_fract_y
_atom_site_fract_z
Si Si1 0.609566 0.326374 0.480490
Si Si2 0.888881 0.671612 0.262837
Si Si3 0.256585 0.821812 0.640083
Si Si4 0.743415 0.821812 0.885591
Si Si5 0.892806 0.319888 0.493997
Si Si6 0.892806 0.319888 0.031678
Si Si7 0.611065 0.829476 0.262837
Si Si8 0.390434 0.326374 0.045184
O O1 0.500000 0.315044 0.488182
O O2 0.634823 0.500000 0.482318
O O3 0.657946 0.241703 0.575339
O O4 0.638179 0.255368 0.368920
O O5 0.857505 0.500000 0.262837
O O6 0.863593 0.735507 0.376741
O O7 0.000000 0.667881 0.262837
O O8 0.863593 0.735507 0.148933
O O9 0.260244 0.780023 0.762837
O O10 0.168626 0.753021 0.582745
O O11 0.254624 0.000000 0.632490
O O12 0.831374 0.753021 0.942929
O O13 0.745376 0.000000 0.893184
O O14 0.657946 0.758297 0.950336
O O15 0.883363 0.500000 0.495430
O O16 0.000000 0.287167 0.508011
O O17 0.883363 0.500000 0.030244
O O18 0.000000 0.287167 0.017664
O O19 0.500000 0.831372 0.262837
O O20 0.638179 0.744632 0.156754
O O21 0.642672 0.000000 0.262837
O O22 0.500000 0.315044 0.037492
O O23 0.365177 0.500000 0.043357
#
# Coordination Sequence:
#
# PCOD9337775 Si02
#       8
#     4   4   4   4   4   4   4   4
#     4  10  21  38  61  87 114 145 184 233 285 334
#     4   7  12  27  53  84 112 136 168 214 271 331
#     4  11  25  41  55  76 110 152 195 237 284 340
#     4  11  25  41  55  76 110 152 195 237 284 340
#     4   9  18  35  60  86 112 144 182 228 282 338
#     4   9  18  35  60  86 112 144 182 228 282 338
#     4   9  17  32  57  88 120 150 180 218 271 338
#     4  10  21  38  61  87 114 145 184 233 285 334
#
# _framework density 19.140739
#
# number of rings (size 3 to 8) (size 9 to 14) (size 15 to 20)
#    0.000    2.500    0.000    3.375    0.000    7.500 
#    0.000    9.375    0.000    2.250    0.000    0.000 
#    0.000    0.000    0.000    0.000    0.000    0.000 
#
# Total GULP energy -178647.176079 kJ/mol
# GULP energy per Si atom -5582.724252 kJ/mol
# Density = 1.909717 g / cm^3
# Si number density = 19.140739 Si / 1000 Ang^3
#
#
#
# Elastic Constant Matrix: (Units=GPa)
#
#
# Indices 1 2 3 4 5 6 
#
# 1 65.7108 31.6724 53.0811 0.0000 0.0000 0.0000
# 2 31.6724 66.9846 71.5507 0.0000 0.0000 0.0000
# 3 53.0811 71.5507 205.8706 0.0000 0.0000 0.0000
# 4 0.0000 0.0000 0.0000 33.1399 0.0000 0.0000
# 5 0.0000 0.0000 0.0000 0.0000 29.4985 0.0000
# 6 0.0000 0.0000 0.0000 0.0000 0.0000 21.5573
#
#
#
# Elastic Compliance Matrix: (Units=1/GPa)
#
#
# Indices 1 2 3 4 5 6 
#
# 1 0.020889 -0.006559 -0.003106 0.000000 0.000000 0.000000
# 2 -0.006559 0.025803 -0.007277 0.000000 0.000000 0.000000
# 3 -0.003106 -0.007277 0.008187 0.000000 0.000000 0.000000
# 4 0.000000 0.000000 0.000000 0.030175 0.000000 0.000000
# 5 0.000000 0.000000 0.000000 0.000000 0.033900 0.000000
# 6 0.000000 0.000000 0.000000 0.000000 0.000000 0.046388
#
#
# Mechanical properties :
#
#
# Convention : Reuss Voigt Hill
#
# Bulk Modulus (GPa) = 47.62982 72.35272 59.99127
# Shear Modulus (GPa) = 24.24546 28.98993 26.61769
#
# Velocity S-wave (km/s) = 3.56293 3.89597 3.73316
# Velocity P-wave (km/s) = 6.47024 7.62368 7.07052
#
# Compressibility (1/GPa) = 0.02099525
#
# Stress axis : x y z
#
# Youngs Moduli (GPa) = 47.87237 38.75571 122.13899
#
# Poissons Ratio (x) = 0.25419 0.37942
# Poissons Ratio (y) = 0.31398 0.88876
# Poissons Ratio (z) = 0.14871 0.28201
#
# Static dielectric constant tensor:
#      x y z
#    x 1.689490 0.000000 0.000000 
#    y 0.000000 1.642360 0.000000 
#    z 0.000000 0.000000 1.649010 
# 
# From -- ./inp_files/4915.got.cif
#   From: 2010.05.17/outbox.cif.g08.bks.cpg/sg25_3_cif.got.tgz:4915.got - 2010.06.04 01:04:00.
