data_PCOD9337067
_publ_section_title
;
Structure prediction by ZEFSAII (Michael W. Deem and Ramdas Pophale) SiO2 
 PCOD9337067
Probable space group: I 21 21 21
;
_chemical_formula_sum "Si O2"
_cell_formula_units_Z 32
_cell_length_a 15.000000
_cell_length_b 24.000000
_cell_length_c 9.000000
_cell_angle_alpha 90.000000
_cell_angle_beta 90.000000
_cell_angle_gamma 90.000000
_cell_volume 3240.000000
_symmetry_space_group_name_H-M "I 21 21 21"
_symmetry_group_IT_number 24
_symmetry_cell_setting 'orthorhombic'
loop_
_space_group_symop_operation_xyz
x,y,z
-x,1/2-y,z
x,-y,1/2-z
1/2-x,y,-z
1/2+x,1/2+y,1/2+z
1/2-x,-y,1/2+z
1/2+x,1/2-y,-z
-x,1/2+y,1/2-z
loop_
_atom_site_type_symbol
_atom_site_label
_atom_site_fract_x
_atom_site_fract_y
_atom_site_fract_z
Si Si1 0.680095 0.552758 0.362633
Si Si2 0.677111 0.953178 0.375713
Si Si3 0.901779 0.244285 0.668222
Si Si4 0.496989 0.947187 0.552779
Si Si5 0.349752 0.659255 0.930962
Si Si6 0.494796 0.078340 0.612619
Si Si7 0.839757 0.367441 0.592552
Si Si8 0.261176 0.667922 0.327208
O O1 0.688049 0.500000 0.250000
O O2 0.750000 0.549544 0.500000
O O3 0.584772 0.558481 0.441048
O O4 0.683523 0.603845 0.249024
O O5 0.750000 0.971159 0.500000
O O6 0.588829 0.935847 0.466773
O O7 0.711808 0.896511 0.299295
O O8 0.661994 0.000000 0.250000
O O9 0.902399 0.206085 0.521084
O O10 0.867015 0.304464 0.624365
O O11 0.835209 0.210840 0.773190
O O12 0.000000 0.250000 0.732718
O O13 0.482931 0.914551 0.708559
O O14 0.499215 0.012669 0.589343
O O15 0.410898 0.605156 0.932337
O O16 0.328936 0.677712 0.763861
O O17 0.250000 0.653570 0.000000
O O18 0.417601 0.102853 0.505504
O O19 0.750000 0.369931 0.500000
O O20 0.250000 0.673333 0.500000
#
# Coordination Sequence:
#
# PCOD9337067 Si02
#       8
#     8   8   8   8   8   8   8   8
#     4  12  26  44  69  97 131 173 219 271 344 398
#     4  11  26  39  64  99 140 179 226 265 328 400
#     4  11  24  43  72  96 123 170 230 270 330 392
#     4  11  26  40  63  98 135 176 212 272 322 394
#     4  10  22  41  67  95 127 177 219 265 323 388
#     4  11  23  41  65  95 136 173 223 261 329 388
#     4  12  25  45  69  97 128 169 222 283 321 400
#     4  10  23  43  64  92 138 173 210 273 339 386
#
# _framework density 9.8765429999999999
#
# number of rings (size 3 to 8) (size 9 to 14) (size 15 to 20)
#    0.000    1.000    2.500    4.125   10.500    0.500 
#    0.000    1.875    0.000    0.000    0.000    0.000 
#    0.000    0.000    0.000    0.000    0.000    0.000 
#
# Total GULP energy -178697.067400 kJ/mol
# GULP energy per Si atom -5584.283356 kJ/mol
# Density = 0.985406 g / cm^3
# Si number density = 9.876543 Si / 1000 Ang^3
#
#
#
# Elastic Constant Matrix: (Units=GPa)
#
#
# Indices 1 2 3 4 5 6 
#
# 1 80.4695 -2.7184 6.4903 0.0000 0.0000 0.0000
# 2 -2.7184 70.7588 29.4119 0.0000 0.0000 0.0000
# 3 6.4903 29.4119 86.8728 0.0001 0.0000 0.0001
# 4 0.0000 0.0000 0.0001 14.5492 0.0000 0.0000
# 5 0.0000 0.0000 0.0000 0.0000 22.2752 0.0000
# 6 0.0000 0.0000 0.0001 0.0000 0.0000 19.9957
#
#
#
# Elastic Compliance Matrix: (Units=1/GPa)
#
#
# Indices 1 2 3 4 5 6 
#
# 1 0.012565 0.001016 -0.001283 0.000000 0.000000 0.000000
# 2 0.001016 0.016529 -0.005672 0.000000 0.000000 0.000000
# 3 -0.001283 -0.005672 0.013527 0.000000 0.000000 0.000000
# 4 0.000000 0.000000 0.000000 0.068732 0.000000 0.000000
# 5 0.000000 0.000000 0.000000 0.000000 0.044893 0.000000
# 6 0.000000 0.000000 0.000000 0.000000 0.000000 0.050011
#
#
# Mechanical properties :
#
#
# Convention : Reuss Voigt Hill
#
# Bulk Modulus (GPa) = 32.52709 33.82985 33.17847
# Shear Modulus (GPa) = 21.89304 25.02517 23.45911
#
# Velocity S-wave (km/s) = 3.33278 3.56321 3.44992
# Velocity P-wave (km/s) = 5.59576 5.83885 5.71860
#
# Compressibility (1/GPa) = 0.03074360
#
# Stress axis : x y z
#
# Youngs Moduli (GPa) = 79.58717 60.49887 73.92475
#
# Poissons Ratio (x) = -0.06146 0.09482
# Poissons Ratio (y) = -0.08085 0.41931
# Poissons Ratio (z) = 0.10208 0.34315
#
# Static dielectric constant tensor:
#      x y z
#    x 1.696590 0.000000 0.000000 
#    y 0.000000 1.664040 0.000000 
#    z 0.000000 0.000000 1.735620 
# 
# From -- ./inp_files/13352.got.cif
#   From: 2010.05.17/outbox.ucp.g08.bks.cvg/sg24_7_cif.got.tgz:13352.got - 2010.06.11 15:20:44.
