data_PCOD9337746
_publ_section_title
;
Structure prediction by ZEFSAII (Michael W. Deem and Ramdas Pophale) SiO2 
 PCOD9337746
Probable space group: P M M 2
;
_chemical_formula_sum "Si O2"
_cell_formula_units_Z 32
_cell_length_a 14.902385
_cell_length_b 7.810515
_cell_length_c 12.876267
_cell_angle_alpha 90.000000
_cell_angle_beta 90.000000
_cell_angle_gamma 90.000000
_cell_volume 1498.736981
_symmetry_space_group_name_H-M "P M M 2"
_symmetry_group_IT_number 25
_symmetry_cell_setting 'orthorhombic'
loop_
_space_group_symop_operation_xyz
x,y,z
-x,-y,z
-x,y,z
x,-y,z
loop_
_atom_site_type_symbol
_atom_site_label
_atom_site_fract_x
_atom_site_fract_y
_atom_site_fract_z
Si Si1 0.398890 0.703910 0.598950
Si Si2 0.760274 0.797746 0.197716
Si Si3 0.890891 0.199151 0.798208
Si Si4 0.104179 0.789996 0.024232
Si Si5 0.741344 0.803863 0.427562
Si Si6 0.396098 0.291806 0.047419
Si Si7 0.609696 0.301874 0.821401
Si Si8 0.102830 0.300624 0.571556
O O1 0.500000 0.769227 0.579701
O O2 0.405678 0.500000 0.615343
O O3 0.334018 0.728533 0.502649
O O4 0.363929 0.775502 0.710086
O O5 0.835801 0.727730 0.119421
O O6 0.754156 0.724220 0.313642
O O7 0.667192 0.774728 0.137476
O O8 0.780689 0.000000 0.208306
O O9 0.864194 0.286055 0.690747
O O10 0.000000 0.207805 0.802827
O O11 0.865764 0.000000 0.789987
O O12 0.861393 0.268172 0.910427
O O13 0.000000 0.741653 0.036692
O O14 0.106667 0.000000 0.020709
O O15 0.833088 0.793937 0.492243
O O16 0.714752 0.000000 0.411669
O O17 0.500000 0.243747 0.062275
O O18 0.392542 0.500000 0.045980
O O19 0.365403 0.226437 0.933231
O O20 0.500000 0.302718 0.820225
O O21 0.639766 0.500000 0.823791
O O22 0.103701 0.500000 0.543450
O O23 0.000000 0.237563 0.568516
#
# Coordination Sequence:
#
# PCOD9337746 Si02
#       8
#     4   4   4   4   4   4   4   4
#     4   9  18  35  59  82 106 139 176 217 266 316
#     4  10  22  37  52  74 103 137 179 221 257 297
#     4   8  14  28  53  82 108 133 163 203 256 318
#     4   8  15  31  55  79 103 133 169 210 257 311
#     4  11  24  38  52  74 106 144 184 223 261 306
#     4   9  18  34  56  79 104 135 168 206 257 315
#     4   7  12  27  52  80 105 129 163 207 258 316
#     4  10  21  37  57  80 107 138 172 215 264 313
#
# _framework density 21.351312
#
# number of rings (size 3 to 8) (size 9 to 14) (size 15 to 20)
#    0.000    3.000    0.000    3.000    0.000    4.250 
#    0.000    7.500    0.000    3.375    0.000    0.000 
#    0.000    0.000    0.000    0.000    0.000    0.000 
#
# Total GULP energy -178474.212136 kJ/mol
# GULP energy per Si atom -5577.319129 kJ/mol
# Density = 2.130272 g / cm^3
# Si number density = 21.351312 Si / 1000 Ang^3
#
#
#
# Elastic Constant Matrix: (Units=GPa)
#
#
# Indices 1 2 3 4 5 6 
#
# 1 71.8565 -9.5968 58.1174 0.0000 0.0000 0.0000
# 2 -9.5968 22.4244 0.3656 0.0000 0.0000 0.0000
# 3 58.1174 0.3656 198.3513 0.0000 0.0000 0.0000
# 4 0.0000 0.0000 0.0000 13.3604 0.0000 0.0000
# 5 0.0000 0.0000 0.0000 0.0000 31.2685 0.0000
# 6 0.0000 0.0000 0.0000 0.0000 0.0000 11.8450
#
#
#
# Elastic Compliance Matrix: (Units=1/GPa)
#
#
# Indices 1 2 3 4 5 6 
#
# 1 0.019752 0.008548 -0.005803 0.000000 0.000000 0.000000
# 2 0.008548 0.048295 -0.002593 0.000000 0.000000 0.000000
# 3 -0.005803 -0.002593 0.006747 0.000000 0.000000 0.000000
# 4 0.000000 0.000000 0.000000 0.074848 0.000000 0.000000
# 5 0.000000 0.000000 0.000000 0.000000 0.031981 0.000000
# 6 0.000000 0.000000 0.000000 0.000000 0.000000 0.084424
#
#
# Mechanical properties :
#
#
# Convention : Reuss Voigt Hill
#
# Bulk Modulus (GPa) = 13.31645 43.37831 28.34738
# Shear Modulus (GPa) = 17.19539 27.54451 22.36995
#
# Velocity S-wave (km/s) = 2.84096 3.59564 3.24034
# Velocity P-wave (km/s) = 4.12453 6.13178 5.22544
#
# Compressibility (1/GPa) = 0.07509506
#
# Stress axis : x y z
#
# Youngs Moduli (GPa) = 50.62863 20.70622 148.22183
#
# Poissons Ratio (x) = -0.17699 0.86014
# Poissons Ratio (y) = -0.43275 0.38441
# Poissons Ratio (z) = 0.29380 0.05370
#
# Static dielectric constant tensor:
#      x y z
#    x 1.771860 0.000000 0.000000 
#    y 0.000000 2.147570 0.000000 
#    z 0.000000 0.000000 1.803510 
# 
# From -- ./inp_files/4898.got.cif
#   From: 2010.05.17/outbox.cif.g08.bks.cpg/sg25_3_cif.got.tgz:4898.got - 2010.06.04 01:04:00.
