data_PCOD9337215
_publ_section_title
;
Structure prediction by ZEFSAII (Michael W. Deem and Ramdas Pophale) SiO2 
 PCOD9337215
Probable space group: P M M 2
;
_chemical_formula_sum "Si O2"
_cell_formula_units_Z 32
_cell_length_a 7.656325
_cell_length_b 14.817616
_cell_length_c 16.270277
_cell_angle_alpha 90.000000
_cell_angle_beta 90.000000
_cell_angle_gamma 90.000000
_cell_volume 1845.838257
_symmetry_space_group_name_H-M "P M M 2"
_symmetry_group_IT_number 25
_symmetry_cell_setting 'orthorhombic'
loop_
_space_group_symop_operation_xyz
x,y,z
-x,-y,z
-x,y,z
x,-y,z
loop_
_atom_site_type_symbol
_atom_site_label
_atom_site_fract_x
_atom_site_fract_y
_atom_site_fract_z
Si Si1 0.293046 0.398511 0.942610
Si Si2 0.213449 0.394372 0.618095
Si Si3 0.205442 0.291631 0.778208
Si Si4 0.285419 0.712351 0.101328
Si Si5 0.209942 0.604590 0.438377
Si Si6 0.286972 0.899344 0.032034
Si Si7 0.707879 0.603224 0.259048
Si Si8 0.289480 0.899432 0.841932
O O1 0.500000 0.406467 0.956258
O O2 0.221057 0.500000 0.934407
O O3 0.272298 0.341439 0.859737
O O4 0.225781 0.345336 0.022236
O O5 0.262567 0.500000 0.627409
O O6 0.277430 0.335818 0.694758
O O7 0.269426 0.360393 0.527454
O O8 0.000000 0.392700 0.618052
O O9 0.234676 0.185008 0.787522
O O10 0.000000 0.308264 0.777442
O O11 0.500000 0.712769 0.101481
O O12 0.229586 0.815511 0.086959
O O13 0.225603 0.664927 0.184976
O O14 0.269210 0.500000 0.436492
O O15 0.263297 0.642830 0.350240
O O16 0.000000 0.604994 0.439436
O O17 0.500000 0.899454 0.031925
O O18 0.230502 0.000000 0.056669
O O19 0.233635 0.884433 0.936852
O O20 0.500000 0.596292 0.247752
O O21 0.778614 0.500000 0.255500
O O22 0.500000 0.900233 0.842642
O O23 0.230197 0.000000 0.817013
#
# Coordination Sequence:
#
# PCOD9337215 Si02
#       8
#     4   4   4   4   4   4   4   4
#     4  10  19  30  43  59  85 123 159 181 203 251
#     4   8  15  28  44  61  84 116 149 176 210 259
#     4  11  20  29  44  66  91 116 144 183 225 261
#     4   9  15  25  41  60  84 113 145 176 209 256
#     4   8  14  27  45  60  77 107 144 177 208 249
#     4   8  13  23  42  63  79 102 141 183 212 241
#     4   9  16  25  39  61  86 109 135 173 218 253
#     4   9  17  31  49  65  84 113 149 186 220 257
#
# _framework density 17.336296999999998
#
# number of rings (size 3 to 8) (size 9 to 14) (size 15 to 20)
#    0.000    3.000    1.250    2.625    0.000    2.500 
#    0.000    1.875    0.000    4.500    0.000    0.875 
#    0.000    3.000    0.000    0.000    0.000    0.000 
#
# Total GULP energy -178264.598817 kJ/mol
# GULP energy per Si atom -5570.768713 kJ/mol
# Density = 1.729684 g / cm^3
# Si number density = 17.336297 Si / 1000 Ang^3
#
#
#
# Elastic Constant Matrix: (Units=GPa)
#
#
# Indices 1 2 3 4 5 6 
#
# 1 27.2579 0.3774 1.6693 0.0000 0.0000 0.0000
# 2 0.3774 117.8641 81.9942 0.0000 0.0000 0.0000
# 3 1.6693 81.9942 163.3016 0.0000 0.0000 0.0000
# 4 0.0000 0.0000 0.0000 2.8138 0.0000 0.0000
# 5 0.0000 0.0000 0.0000 0.0000 15.3183 0.0000
# 6 0.0000 0.0000 0.0000 0.0000 0.0000 6.1893
#
#
#
# Elastic Compliance Matrix: (Units=1/GPa)
#
#
# Indices 1 2 3 4 5 6 
#
# 1 0.036713 0.000221 -0.000486 0.000000 0.000000 0.000000
# 2 0.000221 0.013040 -0.006550 0.000000 0.000000 0.000000
# 3 -0.000486 -0.006550 0.009417 0.000000 0.000000 0.000000
# 4 0.000000 0.000000 0.000000 0.355390 0.000000 0.000000
# 5 0.000000 0.000000 0.000000 0.000000 0.065282 0.000000
# 6 0.000000 0.000000 0.000000 0.000000 0.000000 0.161570
#
#
# Mechanical properties :
#
#
# Convention : Reuss Voigt Hill
#
# Bulk Modulus (GPa) = 21.95859 52.94507 37.45183
# Shear Modulus (GPa) = 7.46021 19.82311 13.64166
#
# Velocity S-wave (km/s) = 2.07667 3.38516 2.80819
# Velocity P-wave (km/s) = 4.29463 6.77387 5.67138
#
# Compressibility (1/GPa) = 0.04554027
#
# Stress axis : x y z
#
# Youngs Moduli (GPa) = 27.23804 76.68681 106.18830
#
# Poissons Ratio (x) = -0.01691 0.05161
# Poissons Ratio (y) = -0.00601 0.69550
# Poissons Ratio (z) = 0.01324 0.50228
#
# Static dielectric constant tensor:
#      x y z
#    x 1.654830 0.000000 0.000000 
#    y 0.000000 1.591460 0.000000 
#    z 0.000000 0.000000 1.602770 
# 
# From -- ./inp_files/5673.got.cif
#   From: 2010.05.17/outbox.cif.g08.bks.cpg/sg25_3_cif.got.tgz:5673.got - 2010.06.04 01:04:00.
