data_PCOD9337699
_publ_section_title
;
Structure prediction by ZEFSAII (Michael W. Deem and Ramdas Pophale) SiO2 
 PCOD9337699
Probable space group: P M M 2
;
_chemical_formula_sum "Si O2"
_cell_formula_units_Z 24
_cell_length_a 8.667513
_cell_length_b 12.054161
_cell_length_c 13.018018
_cell_angle_alpha 90.000000
_cell_angle_beta 90.000000
_cell_angle_gamma 90.000000
_cell_volume 1360.117277
_symmetry_space_group_name_H-M "P M M 2"
_symmetry_group_IT_number 25
_symmetry_cell_setting 'orthorhombic'
loop_
_space_group_symop_operation_xyz
x,y,z
-x,-y,z
-x,y,z
x,-y,z
loop_
_atom_site_type_symbol
_atom_site_label
_atom_site_fract_x
_atom_site_fract_y
_atom_site_fract_z
Si Si1 0.812232 0.126239 0.621670
Si Si2 0.685538 0.870367 0.243672
Si Si3 0.684343 0.729423 0.041437
Si Si4 0.683604 0.500000 0.350293
Si Si5 0.183549 0.500000 0.118744
Si Si6 0.184803 0.728803 0.430416
Si Si7 0.813848 0.871458 0.856982
O O1 0.761801 0.213672 0.536285
O O2 0.766892 0.151477 0.738922
O O3 0.000000 0.125249 0.620226
O O4 0.762428 0.000000 0.596620
O O5 0.500000 0.860847 0.257367
O O6 0.725848 0.808018 0.138119
O O7 0.768251 0.809927 0.337608
O O8 0.725183 0.000000 0.238623
O O9 0.500000 0.717601 0.040136
O O10 0.759075 0.610187 0.061469
O O11 0.740607 0.788816 0.938314
O O12 0.500000 0.500000 0.343648
O O13 0.749132 0.500000 0.234308
O O14 0.741197 0.389905 0.407447
O O15 0.000000 0.500000 0.125382
O O16 0.000000 0.716934 0.433031
O O17 0.000000 0.863707 0.862370
O O18 0.772235 0.000000 0.879755
#
# Coordination Sequence:
#
# PCOD9337699 Si02
#       7
#     4   4   4   2   2   4   4
#     4   8  16  33  57  85 116 148 184 233 287 329
#     4  10  21  35  52  78 115 152 180 219 282 344
#     4  11  22  37  57  82 115 152 186 228 284 339
#     4  12  24  40  57  78 113 154 187 227 287 343
#     4  12  24  40  61  84 107 144 195 237 277 333
#     4  11  21  35  58  85 110 144 193 239 278 330
#     4   9  18  35  59  85 115 152 193 235 278 328
#
# _framework density 17.645537000000001
#
# number of rings (size 3 to 8) (size 9 to 14) (size 15 to 20)
#    0.000    1.833    1.667    4.500    0.000    2.667 
#    0.000    2.500    0.000    4.000    0.000    0.000 
#    0.000    0.000    0.000    0.000    0.000    0.000 
#
# Total GULP energy -134046.960077 kJ/mol
# GULP energy per Si atom -5585.290003 kJ/mol
# Density = 1.760537 g / cm^3
# Si number density = 17.645537 Si / 1000 Ang^3
#
#
#
# Elastic Constant Matrix: (Units=GPa)
#
#
# Indices 1 2 3 4 5 6 
#
# 1 57.9999 65.1765 51.6774 0.0000 0.0000 0.0000
# 2 65.1765 179.7458 110.4234 0.0000 0.0000 0.0000
# 3 51.6774 110.4234 148.6547 0.0000 0.0000 0.0000
# 4 0.0000 0.0000 0.0000 15.7709 0.0000 0.0000
# 5 0.0000 0.0000 0.0000 0.0000 -143.4063 0.0000
# 6 0.0000 0.0000 0.0000 0.0000 0.0000 18.1226
#
#
#
# Elastic Compliance Matrix: (Units=1/GPa)
#
#
# Indices 1 2 3 4 5 6 
#
# 1 0.030590 -0.008386 -0.004405 0.000000 0.000000 0.000000
# 2 -0.008386 0.012532 -0.006394 0.000000 0.000000 0.000000
# 3 -0.004405 -0.006394 0.013008 0.000000 0.000000 0.000000
# 4 0.000000 0.000000 0.000000 0.063408 0.000000 0.000000
# 5 0.000000 0.000000 0.000000 0.000000 -0.006973 0.000000
# 6 0.000000 0.000000 0.000000 0.000000 0.000000 0.055180
#
#
# Mechanical properties :
#
#
# Convention : Reuss Voigt Hill
#
# Bulk Modulus (GPa) = 56.30523 93.43946 74.87234
# Shear Modulus (GPa) = 23.58125 -11.29434 6.14346
#
# Velocity S-wave (km/s) = 3.65963 -2.53270 1.86793
# Velocity P-wave (km/s) = 7.05943 6.67202 6.86845
#
# Compressibility (1/GPa) = 0.01776034
#
# Stress axis : x y z
#
# Youngs Moduli (GPa) = 32.69087 79.79497 76.87749
#
# Poissons Ratio (x) = 0.66915 0.33863
# Poissons Ratio (y) = 0.27414 0.49154
# Poissons Ratio (z) = 0.14400 0.51020
#
# Static dielectric constant tensor:
#      x y z
#    x 1.594030 0.000000 0.000000 
#    y 0.000000 1.578600 0.000000 
#    z 0.000000 0.000000 1.583540 
# 
# From -- ./inp_files/3937.got.cif
#   From: 2010.05.17/outbox.cif.g08.bks.cpg/sg25_2_cif.got.tgz:3937.got - 2010.06.04 01:04:00.
