data_PCOD9337829
_publ_section_title
;
Structure prediction by ZEFSAII (Michael W. Deem and Ramdas Pophale) SiO2 
 PCOD9337829
Probable space group: P M M 2
;
_chemical_formula_sum "Si O2"
_cell_formula_units_Z 32
_cell_length_a 9.869775
_cell_length_b 7.531229
_cell_length_c 21.597121
_cell_angle_alpha 90.000000
_cell_angle_beta 90.000000
_cell_angle_gamma 90.000000
_cell_volume 1605.347171
_symmetry_space_group_name_H-M "P M M 2"
_symmetry_group_IT_number 25
_symmetry_cell_setting 'orthorhombic'
loop_
_space_group_symop_operation_xyz
x,y,z
-x,-y,z
-x,y,z
x,-y,z
loop_
_atom_site_type_symbol
_atom_site_label
_atom_site_fract_x
_atom_site_fract_y
_atom_site_fract_z
Si Si1 0.653073 0.212195 0.063800
Si Si2 0.651940 0.787778 0.428928
Si Si3 0.343266 0.217573 0.794670
Si Si4 0.845488 0.286609 0.178366
Si Si5 0.656679 0.216596 0.567423
Si Si6 0.156289 0.782796 0.680520
Si Si7 0.846610 0.712745 0.315205
Si Si8 0.664881 0.795047 0.930584
O O1 0.500000 0.279200 0.075089
O O2 0.748428 0.241091 0.122043
O O3 0.643264 0.000000 0.055452
O O4 0.705338 0.283096 0.997191
O O5 0.500000 0.720199 0.416111
O O6 0.693334 0.724815 0.497621
O O7 0.751231 0.752221 0.372603
O O8 0.643554 0.000000 0.434122
O O9 0.500000 0.269676 0.782778
O O10 0.241519 0.272476 0.740846
O O11 0.300613 0.281303 0.863322
O O12 0.343916 0.000000 0.796258
O O13 0.849976 0.500000 0.180367
O O14 0.800227 0.224326 0.246936
O O15 0.000000 0.223666 0.168600
O O16 0.500000 0.268460 0.579645
O O17 0.760873 0.275643 0.619782
O O18 0.658113 0.000000 0.568595
O O19 0.000000 0.725578 0.681048
O O20 0.155687 0.000000 0.680326
O O21 0.853484 0.500000 0.311510
O O22 0.000000 0.778817 0.325235
O O23 0.500000 0.796203 0.932084
O O24 0.711859 0.000000 0.929155
#
# Coordination Sequence:
#
# PCOD9337829 Si02
#       8
#     4   4   4   4   4   4   4   4
#     4   9  17  29  46  69  94 117 145 185 228 267
#     4   9  18  31  47  69  94 117 145 184 226 266
#     4   8  12  19  32  47  67 103 144 172 201 249
#     4   9  19  35  50  64  87 119 152 184 218 261
#     4   8  14  25  38  52  76 110 142 171 208 256
#     4   9  15  20  28  47  75 105 139 178 213 245
#     4   9  19  35  51  66  87 117 151 184 219 263
#     4   7  11  21  36  54  78 108 140 173 211 256
#
# _framework density 19.933382999999999
#
# number of rings (size 3 to 8) (size 9 to 14) (size 15 to 20)
#    0.000    3.500    0.000    3.375    0.000    4.000 
#    0.000    5.625    0.000    2.250    0.000    0.000 
#    0.000    1.000    0.000    9.500    0.000   13.000 
#
# Total GULP energy -178261.937454 kJ/mol
# GULP energy per Si atom -5570.685545 kJ/mol
# Density = 1.988801 g / cm^3
# Si number density = 19.933383 Si / 1000 Ang^3
#
#
#
# Elastic Constant Matrix: (Units=GPa)
#
#
# Indices 1 2 3 4 5 6 
#
# 1 117.5995 4.4674 138.9641 0.0000 0.0000 0.0000
# 2 4.4674 46.8594 7.9683 0.0000 0.0000 0.0000
# 3 138.9641 7.9683 252.6595 0.0000 0.0000 0.0000
# 4 0.0000 0.0000 0.0000 70.7181 0.0000 0.0000
# 5 0.0000 0.0000 0.0000 0.0000 -31.5507 0.0000
# 6 0.0000 0.0000 0.0000 0.0000 0.0000 12.4687
#
#
#
# Elastic Compliance Matrix: (Units=1/GPa)
#
#
# Indices 1 2 3 4 5 6 
#
# 1 0.024291 -0.000044 -0.013359 0.000000 0.000000 0.000000
# 2 -0.000044 0.021456 -0.000652 0.000000 0.000000 0.000000
# 3 -0.013359 -0.000652 0.011326 0.000000 0.000000 0.000000
# 4 0.000000 0.000000 0.000000 0.014141 0.000000 0.000000
# 5 0.000000 0.000000 0.000000 0.000000 -0.031695 0.000000
# 6 0.000000 0.000000 0.000000 0.000000 0.000000 0.080201
#
#
# Mechanical properties :
#
#
# Convention : Reuss Voigt Hill
#
# Bulk Modulus (GPa) = 34.52837 79.99088 57.25962
# Shear Modulus (GPa) = 31.74957 28.04177 29.89567
#
# Velocity S-wave (km/s) = 3.99530 3.75477 3.87690
# Velocity P-wave (km/s) = 6.21633 7.68205 6.98773
#
# Compressibility (1/GPa) = 0.02896169
#
# Stress axis : x y z
#
# Youngs Moduli (GPa) = 41.16835 46.60788 88.29458
#
# Poissons Ratio (x) = 0.00206 1.17948
# Poissons Ratio (y) = 0.00182 0.05760
# Poissons Ratio (z) = 0.54995 0.03040
#
# Static dielectric constant tensor:
#      x y z
#    x 1.668280 0.000000 0.000000 
#    y 0.000000 1.766390 0.000000 
#    z 0.000000 0.000000 1.730450 
# 
# From -- ./inp_files/6530.got.cif
#   From: 2010.05.17/outbox.cif.g08.bks.cpg/sg25_4_cif.got.tgz:6530.got - 2010.06.04 01:04:00.
