data_PCOD9337510
_publ_section_title
;
Structure prediction by ZEFSAII (Michael W. Deem and Ramdas Pophale) SiO2 
 PCOD9337510
Probable space group: P M M 2
;
_chemical_formula_sum "Si O2"
_cell_formula_units_Z 20
_cell_length_a 9.495868
_cell_length_b 7.610694
_cell_length_c 13.226642
_cell_angle_alpha 90.000000
_cell_angle_beta 90.000000
_cell_angle_gamma 90.000000
_cell_volume 955.891343
_symmetry_space_group_name_H-M "P M M 2"
_symmetry_group_IT_number 25
_symmetry_cell_setting 'orthorhombic'
loop_
_space_group_symop_operation_xyz
x,y,z
-x,-y,z
-x,y,z
x,-y,z
loop_
_atom_site_type_symbol
_atom_site_label
_atom_site_fract_x
_atom_site_fract_y
_atom_site_fract_z
Si Si1 0.840007 0.208642 0.246510
Si Si2 0.160460 0.289218 0.018070
Si Si3 0.661664 0.285003 0.826987
Si Si4 0.838027 0.284819 0.630179
Si Si5 0.658521 0.292099 0.439804
O O1 0.793313 0.250051 0.132348
O O2 0.735863 0.272144 0.332970
O O3 0.000000 0.279987 0.259280
O O4 0.847472 0.000000 0.255995
O O5 0.154269 0.500000 0.008429
O O6 0.000000 0.221954 0.006129
O O7 0.262922 0.225402 0.930036
O O8 0.500000 0.227693 0.819999
O O9 0.660464 0.500000 0.827540
O O10 0.753049 0.231528 0.730097
O O11 0.840307 0.500000 0.629377
O O12 0.756163 0.222692 0.530251
O O13 0.000000 0.227131 0.631631
O O14 0.500000 0.218873 0.439321
O O15 0.646565 0.500000 0.458982
#
# Coordination Sequence:
#
# PCOD9337510 Si02
#       5
#     4   4   4   4   4
#     4  10  21  36  53  73  99 133 172 212 254 300
#     4   9  17  30  49  72  98 129 165 204 246 294
#     4   9  16  26  43  70 102 130 158 198 247 296
#     4   9  16  27  46  72 101 131 162 199 246 298
#     4  10  20  33  51  76 104 133 167 208 253 300
#
# _framework density 20.922882000000001
#
# number of rings (size 3 to 8) (size 9 to 14) (size 15 to 20)
#    0.000    2.600    0.000    2.400    0.000    8.000 
#    0.000    2.000    0.000    1.200    0.000    2.800 
#    0.000    0.000    0.000    0.000    0.000    0.000 
#
# Total GULP energy -111687.699533 kJ/mol
# GULP energy per Si atom -5584.384977 kJ/mol
# Density = 2.087526 g / cm^3
# Si number density = 20.922882 Si / 1000 Ang^3
#
#
#
# Elastic Constant Matrix: (Units=GPa)
#
#
# Indices 1 2 3 4 5 6 
#
# 1 204.2099 5.7667 154.9579 0.0000 0.0000 0.0000
# 2 5.7667 42.1504 -4.8731 0.0000 0.0000 0.0000
# 3 154.9579 -4.8731 202.5649 0.0000 0.0000 0.0000
# 4 0.0000 0.0000 0.0000 -54.7619 0.0000 0.0000
# 5 0.0000 0.0000 0.0000 0.0000 28.8679 0.0000
# 6 0.0000 0.0000 0.0000 0.0000 0.0000 -2.1919
#
#
#
# Elastic Compliance Matrix: (Units=1/GPa)
#
#
# Indices 1 2 3 4 5 6 
#
# 1 0.011972 -0.002704 -0.009224 0.000000 0.000000 0.000000
# 2 -0.002704 0.024402 0.002656 0.000000 0.000000 0.000000
# 3 -0.009224 0.002656 0.012057 0.000000 0.000000 0.000000
# 4 0.000000 0.000000 0.000000 -0.018261 0.000000 0.000000
# 5 0.000000 0.000000 0.000000 0.000000 0.034641 0.000000
# 6 0.000000 0.000000 0.000000 0.000000 0.000000 -0.456230
#
#
# Mechanical properties :
#
#
# Convention : Reuss Voigt Hill
#
# Bulk Modulus (GPa) = 33.46046 84.51426 58.98736
# Shear Modulus (GPa) = -13.77738 13.92105 0.07183
#
# Velocity S-wave (km/s) = -2.56888 2.58224 0.18549
# Velocity P-wave (km/s) = 2.68852 7.02649 5.31976
#
# Compressibility (1/GPa) = 0.02988602
#
# Stress axis : x y z
#
# Youngs Moduli (GPa) = 83.52563 40.98093 82.94278
#
# Poissons Ratio (x) = 0.11083 0.76504
# Poissons Ratio (y) = 0.22588 -0.22028
# Poissons Ratio (z) = 0.77041 -0.10884
#
# Static dielectric constant tensor:
#      x y z
#    x 1.729520 0.000000 0.000000 
#    y 0.000000 1.768850 0.000000 
#    z 0.000000 0.000000 1.710220 
# 
# From -- ./inp_files/3760.got.cif
#   From: 2010.05.17/outbox.cif.g08.bks.cpg/sg25_2_cif.got.tgz:3760.got - 2010.06.04 01:04:00.
