data_PCOD9337318
_publ_section_title
;
Structure prediction by ZEFSAII (Michael W. Deem and Ramdas Pophale) SiO2 
 PCOD9337318
Probable space group: P M M 2
;
_chemical_formula_sum "Si O2"
_cell_formula_units_Z 32
_cell_length_a 15.006125
_cell_length_b 8.444827
_cell_length_c 12.883836
_cell_angle_alpha 90.000000
_cell_angle_beta 90.000000
_cell_angle_gamma 90.000000
_cell_volume 1632.692903
_symmetry_space_group_name_H-M "P M M 2"
_symmetry_group_IT_number 25
_symmetry_cell_setting 'orthorhombic'
loop_
_space_group_symop_operation_xyz
x,y,z
-x,-y,z
-x,y,z
x,-y,z
loop_
_atom_site_type_symbol
_atom_site_label
_atom_site_fract_x
_atom_site_fract_y
_atom_site_fract_z
Si Si1 0.603543 0.191703 0.226220
Si Si2 0.902113 0.187868 0.485058
Si Si3 0.275269 0.187761 0.034522
Si Si4 0.344896 0.318118 0.647671
Si Si5 0.099439 0.690712 0.942727
Si Si6 0.138039 0.682838 0.708239
Si Si7 0.290704 0.309384 0.426716
Si Si8 0.403060 0.308427 0.861326
O O1 0.500000 0.245679 0.222463
O O2 0.663719 0.248572 0.129218
O O3 0.655114 0.245663 0.329244
O O4 0.601744 0.000000 0.223424
O O5 0.897505 0.224563 0.608482
O O6 0.813733 0.262169 0.433598
O O7 0.000000 0.244343 0.447944
O O8 0.897306 0.000000 0.469667
O O9 0.269795 0.000000 0.044423
O O10 0.176092 0.252988 0.019953
O O11 0.326962 0.234006 0.930093
O O12 0.375858 0.500000 0.634185
O O13 0.244282 0.320867 0.692062
O O14 0.336921 0.247364 0.533314
O O15 0.399349 0.248508 0.742895
O O16 0.103739 0.500000 0.938757
O O17 0.115745 0.744602 0.823047
O O18 0.000000 0.739127 0.973877
O O19 0.106808 0.500000 0.701303
O O20 0.293898 0.500000 0.428269
O O21 0.500000 0.273219 0.907005
O O22 0.391443 0.500000 0.859250
#
# Coordination Sequence:
#
# PCOD9337318 Si02
#       8
#     4   4   4   4   4   4   4   4
#     4  10  23  44  65  83 109 149 194 241 295 350
#     4  10  20  33  52  82 121 161 197 233 279 339
#     4  11  23  39  59  83 116 152 191 241 289 344
#     4   8  15  30  51  79 115 148 179 223 279 335
#     4  10  20  35  57  84 116 154 195 239 287 340
#     4   9  16  30  52  77 112 156 197 236 278 330
#     4  10  21  37  60  88 115 146 192 246 292 341
#     4  10  19  33  56  83 113 151 190 229 281 346
#
# _framework density 19.599520999999999
#
# number of rings (size 3 to 8) (size 9 to 14) (size 15 to 20)
#    0.000    2.250    1.250    2.625    0.000    4.750 
#    0.000    2.500    0.000    0.750    0.000    0.000 
#    0.000    0.000    0.000    0.000    0.000    0.000 
#
# Total GULP energy -178441.947973 kJ/mol
# GULP energy per Si atom -5576.310874 kJ/mol
# Density = 1.955491 g / cm^3
# Si number density = 19.599521 Si / 1000 Ang^3
#
#
#
# Elastic Constant Matrix: (Units=GPa)
#
#
# Indices 1 2 3 4 5 6 
#
# 1 151.3131 21.2949 75.8826 0.0000 0.0000 0.0000
# 2 21.2949 14.5984 11.1559 0.0000 0.0000 0.0000
# 3 75.8826 11.1559 118.0524 0.0000 0.0000 0.0000
# 4 0.0000 0.0000 0.0000 29.0476 0.0000 0.0000
# 5 0.0000 0.0000 0.0000 0.0000 18.0854 0.0000
# 6 0.0000 0.0000 0.0000 0.0000 0.0000 20.2371
#
#
#
# Elastic Compliance Matrix: (Units=1/GPa)
#
#
# Indices 1 2 3 4 5 6 
#
# 1 0.011388 -0.011876 -0.006198 0.000000 0.000000 0.000000
# 2 -0.011876 0.086217 -0.000514 0.000000 0.000000 0.000000
# 3 -0.006198 -0.000514 0.012503 0.000000 0.000000 0.000000
# 4 0.000000 0.000000 0.000000 0.034426 0.000000 0.000000
# 5 0.000000 0.000000 0.000000 0.000000 0.055293 0.000000
# 6 0.000000 0.000000 0.000000 0.000000 0.000000 0.049414
#
#
# Mechanical properties :
#
#
# Convention : Reuss Voigt Hill
#
# Bulk Modulus (GPa) = 13.71122 55.62564 34.66843
# Shear Modulus (GPa) = 16.09120 25.18272 20.63696
#
# Velocity S-wave (km/s) = 2.86842 3.58839 3.24841
# Velocity P-wave (km/s) = 4.24044 6.75362 5.63883
#
# Compressibility (1/GPa) = 0.07293299
#
# Stress axis : x y z
#
# Youngs Moduli (GPa) = 87.80803 11.59868 79.97815
#
# Poissons Ratio (x) = 0.13775 0.49571
# Poissons Ratio (y) = 1.04281 0.04108
# Poissons Ratio (z) = 0.54424 0.00596
#
# Static dielectric constant tensor:
#      x y z
#    x 1.725140 0.000000 0.000000 
#    y 0.000000 1.674820 0.000000 
#    z 0.000000 0.000000 1.687950 
# 
# From -- ./inp_files/4902.got.cif
#   From: 2010.05.17/outbox.cif.g08.bks.cpg/sg25_3_cif.got.tgz:4902.got - 2010.06.04 01:04:00.
