data_PCOD9337120
_publ_section_title
;
Structure prediction by ZEFSAII (Michael W. Deem and Ramdas Pophale) SiO2 
 PCOD9337120
Probable space group: P M M 2
;
_chemical_formula_sum "Si O2"
_cell_formula_units_Z 32
_cell_length_a 7.638846
_cell_length_b 14.591309
_cell_length_c 14.381850
_cell_angle_alpha 90.000000
_cell_angle_beta 90.000000
_cell_angle_gamma 90.000000
_cell_volume 1603.011966
_symmetry_space_group_name_H-M "P M M 2"
_symmetry_group_IT_number 25
_symmetry_cell_setting 'orthorhombic'
loop_
_space_group_symop_operation_xyz
x,y,z
-x,-y,z
-x,y,z
x,-y,z
loop_
_atom_site_type_symbol
_atom_site_label
_atom_site_fract_x
_atom_site_fract_y
_atom_site_fract_z
Si Si1 0.303522 0.247958 0.515990
Si Si2 0.209189 0.397307 0.377032
Si Si3 0.306961 0.750346 0.017771
Si Si4 0.294676 0.602621 0.652815
Si Si5 0.791226 0.603374 0.158497
Si Si6 0.286169 0.107330 0.161525
Si Si7 0.286516 0.892701 0.369264
Si Si8 0.793104 0.602071 0.866051
O O1 0.500000 0.220049 0.546148
O O2 0.309987 0.322829 0.434307
O O3 0.219437 0.309182 0.598292
O O4 0.221237 0.163090 0.459266
O O5 0.258414 0.500000 0.405376
O O6 0.240049 0.388259 0.267694
O O7 0.000000 0.386758 0.392027
O O8 0.500000 0.780804 0.988614
O O9 0.311033 0.677065 0.100969
O O10 0.219722 0.835521 0.072499
O O11 0.237413 0.687985 0.933702
O O12 0.500000 0.599793 0.626814
O O13 0.220867 0.500000 0.632524
O O14 0.283436 0.615765 0.763389
O O15 0.747218 0.500000 0.130483
O O16 0.000000 0.615761 0.141591
O O17 0.500000 0.114199 0.160900
O O18 0.229515 0.139928 0.265451
O O19 0.242219 0.000000 0.154503
O O20 0.500000 0.885382 0.370130
O O21 0.242808 0.000000 0.375656
O O22 0.732293 0.500000 0.899876
O O23 0.000000 0.595697 0.854756
#
# Coordination Sequence:
#
# PCOD9337120 Si02
#       8
#     4   4   4   4   4   4   4   4
#     4  10  18  28  47  73  96 120 155 198 241 279
#     4   9  18  30  42  60  91 129 161 187 222 274
#     4  11  20  29  48  74  94 117 154 199 243 282
#     4   9  18  32  48  68  95 123 154 198 245 283
#     4   9  18  31  43  59  91 131 161 185 221 274
#     4   8  15  28  45  68  99 130 158 190 230 277
#     4   8  14  26  45  70 100 130 158 190 229 275
#     4  10  21  36  52  69  92 125 161 194 233 287
#
# _framework density 19.962420000000002
#
# number of rings (size 3 to 8) (size 9 to 14) (size 15 to 20)
#    0.000    2.750    0.000    3.750    0.000    5.250 
#    0.000    2.500    0.000    2.625    0.000    8.750 
#    0.000    0.000    0.000    0.000    0.000    0.000 
#
# Total GULP energy -178266.409842 kJ/mol
# GULP energy per Si atom -5570.825308 kJ/mol
# Density = 1.991699 g / cm^3
# Si number density = 19.962420 Si / 1000 Ang^3
#
#
#
# Elastic Constant Matrix: (Units=GPa)
#
#
# Indices 1 2 3 4 5 6 
#
# 1 30.2386 2.6668 8.1474 0.0000 0.0000 0.0000
# 2 2.6668 89.0946 58.1976 0.0000 0.0000 0.0000
# 3 8.1474 58.1976 94.4623 0.0000 0.0000 0.0000
# 4 0.0000 0.0000 0.0000 34.6466 0.0000 0.0000
# 5 0.0000 0.0000 0.0000 0.0000 43.5303 0.0000
# 6 0.0000 0.0000 0.0000 0.0000 0.0000 6.7961
#
#
#
# Elastic Compliance Matrix: (Units=1/GPa)
#
#
# Indices 1 2 3 4 5 6 
#
# 1 0.033977 0.001501 -0.003856 0.000000 0.000000 0.000000
# 2 0.001501 0.018849 -0.011743 0.000000 0.000000 0.000000
# 3 -0.003856 -0.011743 0.018153 0.000000 0.000000 0.000000
# 4 0.000000 0.000000 0.000000 0.028863 0.000000 0.000000
# 5 0.000000 0.000000 0.000000 0.000000 0.022973 0.000000
# 6 0.000000 0.000000 0.000000 0.000000 0.000000 0.147143
#
#
# Mechanical properties :
#
#
# Convention : Reuss Voigt Hill
#
# Bulk Modulus (GPa) = 23.37199 39.09102 31.23150
# Shear Modulus (GPa) = 16.00445 26.64682 21.32563
#
# Velocity S-wave (km/s) = 2.83455 3.65752 3.27201
# Velocity P-wave (km/s) = 4.73776 6.12058 5.47301
#
# Compressibility (1/GPa) = 0.04278626
#
# Stress axis : x y z
#
# Youngs Moduli (GPa) = 29.43189 53.05195 55.08643
#
# Poissons Ratio (x) = -0.07966 0.21239
# Poissons Ratio (y) = -0.04419 0.64685
# Poissons Ratio (z) = 0.11348 0.62296
#
# Static dielectric constant tensor:
#      x y z
#    x 1.749960 0.000000 0.000000 
#    y 0.000000 1.745320 0.000000 
#    z 0.000000 0.000000 1.719990 
# 
# From -- ./inp_files/5743.got.cif
#   From: 2010.05.17/outbox.cif.g08.bks.cpg/sg25_3_cif.got.tgz:5743.got - 2010.06.04 01:04:00.
