data_PCOD9337045
_publ_section_title
;
Structure prediction by ZEFSAII (Michael W. Deem and Ramdas Pophale) SiO2 
 PCOD9337045
Probable space group: I 21 21 21
;
_chemical_formula_sum "Si O2"
_cell_formula_units_Z 28
_cell_length_a 9.000000
_cell_length_b 21.000000
_cell_length_c 15.000000
_cell_angle_alpha 90.000000
_cell_angle_beta 90.000000
_cell_angle_gamma 90.000000
_cell_volume 2835.000000
_symmetry_space_group_name_H-M "I 21 21 21"
_symmetry_group_IT_number 24
_symmetry_cell_setting 'orthorhombic'
loop_
_space_group_symop_operation_xyz
x,y,z
-x,1/2-y,z
x,-y,1/2-z
1/2-x,y,-z
1/2+x,1/2+y,1/2+z
1/2-x,-y,1/2+z
1/2+x,1/2-y,-z
-x,1/2+y,1/2-z
loop_
_atom_site_type_symbol
_atom_site_label
_atom_site_fract_x
_atom_site_fract_y
_atom_site_fract_z
Si Si1 0.139966 0.576301 0.252677
Si Si2 0.607749 0.689746 0.935616
Si Si3 0.516441 0.930438 0.205072
Si Si4 0.387481 0.190562 0.937517
Si Si5 0.569858 0.065174 0.501025
Si Si6 0.593076 0.922193 0.548289
Si Si7 0.190567 0.864678 0.243694
O O1 0.145609 0.500000 0.250000
O O2 0.309332 0.596129 0.218396
O O3 0.136808 0.599032 0.353355
O O4 0.965933 0.594620 0.227400
O O5 0.500000 0.750000 0.946717
O O6 0.511238 0.626049 0.956525
O O7 0.673225 0.686043 0.835858
O O8 0.750000 0.692327 0.000000
O O9 0.358067 0.896337 0.234426
O O10 0.515865 0.000000 0.250000
O O11 0.510140 0.938733 0.099126
O O12 0.500000 0.250000 0.927685
O O13 0.472684 0.129611 0.981861
O O14 0.328495 0.166186 0.841309
O O15 0.250000 0.209110 0.000000
O O16 0.750000 0.073456 0.500000
O O17 0.539403 0.995980 0.545729
O O18 0.750000 0.921973 0.500000
#
# Coordination Sequence:
#
# PCOD9337045 Si02
#       7
#     8   8   8   8   8   8   8
#     4  10  20  37  60  94 141 180 216 283 346 413
#     4  12  25  45  67  94 140 182 236 287 349 418
#     4  11  22  37  67 104 143 179 231 282 349 420
#     4  11  26  46  70  97 135 180 235 295 363 423
#     4  11  22  40  67 103 137 182 230 287 348 419
#     4  10  21  38  67  96 132 174 222 283 357 409
#     4  11  24  44  67  99 133 184 236 290 348 426
#
# _framework density 9.8765429999999999
#
# number of rings (size 3 to 8) (size 9 to 14) (size 15 to 20)
#    0.000    1.143    1.429    6.857    4.000    1.714 
#    0.000    0.714    0.000    0.000    0.000    0.000 
#    0.000    0.000    0.000    0.000    0.000    0.000 
#
# Total GULP energy -155868.645043 kJ/mol
# GULP energy per Si atom -5566.737323 kJ/mol
# Density = 0.985406 g / cm^3
# Si number density = 9.876543 Si / 1000 Ang^3
#
#
#
# Elastic Constant Matrix: (Units=GPa)
#
#
# Indices 1 2 3 4 5 6 
#
# 1 164.5436 52.3984 40.3625 0.0000 0.0000 0.0000
# 2 52.3984 92.2322 29.9951 0.0000 0.0000 0.0000
# 3 40.3625 29.9951 104.1832 0.0000 0.0000 0.0000
# 4 0.0000 0.0000 0.0000 15.3921 0.0000 0.0000
# 5 0.0000 0.0000 0.0000 0.0000 38.0167 0.0000
# 6 0.0000 0.0000 0.0000 0.0000 0.0000 59.7985
#
#
#
# Elastic Compliance Matrix: (Units=1/GPa)
#
#
# Indices 1 2 3 4 5 6 
#
# 1 0.007751 -0.003781 -0.001914 0.000000 0.000000 0.000000
# 2 -0.003781 0.013807 -0.002510 0.000000 0.000000 0.000000
# 3 -0.001914 -0.002510 0.011063 0.000000 0.000000 0.000000
# 4 0.000000 0.000000 0.000000 0.064968 0.000000 0.000000
# 5 0.000000 0.000000 0.000000 0.000000 0.026304 0.000000
# 6 0.000000 0.000000 0.000000 0.000000 0.000000 0.016723
#
#
# Mechanical properties :
#
#
# Convention : Reuss Voigt Hill
#
# Bulk Modulus (GPa) = 61.69228 67.38569 64.53898
# Shear Modulus (GPa) = 30.78253 38.52167 34.65210
#
# Velocity S-wave (km/s) = 3.95190 4.42085 4.19294
# Velocity P-wave (km/s) = 7.21961 7.76187 7.49565
#
# Compressibility (1/GPa) = 0.01620948
#
# Stress axis : x y z
#
# Youngs Moduli (GPa) = 129.01536 72.42951 90.39275
#
# Poissons Ratio (x) = 0.27385 0.17304
# Poissons Ratio (y) = 0.48779 0.22691
# Poissons Ratio (z) = 0.24698 0.18181
#
# Static dielectric constant tensor:
#      x y z
#    x 1.726060 0.000000 0.000000 
#    y 0.000000 1.700030 0.000000 
#    z 0.000000 0.000000 1.733340 
# 
# From -- ./inp_files/25056.got.cif
#   From: 2010.05.17/outbox.ucp.g08.bks.cvg/sg24_13_cif.got.tgz:25056.got - 2010.06.11 15:20:44.
