data_PCOD9337534
_publ_section_title
;
Structure prediction by ZEFSAII (Michael W. Deem and Ramdas Pophale) SiO2 
 PCOD9337534
Probable space group: P M M 2
;
_chemical_formula_sum "Si O2"
_cell_formula_units_Z 32
_cell_length_a 7.734487
_cell_length_b 14.681358
_cell_length_c 13.357791
_cell_angle_alpha 90.000000
_cell_angle_beta 90.000000
_cell_angle_gamma 90.000000
_cell_volume 1516.814204
_symmetry_space_group_name_H-M "P M M 2"
_symmetry_group_IT_number 25
_symmetry_cell_setting 'orthorhombic'
loop_
_space_group_symop_operation_xyz
x,y,z
-x,-y,z
-x,y,z
x,-y,z
loop_
_atom_site_type_symbol
_atom_site_label
_atom_site_fract_x
_atom_site_fract_y
_atom_site_fract_z
Si Si1 0.704263 0.602396 0.485000
Si Si2 0.287497 0.895050 0.763093
Si Si3 0.704573 0.783446 0.571365
Si Si4 0.295427 0.783445 0.954820
Si Si5 0.704263 0.397604 0.041186
Si Si6 0.791186 0.893518 0.152429
Si Si7 0.195662 0.610518 0.263093
Si Si8 0.208814 0.893518 0.373755
O O1 0.500000 0.595672 0.504841
O O2 0.778039 0.500000 0.494990
O O3 0.778647 0.682226 0.553941
O O4 0.722200 0.633944 0.369292
O O5 0.500000 0.896477 0.763093
O O6 0.227504 0.841765 0.664124
O O7 0.227504 0.841764 0.862060
O O8 0.231787 0.000000 0.763093
O O9 0.500000 0.772712 0.589748
O O10 0.725472 0.837732 0.467853
O O11 0.500000 0.772712 0.936437
O O12 0.221353 0.682226 0.972245
O O13 0.274528 0.837732 0.058331
O O14 0.500000 0.404328 0.021345
O O15 0.778039 0.500000 0.031196
O O16 0.722200 0.366056 0.156894
O O17 0.734494 0.861016 0.263092
O O18 0.000000 0.889569 0.150818
O O19 0.741805 0.000000 0.143238
O O20 0.194475 0.500000 0.263093
O O21 0.000000 0.645257 0.263093
O O22 0.000000 0.889569 0.375366
O O23 0.258195 0.000000 0.382946
#
# Coordination Sequence:
#
# PCOD9337534 Si02
#       8
#     4   4   4   4   4   4   4   4
#     4   9  18  32  48  70 104 139 170 209 254 298
#     4   9  18  34  54  76 102 129 165 221 272 303
#     4  10  20  33  53  77 100 133 177 213 253 307
#     4  10  20  33  53  77 100 133 177 213 253 307
#     4   9  18  32  48  70 104 139 170 209 254 298
#     4   9  19  35  52  73 104 136 163 203 263 317
#     4   9  17  29  47  71  98 133 174 209 245 296
#     4   9  19  35  52  73 104 136 163 203 263 317
#
# _framework density 21.096848000000001
#
# number of rings (size 3 to 8) (size 9 to 14) (size 15 to 20)
#    0.000    2.750    0.000    1.875    1.750    4.500 
#    0.000    2.500    0.000    6.000    0.000    0.000 
#    0.000    6.000    0.000    0.000    0.000    0.000 
#
# Total GULP energy -178544.159986 kJ/mol
# GULP energy per Si atom -5579.505000 kJ/mol
# Density = 2.104883 g / cm^3
# Si number density = 21.096848 Si / 1000 Ang^3
#
#
#
# Elastic Constant Matrix: (Units=GPa)
#
#
# Indices 1 2 3 4 5 6 
#
# 1 29.5991 5.8417 -1.7930 0.0000 0.0000 0.0000
# 2 5.8417 161.4872 109.3769 0.0000 0.0000 0.0000
# 3 -1.7930 109.3769 148.0733 0.0000 0.0000 0.0000
# 4 0.0000 0.0000 0.0000 -19.3471 0.0000 0.0000
# 5 0.0000 0.0000 0.0000 0.0000 19.5195 0.0000
# 6 0.0000 0.0000 0.0000 0.0000 0.0000 0.1683
#
#
#
# Elastic Compliance Matrix: (Units=1/GPa)
#
#
# Indices 1 2 3 4 5 6 
#
# 1 0.034553 -0.003069 0.002685 0.000000 0.000000 0.000000
# 2 -0.003069 0.012665 -0.009392 0.000000 0.000000 0.000000
# 3 0.002685 -0.009392 0.013724 0.000000 0.000000 0.000000
# 4 0.000000 0.000000 0.000000 -0.051687 0.000000 0.000000
# 5 0.000000 0.000000 0.000000 0.000000 0.051231 0.000000
# 6 0.000000 0.000000 0.000000 0.000000 0.000000 5.941189
#
#
# Mechanical properties :
#
#
# Convention : Reuss Voigt Hill
#
# Bulk Modulus (GPa) = 24.16038 62.89008 43.52523
# Shear Modulus (GPa) = 0.82850 15.11709 7.97279
#
# Velocity S-wave (km/s) = 0.62735 2.67976 1.94611
# Velocity P-wave (km/s) = 3.46435 6.28090 5.07205
#
# Compressibility (1/GPa) = 0.04139008
#
# Stress axis : x y z
#
# Youngs Moduli (GPa) = 28.94098 78.95793 72.86641
#
# Poissons Ratio (x) = 0.24228 -0.19565
# Poissons Ratio (y) = 0.08881 0.68439
# Poissons Ratio (z) = -0.07771 0.74160
#
# Static dielectric constant tensor:
#      x y z
#    x 1.768780 0.000000 0.000000 
#    y 0.000000 1.808660 0.000000 
#    z 0.000000 0.000000 1.727350 
# 
# From -- ./inp_files/4154.got.cif
#   From: 2010.05.17/outbox.cif.g08.bks.cpg/sg25_3_cif.got.tgz:4154.got - 2010.06.04 01:04:00.
