data_PCOD9337849
_publ_section_title
;
Structure prediction by ZEFSAII (Michael W. Deem and Ramdas Pophale) SiO2 
 PCOD9337849
Probable space group: P M M 2
;
_chemical_formula_sum "Si O2"
_cell_formula_units_Z 28
_cell_length_a 9.521489
_cell_length_b 7.462288
_cell_length_c 18.987708
_cell_angle_alpha 90.000000
_cell_angle_beta 90.000000
_cell_angle_gamma 90.000000
_cell_volume 1349.116397
_symmetry_space_group_name_H-M "P M M 2"
_symmetry_group_IT_number 25
_symmetry_cell_setting 'orthorhombic'
loop_
_space_group_symop_operation_xyz
x,y,z
-x,-y,z
-x,y,z
x,-y,z
loop_
_atom_site_type_symbol
_atom_site_label
_atom_site_fract_x
_atom_site_fract_y
_atom_site_fract_z
Si Si1 0.159245 0.212973 0.302560
Si Si2 0.340493 0.214813 0.432301
Si Si3 0.339400 0.714160 0.589727
Si Si4 0.164054 0.718585 0.995340
Si Si5 0.161598 0.280776 0.722981
Si Si6 0.837922 0.285081 0.149366
Si Si7 0.338162 0.280967 0.859755
O O1 0.248174 0.284744 0.367835
O O2 0.225628 0.237885 0.224961
O O3 0.000000 0.286631 0.301988
O O4 0.148336 0.000000 0.312487
O O5 0.500000 0.284680 0.429326
O O6 0.285398 0.250747 0.510869
O O7 0.347504 0.000000 0.425112
O O8 0.500000 0.783849 0.594841
O O9 0.347613 0.500000 0.597827
O O10 0.239979 0.779899 0.652065
O O11 0.164733 0.500000 0.994276
O O12 0.216883 0.775235 0.073123
O O13 0.000000 0.770978 0.987371
O O14 0.259231 0.778305 0.930665
O O15 0.160508 0.500000 0.722749
O O16 0.250371 0.225584 0.791243
O O17 0.000000 0.223071 0.726379
O O18 0.840483 0.500000 0.146954
O O19 0.000000 0.220651 0.152008
O O20 0.500000 0.223796 0.856804
O O21 0.338451 0.500000 0.860122
#
# Coordination Sequence:
#
# PCOD9337849 Si02
#       7
#     4   4   4   4   4   4   4
#     4   9  17  29  45  64  84 107 139 177 211 245
#     4   9  18  32  47  62  83 112 142 170 206 254
#     4   9  17  29  44  62  85 111 139 173 211 248
#     4   8  13  22  36  53  75 105 139 171 203 243
#     4   9  16  25  38  58  84 112 141 172 207 248
#     4   8  14  25  41  61  85 112 140 171 210 253
#     4   9  15  22  34  54  82 113 140 168 206 248
#
# _framework density 20.754324
#
# number of rings (size 3 to 8) (size 9 to 14) (size 15 to 20)
#    0.000    3.286    0.000    1.714    0.000    4.571 
#    0.000    0.714    0.000    0.857    0.000    1.000 
#    0.000    3.429    0.000    0.000    0.000    0.000 
#
# Total GULP energy -156106.470307 kJ/mol
# GULP energy per Si atom -5575.231082 kJ/mol
# Density = 2.070709 g / cm^3
# Si number density = 20.754324 Si / 1000 Ang^3
#
#
#
# Elastic Constant Matrix: (Units=GPa)
#
#
# Indices 1 2 3 4 5 6 
#
# 1 111.0389 4.1938 120.0256 0.0000 0.0000 0.0000
# 2 4.1938 59.7088 1.8603 0.0000 0.0000 0.0000
# 3 120.0256 1.8603 260.5317 0.0000 0.0000 0.0000
# 4 0.0000 0.0000 0.0000 37.4560 0.0000 0.0000
# 5 0.0000 0.0000 0.0000 0.0000 -596.9120 0.0000
# 6 0.0000 0.0000 0.0000 0.0000 0.0000 -17.0662
#
#
#
# Elastic Compliance Matrix: (Units=1/GPa)
#
#
# Indices 1 2 3 4 5 6 
#
# 1 0.017999 -0.001006 -0.008285 0.000000 0.000000 0.000000
# 2 -0.001006 0.016808 0.000343 0.000000 0.000000 0.000000
# 3 -0.008285 0.000343 0.007653 0.000000 0.000000 0.000000
# 4 0.000000 0.000000 0.000000 0.026698 0.000000 0.000000
# 5 0.000000 0.000000 0.000000 0.000000 -0.001675 0.000000
# 6 0.000000 0.000000 0.000000 0.000000 0.000000 -0.058595
#
#
# Mechanical properties :
#
#
# Convention : Reuss Voigt Hill
#
# Bulk Modulus (GPa) = 40.70873 75.93766 58.32319
# Shear Modulus (GPa) = 142.97520 -94.95780 24.00870
#
# Velocity S-wave (km/s) = 8.30897 -6.77145 3.40487
# Velocity P-wave (km/s) = 10.56925 4.94657 6.60456
#
# Compressibility (1/GPa) = 0.02456475
#
# Stress axis : x y z
#
# Youngs Moduli (GPa) = 55.55726 59.49576 130.67216
#
# Poissons Ratio (x) = 0.05986 1.08263
# Poissons Ratio (y) = 0.05590 -0.04488
# Poissons Ratio (z) = 0.46030 -0.02044
#
# Static dielectric constant tensor:
#      x y z
#    x 1.724950 0.000000 0.000000 
#    y 0.000000 1.785670 0.000000 
#    z 0.000000 0.000000 1.748930 
# 
# From -- ./inp_files/6216.got.cif
#   From: 2010.05.17/outbox.cif.g08.bks.cpg/sg25_4_cif.got.tgz:6216.got - 2010.06.04 01:04:00.
