data_PCOD9337759
_publ_section_title
;
Structure prediction by ZEFSAII (Michael W. Deem and Ramdas Pophale) SiO2 
 PCOD9337759
Probable space group: P M M 2
;
_chemical_formula_sum "Si O2"
_cell_formula_units_Z 28
_cell_length_a 7.438299
_cell_length_b 21.209957
_cell_length_c 7.631595
_cell_angle_alpha 90.000000
_cell_angle_beta 90.000000
_cell_angle_gamma 90.000000
_cell_volume 1204.006232
_symmetry_space_group_name_H-M "P M M 2"
_symmetry_group_IT_number 25
_symmetry_cell_setting 'orthorhombic'
loop_
_space_group_symop_operation_xyz
x,y,z
-x,-y,z
-x,y,z
x,-y,z
loop_
_atom_site_type_symbol
_atom_site_label
_atom_site_fract_x
_atom_site_fract_y
_atom_site_fract_z
Si Si1 0.210249 0.431941 0.169030
Si Si2 0.291785 0.836041 0.695950
Si Si3 0.281656 0.432651 0.586875
Si Si4 0.785789 0.839662 0.079573
Si Si5 0.713615 0.071002 0.404672
Si Si6 0.780860 0.296353 0.213637
Si Si7 0.707720 0.299319 0.627546
O O1 0.288497 0.500000 0.110881
O O2 0.225337 0.432222 0.382251
O O3 0.281651 0.362013 0.124278
O O4 0.000000 0.432596 0.122779
O O5 0.500000 0.826985 0.641720
O O6 0.211063 0.885334 0.560173
O O7 0.209318 0.765770 0.694012
O O8 0.285577 0.860324 0.892190
O O9 0.500000 0.430949 0.587932
O O10 0.223842 0.500000 0.662864
O O11 0.213914 0.368007 0.672284
O O12 0.738453 0.889246 0.228757
O O13 0.721076 0.768888 0.126232
O O14 0.000000 0.836210 0.068832
O O15 0.500000 0.065274 0.434880
O O16 0.786295 0.000000 0.396446
O O17 0.717284 0.295325 0.415539
O O18 0.000000 0.297473 0.217139
O O19 0.500000 0.301018 0.684879
#
# Coordination Sequence:
#
# PCOD9337759 Si02
#       7
#     4   4   4   4   4   4   4
#     4   8  13  22  38  62  93 131 176 222 266 315
#     4  10  21  37  58  84 113 147 189 229 269 321
#     4   8  13  21  36  63  97 130 168 218 273 322
#     4  11  23  37  57  86 119 151 183 223 276 330
#     4  10  22  42  66  88 111 142 181 225 271 323
#     4   9  17  29  47  73 105 141 180 224 275 325
#     4   9  16  28  49  74 101 138 183 227 271 321
#
# _framework density 23.255692
#
# number of rings (size 3 to 8) (size 9 to 14) (size 15 to 20)
#    0.000    2.714    1.429    0.429    0.000    2.571 
#    0.000    1.429    0.000    0.857    0.000    0.000 
#    0.000    0.000    0.000    0.000    0.000    0.000 
#
# Total GULP energy -156241.482035 kJ/mol
# GULP energy per Si atom -5580.052930 kJ/mol
# Density = 2.320276 g / cm^3
# Si number density = 23.255692 Si / 1000 Ang^3
#
#
#
# Elastic Constant Matrix: (Units=GPa)
#
#
# Indices 1 2 3 4 5 6 
#
# 1 84.5071 10.4108 -17.0367 0.0000 0.0000 0.0000
# 2 10.4108 243.0658 65.8582 0.0000 0.0000 0.0000
# 3 -17.0367 65.8582 83.0557 0.0000 0.0000 0.0000
# 4 0.0000 0.0000 0.0000 -18.0177 0.0000 0.0000
# 5 0.0000 0.0000 0.0000 0.0000 7.8924 0.0000
# 6 0.0000 0.0000 0.0000 0.0000 0.0000 -0.7307
#
#
#
# Elastic Compliance Matrix: (Units=1/GPa)
#
#
# Indices 1 2 3 4 5 6 
#
# 1 0.012818 -0.001607 0.003903 0.000000 0.000000 0.000000
# 2 -0.001607 0.005441 -0.004644 0.000000 0.000000 0.000000
# 3 0.003903 -0.004644 0.016523 0.000000 0.000000 0.000000
# 4 0.000000 0.000000 0.000000 -0.055501 0.000000 0.000000
# 5 0.000000 0.000000 0.000000 0.000000 0.126703 0.000000
# 6 0.000000 0.000000 0.000000 0.000000 0.000000 -1.368563
#
#
# Mechanical properties :
#
#
# Convention : Reuss Voigt Hill
#
# Bulk Modulus (GPa) = 33.23619 58.78813 46.01216
# Shear Modulus (GPa) = -4.00688 21.25523 8.62417
#
# Velocity S-wave (km/s) = -1.31404 3.02649 1.92781
# Velocity P-wave (km/s) = 3.46704 6.12754 4.97831
#
# Compressibility (1/GPa) = 0.03008768
#
# Stress axis : x y z
#
# Youngs Moduli (GPa) = 78.01441 183.78164 60.52075
#
# Poissons Ratio (x) = 0.29526 -0.23623
# Poissons Ratio (y) = 0.12534 0.28107
# Poissons Ratio (z) = -0.30451 0.85350
#
# Static dielectric constant tensor:
#      x y z
#    x 2.011730 0.000000 0.000000 
#    y 0.000000 1.940150 0.000000 
#    z 0.000000 0.000000 1.834260 
# 
# From -- ./inp_files/2298.got.cif
#   From: 2010.05.17/outbox.cif.g08.bks.cpg/sg25_2_cif.got.tgz:2298.got - 2010.06.04 01:04:00.
