data_PCOD9337420
_publ_section_title
;
Structure prediction by ZEFSAII (Michael W. Deem and Ramdas Pophale) SiO2 
 PCOD9337420
Probable space group: P M M 2
;
_chemical_formula_sum "Si O2"
_cell_formula_units_Z 32
_cell_length_a 9.501427
_cell_length_b 7.464568
_cell_length_c 21.410811
_cell_angle_alpha 90.000000
_cell_angle_beta 90.000000
_cell_angle_gamma 90.000000
_cell_volume 1518.541386
_symmetry_space_group_name_H-M "P M M 2"
_symmetry_group_IT_number 25
_symmetry_cell_setting 'orthorhombic'
loop_
_space_group_symop_operation_xyz
x,y,z
-x,-y,z
-x,y,z
x,-y,z
loop_
_atom_site_type_symbol
_atom_site_label
_atom_site_fract_x
_atom_site_fract_y
_atom_site_fract_z
Si Si1 0.658754 0.288378 0.370530
Si Si2 0.335927 0.281699 0.851804
Si Si3 0.162248 0.280785 0.488241
Si Si4 0.341521 0.285985 0.989617
Si Si5 0.162239 0.719064 0.731724
Si Si6 0.337533 0.281367 0.610153
Si Si7 0.158654 0.214277 0.110789
Si Si8 0.162272 0.215894 0.248845
O O1 0.500000 0.214353 0.370528
O O2 0.646669 0.500000 0.382722
O O3 0.758146 0.218055 0.425832
O O4 0.735172 0.269351 0.304235
O O5 0.500000 0.230475 0.843108
O O6 0.333405 0.500000 0.850377
O O7 0.237338 0.221368 0.795550
O O8 0.290034 0.222967 0.921400
O O9 0.159618 0.500000 0.487953
O O10 0.251347 0.226269 0.548831
O O11 0.000000 0.222551 0.490529
O O12 0.500000 0.216795 0.998507
O O13 0.349803 0.500000 0.984118
O O14 0.250606 0.251202 0.050449
O O15 0.161861 0.500000 0.731778
O O16 0.254575 0.774913 0.672245
O O17 0.000000 0.775849 0.727348
O O18 0.500000 0.222935 0.609329
O O19 0.339448 0.500000 0.610280
O O20 0.207917 0.277322 0.179368
O O21 0.000000 0.282358 0.101562
O O22 0.151403 0.000000 0.115627
O O23 0.000000 0.275522 0.259133
O O24 0.159804 0.000000 0.248829
#
# Coordination Sequence:
#
# PCOD9337420 Si02
#       8
#     4   4   4   4   4   4   4   4
#     4  10  20  32  47  70  98 125 154 190 233 281
#     4   8  14  25  38  53  79 114 147 181 224 270
#     4   9  16  26  40  58  83 116 152 189 228 270
#     4   9  18  31  47  69  96 124 155 192 234 281
#     4   9  15  21  31  50  76 108 148 188 223 265
#     4   9  15  22  33  50  76 112 150 186 226 271
#     4   9  19  35  52  70  93 121 154 192 233 278
#     4   9  19  36  54  70  91 121 156 193 233 277
#
# _framework density 21.072852000000001
#
# number of rings (size 3 to 8) (size 9 to 14) (size 15 to 20)
#    0.000    3.000    0.000    3.000    0.000    7.500 
#    0.000    5.000    0.000    0.000    0.000    0.000 
#    0.000    1.000    0.000    7.250    0.000   11.000 
#
# Total GULP energy -178579.248833 kJ/mol
# GULP energy per Si atom -5580.601526 kJ/mol
# Density = 2.102489 g / cm^3
# Si number density = 21.072852 Si / 1000 Ang^3
#
#
#
# Elastic Constant Matrix: (Units=GPa)
#
#
# Indices 1 2 3 4 5 6 
#
# 1 187.9976 4.8490 153.1559 0.0000 0.0000 0.0000
# 2 4.8490 58.0931 1.5536 0.0000 0.0000 0.0000
# 3 153.1559 1.5536 243.3447 0.0000 0.0000 0.0000
# 4 0.0000 0.0000 0.0000 72.8721 0.0000 0.0000
# 5 0.0000 0.0000 0.0000 0.0000 43.6761 0.0000
# 6 0.0000 0.0000 0.0000 0.0000 0.0000 12.3063
#
#
#
# Elastic Compliance Matrix: (Units=1/GPa)
#
#
# Indices 1 2 3 4 5 6 
#
# 1 0.010947 -0.000730 -0.006885 0.000000 0.000000 0.000000
# 2 -0.000730 0.017265 0.000349 0.000000 0.000000 0.000000
# 3 -0.006885 0.000349 0.008441 0.000000 0.000000 0.000000
# 4 0.000000 0.000000 0.000000 0.013723 0.000000 0.000000
# 5 0.000000 0.000000 0.000000 0.000000 0.022896 0.000000
# 6 0.000000 0.000000 0.000000 0.000000 0.000000 0.081259
#
#
# Mechanical properties :
#
#
# Convention : Reuss Voigt Hill
#
# Bulk Modulus (GPa) = 45.20529 89.83917 67.52223
# Shear Modulus (GPa) = 28.33873 47.76269 38.05071
#
# Velocity S-wave (km/s) = 3.67113 4.76600 4.25393
# Velocity P-wave (km/s) = 6.28236 8.54468 7.49932
#
# Compressibility (1/GPa) = 0.02212131
#
# Stress axis : x y z
#
# Youngs Moduli (GPa) = 91.34658 57.91959 118.47421
#
# Poissons Ratio (x) = 0.04226 0.81574
# Poissons Ratio (y) = 0.06665 -0.04135
# Poissons Ratio (z) = 0.62895 -0.02021
#
# Static dielectric constant tensor:
#      x y z
#    x 1.725400 0.000000 0.000000 
#    y 0.000000 1.814110 0.000000 
#    z 0.000000 0.000000 1.740650 
# 
# From -- ./inp_files/6272.got.cif
#   From: 2010.05.17/outbox.cif.g08.bks.cpg/sg25_4_cif.got.tgz:6272.got - 2010.06.04 01:04:00.
