data_PCOD9337255
_publ_section_title
;
Structure prediction by ZEFSAII (Michael W. Deem and Ramdas Pophale) SiO2 
 PCOD9337255
Probable space group: P M M 2
;
_chemical_formula_sum "Si O2"
_cell_formula_units_Z 32
_cell_length_a 18.660019
_cell_length_b 13.664670
_cell_length_c 7.714086
_cell_angle_alpha 90.000000
_cell_angle_beta 90.000000
_cell_angle_gamma 90.000000
_cell_volume 1966.960805
_symmetry_space_group_name_H-M "P M M 2"
_symmetry_group_IT_number 25
_symmetry_cell_setting 'orthorhombic'
loop_
_space_group_symop_operation_xyz
x,y,z
-x,-y,z
-x,y,z
x,-y,z
loop_
_atom_site_type_symbol
_atom_site_label
_atom_site_fract_x
_atom_site_fract_y
_atom_site_fract_z
Si Si1 0.271072 0.698133 0.588380
Si Si2 0.822421 0.611187 0.890996
Si Si3 0.914958 0.196851 0.890996
Si Si4 0.817625 0.112271 0.594002
Si Si5 0.817625 0.112271 0.187991
Si Si6 0.419273 0.386318 0.100665
Si Si7 0.728928 0.698133 0.193613
Si Si8 0.580727 0.613682 0.681327
O O1 0.227716 0.632473 0.724756
O O2 0.246125 0.809655 0.622639
O O3 0.250899 0.674231 0.390996
O O4 0.355081 0.679137 0.611897
O O5 0.847691 0.500000 0.890997
O O6 0.884808 0.692140 0.890996
O O7 0.772284 0.632474 0.057237
O O8 0.880749 0.144567 0.722715
O O9 0.000000 0.192859 0.890996
O O10 0.880750 0.144568 0.059278
O O11 0.838452 0.119567 0.390997
O O12 0.797216 0.000000 0.628595
O O13 0.753875 0.190345 0.159354
O O14 0.797216 0.000000 0.153398
O O15 0.500000 0.359059 0.154966
O O16 0.407244 0.500000 0.151207
O O17 0.355081 0.320862 0.170095
O O18 0.417113 0.383103 0.890996
O O19 0.500000 0.640941 0.627026
O O20 0.592756 0.500000 0.630786
#
# Coordination Sequence:
#
# PCOD9337255 Si02
#       8
#     4   4   4   4   4   4   4   4
#     4  10  19  31  50  73  96 127 166 203 239 283
#     4  10  20  34  50  70  99 131 161 196 237 280
#     4  10  21  35  52  76 101 125 158 196 235 288
#     4   9  19  35  53  74  99 126 158 199 245 287
#     4   9  19  35  53  74  99 126 158 199 245 287
#     4   9  17  29  45  67  98 132 162 197 242 285
#     4  10  19  31  50  73  96 127 166 203 239 283
#     4   9  17  29  45  67  98 132 162 197 242 285
#
# _framework density 16.268753
#
# number of rings (size 3 to 8) (size 9 to 14) (size 15 to 20)
#    0.000    2.500    1.250    1.875    0.000    4.250 
#    0.000    2.500    0.000    0.750    0.000   12.250 
#    0.000    0.000    0.000    0.000    0.000    0.000 
#
# Total GULP energy -178402.338872 kJ/mol
# GULP energy per Si atom -5575.073090 kJ/mol
# Density = 1.623172 g / cm^3
# Si number density = 16.268753 Si / 1000 Ang^3
#
#
#
# Elastic Constant Matrix: (Units=GPa)
#
#
# Indices 1 2 3 4 5 6 
#
# 1 127.0936 54.3346 40.9547 0.0000 0.0000 0.0000
# 2 54.3346 105.8676 44.3844 0.0000 0.0000 0.0000
# 3 40.9547 44.3844 68.8837 0.0000 0.0000 0.0000
# 4 0.0000 0.0000 0.0000 11.6637 0.0000 0.0000
# 5 0.0000 0.0000 0.0000 0.0000 9.1822 0.0000
# 6 0.0000 0.0000 0.0000 0.0000 0.0000 8.6735
#
#
#
# Elastic Compliance Matrix: (Units=1/GPa)
#
#
# Indices 1 2 3 4 5 6 
#
# 1 0.010795 -0.003904 -0.003902 0.000000 0.000000 0.000000
# 2 -0.003904 0.014354 -0.006928 0.000000 0.000000 0.000000
# 3 -0.003902 -0.006928 0.021301 0.000000 0.000000 0.000000
# 4 0.000000 0.000000 0.000000 0.085736 0.000000 0.000000
# 5 0.000000 0.000000 0.000000 0.000000 0.108907 0.000000
# 6 0.000000 0.000000 0.000000 0.000000 0.000000 0.115293
#
#
# Mechanical properties :
#
#
# Convention : Reuss Voigt Hill
#
# Bulk Modulus (GPa) = 58.88764 64.57691 61.73228
# Shear Modulus (GPa) = 12.77092 16.71530 14.74311
#
# Velocity S-wave (km/s) = 2.80482 3.20886 3.01362
# Velocity P-wave (km/s) = 6.83847 7.31499 7.08074
#
# Compressibility (1/GPa) = 0.01698149
#
# Stress axis : x y z
#
# Youngs Moduli (GPa) = 92.63687 69.66783 46.94604
#
# Poissons Ratio (x) = 0.27200 0.18320
# Poissons Ratio (y) = 0.36167 0.32522
# Poissons Ratio (z) = 0.36151 0.48262
#
# Static dielectric constant tensor:
#      x y z
#    x 1.518100 0.000000 0.000000 
#    y 0.000000 1.537890 0.000000 
#    z 0.000000 0.000000 1.576030 
# 
# From -- ./inp_files/3511.got.cif
#   From: 2010.05.17/outbox.cif.g08.bks.cpg/sg25_2_cif.got.tgz:3511.got - 2010.06.04 01:04:00.
