data_PCOD9337100
_publ_section_title
;
Structure prediction by ZEFSAII (Michael W. Deem and Ramdas Pophale) SiO2 
 PCOD9337100
Probable space group: P M M 2
;
_chemical_formula_sum "Si O2"
_cell_formula_units_Z 32
_cell_length_a 19.815691
_cell_length_b 7.389627
_cell_length_c 10.825881
_cell_angle_alpha 90.000000
_cell_angle_beta 90.000000
_cell_angle_gamma 90.000000
_cell_volume 1585.239874
_symmetry_space_group_name_H-M "P M M 2"
_symmetry_group_IT_number 25
_symmetry_cell_setting 'orthorhombic'
loop_
_space_group_symop_operation_xyz
x,y,z
-x,-y,z
-x,y,z
x,-y,z
loop_
_atom_site_type_symbol
_atom_site_label
_atom_site_fract_x
_atom_site_fract_y
_atom_site_fract_z
Si Si1 0.717437 0.213387 0.697670
Si Si2 0.786288 0.221692 0.447408
Si Si3 0.423950 0.281839 0.310208
Si Si4 0.924707 0.219892 0.338725
Si Si5 0.424133 0.282501 0.592362
Si Si6 0.714082 0.210226 0.199893
Si Si7 0.216694 0.778092 0.950298
Si Si8 0.075763 0.219955 0.052765
O O1 0.752409 0.286795 0.573417
O O2 0.637097 0.232731 0.681073
O O3 0.748513 0.285607 0.824452
O O4 0.731787 0.000000 0.698488
O O5 0.863774 0.275778 0.426281
O O6 0.746274 0.285679 0.325715
O O7 0.783392 0.000000 0.448927
O O8 0.500000 0.223683 0.279372
O O9 0.423376 0.500000 0.311592
O O10 0.409272 0.220335 0.451355
O O11 0.365932 0.221770 0.217891
O O12 0.911842 0.273112 0.195919
O O13 0.000000 0.279670 0.373130
O O14 0.925019 0.000000 0.338654
O O15 0.500000 0.220660 0.625193
O O16 0.426134 0.500000 0.588236
O O17 0.734388 0.000000 0.199150
O O18 0.742505 0.283769 0.071874
O O19 0.218161 0.000000 0.948793
O O20 0.138746 0.723436 0.969588
O O21 0.000000 0.279100 0.018053
O O22 0.075128 0.000000 0.051767
#
# Coordination Sequence:
#
# PCOD9337100 Si02
#       8
#     4   4   4   4   4   4   4   4
#     4  10  19  30  45  68  96 123 151 188 230 268
#     4   9  15  24  39  62  89 115 149 188 223 261
#     4   9  18  32  49  70  94 116 144 189 236 271
#     4   8  12  19  34  57  86 120 154 186 222 265
#     4   9  18  33  51  69  90 117 150 188 228 272
#     4  10  17  28  47  68  91 119 151 185 224 272
#     4   9  17  28  41  63  96 127 152 186 229 266
#     4   8  12  20  36  57  84 121 157 182 216 271
#
# _framework density 20.186221
#
# number of rings (size 3 to 8) (size 9 to 14) (size 15 to 20)
#    0.000    3.000    2.500    1.500    0.000    0.500 
#    0.000    3.125    0.000    7.500    0.000    0.000 
#    0.000    6.000    0.000    0.000    0.000    0.000 
#
# Total GULP energy -178482.438167 kJ/mol
# GULP energy per Si atom -5577.576193 kJ/mol
# Density = 2.014028 g / cm^3
# Si number density = 20.186221 Si / 1000 Ang^3
#
#
#
# Elastic Constant Matrix: (Units=GPa)
#
#
# Indices 1 2 3 4 5 6 
#
# 1 176.1818 -6.3684 107.3869 0.0000 0.0000 0.0000
# 2 -6.3684 67.1858 10.2820 0.0000 0.0000 0.0000
# 3 107.3869 10.2820 148.0902 0.0000 0.0000 0.0000
# 4 0.0000 0.0000 0.0000 -4.8613 0.0000 0.0000
# 5 0.0000 0.0000 0.0000 0.0000 32.2917 0.0000
# 6 0.0000 0.0000 0.0000 0.0000 0.0000 58.3287
#
#
#
# Elastic Compliance Matrix: (Units=1/GPa)
#
#
# Indices 1 2 3 4 5 6 
#
# 1 0.010478 0.002179 -0.007750 0.000000 0.000000 0.000000
# 2 0.002179 0.015497 -0.002656 0.000000 0.000000 0.000000
# 3 -0.007750 -0.002656 0.012557 0.000000 0.000000 0.000000
# 4 0.000000 0.000000 0.000000 -0.205705 0.000000 0.000000
# 5 0.000000 0.000000 0.000000 0.000000 0.030968 0.000000
# 6 0.000000 0.000000 0.000000 0.000000 0.000000 0.017144
#
#
# Mechanical properties :
#
#
# Convention : Reuss Voigt Hill
#
# Bulk Modulus (GPa) = 45.29216 68.22878 56.76047
# Shear Modulus (GPa) = -52.49435 35.82896 -8.33269
#
# Velocity S-wave (km/s) = -5.10505 4.21755 -2.03393
# Velocity P-wave (km/s) = 3.50183 7.58881 4.76063
#
# Compressibility (1/GPa) = 0.02207888
#
# Stress axis : x y z
#
# Youngs Moduli (GPa) = 95.43556 64.52797 79.63921
#
# Poissons Ratio (x) = -0.14062 0.61717
# Poissons Ratio (y) = -0.20797 0.21154
# Poissons Ratio (z) = 0.73958 0.17140
#
# Static dielectric constant tensor:
#      x y z
#    x 1.726100 0.000000 0.000000 
#    y 0.000000 1.788210 0.000000 
#    z 0.000000 0.000000 1.679990 
# 
# From -- ./inp_files/3532.got.cif
#   From: 2010.05.17/outbox.cif.g08.bks.cpg/sg25_2_cif.got.tgz:3532.got - 2010.06.04 01:04:00.
