data_PCOD9337667
_publ_section_title
;
Structure prediction by ZEFSAII (Michael W. Deem and Ramdas Pophale) SiO2 
 PCOD9337667
Probable space group: P M M 2
;
_chemical_formula_sum "Si O2"
_cell_formula_units_Z 28
_cell_length_a 15.503060
_cell_length_b 13.453671
_cell_length_c 7.925309
_cell_angle_alpha 90.000000
_cell_angle_beta 90.000000
_cell_angle_gamma 90.000000
_cell_volume 1653.006019
_symmetry_space_group_name_H-M "P M M 2"
_symmetry_group_IT_number 25
_symmetry_cell_setting 'orthorhombic'
loop_
_space_group_symop_operation_xyz
x,y,z
-x,-y,z
-x,y,z
x,-y,z
loop_
_atom_site_type_symbol
_atom_site_label
_atom_site_fract_x
_atom_site_fract_y
_atom_site_fract_z
Si Si1 0.399215 0.887401 0.839650
Si Si2 0.250753 0.261611 0.359573
Si Si3 0.899724 0.885374 0.267453
Si Si4 0.096576 0.791027 0.912187
Si Si5 0.801467 0.616401 0.037927
Si Si6 0.739976 0.731774 0.733514
Si Si7 0.399360 0.885651 0.247219
O O1 0.500000 0.874053 0.799104
O O2 0.339737 0.805270 0.756641
O O3 0.374530 0.000000 0.790982
O O4 0.390482 0.880214 0.043308
O O5 0.167955 0.188707 0.350765
O O6 0.255895 0.307744 0.544772
O O7 0.333840 0.192593 0.325623
O O8 0.239062 0.340193 0.209106
O O9 0.000000 0.863264 0.307613
O O10 0.882005 0.000000 0.308151
O O11 0.890415 0.868122 0.065024
O O12 0.113338 0.682877 0.999361
O O13 0.172985 0.794700 0.777132
O O14 0.000000 0.799706 0.845703
O O15 0.816471 0.500000 0.045010
O O16 0.741445 0.648324 0.879292
O O17 0.500000 0.866922 0.288052
O O18 0.379434 0.000000 0.296128
#
# Coordination Sequence:
#
# PCOD9337667 Si02
#       7
#     4   4   4   4   4   4   4
#     4   9  17  32  54  78 108 145 181 216 256 306
#     4  11  20  33  54  79 105 140 171 215 264 316
#     4   9  17  31  51  74 105 144 177 206 246 304
#     4   8  17  34  54  76 102 137 174 213 258 308
#     4   9  20  38  56  75 101 133 172 220 270 313
#     4  10  21  33  52  81 106 136 172 218 266 314
#     4   9  17  31  53  79 109 144 179 214 254 305
#
# _framework density 16.938839000000002
#
# number of rings (size 3 to 8) (size 9 to 14) (size 15 to 20)
#    0.857    1.857    1.429    1.286    0.000    4.857 
#    0.000    1.429    0.000    3.429    0.000    2.000 
#    0.000    0.000    0.000    0.000    0.000    0.000 
#
# Total GULP energy -155875.270783 kJ/mol
# GULP energy per Si atom -5566.973957 kJ/mol
# Density = 1.690029 g / cm^3
# Si number density = 16.938839 Si / 1000 Ang^3
#
#
#
# Elastic Constant Matrix: (Units=GPa)
#
#
# Indices 1 2 3 4 5 6 
#
# 1 40.5192 10.0663 15.5923 0.0000 0.0000 0.0000
# 2 10.0663 55.5817 15.1387 0.0000 0.0000 0.0000
# 3 15.5923 15.1387 79.2539 0.0000 0.0000 0.0000
# 4 0.0000 0.0000 0.0000 -1.4579 0.0000 0.0000
# 5 0.0000 0.0000 0.0000 0.0000 -1.4256 0.0000
# 6 0.0000 0.0000 0.0000 0.0000 0.0000 10.2664
#
#
#
# Elastic Compliance Matrix: (Units=1/GPa)
#
#
# Indices 1 2 3 4 5 6 
#
# 1 0.027399 -0.003686 -0.004686 0.000000 0.000000 0.000000
# 2 -0.003686 0.019475 -0.002995 0.000000 0.000000 0.000000
# 3 -0.004686 -0.002995 0.014112 0.000000 0.000000 0.000000
# 4 0.000000 0.000000 0.000000 -0.685935 0.000000 0.000000
# 5 0.000000 0.000000 0.000000 0.000000 -0.701438 0.000000
# 6 0.000000 0.000000 0.000000 0.000000 0.000000 0.097405
#
#
# Mechanical properties :
#
#
# Convention : Reuss Voigt Hill
#
# Bulk Modulus (GPa) = 26.14289 28.54994 27.34642
# Shear Modulus (GPa) = -4.18936 10.44709 3.12886
#
# Velocity S-wave (km/s) = -1.57436 2.48615 1.36057
# Velocity P-wave (km/s) = 3.48746 5.01324 4.31827
#
# Compressibility (1/GPa) = 0.03825132
#
# Stress axis : x y z
#
# Youngs Moduli (GPa) = 36.49807 51.34854 70.86309
#
# Poissons Ratio (x) = 0.18926 0.33209
# Poissons Ratio (y) = 0.13452 0.21222
# Poissons Ratio (z) = 0.17104 0.15378
#
# Static dielectric constant tensor:
#      x y z
#    x 1.569480 0.000000 0.000000 
#    y 0.000000 1.533780 0.000000 
#    z 0.000000 0.000000 1.600960 
# 
# From -- ./inp_files/3498.got.cif
#   From: 2010.05.17/outbox.cif.g08.bks.cpg/sg25_2_cif.got.tgz:3498.got - 2010.06.04 01:04:00.
