data_PCOD9337251
_publ_section_title
;
Structure prediction by ZEFSAII (Michael W. Deem and Ramdas Pophale) SiO2 
 PCOD9337251
Probable space group: P M M 2
;
_chemical_formula_sum "Si O2"
_cell_formula_units_Z 24
_cell_length_a 27.550862
_cell_length_b 7.779814
_cell_length_c 5.290106
_cell_angle_alpha 90.000000
_cell_angle_beta 90.000000
_cell_angle_gamma 90.000000
_cell_volume 1133.884398
_symmetry_space_group_name_H-M "P M M 2"
_symmetry_group_IT_number 25
_symmetry_cell_setting 'orthorhombic'
loop_
_space_group_symop_operation_xyz
x,y,z
-x,-y,z
-x,y,z
x,-y,z
loop_
_atom_site_type_symbol
_atom_site_label
_atom_site_fract_x
_atom_site_fract_y
_atom_site_fract_z
Si Si1 0.275903 0.293507 0.607550
Si Si2 0.055234 0.201323 0.526472
Si Si3 0.388490 0.793262 0.551046
Si Si4 0.778950 0.288961 0.107699
Si Si5 0.111417 0.300220 0.027278
Si Si6 0.443926 0.210665 0.051604
O O1 0.271932 0.500000 0.610048
O O2 0.332019 0.250108 0.569801
O O3 0.243820 0.230475 0.372117
O O4 0.254485 0.232548 0.874095
O O5 0.083334 0.285332 0.292460
O O6 0.000000 0.267212 0.548183
O O7 0.053173 0.000000 0.464696
O O8 0.082454 0.220072 0.793470
O O9 0.417717 0.731084 0.796097
O O10 0.392387 0.000000 0.549365
O O11 0.413593 0.730631 0.294511
O O12 0.779404 0.500000 0.113040
O O13 0.834131 0.230960 0.064815
O O14 0.116190 0.500000 0.959335
O O15 0.500000 0.263581 0.063470
O O16 0.443668 0.000000 0.051360
#
# Coordination Sequence:
#
# PCOD9337251 Si02
#       6
#     4   4   4   4   4   4
#     4  10  19  34  54  74 102 139 172 204 260 326
#     4  11  24  41  59  84 122 159 186 224 289 355
#     4  10  19  31  49  74 100 125 164 214 253 295
#     4   9  19  35  55  78 104 137 176 220 265 313
#     4  11  22  39  64  89 112 145 198 249 278 319
#     4   9  17  30  49  71  96 129 166 205 253 305
#
# _framework density 21.166179
#
# number of rings (size 3 to 8) (size 9 to 14) (size 15 to 20)
#    0.000    2.000    0.000    4.000    0.000    8.000 
#    0.000    5.000    0.000    3.000    0.000    0.000 
#    0.000    0.000    0.000    0.000    0.000    0.000 
#
# Total GULP energy -134154.429738 kJ/mol
# GULP energy per Si atom -5589.767906 kJ/mol
# Density = 2.111800 g / cm^3
# Si number density = 21.166179 Si / 1000 Ang^3
#
#
#
# Elastic Constant Matrix: (Units=GPa)
#
#
# Indices 1 2 3 4 5 6 
#
# 1 92.0912 -10.2735 -2.4726 0.0000 0.0000 0.0000
# 2 -10.2735 27.6868 -7.1904 0.0000 0.0000 0.0000
# 3 -2.4726 -7.1904 88.8908 0.0000 0.0000 0.0000
# 4 0.0000 0.0000 0.0000 12.2450 0.0000 0.0000
# 5 0.0000 0.0000 0.0000 0.0000 48.3569 0.0000
# 6 0.0000 0.0000 0.0000 0.0000 0.0000 99.4078
#
#
#
# Elastic Compliance Matrix: (Units=1/GPa)
#
#
# Indices 1 2 3 4 5 6 
#
# 1 0.011367 0.004392 0.000671 0.000000 0.000000 0.000000
# 2 0.004392 0.038590 0.003244 0.000000 0.000000 0.000000
# 3 0.000671 0.003244 0.011531 0.000000 0.000000 0.000000
# 4 0.000000 0.000000 0.000000 0.081666 0.000000 0.000000
# 5 0.000000 0.000000 0.000000 0.000000 0.020680 0.000000
# 6 0.000000 0.000000 0.000000 0.000000 0.000000 0.010060
#
#
# Mechanical properties :
#
#
# Convention : Reuss Voigt Hill
#
# Bulk Modulus (GPa) = 12.80364 18.75511 15.77938
# Shear Modulus (GPa) = 27.27574 47.24228 37.25901
#
# Velocity S-wave (km/s) = 3.59367 4.72950 4.20016
# Velocity P-wave (km/s) = 4.82509 6.22128 5.56713
#
# Compressibility (1/GPa) = 0.07810277
#
# Stress axis : x y z
#
# Youngs Moduli (GPa) = 87.97546 25.91315 86.72413
#
# Poissons Ratio (x) = -0.11381 -0.05823
# Poissons Ratio (y) = -0.38640 -0.28131
# Poissons Ratio (z) = -0.05907 -0.08406
#
# Static dielectric constant tensor:
#      x y z
#    x 1.721830 0.000000 0.000000 
#    y 0.000000 1.776940 0.000000 
#    z 0.000000 0.000000 1.717960 
# 
# From -- ./inp_files/310.got.cif
#   From: 2010.05.17/outbox.cif.g08.bks.cpg/sg25_1_cif.got.tgz:310.got - 2010.06.04 01:04:00.
