data_PCOD9337284
_publ_section_title
;
Structure prediction by ZEFSAII (Michael W. Deem and Ramdas Pophale) SiO2 
 PCOD9337284
Probable space group: P M M 2
;
_chemical_formula_sum "Si O2"
_cell_formula_units_Z 32
_cell_length_a 15.148102
_cell_length_b 8.590350
_cell_length_c 12.775233
_cell_angle_alpha 90.000000
_cell_angle_beta 90.000000
_cell_angle_gamma 90.000000
_cell_volume 1662.409107
_symmetry_space_group_name_H-M "P M M 2"
_symmetry_group_IT_number 25
_symmetry_cell_setting 'orthorhombic'
loop_
_space_group_symop_operation_xyz
x,y,z
-x,-y,z
-x,y,z
x,-y,z
loop_
_atom_site_type_symbol
_atom_site_label
_atom_site_fract_x
_atom_site_fract_y
_atom_site_fract_z
Si Si1 0.214840 0.685558 0.418460
Si Si2 0.364287 0.819426 0.129783
Si Si3 0.102404 0.690121 0.619463
Si Si4 0.838002 0.178750 0.199504
Si Si5 0.599065 0.187979 0.895621
Si Si6 0.403246 0.188606 0.360775
Si Si7 0.095274 0.686683 0.993770
Si Si8 0.223847 0.311786 0.815026
O O1 0.221289 0.500000 0.423498
O O2 0.153749 0.739449 0.514401
O O3 0.169861 0.734394 0.309259
O O4 0.314872 0.751584 0.416758
O O5 0.259593 0.816505 0.148015
O O6 0.400404 0.753728 0.239409
O O7 0.393577 0.000000 0.126628
O O8 0.387939 0.753330 0.016140
O O9 0.099970 0.500000 0.620049
O O10 0.163536 0.737496 0.717310
O O11 0.000000 0.741712 0.624802
O O12 0.898151 0.253272 0.111287
O O13 0.861710 0.000000 0.218427
O O14 0.500000 0.229117 0.861870
O O15 0.676738 0.251528 0.822905
O O16 0.606218 0.000000 0.898019
O O17 0.500000 0.229644 0.404910
O O18 0.396796 0.000000 0.357705
O O19 0.100966 0.500000 0.996110
O O20 0.000000 0.729268 0.947611
O O21 0.173262 0.744138 0.919591
O O22 0.225889 0.500000 0.814906
#
# Coordination Sequence:
#
# PCOD9337284 Si02
#       8
#     4   4   4   4   4   4   4   4
#     4  10  20  34  55  82 110 139 181 233 278 320
#     4   8  14  27  48  72 101 140 182 214 247 304
#     4   9  19  38  62  82 101 137 186 229 275 330
#     4  10  19  33  53  77 110 148 181 217 265 325
#     4  10  19  32  52  78 110 148 184 217 262 322
#     4   9  17  31  52  78 110 150 189 221 263 322
#     4  10  20  33  52  80 111 141 174 219 277 333
#     4  10  20  36  58  81 107 137 179 232 275 317
#
# _framework density 19.249172000000002
#
# number of rings (size 3 to 8) (size 9 to 14) (size 15 to 20)
#    0.000    2.500    1.250    2.250    0.000    4.250 
#    0.000    3.125    0.000    9.000    0.000    0.000 
#    0.000    0.000    0.000    0.000    0.000    0.000 
#
# Total GULP energy -178362.989379 kJ/mol
# GULP energy per Si atom -5573.843418 kJ/mol
# Density = 1.920536 g / cm^3
# Si number density = 19.249172 Si / 1000 Ang^3
#
#
#
# Elastic Constant Matrix: (Units=GPa)
#
#
# Indices 1 2 3 4 5 6 
#
# 1 158.9723 29.5932 78.9818 0.0000 0.0000 0.0000
# 2 29.5932 12.8409 19.6495 0.0000 0.0000 0.0000
# 3 78.9818 19.6495 108.9087 0.0000 0.0000 0.0000
# 4 0.0000 0.0000 0.0000 12.0632 0.0000 0.0000
# 5 0.0000 0.0000 0.0000 0.0000 17.9720 0.0000
# 6 0.0000 0.0000 0.0000 0.0000 0.0000 -1.4043
#
#
#
# Elastic Compliance Matrix: (Units=1/GPa)
#
#
# Indices 1 2 3 4 5 6 
#
# 1 0.013094 -0.021613 -0.005597 0.000000 0.000000 0.000000
# 2 -0.021613 0.143252 -0.010172 0.000000 0.000000 0.000000
# 3 -0.005597 -0.010172 0.015076 0.000000 0.000000 0.000000
# 4 0.000000 0.000000 0.000000 0.082896 0.000000 0.000000
# 5 0.000000 0.000000 0.000000 0.000000 0.055642 0.000000
# 6 0.000000 0.000000 0.000000 0.000000 0.000000 -0.712094
#
#
# Mechanical properties :
#
#
# Convention : Reuss Voigt Hill
#
# Bulk Modulus (GPa) = 10.34567 59.68566 35.01566
# Shear Modulus (GPa) = -16.94050 15.89267 -0.52391
#
# Velocity S-wave (km/s) = -2.96981 2.87649 -0.52227
# Velocity P-wave (km/s) = 2.52456 6.48895 4.22688
#
# Compressibility (1/GPa) = 0.09665884
#
# Stress axis : x y z
#
# Youngs Moduli (GPa) = 76.36886 6.98073 66.33081
#
# Poissons Ratio (x) = 0.15088 0.37123
# Poissons Ratio (y) = 1.65058 0.67469
# Poissons Ratio (z) = 0.42741 0.07101
#
# Static dielectric constant tensor:
#      x y z
#    x 1.702770 0.000000 0.000000 
#    y 0.000000 1.666770 0.000000 
#    z 0.000000 0.000000 1.670630 
# 
# From -- ./inp_files/4917.got.cif
#   From: 2010.05.17/outbox.cif.g08.bks.cpg/sg25_3_cif.got.tgz:4917.got - 2010.06.04 01:04:00.
