data_PCOD9337116
_publ_section_title
;
Structure prediction by ZEFSAII (Michael W. Deem and Ramdas Pophale) SiO2 
 PCOD9337116
Probable space group: P M M 2
;
_chemical_formula_sum "Si O2"
_cell_formula_units_Z 32
_cell_length_a 14.435518
_cell_length_b 8.040507
_cell_length_c 14.516475
_cell_angle_alpha 90.000000
_cell_angle_beta 90.000000
_cell_angle_gamma 90.000000
_cell_volume 1684.911046
_symmetry_space_group_name_H-M "P M M 2"
_symmetry_group_IT_number 25
_symmetry_cell_setting 'orthorhombic'
loop_
_space_group_symop_operation_xyz
x,y,z
-x,-y,z
-x,y,z
x,-y,z
loop_
_atom_site_type_symbol
_atom_site_label
_atom_site_fract_x
_atom_site_fract_y
_atom_site_fract_z
Si Si1 0.105921 0.192811 0.955930
Si Si2 0.896017 0.796969 0.271339
Si Si3 0.896052 0.202896 0.486993
Si Si4 0.605017 0.697024 0.980472
Si Si5 0.754032 0.194564 0.123018
Si Si6 0.108851 0.686574 0.763170
Si Si7 0.750790 0.187538 0.630683
Si Si8 0.393305 0.200026 0.777792
O O1 0.134685 0.302762 0.869991
O O2 0.000000 0.231091 0.979847
O O3 0.110002 0.000000 0.925462
O O4 0.168877 0.209951 0.043783
O O5 0.887933 0.755450 0.379181
O O6 0.808084 0.735906 0.212267
O O7 0.000000 0.744053 0.240102
O O8 0.895794 0.000000 0.263948
O O9 0.806972 0.264315 0.544489
O O10 0.000000 0.257157 0.518769
O O11 0.895692 0.000000 0.494258
O O12 0.500000 0.763603 0.989836
O O13 0.601439 0.500000 0.970425
O O14 0.642204 0.762658 0.881594
O O15 0.664126 0.734780 0.071687
O O16 0.734801 0.000000 0.140476
O O17 0.126366 0.500000 0.728426
O O18 0.167300 0.814969 0.705667
O O19 0.000000 0.721656 0.757941
O O20 0.667676 0.265109 0.691667
O O21 0.722250 0.000000 0.603975
O O22 0.500000 0.259011 0.773272
O O23 0.392683 0.000000 0.769744
#
# Coordination Sequence:
#
# PCOD9337116 Si02
#       8
#     4   4   4   4   4   4   4   4
#     4   9  17  28  41  60  88 119 148 177 213 264
#     4   8  14  26  45  70  98 124 151 185 224 266
#     4   8  14  25  43  68  95 121 151 187 223 262
#     4  10  21  35  49  66  90 121 155 190 230 277
#     4  10  18  28  47  71  91 115 150 190 228 265
#     4  10  20  30  39  57  88 121 148 178 220 267
#     4  10  18  28  46  68  88 116 154 189 223 267
#     4   9  18  32  48  67  92 120 151 190 233 272
#
# _framework density 18.992099
#
# number of rings (size 3 to 8) (size 9 to 14) (size 15 to 20)
#    0.000    2.750    0.000    3.000    0.000    7.500 
#    0.000    0.000    0.000    2.625    0.000    5.250 
#    0.000    2.000    0.000    0.000    0.000    0.000 
#
# Total GULP energy -178182.220228 kJ/mol
# GULP energy per Si atom -5568.194382 kJ/mol
# Density = 1.894887 g / cm^3
# Si number density = 18.992099 Si / 1000 Ang^3
#
#
#
# Elastic Constant Matrix: (Units=GPa)
#
#
# Indices 1 2 3 4 5 6 
#
# 1 96.7301 10.1452 49.5984 0.0000 0.0000 0.0000
# 2 10.1452 7.8483 10.3859 0.0000 0.0000 0.0000
# 3 49.5984 10.3859 78.0542 0.0000 0.0000 0.0000
# 4 0.0000 0.0000 0.0000 -10.0019 0.0000 0.0000
# 5 0.0000 0.0000 0.0000 0.0000 36.2606 0.0000
# 6 0.0000 0.0000 0.0000 0.0000 0.0000 14.3478
#
#
#
# Elastic Compliance Matrix: (Units=1/GPa)
#
#
# Indices 1 2 3 4 5 6 
#
# 1 0.015805 -0.008666 -0.008890 0.000000 0.000000 0.000000
# 2 -0.008666 0.159399 -0.015703 0.000000 0.000000 0.000000
# 3 -0.008890 -0.015703 0.020550 0.000000 0.000000 0.000000
# 4 0.000000 0.000000 0.000000 -0.099981 0.000000 0.000000
# 5 0.000000 0.000000 0.000000 0.000000 0.027578 0.000000
# 6 0.000000 0.000000 0.000000 0.000000 0.000000 0.069697
#
#
# Mechanical properties :
#
#
# Convention : Reuss Voigt Hill
#
# Bulk Modulus (GPa) = 7.73779 35.87683 21.80731
# Shear Modulus (GPa) = 16.52094 15.62150 16.07122
#
# Velocity S-wave (km/s) = 2.95258 2.87108 2.91212
# Velocity P-wave (km/s) = 3.96317 5.47012 4.77645
#
# Compressibility (1/GPa) = 0.12923583
#
# Stress axis : x y z
#
# Youngs Moduli (GPa) = 63.26947 6.27357 48.66146
#
# Poissons Ratio (x) = 0.05437 0.43261
# Poissons Ratio (y) = 0.54831 0.76412
# Poissons Ratio (z) = 0.56248 0.09851
#
# Static dielectric constant tensor:
#      x y z
#    x 1.703870 0.000000 0.000000 
#    y 0.000000 1.712270 0.000000 
#    z 0.000000 0.000000 1.674230 
# 
# From -- ./inp_files/5765.got.cif
#   From: 2010.05.17/outbox.cif.g08.bks.cpg/sg25_3_cif.got.tgz:5765.got - 2010.06.04 01:04:00.
