data_PCOD9337158
_publ_section_title
;
Structure prediction by ZEFSAII (Michael W. Deem and Ramdas Pophale) SiO2 
 PCOD9337158
Probable space group: P M M 2
;
_chemical_formula_sum "Si O2"
_cell_formula_units_Z 28
_cell_length_a 14.882870
_cell_length_b 8.020060
_cell_length_c 13.290289
_cell_angle_alpha 90.000000
_cell_angle_beta 90.000000
_cell_angle_gamma 90.000000
_cell_volume 1586.348968
_symmetry_space_group_name_H-M "P M M 2"
_symmetry_group_IT_number 25
_symmetry_cell_setting 'orthorhombic'
loop_
_space_group_symop_operation_xyz
x,y,z
-x,-y,z
-x,y,z
x,-y,z
loop_
_atom_site_type_symbol
_atom_site_label
_atom_site_fract_x
_atom_site_fract_y
_atom_site_fract_z
Si Si1 0.897716 0.698870 0.310970
Si Si2 0.600755 0.698986 0.812995
Si Si3 0.215536 0.201169 0.725677
Si Si4 0.599631 0.801272 0.042491
Si Si5 0.897105 0.200982 0.535504
Si Si6 0.213115 0.200667 0.117699
Si Si7 0.103668 0.796049 0.921526
O O1 0.901229 0.500000 0.308069
O O2 0.869005 0.751545 0.422867
O O3 0.833003 0.757265 0.222595
O O4 0.000000 0.764053 0.295183
O O5 0.500000 0.751659 0.781514
O O6 0.600919 0.500000 0.823635
O O7 0.681338 0.749044 0.740304
O O8 0.617612 0.774146 0.923858
O O9 0.167958 0.261815 0.623868
O O10 0.159251 0.258436 0.823517
O O11 0.211693 0.000000 0.725523
O O12 0.500000 0.731364 0.064394
O O13 0.685229 0.734907 0.103168
O O14 0.595471 0.000000 0.059398
O O15 0.000000 0.260786 0.550545
O O16 0.899208 0.000000 0.541078
O O17 0.216678 0.000000 0.109488
O O18 0.152516 0.259909 0.023717
O O19 0.000000 0.742925 0.917734
O O20 0.103882 0.000000 0.921366
#
# Coordination Sequence:
#
# PCOD9337158 Si02
#       7
#     4   4   4   4   4   4   4
#     4  10  21  35  50  70  99 134 170 207 245 288
#     4  10  20  32  47  70 101 135 167 200 242 294
#     4  10  18  31  51  75 100 128 164 205 246 289
#     4   9  17  31  51  74  99 127 163 206 248 292
#     4   9  18  33  54  77  99 127 166 208 246 290
#     4  10  18  30  50  74  99 130 165 202 247 295
#     4   9  16  26  43  71 103 129 154 191 242 295
#
# _framework density 17.650594000000002
#
# number of rings (size 3 to 8) (size 9 to 14) (size 15 to 20)
#    0.000    2.429    1.429    1.714    0.000    5.143 
#    0.000    0.000    0.000    2.143    0.000    2.000 
#    0.000    0.000    0.000    0.000    0.000    0.000 
#
# Total GULP energy -156175.533762 kJ/mol
# GULP energy per Si atom -5577.697634 kJ/mol
# Density = 1.761042 g / cm^3
# Si number density = 17.650594 Si / 1000 Ang^3
#
#
#
# Elastic Constant Matrix: (Units=GPa)
#
#
# Indices 1 2 3 4 5 6 
#
# 1 157.5575 8.3515 103.5648 0.0000 0.0000 0.0000
# 2 8.3515 9.4485 2.2043 0.0000 0.0000 0.0000
# 3 103.5648 2.2043 136.8960 0.0000 0.0000 0.0000
# 4 0.0000 0.0000 0.0000 -39.6452 0.0000 0.0000
# 5 0.0000 0.0000 0.0000 0.0000 25.0366 0.0000
# 6 0.0000 0.0000 0.0000 0.0000 0.0000 10.3535
#
#
#
# Elastic Compliance Matrix: (Units=1/GPa)
#
#
# Indices 1 2 3 4 5 6 
#
# 1 0.013430 -0.009536 -0.010006 0.000000 0.000000 0.000000
# 2 -0.009536 0.113007 0.005394 0.000000 0.000000 0.000000
# 3 -0.010006 0.005394 0.014788 0.000000 0.000000 0.000000
# 4 0.000000 0.000000 0.000000 -0.025224 0.000000 0.000000
# 5 0.000000 0.000000 0.000000 0.000000 0.039942 0.000000
# 6 0.000000 0.000000 0.000000 0.000000 0.000000 0.096585
#
#
# Mechanical properties :
#
#
# Convention : Reuss Voigt Hill
#
# Bulk Modulus (GPa) = 8.85512 59.12704 33.99108
# Shear Modulus (GPa) = 15.70027 11.80108 13.75068
#
# Velocity S-wave (km/s) = 2.98569 2.58852 2.79417
# Velocity P-wave (km/s) = 4.11261 6.51961 5.45064
#
# Compressibility (1/GPa) = 0.11292897
#
# Stress axis : x y z
#
# Youngs Moduli (GPa) = 74.46246 8.84902 67.62296
#
# Poissons Ratio (x) = 0.08438 0.67665
# Poissons Ratio (y) = 0.71007 -0.36479
# Poissons Ratio (z) = 0.74509 -0.04774
#
# Static dielectric constant tensor:
#      x y z
#    x 1.629280 0.000000 0.000000 
#    y 0.000000 1.628270 0.000000 
#    z 0.000000 0.000000 1.569170 
# 
# From -- ./inp_files/4809.got.cif
#   From: 2010.05.17/outbox.cif.g08.bks.cpg/sg25_3_cif.got.tgz:4809.got - 2010.06.04 01:04:00.
