data_PCOD9337954
_publ_section_title
;
Structure prediction by ZEFSAII (Michael W. Deem and Ramdas Pophale) SiO2 
 PCOD9337954
Probable space group: P M C 21
;
_chemical_formula_sum "Si O2"
_cell_formula_units_Z 24
_cell_length_a 15.417185
_cell_length_b 15.866678
_cell_length_c 4.987546
_cell_angle_alpha 90.000000
_cell_angle_beta 90.000000
_cell_angle_gamma 90.000000
_cell_volume 1220.051059
_symmetry_space_group_name_H-M "P M C 21"
_symmetry_group_IT_number 26
_symmetry_cell_setting 'orthorhombic'
loop_
_space_group_symop_operation_xyz
x,y,z
-x,-y,1/2+z
-x,y,z
x,-y,1/2+z
loop_
_atom_site_type_symbol
_atom_site_label
_atom_site_fract_x
_atom_site_fract_y
_atom_site_fract_z
Si Si1 0.397537 0.555855 0.170030
Si Si2 0.901949 0.442595 0.694832
Si Si3 0.804350 0.774481 0.517292
Si Si4 0.189449 0.046656 0.318726
Si Si5 0.000000 0.908256 0.993176
Si Si6 0.000000 0.204501 0.005589
Si Si7 0.749029 0.316551 0.532781
O O1 0.500000 0.574291 0.148995
O O2 0.378178 0.520521 0.464725
O O3 0.339304 0.634492 0.090038
O O4 0.893807 0.522887 0.495884
O O5 0.826881 0.378953 0.615906
O O6 0.000000 0.408848 0.654641
O O7 0.906412 0.753981 0.470029
O O8 0.759491 0.763492 0.230512
O O9 0.798637 0.865437 0.662317
O O10 0.762437 0.710300 0.727639
O O11 0.086284 0.045673 0.391525
O O12 0.223163 0.975079 0.114648
O O13 0.000000 0.874687 0.297371
O O14 0.000000 0.823402 0.814935
#
# Coordination Sequence:
#
# PCOD9337954 Si02
#       7
#     4   4   4   4   2   2   4
#     4  10  21  39  64  90 114 144 183 228 288 354
#     4  10  21  35  51  71  99 141 189 220 254 312
#     4  11  24  34  52  79 110 149 191 233 282 340
#     4  11  20  34  51  70 102 142 191 237 279 324
#     4  10  18  31  50  68  90 135 191 242 279 315
#     4  10  20  35  46  68 106 143 187 230 275 321
#     4  12  22  36  56  80 115 144 182 234 286 337
#
# _framework density 19.671305
#
# number of rings (size 3 to 8) (size 9 to 14) (size 15 to 20)
#    0.000    1.333    0.000    8.500    2.333    0.000 
#    0.000    0.000    0.000    0.000    0.000    0.000 
#    0.000   13.333    0.000    0.000    0.000    0.000 
#
# Total GULP energy -134020.587977 kJ/mol
# GULP energy per Si atom -5584.191166 kJ/mol
# Density = 1.962653 g / cm^3
# Si number density = 19.671305 Si / 1000 Ang^3
#
#
#
# Elastic Constant Matrix: (Units=GPa)
#
#
# Indices 1 2 3 4 5 6 
#
# 1 28.8481 12.3129 2.9990 0.0000 0.0000 0.0000
# 2 12.3129 32.6733 -1.8646 0.0000 0.0000 0.0000
# 3 2.9990 -1.8646 71.7119 0.0000 0.0000 0.0000
# 4 0.0000 0.0000 0.0000 36.0950 0.0000 0.0000
# 5 0.0000 0.0000 0.0000 0.0000 15.1309 0.0000
# 6 0.0000 0.0000 0.0000 0.0000 0.0000 18.1123
#
#
#
# Elastic Compliance Matrix: (Units=1/GPa)
#
#
# Indices 1 2 3 4 5 6 
#
# 1 0.041638 -0.015814 -0.002152 0.000000 0.000000 0.000000
# 2 -0.015814 0.036658 0.001614 0.000000 0.000000 0.000000
# 3 -0.002152 0.001614 0.014077 0.000000 0.000000 0.000000
# 4 0.000000 0.000000 0.000000 0.027705 0.000000 0.000000
# 5 0.000000 0.000000 0.000000 0.000000 0.066090 0.000000
# 6 0.000000 0.000000 0.000000 0.000000 0.000000 0.055211
#
#
# Mechanical properties :
#
#
# Convention : Reuss Voigt Hill
#
# Bulk Modulus (GPa) = 16.75936 17.79199 17.27567
# Shear Modulus (GPa) = 17.00845 21.85337 19.43091
#
# Velocity S-wave (km/s) = 2.94365 3.33667 3.14631
# Velocity P-wave (km/s) = 4.48237 4.88966 4.69044
#
# Compressibility (1/GPa) = 0.05966815
#
# Stress axis : x y z
#
# Youngs Moduli (GPa) = 24.01662 27.27939 71.03949
#
# Poissons Ratio (x) = 0.43140 0.15291
# Poissons Ratio (y) = 0.37980 -0.11469
# Poissons Ratio (z) = 0.05169 -0.04404
#
# Static dielectric constant tensor:
#      x y z
#    x 1.667680 0.000000 0.000000 
#    y 0.000000 1.747170 0.000000 
#    z 0.000000 0.000000 1.701270 
# 
# From -- ./inp_files/609.got.cif
#   From: 2010.05.17/outbox.cif.g08.bks.cpg/sg26_1_cif.got.tgz:609.got - 2010.06.04 01:07:29.
