data_PCOD9337882
_publ_section_title
;
Structure prediction by ZEFSAII (Michael W. Deem and Ramdas Pophale) SiO2 
 PCOD9337882
Probable space group: P M C 21
;
_chemical_formula_sum "Si O2"
_cell_formula_units_Z 26
_cell_length_a 16.488529
_cell_length_b 14.339290
_cell_length_c 5.140495
_cell_angle_alpha 90.000000
_cell_angle_beta 90.000000
_cell_angle_gamma 90.000000
_cell_volume 1215.386762
_symmetry_space_group_name_H-M "P M C 21"
_symmetry_group_IT_number 26
_symmetry_cell_setting 'orthorhombic'
loop_
_space_group_symop_operation_xyz
x,y,z
-x,-y,1/2+z
-x,y,z
x,-y,1/2+z
loop_
_atom_site_type_symbol
_atom_site_label
_atom_site_fract_x
_atom_site_fract_y
_atom_site_fract_z
Si Si1 0.174001 0.938154 0.411120
Si Si2 0.090253 0.563733 0.522850
Si Si3 0.750643 0.643606 0.701853
Si Si4 0.500000 0.649732 0.104796
Si Si5 0.330261 0.382651 0.701129
Si Si6 0.500000 0.217943 0.103595
Si Si7 0.000000 0.064589 0.804704
Si Si8 0.674705 0.189785 0.960663
O O1 0.258291 0.883786 0.375321
O O2 0.173069 0.977720 0.703152
O O3 0.087354 0.886952 0.355369
O O4 0.098116 0.517371 0.240487
O O5 0.160000 0.636044 0.590346
O O6 0.000000 0.603423 0.547691
O O7 0.694572 0.588713 0.491528
O O8 0.717463 0.748433 0.685772
O O9 0.738591 0.604460 0.987201
O O10 0.582240 0.590522 0.093998
O O11 0.500000 0.699771 0.387013
O O12 0.500000 0.728037 0.878543
O O13 0.336326 0.269529 0.741621
O O14 0.584325 0.162799 0.054624
O O15 0.000000 0.020445 0.516089
#
# Coordination Sequence:
#
# PCOD9337882 Si02
#       8
#     4   4   4   2   4   2   2   4
#     4  10  21  34  55  72 104 141 181 222 275 334
#     4  10  21  38  59  81 113 150 177 209 268 337
#     4  10  19  33  54  81 108 134 183 222 260 310
#     4  10  14  30  46  77  99 140 170 210 269 313
#     4   9  18  29  52  77 106 130 176 224 261 311
#     4  10  18  30  52  73 105 140 178 222 269 335
#     4   8  16  34  50  68  88 130 172 204 256 330
#     4   9  21  33  53  79 106 137 184 225 276 309
#
# _framework density 21.392365999999999
#
# number of rings (size 3 to 8) (size 9 to 14) (size 15 to 20)
#    0.923    1.538    1.538    0.923    2.154    0.000 
#    1.385    0.769    1.692    0.000    0.000   18.308 
#    0.000    0.000    0.000    0.000    0.000    0.000 
#
# Total GULP energy -144759.743518 kJ/mol
# GULP energy per Si atom -5567.682443 kJ/mol
# Density = 2.134368 g / cm^3
# Si number density = 21.392366 Si / 1000 Ang^3
#
#
#
# Elastic Constant Matrix: (Units=GPa)
#
#
# Indices 1 2 3 4 5 6 
#
# 1 194.1370 23.7989 0.1905 0.0000 0.0000 0.0000
# 2 23.7989 14.3597 -9.2667 0.0000 0.0000 0.0000
# 3 0.1905 -9.2667 94.9381 0.0000 0.0000 0.0000
# 4 0.0000 0.0000 0.0000 6.0315 0.0000 0.0000
# 5 0.0000 0.0000 0.0000 0.0000 27.9121 0.0000
# 6 0.0000 0.0000 0.0000 0.0000 0.0000 22.5415
#
#
#
# Elastic Compliance Matrix: (Units=1/GPa)
#
#
# Indices 1 2 3 4 5 6 
#
# 1 0.006580 -0.011647 -0.001150 0.000000 0.000000 0.000000
# 2 -0.011647 0.094938 0.009290 0.000000 0.000000 0.000000
# 3 -0.001150 0.009290 0.011442 0.000000 0.000000 0.000000
# 4 0.000000 0.000000 0.000000 0.165797 0.000000 0.000000
# 5 0.000000 0.000000 0.000000 0.000000 0.035827 0.000000
# 6 0.000000 0.000000 0.000000 0.000000 0.000000 0.044363
#
#
# Mechanical properties :
#
#
# Convention : Reuss Voigt Hill
#
# Bulk Modulus (GPa) = 9.43881 36.98671 23.21276
# Shear Modulus (GPa) = 12.46022 30.54449 21.50235
#
# Velocity S-wave (km/s) = 2.41604 3.78275 3.17384
# Velocity P-wave (km/s) = 3.49354 6.03375 4.93006
#
# Compressibility (1/GPa) = 0.10594554
#
# Stress axis : x y z
#
# Youngs Moduli (GPa) = 151.97649 10.53317 87.39532
#
# Poissons Ratio (x) = 0.12268 0.10051
# Poissons Ratio (y) = 1.77013 -0.81191
# Poissons Ratio (z) = 0.17479 -0.09785
#
# Static dielectric constant tensor:
#      x y z
#    x 1.877830 0.000000 0.000000 
#    y 0.000000 1.804220 0.000000 
#    z 0.000000 0.000000 1.767720 
# 
# From -- ./inp_files/632.got.cif
#   From: 2010.05.17/outbox.cif.g08.bks.cpg/sg26_1_cif.got.tgz:632.got - 2010.06.04 01:07:29.
