data_PCOD9337185
_publ_section_title
;
Structure prediction by ZEFSAII (Michael W. Deem and Ramdas Pophale) SiO2 
 PCOD9337185
Probable space group: P M M 2
;
_chemical_formula_sum "Si O2"
_cell_formula_units_Z 29
_cell_length_a 7.335880
_cell_length_b 22.522225
_cell_length_c 8.232542
_cell_angle_alpha 90.000000
_cell_angle_beta 90.000000
_cell_angle_gamma 90.000000
_cell_volume 1360.183388
_symmetry_space_group_name_H-M "P M M 2"
_symmetry_group_IT_number 25
_symmetry_cell_setting 'orthorhombic'
loop_
_space_group_symop_operation_xyz
x,y,z
-x,-y,z
-x,y,z
x,-y,z
loop_
_atom_site_type_symbol
_atom_site_label
_atom_site_fract_x
_atom_site_fract_y
_atom_site_fract_z
Si Si1 0.221148 0.315009 0.044470
Si Si2 0.777856 0.388703 0.368008
Si Si3 0.790085 0.935756 0.064160
Si Si4 0.500000 0.500000 0.373178
Si Si5 0.784431 0.807338 0.542769
Si Si6 0.221203 0.312497 0.688988
Si Si7 0.223419 0.190828 0.177805
Si Si8 0.717047 0.064098 0.685240
O O1 0.271247 0.353081 0.202496
O O2 0.278265 0.246628 0.069795
O O3 0.000000 0.315461 0.044728
O O4 0.282438 0.335482 0.865622
O O5 0.660361 0.448028 0.372678
O O6 0.732258 0.350253 0.529416
O O7 0.000000 0.397684 0.367535
O O8 0.710553 0.874177 0.126367
O O9 0.000000 0.936946 0.119646
O O10 0.708537 0.000000 0.109577
O O11 0.789108 0.932490 0.868799
O O12 0.716492 0.755609 0.661054
O O13 0.716189 0.797656 0.361263
O O14 0.760888 0.875366 0.594037
O O15 0.000000 0.797698 0.534618
O O16 0.000000 0.312896 0.695346
O O17 0.000000 0.189401 0.172164
O O18 0.500000 0.062182 0.696786
O O19 0.778127 0.000000 0.614712
#
# Coordination Sequence:
#
# PCOD9337185 Si02
#       8
#     4   4   4   1   4   4   4   4
#     4   9  16  31  59  88 117 157 198 242 293 347
#     4  10  21  42  66  94 129 165 205 245 292 356
#     4   9  17  30  49  72 100 139 189 244 299 355
#     4  12  26  44  70  98 132 170 200 244 298 342
#     4  10  18  31  54  83 110 140 189 247 296 351
#     4   9  17  33  61  91 119 156 199 243 298 355
#     4   9  16  28  51  83 112 139 184 244 296 347
#     4  10  21  35  47  65 101 148 195 242 296 358
#
# _framework density 21.320653
#
# number of rings (size 3 to 8) (size 9 to 14) (size 15 to 20)
#    0.000    2.483    1.379    1.448    0.000    3.586 
#    1.241    4.138    4.552    4.966    0.000    0.000 
#    0.000    0.000    0.000    0.000    0.000    0.000 
#
# Total GULP energy -161506.582610 kJ/mol
# GULP energy per Si atom -5569.192504 kJ/mol
# Density = 2.127213 g / cm^3
# Si number density = 21.320653 Si / 1000 Ang^3
#
#
#
# Elastic Constant Matrix: (Units=GPa)
#
#
# Indices 1 2 3 4 5 6 
#
# 1 88.8864 23.3082 15.4134 0.0000 0.0000 0.0000
# 2 23.3082 169.2486 82.5188 0.0000 0.0000 0.0000
# 3 15.4134 82.5188 144.3912 0.0000 0.0000 0.0000
# 4 0.0000 0.0000 0.0000 -3.8877 0.0000 0.0000
# 5 0.0000 0.0000 0.0000 0.0000-1746.0933 0.0000
# 6 0.0000 0.0000 0.0000 0.0000 0.0000 62.6733
#
#
#
# Elastic Compliance Matrix: (Units=1/GPa)
#
#
# Indices 1 2 3 4 5 6 
#
# 1 0.011693 -0.001389 -0.000455 0.000000 0.000000 0.000000
# 2 -0.001389 0.008356 -0.004627 0.000000 0.000000 0.000000
# 3 -0.000455 -0.004627 0.009618 0.000000 0.000000 0.000000
# 4 0.000000 0.000000 0.000000 -0.257222 0.000000 0.000000
# 5 0.000000 0.000000 0.000000 0.000000 -0.000573 0.000000
# 6 0.000000 0.000000 0.000000 0.000000 0.000000 0.015956
#
#
# Mechanical properties :
#
#
# Convention : Reuss Voigt Hill
#
# Bulk Modulus (GPa) = 59.78412 71.66745 65.72579
# Shear Modulus (GPa) = -25.81908 -318.70914 -172.26411
#
# Velocity S-wave (km/s) = -3.48370 -12.23962 -8.99846
# Velocity P-wave (km/s) = 3.45250 12.88632 8.77888
#
# Compressibility (1/GPa) = 0.01672685
#
# Stress axis : x y z
#
# Youngs Moduli (GPa) = 85.51907 119.67981 103.96703
#
# Poissons Ratio (x) = 0.16620 0.04726
# Poissons Ratio (y) = 0.11876 0.48105
# Poissons Ratio (z) = 0.03888 0.55375
#
# Static dielectric constant tensor:
#      x y z
#    x 1.815460 0.000000 0.000000 
#    y 0.000000 1.733370 0.000000 
#    z 0.000000 0.000000 1.767200 
# 
# From -- ./inp_files/2355.got.cif
#   From: 2010.05.17/outbox.cif.g08.bks.cpg/sg25_2_cif.got.tgz:2355.got - 2010.06.04 01:04:00.
