data_PCOD9337975
_publ_section_title
;
Structure prediction by ZEFSAII (Michael W. Deem and Ramdas Pophale) SiO2 
 PCOD9337975
Probable space group: P M C 21
;
_chemical_formula_sum "Si O2"
_cell_formula_units_Z 32
_cell_length_a 7.890505
_cell_length_b 11.830318
_cell_length_c 16.694316
_cell_angle_alpha 90.000000
_cell_angle_beta 90.000000
_cell_angle_gamma 90.000000
_cell_volume 1558.367376
_symmetry_space_group_name_H-M "P M C 21"
_symmetry_group_IT_number 26
_symmetry_cell_setting 'orthorhombic'
loop_
_space_group_symop_operation_xyz
x,y,z
-x,-y,1/2+z
-x,y,z
x,-y,1/2+z
loop_
_atom_site_type_symbol
_atom_site_label
_atom_site_fract_x
_atom_site_fract_y
_atom_site_fract_z
Si Si1 0.201262 0.617193 0.352570
Si Si2 0.703958 0.777252 0.789837
Si Si3 0.701109 0.063083 0.431895
Si Si4 0.205359 0.569006 0.172658
Si Si5 0.295315 0.684705 0.621807
Si Si6 0.704851 0.810793 0.460482
Si Si7 0.189160 0.248540 0.555004
Si Si8 0.306823 0.399697 0.423132
O O1 0.260686 0.582630 0.264361
O O2 0.243788 0.741742 0.381673
O O3 0.288516 0.531899 0.414252
O O4 0.000000 0.599298 0.356050
O O5 0.500000 0.792737 0.783924
O O6 0.767318 0.755421 0.699999
O O7 0.732213 0.661460 0.839232
O O8 0.768668 0.874623 0.851000
O O9 0.500000 0.052411 0.419303
O O10 0.726606 0.145441 0.507946
O O11 0.768601 0.939091 0.452060
O O12 0.253330 0.447964 0.134830
O O13 0.270993 0.681274 0.127128
O O14 0.000000 0.574585 0.169973
O O15 0.500000 0.690750 0.621666
O O16 0.234089 0.743097 0.539651
O O17 0.500000 0.813699 0.465406
O O18 0.185522 0.346647 0.488006
O O19 0.000000 0.212392 0.577696
O O20 0.500000 0.368803 0.444649
#
# Coordination Sequence:
#
# PCOD9337975 Si02
#       8
#     4   4   4   4   4   4   4   4
#     4  11  22  36  54  77 112 150 184 224 276 334
#     4   8  15  30  54  78 104 139 176 221 269 318
#     4   9  19  38  57  79 111 144 187 232 272 325
#     4  10  22  37  53  80 115 145 179 225 276 337
#     4  10  19  34  57  83 109 142 185 230 279 334
#     4  10  22  38  56  82 114 147 188 235 280 330
#     4  10  20  35  56  81 109 143 181 223 275 329
#     4  10  18  32  55  82 110 140 178 222 275 329
#
# _framework density 20.534310999999999
#
# number of rings (size 3 to 8) (size 9 to 14) (size 15 to 20)
#    0.000    2.250    1.250    2.625    0.000    4.500 
#    2.250    0.000    0.000    0.000    0.000    0.000 
#    0.000    0.000    0.000    0.000    0.000    0.000 
#
# Total GULP energy -178400.153109 kJ/mol
# GULP energy per Si atom -5575.004785 kJ/mol
# Density = 2.048757 g / cm^3
# Si number density = 20.534311 Si / 1000 Ang^3
#
#
#
# Elastic Constant Matrix: (Units=GPa)
#
#
# Indices 1 2 3 4 5 6 
#
# 1 20.1955 -1.5106 3.0219 0.0000 0.0000 0.0000
# 2 -1.5106 142.8901 47.5273 0.0000 0.0000 0.0000
# 3 3.0219 47.5273 75.0081 0.0000 0.0000 0.0000
# 4 0.0000 0.0000 0.0000 26.5612 0.0000 0.0000
# 5 0.0000 0.0000 0.0000 0.0000 12.7259 0.0000
# 6 0.0000 0.0000 0.0000 0.0000 0.0000 -7.8937
#
#
#
# Elastic Compliance Matrix: (Units=1/GPa)
#
#
# Indices 1 2 3 4 5 6 
#
# 1 0.050076 0.001521 -0.002981 0.000000 0.000000 0.000000
# 2 0.001521 0.008913 -0.005709 0.000000 0.000000 0.000000
# 3 -0.002981 -0.005709 0.017069 0.000000 0.000000 0.000000
# 4 0.000000 0.000000 0.000000 0.037649 0.000000 0.000000
# 5 0.000000 0.000000 0.000000 0.000000 0.078580 0.000000
# 6 0.000000 0.000000 0.000000 0.000000 0.000000 -0.126683
#
#
# Mechanical properties :
#
#
# Convention : Reuss Voigt Hill
#
# Bulk Modulus (GPa) = 16.20220 37.35232 26.77726
# Shear Modulus (GPa) = 49.74336 18.88236 34.31286
#
# Velocity S-wave (km/s) = 4.92718 3.03570 4.09222
# Velocity P-wave (km/s) = 6.34641 5.52422 5.94953
#
# Compressibility (1/GPa) = 0.06172003
#
# Stress axis : x y z
#
# Youngs Moduli (GPa) = 19.96975 112.19092 58.58427
#
# Poissons Ratio (x) = -0.17064 0.17465
# Poissons Ratio (y) = -0.03037 0.33446
# Poissons Ratio (z) = 0.05953 0.64050
#
# Static dielectric constant tensor:
#      x y z
#    x 1.771940 0.000000 0.000000 
#    y 0.000000 1.717480 0.000000 
#    z 0.000000 0.000000 1.780540 
# 
# From -- ./inp_files/5087.got.cif
#   From: 2010.05.17/outbox.cif.g08.bks.cpg/sg26_3_cif.got.tgz:5087.got - 2010.06.04 01:07:29.
