data_PCOD9337304
_publ_section_title
;
Structure prediction by ZEFSAII (Michael W. Deem and Ramdas Pophale) SiO2 
 PCOD9337304
Probable space group: P M M 2
;
_chemical_formula_sum "Si O2"
_cell_formula_units_Z 29
_cell_length_a 7.353795
_cell_length_b 22.598787
_cell_length_c 8.079448
_cell_angle_alpha 90.000000
_cell_angle_beta 90.000000
_cell_angle_gamma 90.000000
_cell_volume 1342.697987
_symmetry_space_group_name_H-M "P M M 2"
_symmetry_group_IT_number 25
_symmetry_cell_setting 'orthorhombic'
loop_
_space_group_symop_operation_xyz
x,y,z
-x,-y,z
-x,y,z
x,-y,z
loop_
_atom_site_type_symbol
_atom_site_label
_atom_site_fract_x
_atom_site_fract_y
_atom_site_fract_z
Si Si1 0.221638 0.314357 0.043570
Si Si2 0.777870 0.389362 0.367981
Si Si3 0.788548 0.936032 0.082988
Si Si4 0.500000 0.500000 0.383294
Si Si5 0.713367 0.814079 0.533678
Si Si6 0.217263 0.309126 0.681093
Si Si7 0.206102 0.190410 0.165996
Si Si8 0.720009 0.064497 0.692533
O O1 0.269251 0.356802 0.195034
O O2 0.287725 0.247584 0.079000
O O3 0.000000 0.312202 0.045344
O O4 0.281151 0.332285 0.859599
O O5 0.660366 0.448245 0.381903
O O6 0.725670 0.346483 0.521436
O O7 0.000000 0.398287 0.372097
O O8 0.708020 0.874408 0.146164
O O9 0.000000 0.937158 0.134652
O O10 0.709258 0.000000 0.133059
O O11 0.778514 0.933189 0.883841
O O12 0.500000 0.821018 0.501439
O O13 0.736289 0.759935 0.659243
O O14 0.800677 0.796254 0.360394
O O15 0.784276 0.876924 0.599258
O O16 0.000000 0.312558 0.682478
O O17 0.000000 0.184814 0.099611
O O18 0.500000 0.065958 0.692016
O O19 0.776556 0.000000 0.624693
#
# Coordination Sequence:
#
# PCOD9337304 Si02
#       8
#     4   4   4   1   4   4   4   4
#     4   9  18  36  62  89 118 158 205 247 294 362
#     4  10  22  43  67  97 131 168 211 249 298 368
#     4   9  18  32  51  76 105 141 193 253 306 364
#     4  12  26  44  74  98 136 174 200 252 306 346
#     4  11  22  33  51  81 115 149 200 259 305 364
#     4  10  20  38  65  90 121 163 200 250 312 359
#     4  10  19  33  53  78 112 150 193 246 303 362
#     4   9  19  35  50  68 103 151 198 246 306 371
#
# _framework density 21.598305
#
# number of rings (size 3 to 8) (size 9 to 14) (size 15 to 20)
#    0.000    2.207    1.379    1.448    0.966    3.310 
#    1.241    1.379    0.000    3.310    0.000    0.000 
#    0.000    0.000    0.000    0.000    0.000    0.000 
#
# Total GULP energy -161617.143498 kJ/mol
# GULP energy per Si atom -5573.004948 kJ/mol
# Density = 2.154915 g / cm^3
# Si number density = 21.598305 Si / 1000 Ang^3
#
#
#
# Elastic Constant Matrix: (Units=GPa)
#
#
# Indices 1 2 3 4 5 6 
#
# 1 98.0939 28.4968 8.9631 0.0000 0.0000 0.0000
# 2 28.4968 163.0680 54.9797 0.0000 0.0000 0.0000
# 3 8.9631 54.9797 110.8822 0.0000 0.0000 0.0000
# 4 0.0000 0.0000 0.0000 -4.3156 0.0000 0.0000
# 5 0.0000 0.0000 0.0000 0.0000 16.6937 0.0000
# 6 0.0000 0.0000 0.0000 0.0000 0.0000 1.8472
#
#
#
# Elastic Compliance Matrix: (Units=1/GPa)
#
#
# Indices 1 2 3 4 5 6 
#
# 1 0.010740 -0.001902 0.000075 0.000000 0.000000 0.000000
# 2 -0.001902 0.007700 -0.003664 0.000000 0.000000 0.000000
# 3 0.000075 -0.003664 0.010829 0.000000 0.000000 0.000000
# 4 0.000000 0.000000 0.000000 -0.231715 0.000000 0.000000
# 5 0.000000 0.000000 0.000000 0.000000 0.059903 0.000000
# 6 0.000000 0.000000 0.000000 0.000000 0.000000 0.541348
#
#
# Mechanical properties :
#
#
# Convention : Reuss Voigt Hill
#
# Bulk Modulus (GPa) = 54.68433 61.88037 58.28235
# Shear Modulus (GPa) = 12.02257 21.48535 16.75396
#
# Velocity S-wave (km/s) = 2.36189 3.15742 2.78817
# Velocity P-wave (km/s) = 5.72816 6.48114 6.11625
#
# Compressibility (1/GPa) = 0.01828677
#
# Stress axis : x y z
#
# Youngs Moduli (GPa) = 93.10950 129.86540 92.34089
#
# Poissons Ratio (x) = 0.24702 -0.00693
# Poissons Ratio (y) = 0.17711 0.33837
# Poissons Ratio (z) = -0.00698 0.47587
#
# Static dielectric constant tensor:
#      x y z
#    x 1.846280 0.000000 0.000000 
#    y 0.000000 1.771040 0.000000 
#    z 0.000000 0.000000 1.775590 
# 
# From -- ./inp_files/2354.got.cif
#   From: 2010.05.17/outbox.cif.g08.bks.cpg/sg25_2_cif.got.tgz:2354.got - 2010.06.04 01:04:00.
