data_PCOD9337488
_publ_section_title
;
Structure prediction by ZEFSAII (Michael W. Deem and Ramdas Pophale) SiO2 
 PCOD9337488
Probable space group: P M M 2
;
_chemical_formula_sum "Si O2"
_cell_formula_units_Z 32
_cell_length_a 9.505965
_cell_length_b 7.408133
_cell_length_c 21.359040
_cell_angle_alpha 90.000000
_cell_angle_beta 90.000000
_cell_angle_gamma 90.000000
_cell_volume 1504.134632
_symmetry_space_group_name_H-M "P M M 2"
_symmetry_group_IT_number 25
_symmetry_cell_setting 'orthorhombic'
loop_
_space_group_symop_operation_xyz
x,y,z
-x,-y,z
-x,y,z
x,-y,z
loop_
_atom_site_type_symbol
_atom_site_label
_atom_site_fract_x
_atom_site_fract_y
_atom_site_fract_z
Si Si1 0.163158 0.280278 0.547860
Si Si2 0.161254 0.717231 0.686923
Si Si3 0.660294 0.716143 0.049243
Si Si4 0.341262 0.213584 0.809065
Si Si5 0.663207 0.719926 0.289521
Si Si6 0.159654 0.784170 0.925023
Si Si7 0.837871 0.720802 0.169095
Si Si8 0.662951 0.280179 0.428785
O O1 0.170522 0.500000 0.547481
O O2 0.208205 0.221870 0.617563
O O3 0.250332 0.215729 0.488405
O O4 0.000000 0.231437 0.541039
O O5 0.155851 0.500000 0.685048
O O6 0.264369 0.766256 0.742763
O O7 0.000000 0.779790 0.698039
O O8 0.500000 0.784968 0.045714
O O9 0.651162 0.500000 0.055665
O O10 0.748678 0.751992 0.986797
O O11 0.746190 0.781543 0.109727
O O12 0.500000 0.287486 0.809073
O O13 0.242915 0.287595 0.864478
O O14 0.353029 0.000000 0.820791
O O15 0.500000 0.773958 0.280137
O O16 0.663372 0.500000 0.289112
O O17 0.762618 0.778686 0.233220
O O18 0.709841 0.776606 0.359218
O O19 0.000000 0.714068 0.930321
O O20 0.148526 0.000000 0.917780
O O21 0.837972 0.500000 0.168798
O O22 0.000000 0.777806 0.164889
O O23 0.500000 0.229852 0.435242
O O24 0.669003 0.500000 0.429075
#
# Coordination Sequence:
#
# PCOD9337488 Si02
#       8
#     4   4   4   4   4   4   4   4
#     4   8  14  24  37  55  82 114 147 185 227 269
#     4   9  18  32  49  70  96 126 159 194 234 280
#     4  10  20  33  50  72  98 128 159 192 233 279
#     4  10  21  36  53  73  96 122 154 192 233 278
#     4   8  13  21  32  48  75 112 151 188 226 270
#     4  10  21  37  56  75  95 122 155 191 233 279
#     4   9  16  25  38  58  85 117 153 192 232 273
#     4   8  13  20  31  49  75 110 150 187 224 269
#
# _framework density 21.274691000000001
#
# number of rings (size 3 to 8) (size 9 to 14) (size 15 to 20)
#    0.000    3.000    0.000    3.000    0.000    5.500 
#    0.000    3.750    0.000    0.000    0.000    0.000 
#    0.000    1.000    0.000    7.000    0.000   13.000 
#
# Total GULP energy -178631.679980 kJ/mol
# GULP energy per Si atom -5582.239999 kJ/mol
# Density = 2.122627 g / cm^3
# Si number density = 21.274691 Si / 1000 Ang^3
#
#
#
# Elastic Constant Matrix: (Units=GPa)
#
#
# Indices 1 2 3 4 5 6 
#
# 1 186.4114 7.1131 151.0092 0.0000 0.0000 0.0000
# 2 7.1131 69.9223 0.4836 0.0000 0.0000 0.0000
# 3 151.0092 0.4836 241.5870 0.0000 0.0000 0.0000
# 4 0.0000 0.0000 0.0000 38.7924 0.0000 0.0000
# 5 0.0000 0.0000 0.0000 0.0000 40.3499 0.0000
# 6 0.0000 0.0000 0.0000 0.0000 0.0000 2.8483
#
#
#
# Elastic Compliance Matrix: (Units=1/GPa)
#
#
# Indices 1 2 3 4 5 6 
#
# 1 0.010946 -0.001066 -0.006840 0.000000 0.000000 0.000000
# 2 -0.001066 0.014406 0.000638 0.000000 0.000000 0.000000
# 3 -0.006840 0.000638 0.008413 0.000000 0.000000 0.000000
# 4 0.000000 0.000000 0.000000 0.025778 0.000000 0.000000
# 5 0.000000 0.000000 0.000000 0.000000 0.024783 0.000000
# 6 0.000000 0.000000 0.000000 0.000000 0.000000 0.351091
#
#
# Mechanical properties :
#
#
# Convention : Reuss Voigt Hill
#
# Bulk Modulus (GPa) = 52.00718 90.57028 71.28873
# Shear Modulus (GPa) = 10.95616 39.01909 24.98763
#
# Velocity S-wave (km/s) = 2.27179 4.28724 3.43085
# Velocity P-wave (km/s) = 5.60179 8.19582 7.01967
#
# Compressibility (1/GPa) = 0.01922811
#
# Stress axis : x y z
#
# Youngs Moduli (GPa) = 91.35646 69.41728 118.85667
#
# Poissons Ratio (x) = 0.07401 0.81298
# Poissons Ratio (y) = 0.09741 -0.07579
# Poissons Ratio (z) = 0.62488 -0.04426
#
# Static dielectric constant tensor:
#      x y z
#    x 1.727720 0.000000 0.000000 
#    y 0.000000 1.834350 0.000000 
#    z 0.000000 0.000000 1.738840 
# 
# From -- ./inp_files/6283.got.cif
#   From: 2010.05.17/outbox.cif.g08.bks.cpg/sg25_4_cif.got.tgz:6283.got - 2010.06.04 01:04:00.
