data_PCOD9337855
_publ_section_title
;
Structure prediction by ZEFSAII (Michael W. Deem and Ramdas Pophale) SiO2 
 PCOD9337855
Probable space group: P M M 2
;
_chemical_formula_sum "Si O2"
_cell_formula_units_Z 32
_cell_length_a 7.393017
_cell_length_b 25.599342
_cell_length_c 7.431810
_cell_angle_alpha 90.000000
_cell_angle_beta 90.000000
_cell_angle_gamma 90.000000
_cell_volume 1406.517388
_symmetry_space_group_name_H-M "P M M 2"
_symmetry_group_IT_number 25
_symmetry_cell_setting 'orthorhombic'
loop_
_space_group_symop_operation_xyz
x,y,z
-x,-y,z
-x,y,z
x,-y,z
loop_
_atom_site_type_symbol
_atom_site_label
_atom_site_fract_x
_atom_site_fract_y
_atom_site_fract_z
Si Si1 0.720371 0.629576 0.816240
Si Si2 0.221974 0.059170 0.221552
Si Si3 0.284177 0.741679 0.882698
Si Si4 0.785251 0.145008 0.939766
Si Si5 0.717607 0.760948 0.465326
Si Si6 0.279045 0.441213 0.127245
Si Si7 0.720983 0.647763 0.404173
Si Si8 0.789675 0.126217 0.538863
O O1 0.500000 0.629642 0.813863
O O2 0.778985 0.682856 0.918565
O O3 0.775396 0.633411 0.608540
O O4 0.775952 0.579709 0.930803
O O5 0.284243 0.080283 0.415514
O O6 0.000000 0.059911 0.221879
O O7 0.277175 0.000000 0.184575
O O8 0.284439 0.101622 0.075887
O O9 0.500000 0.739118 0.887610
O O10 0.238911 0.794006 0.990012
O O11 0.228993 0.752024 0.674990
O O12 0.710652 0.135860 0.737267
O O13 0.000000 0.137964 0.932183
O O14 0.500000 0.762354 0.455508
O O15 0.777329 0.707905 0.366273
O O16 0.781057 0.819393 0.427298
O O17 0.500000 0.441698 0.132204
O O18 0.218653 0.500000 0.164505
O O19 0.220209 0.397297 0.269249
O O20 0.500000 0.648643 0.399814
O O21 0.000000 0.114349 0.566721
#
# Coordination Sequence:
#
# PCOD9337855 Si02
#       8
#     4   4   4   4   4   4   4   4
#     4   8  14  24  36  51  74 103 132 162 198 242
#     4   9  18  31  45  63  87 113 142 173 204 244
#     4   8  14  26  44  64  86 112 139 167 206 256
#     4   9  17  29  46  67  88 109 136 173 211 244
#     4   8  14  26  44  64  86 112 139 167 206 256
#     4   9  16  23  32  50  75 103 136 169 200 236
#     4   8  14  24  36  51  74 103 132 162 198 242
#     4   9  17  29  46  67  88 109 136 173 211 244
#
# _framework density 22.751228999999999
#
# number of rings (size 3 to 8) (size 9 to 14) (size 15 to 20)
#    0.000    3.500    0.000    1.500    0.000    2.000 
#    0.000    6.875    0.000    1.500    0.000    3.500 
#    0.000    2.000    0.000    9.750    0.000   10.000 
#
# Total GULP energy -178452.290495 kJ/mol
# GULP energy per Si atom -5576.634078 kJ/mol
# Density = 2.269945 g / cm^3
# Si number density = 22.751229 Si / 1000 Ang^3
#
#
#
# Elastic Constant Matrix: (Units=GPa)
#
#
# Indices 1 2 3 4 5 6 
#
# 1 70.9565 -2.9505 -3.1816 0.0000 0.0000 0.0000
# 2 -2.9505 127.2084 27.0844 0.0000 0.0000 0.0000
# 3 -3.1816 27.0844 51.0885 0.0000 0.0000 0.0000
# 4 0.0000 0.0000 0.0000 36.0005 0.0000 0.0000
# 5 0.0000 0.0000 0.0000 0.0000 -6.0219 0.0000
# 6 0.0000 0.0000 0.0000 0.0000 0.0000 13.7044
#
#
#
# Elastic Compliance Matrix: (Units=1/GPa)
#
#
# Indices 1 2 3 4 5 6 
#
# 1 0.014135 0.000158 0.000796 0.000000 0.000000 0.000000
# 2 0.000158 0.008863 -0.004689 0.000000 0.000000 0.000000
# 3 0.000796 -0.004689 0.022109 0.000000 0.000000 0.000000
# 4 0.000000 0.000000 0.000000 0.027777 0.000000 0.000000
# 5 0.000000 0.000000 0.000000 0.000000 -0.166061 0.000000
# 6 0.000000 0.000000 0.000000 0.000000 0.000000 0.072969
#
#
# Mechanical properties :
#
#
# Convention : Reuss Voigt Hill
#
# Bulk Modulus (GPa) = 26.56789 32.35087 29.45938
# Shear Modulus (GPa) = -26166.04141 23.95667 -13071.04237
#
# Velocity S-wave (km/s) = -107.35876 3.24849 -75.87935
# Velocity P-wave (km/s) = 123.92001 5.32170 87.54384
#
# Compressibility (1/GPa) = 0.03763942
#
# Stress axis : x y z
#
# Youngs Moduli (GPa) = 70.74418 112.82718 45.22992
#
# Poissons Ratio (x) = -0.01786 -0.03602
# Poissons Ratio (y) = -0.01120 0.21208
# Poissons Ratio (z) = -0.05634 0.52903
#
# Static dielectric constant tensor:
#      x y z
#    x 1.895820 0.000000 0.000000 
#    y 0.000000 1.830130 0.000000 
#    z 0.000000 0.000000 1.862090 
# 
# From -- ./inp_files/2919.got.cif
#   From: 2010.05.17/outbox.cif.g08.bks.cpg/sg25_2_cif.got.tgz:2919.got - 2010.06.04 01:04:00.
