data_PCOD9337188
_publ_section_title
;
Structure prediction by ZEFSAII (Michael W. Deem and Ramdas Pophale) SiO2 
 PCOD9337188
Probable space group: P M M 2
;
_chemical_formula_sum "Si O2"
_cell_formula_units_Z 29
_cell_length_a 16.612048
_cell_length_b 15.937936
_cell_length_c 5.132205
_cell_angle_alpha 90.000000
_cell_angle_beta 90.000000
_cell_angle_gamma 90.000000
_cell_volume 1358.811617
_symmetry_space_group_name_H-M "P M M 2"
_symmetry_group_IT_number 25
_symmetry_cell_setting 'orthorhombic'
loop_
_space_group_symop_operation_xyz
x,y,z
-x,-y,z
-x,y,z
x,-y,z
loop_
_atom_site_type_symbol
_atom_site_label
_atom_site_fract_x
_atom_site_fract_y
_atom_site_fract_z
Si Si1 0.138778 0.590346 0.494990
Si Si2 0.907697 0.782202 0.450859
Si Si3 0.802977 0.813116 0.952945
Si Si4 0.339260 0.909623 0.183729
Si Si5 0.758984 0.379494 0.999261
Si Si6 0.500000 0.000000 0.029338
Si Si7 0.410591 0.346478 0.995165
Si Si8 0.589581 0.768503 0.498369
O O1 0.096061 0.500000 0.463880
O O2 0.094289 0.679394 0.458205
O O3 0.180241 0.591676 0.776698
O O4 0.208371 0.593813 0.277923
O O5 0.869296 0.814392 0.182466
O O6 0.000000 0.808332 0.483535
O O7 0.849785 0.813716 0.681175
O O8 0.732339 0.879882 0.997381
O O9 0.762664 0.721507 0.984598
O O10 0.426416 0.927913 0.047169
O O11 0.349922 0.839714 0.405670
O O12 0.318894 0.000000 0.303736
O O13 0.666861 0.403744 0.956990
O O14 0.500000 0.383161 0.963402
O O15 0.402491 0.273168 0.778732
O O16 0.405454 0.304577 0.280794
O O17 0.500000 0.805986 0.484848
#
# Coordination Sequence:
#
# PCOD9337188 Si02
#       8
#     4   4   4   4   4   1   4   4
#     4  10  21  36  59  89 120 151 184 237 310 377
#     4  10  22  41  65  92 117 152 202 251 308 364
#     4  10  21  36  62  87 120 161 201 254 294 367
#     4  10  19  35  59  86 131 164 211 243 318 363
#     4  10  19  34  55  83 116 157 202 241 292 357
#     4   8  20  36  60  90 134 178 198 254 320 370
#     4  10  20  30  53  76 109 147 205 254 291 328
#     4  10  18  32  48  77 110 153 191 250 292 341
#
# _framework density 21.342178000000001
#
# number of rings (size 3 to 8) (size 9 to 14) (size 15 to 20)
#    0.414    1.655    2.069    1.655    3.862    0.276 
#    0.000    2.759    0.000   15.724    0.000    0.000 
#    0.000    0.000    0.000    0.000    0.000    0.000 
#
# Total GULP energy -161579.673741 kJ/mol
# GULP energy per Si atom -5571.712888 kJ/mol
# Density = 2.129360 g / cm^3
# Si number density = 21.342178 Si / 1000 Ang^3
#
#
#
# Elastic Constant Matrix: (Units=GPa)
#
#
# Indices 1 2 3 4 5 6 
#
# 1 121.0760 16.4947 4.8768 0.0000 0.0000 0.0000
# 2 16.4947 41.3627 -8.7272 0.0000 0.0000 0.0000
# 3 4.8768 -8.7272 53.7490 0.0000 0.0000 0.0000
# 4 0.0000 0.0000 0.0000 2.2645 0.0000 0.0000
# 5 0.0000 0.0000 0.0000 0.0000 16.1768 0.0000
# 6 0.0000 0.0000 0.0000 0.0000 0.0000 6.0253
#
#
#
# Elastic Compliance Matrix: (Units=1/GPa)
#
#
# Indices 1 2 3 4 5 6 
#
# 1 0.008838 -0.003824 -0.001423 0.000000 0.000000 0.000000
# 2 -0.003824 0.026689 0.004680 0.000000 0.000000 0.000000
# 3 -0.001423 0.004680 0.019494 0.000000 0.000000 0.000000
# 4 0.000000 0.000000 0.000000 0.441591 0.000000 0.000000
# 5 0.000000 0.000000 0.000000 0.000000 0.061817 0.000000
# 6 0.000000 0.000000 0.000000 0.000000 0.000000 0.165965
#
#
# Mechanical properties :
#
#
# Convention : Reuss Voigt Hill
#
# Bulk Modulus (GPa) = 18.55735 26.83072 22.69404
# Shear Modulus (GPa) = 6.72504 18.46290 12.59397
#
# Velocity S-wave (km/s) = 1.77705 2.94443 2.43183
# Velocity P-wave (km/s) = 3.59507 4.91513 4.30599
#
# Compressibility (1/GPa) = 0.05388700
#
# Stress axis : x y z
#
# Youngs Moduli (GPa) = 113.15273 37.46855 51.29772
#
# Poissons Ratio (x) = 0.14330 0.07299
# Poissons Ratio (y) = 0.43275 -0.24010
# Poissons Ratio (z) = 0.16100 -0.17537
#
# Static dielectric constant tensor:
#      x y z
#    x 1.771880 0.000000 0.000000 
#    y 0.000000 1.801250 0.000000 
#    z 0.000000 0.000000 1.758230 
# 
# From -- ./inp_files/960.got.cif
#   From: 2010.05.17/outbox.cif.g08.bks.cpg/sg25_1_cif.got.tgz:960.got - 2010.06.04 01:04:00.
