data_PCOD9337314
_publ_section_title
;
Structure prediction by ZEFSAII (Michael W. Deem and Ramdas Pophale) SiO2 
 PCOD9337314
Probable space group: P M M 2
;
_chemical_formula_sum "Si O2"
_cell_formula_units_Z 32
_cell_length_a 14.979071
_cell_length_b 8.806459
_cell_length_c 12.619327
_cell_angle_alpha 90.000000
_cell_angle_beta 90.000000
_cell_angle_gamma 90.000000
_cell_volume 1664.647915
_symmetry_space_group_name_H-M "P M M 2"
_symmetry_group_IT_number 25
_symmetry_cell_setting 'orthorhombic'
loop_
_space_group_symop_operation_xyz
x,y,z
-x,-y,z
-x,y,z
x,-y,z
loop_
_atom_site_type_symbol
_atom_site_label
_atom_site_fract_x
_atom_site_fract_y
_atom_site_fract_z
Si Si1 0.601345 0.317178 0.839030
Si Si2 0.363960 0.324998 0.080425
Si Si3 0.793797 0.818666 0.365874
Si Si4 0.158800 0.327235 0.149089
Si Si5 0.902806 0.179180 0.943904
Si Si6 0.777062 0.182464 0.754945
Si Si7 0.596646 0.182338 0.303262
Si Si8 0.104569 0.317675 0.565905
O O1 0.500000 0.281927 0.806797
O O2 0.613064 0.500000 0.837483
O O3 0.676499 0.242194 0.766246
O O4 0.613471 0.268852 0.962608
O O5 0.394931 0.500000 0.088327
O O6 0.257921 0.325164 0.098591
O O7 0.399851 0.231764 0.180200
O O8 0.837202 0.775203 0.253203
O O9 0.689406 0.765422 0.357648
O O10 0.849484 0.739428 0.457957
O O11 0.794466 0.000000 0.381019
O O12 0.136207 0.500000 0.178037
O O13 0.099596 0.264067 0.054826
O O14 0.826988 0.230449 0.863331
O O15 0.000000 0.199496 0.892547
O O16 0.889902 0.000000 0.964161
O O17 0.835086 0.249699 0.659786
O O18 0.777928 0.000000 0.748221
O O19 0.500000 0.234423 0.346952
O O20 0.598601 0.000000 0.308111
O O21 0.107163 0.500000 0.570571
O O22 0.000000 0.270584 0.572489
#
# Coordination Sequence:
#
# PCOD9337314 Si02
#       8
#     4   4   4   4   4   4   4   4
#     4  10  20  35  56  84 121 162 202 244 292 347
#     4   9  17  30  50  78 115 158 199 237 279 332
#     4  10  21  38  61  87 118 154 194 241 296 351
#     4  10  19  33  55  83 118 156 194 239 289 344
#     4  10  21  36  55  82 116 153 191 234 291 357
#     4  11  23  40  63  88 119 154 195 247 300 357
#     4   9  18  32  52  82 119 156 194 235 281 337
#     4  11  25  45  68  90 112 145 195 251 304 361
#
# _framework density 19.223285000000001
#
# number of rings (size 3 to 8) (size 9 to 14) (size 15 to 20)
#    0.000    2.000    1.250    2.250    0.000    5.250 
#    0.000    0.625    0.000    2.250    0.000    0.000 
#    0.000    0.000    0.000    0.000    0.000    0.000 
#
# Total GULP energy -178566.824660 kJ/mol
# GULP energy per Si atom -5580.213271 kJ/mol
# Density = 1.917953 g / cm^3
# Si number density = 19.223285 Si / 1000 Ang^3
#
#
#
# Elastic Constant Matrix: (Units=GPa)
#
#
# Indices 1 2 3 4 5 6 
#
# 1 141.6985 42.6045 69.8414 0.0000 0.0000 0.0000
# 2 42.6045 36.3771 28.4697 0.0000 0.0000 0.0000
# 3 69.8414 28.4697 94.1530 0.0000 0.0000 0.0000
# 4 0.0000 0.0000 0.0000 31.5514 0.0000 0.0000
# 5 0.0000 0.0000 0.0000 0.0000 16.3984 0.0000
# 6 0.0000 0.0000 0.0000 0.0000 0.0000 15.3973
#
#
#
# Elastic Compliance Matrix: (Units=1/GPa)
#
#
# Indices 1 2 3 4 5 6 
#
# 1 0.013649 -0.010561 -0.006931 0.000000 0.000000 0.000000
# 2 -0.010561 0.044184 -0.005526 0.000000 0.000000 0.000000
# 3 -0.006931 -0.005526 0.017433 0.000000 0.000000 0.000000
# 4 0.000000 0.000000 0.000000 0.031694 0.000000 0.000000
# 5 0.000000 0.000000 0.000000 0.000000 0.060982 0.000000
# 6 0.000000 0.000000 0.000000 0.000000 0.000000 0.064946
#
#
# Mechanical properties :
#
#
# Convention : Reuss Voigt Hill
#
# Bulk Modulus (GPa) = 34.21212 61.56220 47.88716
# Shear Modulus (GPa) = 17.32095 21.42361 19.37228
#
# Velocity S-wave (km/s) = 3.00499 3.34198 3.17795
# Velocity P-wave (km/s) = 5.46588 6.85464 6.19927
#
# Compressibility (1/GPa) = 0.02922941
#
# Stress axis : x y z
#
# Youngs Moduli (GPa) = 73.26615 22.63282 57.36099
#
# Poissons Ratio (x) = 0.23902 0.39758
# Poissons Ratio (y) = 0.77376 0.31699
# Poissons Ratio (z) = 0.50782 0.12507
#
# Static dielectric constant tensor:
#      x y z
#    x 1.719700 0.000000 0.000000 
#    y 0.000000 1.654090 0.000000 
#    z 0.000000 0.000000 1.640640 
# 
# From -- ./inp_files/4203.got.cif
#   From: 2010.05.17/outbox.cif.g08.bks.cpg/sg25_3_cif.got.tgz:4203.got - 2010.06.04 01:04:00.
