data_PCOD9337338
_publ_section_title
;
Structure prediction by ZEFSAII (Michael W. Deem and Ramdas Pophale) SiO2 
 PCOD9337338
Probable space group: P M M 2
;
_chemical_formula_sum "Si O2"
_cell_formula_units_Z 24
_cell_length_a 18.215248
_cell_length_b 7.670090
_cell_length_c 8.012812
_cell_angle_alpha 90.000000
_cell_angle_beta 90.000000
_cell_angle_gamma 90.000000
_cell_volume 1119.490730
_symmetry_space_group_name_H-M "P M M 2"
_symmetry_group_IT_number 25
_symmetry_cell_setting 'orthorhombic'
loop_
_space_group_symop_operation_xyz
x,y,z
-x,-y,z
-x,y,z
x,-y,z
loop_
_atom_site_type_symbol
_atom_site_label
_atom_site_fract_x
_atom_site_fract_y
_atom_site_fract_z
Si Si1 0.084329 0.213138 0.538320
Si Si2 0.184023 0.214190 0.846702
Si Si3 0.187841 0.789682 0.234933
Si Si4 0.500000 0.713389 0.341892
Si Si5 0.341066 0.809187 0.819174
Si Si6 0.500000 0.297115 0.708006
Si Si7 0.345468 0.293764 0.185926
O O1 0.122769 0.265494 0.712655
O O2 0.130370 0.269915 0.375199
O O3 0.000000 0.269462 0.530209
O O4 0.085114 0.000000 0.536927
O O5 0.263366 0.277717 0.775255
O O6 0.187129 0.000000 0.849114
O O7 0.173851 0.268993 0.041349
O O8 0.270475 0.734026 0.286659
O O9 0.185555 0.000000 0.232238
O O10 0.500000 0.500000 0.337697
O O11 0.500000 0.787026 0.527284
O O12 0.577165 0.763480 0.261135
O O13 0.422511 0.738466 0.793232
O O14 0.341241 0.000000 0.740768
O O15 0.333525 0.812481 0.018045
O O16 0.500000 0.500000 0.678326
O O17 0.351072 0.500000 0.146150
#
# Coordination Sequence:
#
# PCOD9337338 Si02
#       7
#     4   4   4   2   4   2   4
#     4   9  17  29  49  77 106 137 171 213 271 328
#     4   8  16  30  47  71 104 135 168 215 264 315
#     4   9  18  32  51  77 107 136 174 222 268 318
#     4   9  21  35  48  72 104 135 176 219 256 308
#     4  10  20  35  53  76 104 137 178 222 267 313
#     4  11  22  35  50  74 106 139 176 219 262 314
#     4  10  19  35  56  75 100 140 181 219 265 314
#
# _framework density 21.438320000000001
#
# number of rings (size 3 to 8) (size 9 to 14) (size 15 to 20)
#    0.000    2.667    0.000    2.750    2.333    1.333 
#    0.000    7.083    0.000    0.500    0.000    0.000 
#    0.000    0.000    0.000    0.000    0.000    0.000 
#
# Total GULP energy -133693.886042 kJ/mol
# GULP energy per Si atom -5570.578585 kJ/mol
# Density = 2.138953 g / cm^3
# Si number density = 21.438320 Si / 1000 Ang^3
#
#
#
# Elastic Constant Matrix: (Units=GPa)
#
#
# Indices 1 2 3 4 5 6 
#
# 1 225.5390 3.6291 88.3467 0.0000 0.0000 0.0000
# 2 3.6291 41.2371 0.7228 0.0000 0.0000 0.0000
# 3 88.3467 0.7228 90.4656 0.0000 0.0000 0.0000
# 4 0.0000 0.0000 0.0000 5.6652 0.0000 0.0000
# 5 0.0000 0.0000 0.0000 0.0000 20.4184 0.0000
# 6 0.0000 0.0000 0.0000 0.0000 0.0000 18.6249
#
#
#
# Elastic Compliance Matrix: (Units=1/GPa)
#
#
# Indices 1 2 3 4 5 6 
#
# 1 0.007191 -0.000510 -0.007019 0.000000 0.000000 0.000000
# 2 -0.000510 0.024290 0.000304 0.000000 0.000000 0.000000
# 3 -0.007019 0.000304 0.017906 0.000000 0.000000 0.000000
# 4 0.000000 0.000000 0.000000 0.176517 0.000000 0.000000
# 5 0.000000 0.000000 0.000000 0.000000 0.048975 0.000000
# 6 0.000000 0.000000 0.000000 0.000000 0.000000 0.053692
#
#
# Mechanical properties :
#
#
# Convention : Reuss Voigt Hill
#
# Bulk Modulus (GPa) = 28.62281 60.29320 44.45801
# Shear Modulus (GPa) = 14.09773 26.57790 20.33782
#
# Velocity S-wave (km/s) = 2.56714 3.52481 3.08338
# Velocity P-wave (km/s) = 4.70820 6.68960 5.78438
#
# Compressibility (1/GPa) = 0.03493717
#
# Stress axis : x y z
#
# Youngs Moduli (GPa) = 139.05422 41.16996 55.84709
#
# Poissons Ratio (x) = 0.02099 0.39199
# Poissons Ratio (y) = 0.07090 -0.01697
# Poissons Ratio (z) = 0.97601 -0.01251
#
# Static dielectric constant tensor:
#      x y z
#    x 2.041340 0.000000 0.000000 
#    y 0.000000 1.812610 0.000000 
#    z 0.000000 0.000000 1.772980 
# 
# From -- ./inp_files/3371.got.cif
#   From: 2010.05.17/outbox.cif.g08.bks.cpg/sg25_2_cif.got.tgz:3371.got - 2010.06.04 01:04:00.
