data_PCOD9337800
_publ_section_title
;
Structure prediction by ZEFSAII (Michael W. Deem and Ramdas Pophale) SiO2 
 PCOD9337800
Probable space group: P M M 2
;
_chemical_formula_sum "Si O2"
_cell_formula_units_Z 32
_cell_length_a 14.762703
_cell_length_b 8.341188
_cell_length_c 16.251193
_cell_angle_alpha 90.000000
_cell_angle_beta 90.000000
_cell_angle_gamma 90.000000
_cell_volume 2001.147222
_symmetry_space_group_name_H-M "P M M 2"
_symmetry_group_IT_number 25
_symmetry_cell_setting 'orthorhombic'
loop_
_space_group_symop_operation_xyz
x,y,z
-x,-y,z
-x,y,z
x,-y,z
loop_
_atom_site_type_symbol
_atom_site_label
_atom_site_fract_x
_atom_site_fract_y
_atom_site_fract_z
Si Si1 0.398224 0.306543 0.359290
Si Si2 0.894802 0.803539 0.775308
Si Si3 0.896131 0.691866 0.454904
Si Si4 0.105197 0.196461 0.134500
Si Si5 0.889892 0.814165 0.954904
Si Si6 0.787780 0.191382 0.294847
Si Si7 0.601776 0.306543 0.550517
Si Si8 0.787780 0.191381 0.614962
O O1 0.500000 0.256141 0.335133
O O2 0.395613 0.500000 0.357823
O O3 0.316150 0.241957 0.305774
O O4 0.384141 0.257643 0.454903
O O5 0.864216 0.744938 0.865914
O O6 0.833593 0.749854 0.699419
O O7 0.000000 0.758218 0.762045
O O8 0.893362 0.000000 0.777931
O O9 0.897220 0.500000 0.454907
O O10 0.843553 0.747286 0.373586
O O11 0.843554 0.747292 0.536222
O O12 0.000000 0.751185 0.454903
O O13 0.166407 0.250145 0.210389
O O14 0.000000 0.241782 0.147763
O O15 0.106638 0.000000 0.131877
O O16 0.135784 0.255062 0.043894
O O17 0.000000 0.815574 0.954904
O O18 0.859918 0.000000 0.954904
O O19 0.793131 0.000000 0.295040
O O20 0.500000 0.256140 0.574674
O O21 0.604386 0.500000 0.551984
O O22 0.683850 0.241960 0.604033
O O23 0.793127 0.000000 0.614771
#
# Coordination Sequence:
#
# PCOD9337800 Si02
#       8
#     4   4   4   4   4   4   4   4
#     4   9  18  33  50  64  83 115 152 187 222 265
#     4   8  14  24  39  62  92 121 147 176 214 260
#     4  11  23  35  44  57  86 129 165 182 202 253
#     4   8  14  24  39  62  92 121 147 176 214 260
#     4   7  10  20  38  58  84 119 150 174 207 257
#     4  11  20  29  45  70  94 115 143 187 232 264
#     4   9  18  33  50  64  83 115 152 187 222 265
#     4  11  20  29  45  70  94 115 143 187 232 264
#
# _framework density 15.990828
#
# number of rings (size 3 to 8) (size 9 to 14) (size 15 to 20)
#    0.000    2.750    1.250    4.125    0.000    2.500 
#    0.000    1.250    0.000    0.000    0.000    4.375 
#    0.000   21.000    0.000    0.000    0.000    0.000 
#
# Total GULP energy -178281.082473 kJ/mol
# GULP energy per Si atom -5571.283827 kJ/mol
# Density = 1.595443 g / cm^3
# Si number density = 15.990828 Si / 1000 Ang^3
#
#
#
# Elastic Constant Matrix: (Units=GPa)
#
#
# Indices 1 2 3 4 5 6 
#
# 1 117.9985 15.6190 84.5386 0.0000 0.0000 0.0000
# 2 15.6190 13.4363 16.2544 0.0000 0.0000 0.0000
# 3 84.5386 16.2544 162.0222 0.0000 0.0000 0.0000
# 4 0.0000 0.0000 0.0000 -7.0116 0.0000 0.0000
# 5 0.0000 0.0000 0.0000 0.0000 4.5265 0.0000
# 6 0.0000 0.0000 0.0000 0.0000 0.0000 20.3877
#
#
#
# Elastic Compliance Matrix: (Units=1/GPa)
#
#
# Indices 1 2 3 4 5 6 
#
# 1 0.014373 -0.008690 -0.006628 0.000000 0.000000 0.000000
# 2 -0.008690 0.089960 -0.004491 0.000000 0.000000 0.000000
# 3 -0.006628 -0.004491 0.010081 0.000000 0.000000 0.000000
# 4 0.000000 0.000000 0.000000 -0.142621 0.000000 0.000000
# 5 0.000000 0.000000 0.000000 0.000000 0.220923 0.000000
# 6 0.000000 0.000000 0.000000 0.000000 0.000000 0.049049
#
#
# Mechanical properties :
#
#
# Convention : Reuss Voigt Hill
#
# Bulk Modulus (GPa) = 13.36965 58.47567 35.92266
# Shear Modulus (GPa) = 16.32310 15.38351 15.85330
#
# Velocity S-wave (km/s) = 3.19843 3.10501 3.15207
# Velocity P-wave (km/s) = 4.69243 7.03580 5.98002
#
# Compressibility (1/GPa) = 0.07479630
#
# Stress axis : x y z
#
# Youngs Moduli (GPa) = 69.57294 11.11609 99.19946
#
# Poissons Ratio (x) = 0.09660 0.65747
# Poissons Ratio (y) = 0.60461 0.44546
# Poissons Ratio (z) = 0.46112 0.04992
#
# Static dielectric constant tensor:
#      x y z
#    x 1.526380 0.000000 0.000000 
#    y 0.000000 1.554750 0.000000 
#    z 0.000000 0.000000 1.553650 
# 
# From -- ./inp_files/5926.got.cif
#   From: 2010.05.17/outbox.cif.g08.bks.cpg/sg25_3_cif.got.tgz:5926.got - 2010.06.04 01:04:00.
