data_PCOD9337377
_publ_section_title
;
Structure prediction by ZEFSAII (Michael W. Deem and Ramdas Pophale) SiO2 
 PCOD9337377
Probable space group: P M M 2
;
_chemical_formula_sum "Si O2"
_cell_formula_units_Z 32
_cell_length_a 7.457828
_cell_length_b 9.347519
_cell_length_c 22.053709
_cell_angle_alpha 90.000000
_cell_angle_beta 90.000000
_cell_angle_gamma 90.000000
_cell_volume 1537.412328
_symmetry_space_group_name_H-M "P M M 2"
_symmetry_group_IT_number 25
_symmetry_cell_setting 'orthorhombic'
loop_
_space_group_symop_operation_xyz
x,y,z
-x,-y,z
-x,y,z
x,-y,z
loop_
_atom_site_type_symbol
_atom_site_label
_atom_site_fract_x
_atom_site_fract_y
_atom_site_fract_z
Si Si1 0.286385 0.161101 0.579480
Si Si2 0.719363 0.664304 0.696160
Si Si3 0.209645 0.674679 0.327085
Si Si4 0.281435 0.332751 0.934687
Si Si5 0.784020 0.663356 0.458871
Si Si6 0.214411 0.663942 0.197510
Si Si7 0.285480 0.335433 0.066800
Si Si8 0.719199 0.164475 0.815869
O O1 0.500000 0.151602 0.588268
O O2 0.218506 0.255823 0.635422
O O3 0.258223 0.237513 0.515359
O O4 0.214121 0.000000 0.579961
O O5 0.500000 0.663733 0.695874
O O6 0.777066 0.500000 0.697250
O O7 0.775090 0.748477 0.756399
O O8 0.216880 0.500000 0.325827
O O9 0.284903 0.715038 0.392911
O O10 0.283413 0.724263 0.261789
O O11 0.000000 0.716266 0.328048
O O12 0.500000 0.330183 0.933585
O O13 0.230375 0.500000 0.928981
O O14 0.220487 0.241251 0.877559
O O15 0.224360 0.277813 0.001472
O O16 0.721086 0.500000 0.469453
O O17 0.000000 0.656805 0.454079
O O18 0.284489 0.500000 0.193195
O O19 0.245455 0.733883 0.131940
O O20 0.000000 0.655223 0.203985
O O21 0.500000 0.341790 0.063593
O O22 0.217145 0.500000 0.069224
O O23 0.500000 0.165571 0.816247
O O24 0.775649 0.000000 0.813012
#
# Coordination Sequence:
#
# PCOD9337377 Si02
#       8
#     4   4   4   4   4   4   4   4
#     4  10  20  32  45  64  92 122 149 180 220 265
#     4   9  16  26  41  60  83 112 143 175 214 258
#     4   7  11  21  37  57  81 107 135 171 214 254
#     4   8  13  21  32  47  71 103 134 164 202 246
#     4   9  17  30  48  68  89 115 149 187 224 264
#     4   8  12  19  33  53  77 104 132 164 205 249
#     4   8  13  20  30  47  74 105 133 163 201 244
#     4   9  15  22  34  54  79 105 135 172 210 248
#
# _framework density 20.814194000000001
#
# number of rings (size 3 to 8) (size 9 to 14) (size 15 to 20)
#    0.000    3.500    0.000    3.375    0.000    4.000 
#    0.000    0.625    0.000    2.250    0.000    1.750 
#    0.000    8.500    0.000    0.000    0.000    0.000 
#
# Total GULP energy -178235.357313 kJ/mol
# GULP energy per Si atom -5569.854916 kJ/mol
# Density = 2.076682 g / cm^3
# Si number density = 20.814194 Si / 1000 Ang^3
#
#
#
# Elastic Constant Matrix: (Units=GPa)
#
#
# Indices 1 2 3 4 5 6 
#
# 1 60.5121 4.2286 5.7220 0.0000 0.0000 0.0000
# 2 4.2286 100.6236 105.0824 0.0000 0.0000 0.0000
# 3 5.7220 105.0824 277.3069 0.0000 0.0000 0.0000
# 4 0.0000 0.0000 0.0000 -7.7075 0.0000 0.0000
# 5 0.0000 0.0000 0.0000 0.0000 20.2323 0.0000
# 6 0.0000 0.0000 0.0000 0.0000 0.0000 -1.1057
#
#
#
# Elastic Compliance Matrix: (Units=1/GPa)
#
#
# Indices 1 2 3 4 5 6 
#
# 1 0.016577 -0.000562 -0.000129 0.000000 0.000000 0.000000
# 2 -0.000562 0.016465 -0.006228 0.000000 0.000000 0.000000
# 3 -0.000129 -0.006228 0.005969 0.000000 0.000000 0.000000
# 4 0.000000 0.000000 0.000000 -0.129743 0.000000 0.000000
# 5 0.000000 0.000000 0.000000 0.000000 0.049426 0.000000
# 6 0.000000 0.000000 0.000000 0.000000 0.000000 -0.904427
#
#
# Mechanical properties :
#
#
# Convention : Reuss Voigt Hill
#
# Bulk Modulus (GPa) = 39.72382 74.27874 57.00128
# Shear Modulus (GPa) = -5.41416 23.84446 9.21515
#
# Velocity S-wave (km/s) = -1.61457 3.38832 2.10641
# Velocity P-wave (km/s) = 3.95609 7.14645 5.77591
#
# Compressibility (1/GPa) = 0.02517381
#
# Stress axis : x y z
#
# Youngs Moduli (GPa) = 60.32417 60.73342 167.53977
#
# Poissons Ratio (x) = 0.03412 0.02165
# Poissons Ratio (y) = 0.03389 1.04340
# Poissons Ratio (z) = 0.00779 0.37824
#
# Static dielectric constant tensor:
#      x y z
#    x 1.817590 0.000000 0.000000 
#    y 0.000000 1.688130 0.000000 
#    z 0.000000 0.000000 1.795340 
# 
# From -- ./inp_files/6517.got.cif
#   From: 2010.05.17/outbox.cif.g08.bks.cpg/sg25_4_cif.got.tgz:6517.got - 2010.06.04 01:04:00.
