data_PCOD9337885
_publ_section_title
;
Structure prediction by ZEFSAII (Michael W. Deem and Ramdas Pophale) SiO2 
 PCOD9337885
Probable space group: P M C 21
;
_chemical_formula_sum "Si O2"
_cell_formula_units_Z 28
_cell_length_a 8.043877
_cell_length_b 20.402525
_cell_length_c 6.963820
_cell_angle_alpha 90.000000
_cell_angle_beta 90.000000
_cell_angle_gamma 90.000000
_cell_volume 1142.870116
_symmetry_space_group_name_H-M "P M C 21"
_symmetry_group_IT_number 26
_symmetry_cell_setting 'orthorhombic'
loop_
_space_group_symop_operation_xyz
x,y,z
-x,-y,1/2+z
-x,y,z
x,-y,1/2+z
loop_
_atom_site_type_symbol
_atom_site_label
_atom_site_fract_x
_atom_site_fract_y
_atom_site_fract_z
Si Si1 0.188161 0.728362 0.700470
Si Si2 0.297930 0.312938 0.623148
Si Si3 0.318942 0.862637 0.799014
Si Si4 0.309660 0.549760 0.047071
Si Si5 0.688586 0.174285 0.756080
Si Si6 0.000000 0.059535 0.363632
Si Si7 0.000000 0.092620 0.809842
Si Si8 0.309862 0.408888 0.103073
O O1 0.210429 0.706677 0.923947
O O2 0.299141 0.793402 0.688539
O O3 0.228255 0.661934 0.586340
O O4 0.000000 0.748728 0.666814
O O5 0.500000 0.314612 0.593231
O O6 0.245761 0.387996 0.668976
O O7 0.268171 0.251589 0.761803
O O8 0.500000 0.891945 0.759956
O O9 0.165930 0.911530 0.767553
O O10 0.314198 0.843420 0.026843
O O11 0.500000 0.537112 0.113068
O O12 0.316275 0.577203 0.832191
O O13 0.230988 0.477684 0.034349
O O14 0.500000 0.162808 0.822370
O O15 0.831658 0.131795 0.852690
O O16 0.000000 0.086735 0.578805
O O17 0.000000 0.981605 0.379905
O O18 0.500000 0.401958 0.031347
#
# Coordination Sequence:
#
# PCOD9337885 Si02
#       8
#     4   4   4   4   4   2   2   4
#     4  10  16  24  41  66  91 117 152 196 238 272
#     4   8  14  25  42  65  88 115 153 197 235 266
#     4   9  16  29  48  71  98 123 158 200 235 272
#     4   8  14  25  42  62  85 115 152 190 231 275
#     4   8  15  27  46  71  96 122 155 198 235 270
#     4  10  20  34  50  78  97 132 152 190 231 286
#     4  10  20  32  52  72 103 124 160 182 235 282
#     4   9  16  27  42  61  86 119 152 189 234 275
#
# _framework density 24.499724000000001
#
# number of rings (size 3 to 8) (size 9 to 14) (size 15 to 20)
#    0.000    3.143    0.714    3.000    3.000    0.571 
#    0.000    2.857    0.000    1.714    0.000    2.000 
#    0.000    0.000    0.000    0.000    0.000    0.000 
#
# Total GULP energy -156418.305382 kJ/mol
# GULP energy per Si atom -5586.368049 kJ/mol
# Density = 2.444396 g / cm^3
# Si number density = 24.499724 Si / 1000 Ang^3
#
#
#
# Elastic Constant Matrix: (Units=GPa)
#
#
# Indices 1 2 3 4 5 6 
#
# 1 137.8447 94.8095 14.0528 0.0000 0.0000 0.0000
# 2 94.8095 178.5309 24.4504 0.0000 0.0000 0.0000
# 3 14.0528 24.4504 76.9616 0.0000 0.0000 0.0000
# 4 0.0000 0.0000 0.0000 40.5598 0.0000 0.0000
# 5 0.0000 0.0000 0.0000 0.0000 1.7100 0.0000
# 6 0.0000 0.0000 0.0000 0.0000 0.0000 33.6620
#
#
#
# Elastic Compliance Matrix: (Units=1/GPa)
#
#
# Indices 1 2 3 4 5 6 
#
# 1 0.011431 -0.006048 -0.000166 0.000000 0.000000 0.000000
# 2 -0.006048 0.009056 -0.001773 0.000000 0.000000 0.000000
# 3 -0.000166 -0.001773 0.013587 0.000000 0.000000 0.000000
# 4 0.000000 0.000000 0.000000 0.024655 0.000000 0.000000
# 5 0.000000 0.000000 0.000000 0.000000 0.584801 0.000000
# 6 0.000000 0.000000 0.000000 0.000000 0.000000 0.029707
#
#
# Mechanical properties :
#
#
# Convention : Reuss Voigt Hill
#
# Bulk Modulus (GPa) = 55.24538 73.32916 64.28727
# Shear Modulus (GPa) = 7.19172 32.52131 19.85652
#
# Velocity S-wave (km/s) = 1.71517 3.64732 2.84998
# Velocity P-wave (km/s) = 5.14983 6.90890 6.09318
#
# Compressibility (1/GPa) = 0.01810106
#
# Stress axis : x y z
#
# Youngs Moduli (GPa) = 87.48028 110.42686 73.59996
#
# Poissons Ratio (x) = 0.66784 0.01221
# Poissons Ratio (y) = 0.52907 0.13047
# Poissons Ratio (z) = 0.01451 0.19575
#
# Static dielectric constant tensor:
#      x y z
#    x 1.879850 0.000000 0.000000 
#    y 0.000000 1.946470 0.000000 
#    z 0.000000 0.000000 2.065980 
# 
# From -- ./inp_files/3111.got.cif
#   From: 2010.05.17/outbox.cif.g08.bks.cpg/sg26_2_cif.got.tgz:3111.got - 2010.06.04 01:07:29.
