data_PCOD9337785
_publ_section_title
;
Structure prediction by ZEFSAII (Michael W. Deem and Ramdas Pophale) SiO2 
 PCOD9337785
Probable space group: P M M 2
;
_chemical_formula_sum "Si O2"
_cell_formula_units_Z 25
_cell_length_a 7.672604
_cell_length_b 10.184585
_cell_length_c 15.902521
_cell_angle_alpha 90.000000
_cell_angle_beta 90.000000
_cell_angle_gamma 90.000000
_cell_volume 1242.659370
_symmetry_space_group_name_H-M "P M M 2"
_symmetry_group_IT_number 25
_symmetry_cell_setting 'orthorhombic'
loop_
_space_group_symop_operation_xyz
x,y,z
-x,-y,z
-x,y,z
x,-y,z
loop_
_atom_site_type_symbol
_atom_site_label
_atom_site_fract_x
_atom_site_fract_y
_atom_site_fract_z
Si Si1 0.707421 0.150082 0.908650
Si Si2 0.287908 0.648910 0.050423
Si Si3 0.287908 0.648910 0.399447
Si Si4 0.792387 0.149929 0.724935
Si Si5 0.803882 0.777542 0.224935
Si Si6 0.707421 0.150082 0.541220
Si Si7 0.500000 0.000000 0.224936
O O1 0.500000 0.140143 0.920556
O O2 0.736987 0.205680 0.814797
O O3 0.778236 0.000000 0.913153
O O4 0.773813 0.246300 0.980826
O O5 0.500000 0.653631 0.052523
O O6 0.237058 0.500000 0.029744
O O7 0.221120 0.690941 0.141446
O O8 0.500000 0.653632 0.397347
O O9 0.237059 0.500000 0.420127
O O10 0.221118 0.690940 0.308424
O O11 0.226187 0.753700 0.469044
O O12 0.736987 0.205681 0.635073
O O13 0.000000 0.145205 0.724935
O O14 0.721356 0.000000 0.724935
O O15 0.000000 0.832379 0.224935
O O16 0.653330 0.886248 0.224936
O O17 0.500000 0.140143 0.529314
O O18 0.778236 0.000000 0.536718
#
# Coordination Sequence:
#
# PCOD9337785 Si02
#       7
#     4   4   4   4   4   4   1
#     4   9  18  32  56  82 112 153 203 252 308 372
#     4  10  21  39  62  88 124 168 206 253 311 370
#     4  10  21  39  62  88 124 168 206 253 311 370
#     4   9  17  31  50  77 112 148 190 251 318 371
#     4  12  26  42  68  95 126 169 207 252 315 369
#     4   9  18  32  56  82 112 153 203 252 308 372
#     4  12  26  48  66  94 136 154 208 272 300 370
#
# _framework density 20.118144000000001
#
# number of rings (size 3 to 8) (size 9 to 14) (size 15 to 20)
#    0.000    2.080    1.600    1.200    2.240    5.760 
#    0.000    0.800    0.000    4.800    0.000    0.000 
#    0.000    0.000    0.000    0.000    0.000    0.000 
#
# Total GULP energy -139249.198331 kJ/mol
# GULP energy per Si atom -5569.967933 kJ/mol
# Density = 2.007235 g / cm^3
# Si number density = 20.118144 Si / 1000 Ang^3
#
#
#
# Elastic Constant Matrix: (Units=GPa)
#
#
# Indices 1 2 3 4 5 6 
#
# 1 82.8324 30.6813 3.8104 0.0000 0.0000 0.0000
# 2 30.6813 116.5658 85.0319 0.0000 0.0000 0.0000
# 3 3.8104 85.0319 194.9648 0.0000 0.0000 0.0000
# 4 0.0000 0.0000 0.0000-1152.3729 0.0000 0.0000
# 5 0.0000 0.0000 0.0000 0.0000 136.7012 0.0000
# 6 0.0000 0.0000 0.0000 0.0000 0.0000 -3.2082
#
#
#
# Elastic Compliance Matrix: (Units=1/GPa)
#
#
# Indices 1 2 3 4 5 6 
#
# 1 0.013858 -0.005060 0.001936 0.000000 0.000000 0.000000
# 2 -0.005060 0.014429 -0.006194 0.000000 0.000000 0.000000
# 3 0.001936 -0.006194 0.007793 0.000000 0.000000 0.000000
# 4 0.000000 0.000000 0.000000 -0.000868 0.000000 0.000000
# 5 0.000000 0.000000 0.000000 0.000000 0.007315 0.000000
# 6 0.000000 0.000000 0.000000 0.000000 0.000000 -0.311697
#
#
# Mechanical properties :
#
#
# Convention : Reuss Voigt Hill
#
# Bulk Modulus (GPa) = 57.32758 70.37891 63.85325
# Shear Modulus (GPa) = -20.43155 -185.45336 -102.94246
#
# Velocity S-wave (km/s) = -3.19027 -9.61157 -7.16101
# Velocity P-wave (km/s) = 3.87129 9.38710 6.04693
#
# Compressibility (1/GPa) = 0.01744361
#
# Stress axis : x y z
#
# Youngs Moduli (GPa) = 72.16241 69.30416 128.32268
#
# Poissons Ratio (x) = 0.35065 -0.24842
# Poissons Ratio (y) = 0.36512 0.79486
# Poissons Ratio (z) = -0.13970 0.42929
#
# Static dielectric constant tensor:
#      x y z
#    x 1.718200 0.000000 0.000000 
#    y 0.000000 1.692610 0.000000 
#    z 0.000000 0.000000 1.710020 
# 
# From -- ./inp_files/5997.got.cif
#   From: 2010.05.17/outbox.cif.g08.bks.cpg/sg25_3_cif.got.tgz:5997.got - 2010.06.04 01:04:00.
