data_PCOD9337838
_publ_section_title
;
Structure prediction by ZEFSAII (Michael W. Deem and Ramdas Pophale) SiO2 
 PCOD9337838
Probable space group: P M M 2
;
_chemical_formula_sum "Si O2"
_cell_formula_units_Z 32
_cell_length_a 9.906885
_cell_length_b 7.485270
_cell_length_c 21.487996
_cell_angle_alpha 90.000000
_cell_angle_beta 90.000000
_cell_angle_gamma 90.000000
_cell_volume 1593.457580
_symmetry_space_group_name_H-M "P M M 2"
_symmetry_group_IT_number 25
_symmetry_cell_setting 'orthorhombic'
loop_
_space_group_symop_operation_xyz
x,y,z
-x,-y,z
-x,y,z
x,-y,z
loop_
_atom_site_type_symbol
_atom_site_label
_atom_site_fract_x
_atom_site_fract_y
_atom_site_fract_z
Si Si1 0.158058 0.214225 0.148840
Si Si2 0.844408 0.718652 0.650412
Si Si3 0.655590 0.717849 0.537558
Si Si4 0.654984 0.717690 0.763097
Si Si5 0.348516 0.713691 0.397849
Si Si6 0.846983 0.711093 0.012728
Si Si7 0.153660 0.786208 0.283630
Si Si8 0.654508 0.718232 0.904075
O O1 0.214174 0.270538 0.082078
O O2 0.209877 0.277308 0.216306
O O3 0.000000 0.268766 0.148430
O O4 0.163481 0.000000 0.148286
O O5 0.845023 0.500000 0.650398
O O6 0.760801 0.776717 0.589622
O O7 0.760727 0.776190 0.711201
O O8 0.000000 0.776027 0.650370
O O9 0.500000 0.770310 0.550696
O O10 0.656877 0.500000 0.538525
O O11 0.690246 0.776651 0.467226
O O12 0.500000 0.772396 0.749694
O O13 0.654626 0.500000 0.762254
O O14 0.690137 0.772415 0.833568
O O15 0.500000 0.780458 0.383981
O O16 0.356406 0.500000 0.402560
O O17 0.246030 0.750886 0.342629
O O18 0.858556 0.500000 0.001640
O O19 0.000000 0.785720 0.012685
O O20 0.754295 0.783388 0.957637
O O21 0.000000 0.718923 0.292007
O O22 0.144366 0.000000 0.278409
O O23 0.500000 0.772038 0.915973
O O24 0.656120 0.500000 0.904593
#
# Coordination Sequence:
#
# PCOD9337838 Si02
#       8
#     4   4   4   4   4   4   4   4
#     4   8  15  29  46  62  83 111 140 170 207 254
#     4   9  15  20  29  49  75 102 135 174 210 243
#     4   8  14  25  38  51  74 109 142 171 207 253
#     4   8  13  21  32  45  66 102 141 167 194 242
#     4   9  18  31  46  66  91 118 149 184 222 265
#     4   9  16  25  40  62  83 104 135 174 210 244
#     4   9  18  32  49  68  89 115 148 184 222 265
#     4   8  14  24  36  51  75 107 138 167 204 249
#
# _framework density 20.082115000000002
#
# number of rings (size 3 to 8) (size 9 to 14) (size 15 to 20)
#    0.000    3.500    0.000    2.625    0.000    3.500 
#    0.000    5.625    0.000    2.625    0.000    0.000 
#    0.000    1.000    0.000    7.500    0.000    9.625 
#
# Total GULP energy -178295.920823 kJ/mol
# GULP energy per Si atom -5571.747526 kJ/mol
# Density = 2.003641 g / cm^3
# Si number density = 20.082115 Si / 1000 Ang^3
#
#
#
# Elastic Constant Matrix: (Units=GPa)
#
#
# Indices 1 2 3 4 5 6 
#
# 1 122.2695 4.5730 139.0703 0.0000 0.0000 0.0000
# 2 4.5730 52.0150 5.6041 0.0000 0.0000 0.0000
# 3 139.0703 5.6041 227.2465 0.0000 0.0000 0.0000
# 4 0.0000 0.0000 0.0000 50.6674 0.0000 0.0000
# 5 0.0000 0.0000 0.0000 0.0000 43.8467 0.0000
# 6 0.0000 0.0000 0.0000 0.0000 0.0000 12.0027
#
#
#
# Elastic Compliance Matrix: (Units=1/GPa)
#
#
# Indices 1 2 3 4 5 6 
#
# 1 0.026928 -0.000594 -0.016465 0.000000 0.000000 0.000000
# 2 -0.000594 0.019290 -0.000112 0.000000 0.000000 0.000000
# 3 -0.016465 -0.000112 0.014479 0.000000 0.000000 0.000000
# 4 0.000000 0.000000 0.000000 0.019737 0.000000 0.000000
# 5 0.000000 0.000000 0.000000 0.000000 0.022807 0.000000
# 6 0.000000 0.000000 0.000000 0.000000 0.000000 0.083314
#
#
# Mechanical properties :
#
#
# Convention : Reuss Voigt Hill
#
# Bulk Modulus (GPa) = 37.94288 77.78066 57.86177
# Shear Modulus (GPa) = 21.76928 38.12225 29.94576
#
# Velocity S-wave (km/s) = 3.29601 4.36170 3.86575
# Velocity P-wave (km/s) = 5.78098 8.01132 6.98574
#
# Compressibility (1/GPa) = 0.02635540
#
# Stress axis : x y z
#
# Youngs Moduli (GPa) = 37.13599 51.84163 69.06358
#
# Poissons Ratio (x) = 0.03077 1.13712
# Poissons Ratio (y) = 0.02204 0.00777
# Poissons Ratio (z) = 0.61144 0.00583
#
# Static dielectric constant tensor:
#      x y z
#    x 1.688760 0.000000 0.000000 
#    y 0.000000 1.766890 0.000000 
#    z 0.000000 0.000000 1.723520 
# 
# From -- ./inp_files/6307.got.cif
#   From: 2010.05.17/outbox.cif.g08.bks.cpg/sg25_4_cif.got.tgz:6307.got - 2010.06.04 01:04:00.
