data_PCOD9337301
_publ_section_title
;
Structure prediction by ZEFSAII (Michael W. Deem and Ramdas Pophale) SiO2 
 PCOD9337301
Probable space group: P M M 2
;
_chemical_formula_sum "Si O2"
_cell_formula_units_Z 24
_cell_length_a 8.698461
_cell_length_b 16.950905
_cell_length_c 9.470334
_cell_angle_alpha 90.000000
_cell_angle_beta 90.000000
_cell_angle_gamma 90.000000
_cell_volume 1396.370311
_symmetry_space_group_name_H-M "P M M 2"
_symmetry_group_IT_number 25
_symmetry_cell_setting 'orthorhombic'
loop_
_space_group_symop_operation_xyz
x,y,z
-x,-y,z
-x,y,z
x,-y,z
loop_
_atom_site_type_symbol
_atom_site_label
_atom_site_fract_x
_atom_site_fract_y
_atom_site_fract_z
Si Si1 0.816730 0.759948 0.750000
Si Si2 0.314369 0.264242 0.060865
Si Si3 0.313133 0.910743 0.589827
Si Si4 0.183626 0.589860 0.233777
Si Si5 0.675559 0.833063 0.315414
Si Si6 0.676070 0.669931 0.495472
O O1 0.756589 0.843538 0.688962
O O2 0.757407 0.693248 0.640802
O O3 0.000000 0.759746 0.752990
O O4 0.749071 0.745725 0.904675
O O5 0.500000 0.262218 0.061239
O O6 0.260680 0.346243 0.130915
O O7 0.256664 0.193999 0.165926
O O8 0.500000 0.901598 0.590167
O O9 0.257617 0.894139 0.428506
O O10 0.276908 0.000000 0.632070
O O11 0.225036 0.500000 0.197881
O O12 0.237745 0.609607 0.393055
O O13 0.000000 0.598659 0.225551
O O14 0.500000 0.858601 0.287693
O O15 0.672092 0.751560 0.405231
O O16 0.500000 0.645703 0.519514
#
# Coordination Sequence:
#
# PCOD9337301 Si02
#       6
#     4   4   4   4   4   4
#     4  11  21  33  51  75 106 139 172 215 266 313
#     4  10  19  33  53  75 103 139 178 214 252 307
#     4   9  17  32  54  77 101 131 171 217 261 309
#     4  10  20  34  53  79 109 136 165 208 262 311
#     4   7  13  27  48  72  94 121 160 205 246 288
#     4   9  17  32  53  74  97 129 172 211 245 298
#
# _framework density 17.187418000000001
#
# number of rings (size 3 to 8) (size 9 to 14) (size 15 to 20)
#    0.000    2.667    0.000    5.000    0.000    1.667 
#    0.000    2.500    0.000    8.000    0.000    0.000 
#    0.000    0.000    0.000    0.000    0.000    0.000 
#
# Total GULP energy -133670.552787 kJ/mol
# GULP energy per Si atom -5569.606366 kJ/mol
# Density = 1.714830 g / cm^3
# Si number density = 17.187418 Si / 1000 Ang^3
#
#
#
# Elastic Constant Matrix: (Units=GPa)
#
#
# Indices 1 2 3 4 5 6 
#
# 1 69.4693 30.8808 45.6417 0.0000 0.0000 0.0000
# 2 30.8808 73.9629 50.2446 0.0000 0.0000 0.0000
# 3 45.6417 50.2446 157.1317 0.0000 0.0000 0.0000
# 4 0.0000 0.0000 0.0000 16.8997 0.0000 0.0000
# 5 0.0000 0.0000 0.0000 0.0000 22.2979 0.0000
# 6 0.0000 0.0000 0.0000 0.0000 0.0000 19.8605
#
#
#
# Elastic Compliance Matrix: (Units=1/GPa)
#
#
# Indices 1 2 3 4 5 6 
#
# 1 0.019368 -0.005448 -0.003884 0.000000 0.000000 0.000000
# 2 -0.005448 0.018805 -0.004430 0.000000 0.000000 0.000000
# 3 -0.003884 -0.004430 0.008909 0.000000 0.000000 0.000000
# 4 0.000000 0.000000 0.000000 0.059173 0.000000 0.000000
# 5 0.000000 0.000000 0.000000 0.000000 0.044847 0.000000
# 6 0.000000 0.000000 0.000000 0.000000 0.000000 0.050351
#
#
# Mechanical properties :
#
#
# Convention : Reuss Voigt Hill
#
# Bulk Modulus (GPa) = 51.13265 61.56647 56.34956
# Shear Modulus (GPa) = 21.23168 23.39808 22.31488
#
# Velocity S-wave (km/s) = 3.51850 3.69365 3.60714
# Velocity P-wave (km/s) = 6.80596 7.35453 7.08556
#
# Compressibility (1/GPa) = 0.01955697
#
# Stress axis : x y z
#
# Youngs Moduli (GPa) = 51.63046 53.17794 112.24759
#
# Poissons Ratio (x) = 0.28973 0.43594
# Poissons Ratio (y) = 0.28130 0.49731
# Poissons Ratio (z) = 0.20052 0.23560
#
# Static dielectric constant tensor:
#      x y z
#    x 1.585070 0.000000 0.000000 
#    y 0.000000 1.586120 0.000000 
#    z 0.000000 0.000000 1.588220 
# 
# From -- ./inp_files/2100.got.cif
#   From: 2010.05.17/outbox.cif.g08.bks.cpg/sg25_2_cif.got.tgz:2100.got - 2010.06.04 01:04:00.
