data_PCOD9337088
_publ_section_title
;
Structure prediction by ZEFSAII (Michael W. Deem and Ramdas Pophale) SiO2 
 PCOD9337088
Probable space group: I 21 21 21
;
_chemical_formula_sum "Si O2"
_cell_formula_units_Z 28
_cell_length_a 12.000000
_cell_length_b 15.000000
_cell_length_c 15.000000
_cell_angle_alpha 90.000000
_cell_angle_beta 90.000000
_cell_angle_gamma 90.000000
_cell_volume 2700.000000
_symmetry_space_group_name_H-M "I 21 21 21"
_symmetry_group_IT_number 24
_symmetry_cell_setting 'orthorhombic'
loop_
_space_group_symop_operation_xyz
x,y,z
-x,1/2-y,z
x,-y,1/2-z
1/2-x,y,-z
1/2+x,1/2+y,1/2+z
1/2-x,-y,1/2+z
1/2+x,1/2-y,-z
-x,1/2+y,1/2-z
loop_
_atom_site_type_symbol
_atom_site_label
_atom_site_fract_x
_atom_site_fract_y
_atom_site_fract_z
Si Si1 0.801386 0.830943 0.402597
Si Si2 0.792115 0.373255 0.099844
Si Si3 0.941031 0.092818 0.525933
Si Si4 0.347353 0.788043 0.069295
Si Si5 0.015436 0.476538 0.145330
Si Si6 0.614561 0.056318 0.176041
Si Si7 0.587133 0.329520 0.229509
O O1 0.750000 0.846102 0.500000
O O2 0.838059 0.728361 0.398008
O O3 0.694643 0.860445 0.344692
O O4 0.902448 0.895151 0.378688
O O5 0.888418 0.442645 0.127015
O O6 0.683806 0.362216 0.162814
O O7 0.750000 0.393260 0.000000
O O8 0.868468 0.181910 0.549109
O O9 0.059505 0.139025 0.543330
O O10 0.911152 0.008938 0.591342
O O11 0.946495 0.054153 0.424795
O O12 0.352614 0.801592 0.177216
O O13 0.250000 0.810631 0.000000
O O14 0.024620 0.500000 0.250000
O O15 0.503023 0.090517 0.225425
O O16 0.679444 0.000000 0.250000
O O17 0.500000 0.250000 0.204513
#
# Coordination Sequence:
#
# PCOD9337088 Si02
#       7
#     8   8   8   8   8   8   8
#     4  11  24  44  74 104 142 191 239 315 369 435
#     4  11  27  46  73 105 150 197 238 312 378 443
#     4  11  25  47  68 109 149 194 242 311 368 445
#     4  11  26  46  75 106 149 194 249 310 383 439
#     4  12  28  49  69 109 152 194 256 295 381 455
#     4  12  22  41  77 107 141 183 252 306 363 439
#     4  12  23  46  72 110 144 188 253 302 370 450
#
# _framework density 10.370369999999999
#
# number of rings (size 3 to 8) (size 9 to 14) (size 15 to 20)
#    0.000    0.571    5.714    1.714    4.000    3.429 
#    2.571    0.000    0.000    0.000    0.000    0.000 
#    0.000    0.000    0.000    0.000    0.000    0.000 
#
# Total GULP energy -156053.163811 kJ/mol
# GULP energy per Si atom -5573.327279 kJ/mol
# Density = 1.034677 g / cm^3
# Si number density = 10.370370 Si / 1000 Ang^3
#
#
#
# Elastic Constant Matrix: (Units=GPa)
#
#
# Indices 1 2 3 4 5 6 
#
# 1 62.0141 -16.0124 6.2640 0.0000 0.0000 0.0000
# 2 -16.0124 60.0995 8.4722 0.0000 0.0000 0.0000
# 3 6.2640 8.4722 123.6859 0.0000 0.0000 0.0000
# 4 0.0000 0.0000 0.0000 30.8339 0.0000 0.0000
# 5 0.0000 0.0000 0.0000 0.0000 27.4438 0.0000
# 6 0.0000 0.0000 0.0000 0.0000 0.0000 3.3479
#
#
#
# Elastic Compliance Matrix: (Units=1/GPa)
#
#
# Indices 1 2 3 4 5 6 
#
# 1 0.017496 0.004833 -0.001217 0.000000 0.000000 0.000000
# 2 0.004833 0.018136 -0.001487 0.000000 0.000000 0.000000
# 3 -0.001217 -0.001487 0.008248 0.000000 0.000000 0.000000
# 4 0.000000 0.000000 0.000000 0.032432 0.000000 0.000000
# 5 0.000000 0.000000 0.000000 0.000000 0.036438 0.000000
# 6 0.000000 0.000000 0.000000 0.000000 0.000000 0.298694
#
#
# Mechanical properties :
#
#
# Convention : Reuss Voigt Hill
#
# Bulk Modulus (GPa) = 20.77317 27.02743 23.90030
# Shear Modulus (GPa) = 11.81381 28.79684 20.30533
#
# Velocity S-wave (km/s) = 2.38921 3.73019 3.13230
# Velocity P-wave (km/s) = 4.20101 5.62244 4.96288
#
# Compressibility (1/GPa) = 0.04813902
#
# Stress axis : x y z
#
# Youngs Moduli (GPa) = 57.15514 55.13770 121.23417
#
# Poissons Ratio (x) = -0.26649 0.14756
# Poissons Ratio (y) = -0.27624 0.18028
# Poissons Ratio (z) = 0.06957 0.08199
#
# Static dielectric constant tensor:
#      x y z
#    x 1.788750 0.000000 0.000000 
#    y 0.000000 1.816170 0.000000 
#    z 0.000000 0.000000 1.959230 
# 
# From -- ./inp_files/25817.got.cif
#   From: 2010.05.17/outbox.ucp.g08.bks.cvg/sg24_13_cif.got.tgz:25817.got - 2010.06.11 15:20:44.
