data_PCOD9337833
_publ_section_title
;
Structure prediction by ZEFSAII (Michael W. Deem and Ramdas Pophale) SiO2 
 PCOD9337833
Probable space group: P M M 2
;
_chemical_formula_sum "Si O2"
_cell_formula_units_Z 28
_cell_length_a 7.340078
_cell_length_b 21.644395
_cell_length_c 7.311110
_cell_angle_alpha 90.000000
_cell_angle_beta 90.000000
_cell_angle_gamma 90.000000
_cell_volume 1161.527360
_symmetry_space_group_name_H-M "P M M 2"
_symmetry_group_IT_number 25
_symmetry_cell_setting 'orthorhombic'
loop_
_space_group_symop_operation_xyz
x,y,z
-x,-y,z
-x,y,z
x,-y,z
loop_
_atom_site_type_symbol
_atom_site_label
_atom_site_fract_x
_atom_site_fract_y
_atom_site_fract_z
Si Si1 0.783192 0.695979 0.925920
Si Si2 0.721161 0.566524 0.305761
Si Si3 0.211629 0.433802 0.869045
Si Si4 0.723302 0.830205 0.319456
Si Si5 0.293416 0.697556 0.355464
Si Si6 0.282722 0.168161 0.903780
Si Si7 0.277497 0.929485 0.610200
O O1 0.713634 0.634328 0.824457
O O2 0.750789 0.762112 0.835083
O O3 0.000000 0.688820 0.948854
O O4 0.702144 0.698972 0.131225
O O5 0.500000 0.568587 0.309307
O O6 0.779174 0.500000 0.382826
O O7 0.789187 0.630169 0.395037
O O8 0.777001 0.566493 0.091930
O O9 0.293776 0.500000 0.811184
O O10 0.000000 0.435006 0.815803
O O11 0.500000 0.827074 0.320616
O O12 0.787834 0.764356 0.400475
O O13 0.775785 0.889908 0.433412
O O14 0.785521 0.835063 0.110890
O O15 0.500000 0.697158 0.424884
O O16 0.500000 0.161469 0.911137
O O17 0.215207 0.112913 0.778527
O O18 0.500000 0.930885 0.613099
O O19 0.215831 0.000000 0.613397
#
# Coordination Sequence:
#
# PCOD9337833 Si02
#       7
#     4   4   4   4   4   4   4
#     4   9  15  23  38  59  83 113 147 179 211 251
#     4   8  12  17  27  46  73 104 137 172 208 247
#     4   8  13  20  30  48  76 107 139 176 213 245
#     4   8  14  25  41  61  85 111 137 168 207 249
#     4   8  13  22  36  55  81 111 142 176 214 253
#     4   9  17  29  45  65  89 115 141 173 214 254
#     4   9  17  28  44  68  91 109 137 176 214 254
#
# _framework density 24.106192
#
# number of rings (size 3 to 8) (size 9 to 14) (size 15 to 20)
#    0.000    3.571    0.000    1.286    0.000    1.143 
#    0.000    2.857    0.000    3.857    0.000    1.000 
#    0.000    3.429    0.000   33.429    0.000    0.571 
#
# Total GULP energy -156186.471257 kJ/mol
# GULP energy per Si atom -5578.088259 kJ/mol
# Density = 2.405133 g / cm^3
# Si number density = 24.106192 Si / 1000 Ang^3
#
#
#
# Elastic Constant Matrix: (Units=GPa)
#
#
# Indices 1 2 3 4 5 6 
#
# 1 107.6417 5.4896 -1.3434 0.0000 0.0000 0.0000
# 2 5.4896 320.2352 69.9985 0.0000 0.0000 0.0000
# 3 -1.3434 69.9985 90.6009 0.0000 0.0000 0.0000
# 4 0.0000 0.0000 0.0000 68.7343 0.0000 0.0000
# 5 0.0000 0.0000 0.0000 0.0000 -0.3230 0.0000
# 6 0.0000 0.0000 0.0000 0.0000 0.0000 0.5861
#
#
#
# Elastic Compliance Matrix: (Units=1/GPa)
#
#
# Indices 1 2 3 4 5 6 
#
# 1 0.009306 -0.000228 0.000314 0.000000 0.000000 0.000000
# 2 -0.000228 0.003763 -0.002911 0.000000 0.000000 0.000000
# 3 0.000314 -0.002911 0.013291 0.000000 0.000000 0.000000
# 4 0.000000 0.000000 0.000000 0.014549 0.000000 0.000000
# 5 0.000000 0.000000 0.000000 0.000000 -3.095932 0.000000
# 6 0.000000 0.000000 0.000000 0.000000 0.000000 1.706224
#
#
# Mechanical properties :
#
#
# Convention : Reuss Voigt Hill
#
# Bulk Modulus (GPa) = 48.28512 74.08523 61.18517
# Shear Modulus (GPa) = -3.74182 43.42167 19.83992
#
# Velocity S-wave (km/s) = -1.24723 4.24874 2.87195
# Velocity P-wave (km/s) = 4.24259 7.40733 6.03606
#
# Compressibility (1/GPa) = 0.02071031
#
# Stress axis : x y z
#
# Youngs Moduli (GPa) = 107.46167 265.75829 75.24014
#
# Poissons Ratio (x) = 0.06065 -0.02365
# Poissons Ratio (y) = 0.02453 0.21899
# Poissons Ratio (z) = -0.03378 0.77350
#
# Static dielectric constant tensor:
#      x y z
#    x 1.860500 0.000000 0.000000 
#    y 0.000000 1.955560 0.000000 
#    z 0.000000 0.000000 1.961020 
# 
# From -- ./inp_files/2311.got.cif
#   From: 2010.05.17/outbox.cif.g08.bks.cpg/sg25_2_cif.got.tgz:2311.got - 2010.06.04 01:04:00.
