data_PCOD9337822
_publ_section_title
;
Structure prediction by ZEFSAII (Michael W. Deem and Ramdas Pophale) SiO2 
 PCOD9337822
Probable space group: P M M 2
;
_chemical_formula_sum "Si O2"
_cell_formula_units_Z 32
_cell_length_a 7.427779
_cell_length_b 15.166572
_cell_length_c 12.911909
_cell_angle_alpha 90.000000
_cell_angle_beta 90.000000
_cell_angle_gamma 90.000000
_cell_volume 1454.577486
_symmetry_space_group_name_H-M "P M M 2"
_symmetry_group_IT_number 25
_symmetry_cell_setting 'orthorhombic'
loop_
_space_group_symop_operation_xyz
x,y,z
-x,-y,z
-x,y,z
x,-y,z
loop_
_atom_site_type_symbol
_atom_site_label
_atom_site_fract_x
_atom_site_fract_y
_atom_site_fract_z
Si Si1 0.220341 0.601399 0.817670
Si Si2 0.212549 0.099817 0.365824
Si Si3 0.220341 0.398601 0.366480
Si Si4 0.787451 0.099817 0.818326
Si Si5 0.779579 0.247820 0.210801
Si Si6 0.220421 0.752180 0.973349
Si Si7 0.792572 0.607636 0.592075
Si Si8 0.713772 0.898946 0.592075
O O1 0.274356 0.500000 0.833907
O O2 0.275232 0.665888 0.909138
O O3 0.284981 0.632254 0.703736
O O4 0.000000 0.601901 0.813341
O O5 0.283119 0.163715 0.277173
O O6 0.232051 0.139570 0.481446
O O7 0.000000 0.092401 0.347797
O O8 0.287999 0.000000 0.365628
O O9 0.274356 0.500000 0.350243
O O10 0.275232 0.334112 0.275012
O O11 0.284981 0.367746 0.480414
O O12 0.000000 0.398099 0.370809
O O13 0.716881 0.163715 0.906978
O O14 0.767949 0.139570 0.702704
O O15 0.000000 0.092401 0.836353
O O16 0.712000 0.000000 0.818523
O O17 0.000000 0.246979 0.210404
O O18 0.721124 0.247115 0.092075
O O19 0.000000 0.753021 0.973746
O O20 0.794181 0.500000 0.592075
O O21 0.000000 0.638038 0.592075
O O22 0.500000 0.902610 0.592075
O O23 0.786754 0.000000 0.592075
#
# Coordination Sequence:
#
# PCOD9337822 Si02
#       8
#     4   4   4   4   4   4   4   4
#     4   8  13  21  33  50  76 110 144 181 225 266
#     4   9  17  29  45  65  91 121 148 177 217 264
#     4   8  13  21  33  50  76 110 144 181 225 266
#     4   9  17  29  45  65  91 121 148 177 217 264
#     4   9  17  26  36  55  83 117 157 189 213 254
#     4   9  17  26  36  55  83 117 157 189 213 254
#     4   7  10  17  28  42  61  89 128 168 207 255
#     4   9  17  30  49  71  92 113 142 183 227 269
#
# _framework density 21.999514000000001
#
# number of rings (size 3 to 8) (size 9 to 14) (size 15 to 20)
#    0.000    3.500    0.000    1.875    0.000    3.500 
#    0.000    8.750    0.000    0.750    0.000    3.500 
#    0.000    2.000    0.000    2.250    0.000    2.500 
#
# Total GULP energy -178480.744347 kJ/mol
# GULP energy per Si atom -5577.523261 kJ/mol
# Density = 2.194944 g / cm^3
# Si number density = 21.999514 Si / 1000 Ang^3
#
#
#
# Elastic Constant Matrix: (Units=GPa)
#
#
# Indices 1 2 3 4 5 6 
#
# 1 70.7713 4.0902 2.9132 0.0000 0.0000 0.0000
# 2 4.0902 115.9390 112.1905 0.0000 0.0000 0.0000
# 3 2.9132 112.1905 265.1500 0.0000 0.0000 0.0000
# 4 0.0000 0.0000 0.0000 36.9908 0.0000 0.0000
# 5 0.0000 0.0000 0.0000 0.0000 -38.4852 0.0000
# 6 0.0000 0.0000 0.0000 0.0000 0.0000 -11.5456
#
#
#
# Elastic Compliance Matrix: (Units=1/GPa)
#
#
# Indices 1 2 3 4 5 6 
#
# 1 0.014160 -0.000591 0.000094 0.000000 0.000000 0.000000
# 2 -0.000591 0.014630 -0.006184 0.000000 0.000000 0.000000
# 3 0.000094 -0.006184 0.006387 0.000000 0.000000 0.000000
# 4 0.000000 0.000000 0.000000 0.027034 0.000000 0.000000
# 5 0.000000 0.000000 0.000000 0.000000 -0.025984 0.000000
# 6 0.000000 0.000000 0.000000 0.000000 0.000000 -0.086613
#
#
# Mechanical properties :
#
#
# Convention : Reuss Voigt Hill
#
# Bulk Modulus (GPa) = 45.83671 76.69425 61.26548
# Shear Modulus (GPa) = -168.04707 19.56976 -74.23866
#
# Velocity S-wave (km/s) = -8.74943 2.98577 -5.81540
# Velocity P-wave (km/s) = 9.01052 6.84280 4.14521
#
# Compressibility (1/GPa) = 0.02181657
#
# Stress axis : x y z
#
# Youngs Moduli (GPa) = 70.62006 68.35344 156.57135
#
# Poissons Ratio (x) = 0.04040 -0.01479
# Poissons Ratio (y) = 0.04174 0.96819
# Poissons Ratio (z) = -0.00667 0.42268
#
# Static dielectric constant tensor:
#      x y z
#    x 1.814460 0.000000 0.000000 
#    y 0.000000 1.813130 0.000000 
#    z 0.000000 0.000000 1.784880 
# 
# From -- ./inp_files/4299.got.cif
#   From: 2010.05.17/outbox.cif.g08.bks.cpg/sg25_3_cif.got.tgz:4299.got - 2010.06.04 01:04:00.
