data_PCOD9337348
_publ_section_title
;
Structure prediction by ZEFSAII (Michael W. Deem and Ramdas Pophale) SiO2 
 PCOD9337348
Probable space group: P M M 2
;
_chemical_formula_sum "Si O2"
_cell_formula_units_Z 21
_cell_length_a 7.490699
_cell_length_b 17.034585
_cell_length_c 7.947242
_cell_angle_alpha 90.000000
_cell_angle_beta 90.000000
_cell_angle_gamma 90.000000
_cell_volume 1014.075620
_symmetry_space_group_name_H-M "P M M 2"
_symmetry_group_IT_number 25
_symmetry_cell_setting 'orthorhombic'
loop_
_space_group_symop_operation_xyz
x,y,z
-x,-y,z
-x,y,z
x,-y,z
loop_
_atom_site_type_symbol
_atom_site_label
_atom_site_fract_x
_atom_site_fract_y
_atom_site_fract_z
Si Si1 0.283316 0.245024 0.950110
Si Si2 0.802539 0.135216 0.636175
Si Si3 0.283316 0.245024 0.322240
Si Si4 0.716874 0.585643 0.834366
Si Si5 0.716874 0.414357 0.437984
Si Si6 0.500000 0.000000 0.636174
O O1 0.500000 0.244946 0.942235
O O2 0.218805 0.190604 0.799678
O O3 0.223241 0.335080 0.923497
O O4 0.230671 0.217615 0.136175
O O5 0.781195 0.190605 0.472672
O O6 0.000000 0.101068 0.636174
O O7 0.654321 0.068848 0.636174
O O8 0.500000 0.244946 0.330114
O O9 0.223241 0.335080 0.348853
O O10 0.500000 0.585117 0.844977
O O11 0.777873 0.500000 0.896632
O O12 0.761561 0.591365 0.636175
O O13 0.500000 0.414883 0.427373
O O14 0.777873 0.500000 0.375717
#
# Coordination Sequence:
#
# PCOD9337348 Si02
#       6
#     4   4   4   4   4   1
#     4  10  19  35  62  93 132 177 216 263 317 370
#     4  12  25  45  72  99 128 164 204 258 321 389
#     4  10  19  35  62  93 132 177 216 263 317 370
#     4   8  13  23  46  83 126 172 222 268 307 354
#     4   8  13  23  46  83 126 172 222 268 307 354
#     4  12  26  52  78  98 130 154 202 256 326 406
#
# _framework density 20.708514000000001
#
# number of rings (size 3 to 8) (size 9 to 14) (size 15 to 20)
#    0.000    2.286    3.810    1.429    0.000    1.524 
#    0.000    5.714    0.000    4.571    0.000    2.667 
#    0.000    0.000    0.000    0.000    0.000    0.000 
#
# Total GULP energy -117007.017619 kJ/mol
# GULP energy per Si atom -5571.762744 kJ/mol
# Density = 2.066138 g / cm^3
# Si number density = 20.708514 Si / 1000 Ang^3
#
#
#
# Elastic Constant Matrix: (Units=GPa)
#
#
# Indices 1 2 3 4 5 6 
#
# 1 114.3839 48.0480 30.3035 0.0000 0.0000 0.0000
# 2 48.0480 156.5646 72.3866 0.0000 0.0000 0.0000
# 3 30.3035 72.3866 133.0541 0.0000 0.0000 0.0000
# 4 0.0000 0.0000 0.0000 -3.1454 0.0000 0.0000
# 5 0.0000 0.0000 0.0000 0.0000 -52.9250 0.0000
# 6 0.0000 0.0000 0.0000 0.0000 0.0000 -64.7381
#
#
#
# Elastic Compliance Matrix: (Units=1/GPa)
#
#
# Indices 1 2 3 4 5 6 
#
# 1 0.010103 -0.002721 -0.000821 0.000000 0.000000 0.000000
# 2 -0.002721 0.009267 -0.004422 0.000000 0.000000 0.000000
# 3 -0.000821 -0.004422 0.010108 0.000000 0.000000 0.000000
# 4 0.000000 0.000000 0.000000 -0.317921 0.000000 0.000000
# 5 0.000000 0.000000 0.000000 0.000000 -0.018895 0.000000
# 6 0.000000 0.000000 0.000000 0.000000 0.000000 -0.015447
#
#
# Mechanical properties :
#
#
# Convention : Reuss Voigt Hill
#
# Bulk Modulus (GPa) = 73.79523 78.38652 76.09087
# Shear Modulus (GPa) = -16.53759 -7.27740 -11.90749
#
# Velocity S-wave (km/s) = -2.82900 -1.87665 -2.40053
# Velocity P-wave (km/s) = 5.00416 5.76530 5.39816
#
# Compressibility (1/GPa) = 0.01355101
#
# Stress axis : x y z
#
# Youngs Moduli (GPa) = 98.98154 107.91556 98.93002
#
# Poissons Ratio (x) = 0.29365 0.08118
# Poissons Ratio (y) = 0.26934 0.43743
# Poissons Ratio (z) = 0.08122 0.47716
#
# Static dielectric constant tensor:
#      x y z
#    x 1.775760 0.000000 0.000000 
#    y 0.000000 1.698160 0.000000 
#    z 0.000000 0.000000 1.724220 
# 
# From -- ./inp_files/1902.got.cif
#   From: 2010.05.17/outbox.cif.g08.bks.cpg/sg25_1_cif.got.tgz:1902.got - 2010.06.04 01:04:00.
