data_PCOD9337252
_publ_section_title
;
Structure prediction by ZEFSAII (Michael W. Deem and Ramdas Pophale) SiO2 
 PCOD9337252
Probable space group: P M M 2
;
_chemical_formula_sum "Si O2"
_cell_formula_units_Z 32
_cell_length_a 7.768418
_cell_length_b 36.380241
_cell_length_c 5.259087
_cell_angle_alpha 90.000000
_cell_angle_beta 90.000000
_cell_angle_gamma 90.000000
_cell_volume 1486.306965
_symmetry_space_group_name_H-M "P M M 2"
_symmetry_group_IT_number 25
_symmetry_cell_setting 'orthorhombic'
loop_
_space_group_symop_operation_xyz
x,y,z
-x,-y,z
-x,y,z
x,-y,z
loop_
_atom_site_type_symbol
_atom_site_label
_atom_site_fract_x
_atom_site_fract_y
_atom_site_fract_z
Si Si1 0.793620 0.330999 0.701520
Si Si2 0.710912 0.457666 0.102724
Si Si3 0.792031 0.085196 0.629981
Si Si4 0.707196 0.415375 0.601609
Si Si5 0.211236 0.290301 0.201646
Si Si6 0.304067 0.830822 0.529178
Si Si7 0.210759 0.042295 0.128822
Si Si8 0.197728 0.789873 0.036988
O O1 0.752387 0.372952 0.638378
O O2 0.729354 0.304657 0.475261
O O3 0.000000 0.327500 0.706378
O O4 0.732907 0.317906 0.977938
O O5 0.500000 0.457579 0.102645
O O6 0.764341 0.500000 0.126318
O O7 0.769695 0.433058 0.339278
O O8 0.768543 0.439295 0.840518
O O9 0.740223 0.127285 0.595864
O O10 0.733581 0.061005 0.390739
O O11 0.000000 0.084240 0.633096
O O12 0.731678 0.066773 0.891120
O O13 0.500000 0.417813 0.598484
O O14 0.269161 0.249474 0.126456
O O15 0.000000 0.289724 0.210204
O O16 0.500000 0.828588 0.445102
O O17 0.201741 0.815846 0.285264
O O18 0.280990 0.807411 0.786949
O O19 0.000000 0.042177 0.127887
O O20 0.265429 0.000000 0.107505
O O21 0.000000 0.783771 0.960586
#
# Coordination Sequence:
#
# PCOD9337252 Si02
#       8
#     4   4   4   4   4   4   4   4
#     4  10  19  34  54  77 105 136 169 209 265 321
#     4   9  17  30  49  71  96 129 170 213 253 297
#     4  10  19  33  55  80 108 148 193 229 273 339
#     4  10  19  31  49  74 100 128 167 211 255 305
#     4   9  19  35  57  80 102 135 180 224 261 314
#     4  12  25  40  58  87 125 156 187 237 299 347
#     4   9  17  30  52  82 110 137 182 243 287 317
#     4  11  22  41  66  87 110 149 202 245 279 335
#
# _framework density 21.529874
#
# number of rings (size 3 to 8) (size 9 to 14) (size 15 to 20)
#    0.000    2.000    0.000    4.500    0.000    6.000 
#    0.000    3.750    0.000    4.500    0.000    0.000 
#    0.000    0.000    0.000    0.000    0.000    0.000 
#
# Total GULP energy -178882.740003 kJ/mol
# GULP energy per Si atom -5590.085625 kJ/mol
# Density = 2.148087 g / cm^3
# Si number density = 21.529874 Si / 1000 Ang^3
#
#
#
# Elastic Constant Matrix: (Units=GPa)
#
#
# Indices 1 2 3 4 5 6 
#
# 1 31.2086 -7.6502 -0.7048 0.0000 0.0000 0.0000
# 2 -7.6502 57.7721 -27.5951 0.0000 0.0000 0.0000
# 3 -0.7048 -27.5951 68.3993 0.0000 0.0000 0.0000
# 4 0.0000 0.0000 0.0000 43.0129 0.0000 0.0000
# 5 0.0000 0.0000 0.0000 0.0000 8.3703 0.0000
# 6 0.0000 0.0000 0.0000 0.0000 0.0000 36.0967
#
#
#
# Elastic Compliance Matrix: (Units=1/GPa)
#
#
# Indices 1 2 3 4 5 6 
#
# 1 0.033499 0.005699 0.002644 0.000000 0.000000 0.000000
# 2 0.005699 0.022411 0.009100 0.000000 0.000000 0.000000
# 3 0.002644 0.009100 0.018319 0.000000 0.000000 0.000000
# 4 0.000000 0.000000 0.000000 0.023249 0.000000 0.000000
# 5 0.000000 0.000000 0.000000 0.000000 0.119470 0.000000
# 6 0.000000 0.000000 0.000000 0.000000 0.000000 0.027703
#
#
# Mechanical properties :
#
#
# Convention : Reuss Voigt Hill
#
# Bulk Modulus (GPa) = 9.16453 9.49774 9.33113
# Shear Modulus (GPa) = 20.31399 30.38466 25.34933
#
# Velocity S-wave (km/s) = 3.07502 3.76078 3.43505
# Velocity P-wave (km/s) = 4.10774 4.82482 4.48065
#
# Compressibility (1/GPa) = 0.10911633
#
# Stress axis : x y z
#
# Youngs Moduli (GPa) = 29.85143 44.62129 54.58912
#
# Poissons Ratio (x) = -0.25430 -0.14436
# Poissons Ratio (y) = -0.17013 -0.49677
# Poissons Ratio (z) = -0.07894 -0.40606
#
# Static dielectric constant tensor:
#      x y z
#    x 1.812300 0.000000 0.000000 
#    y 0.000000 1.736640 0.000000 
#    z 0.000000 0.000000 1.748460 
# 
# From -- ./inp_files/377.got.cif
#   From: 2010.05.17/outbox.cif.g08.bks.cpg/sg25_1_cif.got.tgz:377.got - 2010.06.04 01:04:00.
