data_PCOD9337742
_publ_section_title
;
Structure prediction by ZEFSAII (Michael W. Deem and Ramdas Pophale) SiO2 
 PCOD9337742
Probable space group: P M M 2
;
_chemical_formula_sum "Si O2"
_cell_formula_units_Z 24
_cell_length_a 9.442414
_cell_length_b 8.750511
_cell_length_c 15.926595
_cell_angle_alpha 90.000000
_cell_angle_beta 90.000000
_cell_angle_gamma 90.000000
_cell_volume 1315.950003
_symmetry_space_group_name_H-M "P M M 2"
_symmetry_group_IT_number 25
_symmetry_cell_setting 'orthorhombic'
loop_
_space_group_symop_operation_xyz
x,y,z
-x,-y,z
-x,y,z
x,-y,z
loop_
_atom_site_type_symbol
_atom_site_label
_atom_site_fract_x
_atom_site_fract_y
_atom_site_fract_z
Si Si1 0.163650 0.314021 0.060110
Si Si2 0.333802 0.817517 0.718027
Si Si3 0.164697 0.683237 0.562187
Si Si4 0.832110 0.315935 0.248475
Si Si5 0.668006 0.681887 0.896985
Si Si6 0.664711 0.183075 0.404852
O O1 0.168553 0.500000 0.060503
O O2 0.209641 0.267316 0.153775
O O3 0.000000 0.269706 0.049460
O O4 0.254010 0.262107 0.980734
O O5 0.500000 0.773623 0.706972
O O6 0.239119 0.741627 0.646698
O O7 0.289496 0.764191 0.810999
O O8 0.324880 0.000000 0.711392
O O9 0.169686 0.500000 0.559636
O O10 0.250065 0.748533 0.483156
O O11 0.000000 0.730831 0.558865
O O12 0.817287 0.500000 0.254477
O O13 0.739357 0.238715 0.319778
O O14 0.000000 0.282497 0.259292
O O15 0.500000 0.702753 0.907627
O O16 0.695000 0.500000 0.887545
O O17 0.500000 0.230805 0.407397
O O18 0.669808 0.000000 0.409667
#
# Coordination Sequence:
#
# PCOD9337742 Si02
#       6
#     4   4   4   4   4   4
#     4   8  15  29  50  76 105 136 173 220 267 308
#     4  10  21  37  56  79 109 144 179 216 262 315
#     4  11  24  40  59  83 107 134 173 219 265 315
#     4   9  18  34  56  81 108 140 180 223 266 313
#     4   9  17  30  50  76 105 139 179 220 262 309
#     4  11  24  39  55  79 110 142 176 215 262 316
#
# _framework density 18.237774000000002
#
# number of rings (size 3 to 8) (size 9 to 14) (size 15 to 20)
#    0.000    2.333    0.000    3.500    0.000    9.333 
#    0.000    4.167    0.000    3.000    0.000    0.000 
#    0.000    0.000    0.000    0.000    0.000    0.000 
#
# Total GULP energy -133963.714313 kJ/mol
# GULP energy per Si atom -5581.821430 kJ/mol
# Density = 1.819626 g / cm^3
# Si number density = 18.237774 Si / 1000 Ang^3
#
#
#
# Elastic Constant Matrix: (Units=GPa)
#
#
# Indices 1 2 3 4 5 6 
#
# 1 112.6175 46.5996 110.2963 0.0000 0.0000 0.0000
# 2 46.5996 31.6403 49.8054 0.0000 0.0000 0.0000
# 3 110.2963 49.8054 195.8175 0.0000 0.0000 0.0000
# 4 0.0000 0.0000 0.0000 -72.7902 0.0000 0.0000
# 5 0.0000 0.0000 0.0000 0.0000 42.2340 0.0000
# 6 0.0000 0.0000 0.0000 0.0000 0.0000 21.9359
#
#
#
# Elastic Compliance Matrix: (Units=1/GPa)
#
#
# Indices 1 2 3 4 5 6 
#
# 1 0.030900 -0.030205 -0.009722 0.000000 0.000000 0.000000
# 2 -0.030205 0.082234 -0.003902 0.000000 0.000000 0.000000
# 3 -0.009722 -0.003902 0.011575 0.000000 0.000000 0.000000
# 4 0.000000 0.000000 0.000000 -0.013738 0.000000 0.000000
# 5 0.000000 0.000000 0.000000 0.000000 0.023678 0.000000
# 6 0.000000 0.000000 0.000000 0.000000 0.000000 0.045587
#
#
# Mechanical properties :
#
#
# Convention : Reuss Voigt Hill
#
# Bulk Modulus (GPa) = 26.99067 83.71976 55.35522
# Shear Modulus (GPa) = 17.84144 7.16754 12.50449
#
# Velocity S-wave (km/s) = 3.13112 1.98459 2.62131
# Velocity P-wave (km/s) = 5.28236 7.15931 6.29123
#
# Compressibility (1/GPa) = 0.03704983
#
# Stress axis : x y z
#
# Youngs Moduli (GPa) = 32.36262 12.16035 86.38997
#
# Poissons Ratio (x) = 0.36731 0.83989
# Poissons Ratio (y) = 0.97753 0.33714
# Poissons Ratio (z) = 0.31463 0.04746
#
# Static dielectric constant tensor:
#      x y z
#    x 1.612270 0.000000 0.000000 
#    y 0.000000 1.613020 0.000000 
#    z 0.000000 0.000000 1.609810 
# 
# From -- ./inp_files/5246.got.cif
#   From: 2010.05.17/outbox.cif.g08.bks.cpg/sg25_3_cif.got.tgz:5246.got - 2010.06.04 01:04:00.
