data_PCOD9337426
_publ_section_title
;
Structure prediction by ZEFSAII (Michael W. Deem and Ramdas Pophale) SiO2 
 PCOD9337426
Probable space group: P M M 2
;
_chemical_formula_sum "Si O2"
_cell_formula_units_Z 32
_cell_length_a 8.530784
_cell_length_b 9.763352
_cell_length_c 21.420448
_cell_angle_alpha 90.000000
_cell_angle_beta 90.000000
_cell_angle_gamma 90.000000
_cell_volume 1784.088701
_symmetry_space_group_name_H-M "P M M 2"
_symmetry_group_IT_number 25
_symmetry_cell_setting 'orthorhombic'
loop_
_space_group_symop_operation_xyz
x,y,z
-x,-y,z
-x,y,z
x,-y,z
loop_
_atom_site_type_symbol
_atom_site_label
_atom_site_fract_x
_atom_site_fract_y
_atom_site_fract_z
Si Si1 0.810977 0.839753 0.448330
Si Si2 0.191068 0.341804 0.702498
Si Si3 0.686557 0.658670 0.070245
Si Si4 0.808858 0.341715 0.842887
Si Si5 0.808762 0.841660 0.587979
Si Si6 0.810584 0.842570 0.958329
Si Si7 0.312927 0.341787 0.335800
Si Si8 0.819245 0.333999 0.203283
O O1 0.760781 0.796300 0.518353
O O2 0.742370 0.748193 0.393673
O O3 0.000000 0.831430 0.445876
O O4 0.768702 0.000000 0.440801
O O5 0.235085 0.500000 0.693041
O O6 0.240296 0.301505 0.772646
O O7 0.247522 0.248992 0.645622
O O8 0.000000 0.336415 0.702171
O O9 0.500000 0.658518 0.063694
O O10 0.742161 0.500000 0.062438
O O11 0.730436 0.705784 0.140195
O O12 0.759537 0.756885 0.018614
O O13 0.761395 0.500000 0.854458
O O14 0.755295 0.239499 0.896803
O O15 0.000000 0.341193 0.843336
O O16 0.000000 0.838075 0.588346
O O17 0.763272 0.000000 0.595915
O O18 0.000000 0.844724 0.956526
O O19 0.755822 0.000000 0.959729
O O20 0.500000 0.342588 0.332739
O O21 0.258795 0.500000 0.343549
O O22 0.249382 0.287559 0.269436
O O23 0.810088 0.500000 0.205106
O O24 0.000000 0.293749 0.198146
#
# Coordination Sequence:
#
# PCOD9337426 Si02
#       8
#     4   4   4   4   4   4   4   4
#     4   9  18  32  48  68  96 130 168 206 243 288
#     4   8  13  21  35  59  90 121 154 194 240 287
#     4  10  20  34  53  75  98 127 162 198 239 289
#     4   8  14  25  41  62  91 126 161 198 241 289
#     4   8  14  24  38  58  87 122 157 195 240 288
#     4  10  20  32  47  70  99 130 165 204 244 286
#     4  10  20  33  50  74 102 129 160 200 243 288
#     4   9  17  31  53  78 101 126 157 195 240 288
#
# _framework density 17.936328
#
# number of rings (size 3 to 8) (size 9 to 14) (size 15 to 20)
#    0.000    3.000    0.000    3.000    0.000    5.000 
#    0.000    4.375    0.000    3.750    0.000    0.875 
#    0.000    5.000    0.000    0.000    0.000    0.000 
#
# Total GULP energy -178317.133235 kJ/mol
# GULP energy per Si atom -5572.410414 kJ/mol
# Density = 1.789550 g / cm^3
# Si number density = 17.936328 Si / 1000 Ang^3
#
#
#
# Elastic Constant Matrix: (Units=GPa)
#
#
# Indices 1 2 3 4 5 6 
#
# 1 8.9449 16.2263 20.1697 0.0000 0.0000 0.0000
# 2 16.2263 82.5800 97.5581 0.0000 0.0000 0.0000
# 3 20.1697 97.5581 187.8204 0.0000 0.0000 0.0000
# 4 0.0000 0.0000 0.0000 -20.1622 0.0000 0.0000
# 5 0.0000 0.0000 0.0000 0.0000 -15.9165 0.0000
# 6 0.0000 0.0000 0.0000 0.0000 0.0000 13.8122
#
#
#
# Elastic Compliance Matrix: (Units=1/GPa)
#
#
# Indices 1 2 3 4 5 6 
#
# 1 0.174131 -0.031379 -0.002400 0.000000 0.000000 0.000000
# 2 -0.031379 0.036997 -0.015847 0.000000 0.000000 0.000000
# 3 -0.002400 -0.015847 0.013813 0.000000 0.000000 0.000000
# 4 0.000000 0.000000 0.000000 -0.049598 0.000000 0.000000
# 5 0.000000 0.000000 0.000000 0.000000 -0.062828 0.000000
# 6 0.000000 0.000000 0.000000 0.000000 0.000000 0.072400
#
#
# Mechanical properties :
#
#
# Convention : Reuss Voigt Hill
#
# Bulk Modulus (GPa) = 7.95628 60.80596 34.38112
# Shear Modulus (GPa) = 15.33438 5.23944 10.28691
#
# Velocity S-wave (km/s) = 2.92710 1.71099 2.39743
# Velocity P-wave (km/s) = 3.98363 6.15450 5.18398
#
# Compressibility (1/GPa) = 0.12568687
#
# Stress axis : x y z
#
# Youngs Moduli (GPa) = 5.74281 27.02948 72.39373
#
# Poissons Ratio (x) = 0.84817 0.17378
# Poissons Ratio (y) = 0.18021 1.14723
# Poissons Ratio (z) = 0.01379 0.42834
#
# Static dielectric constant tensor:
#      x y z
#    x 1.610080 0.000000 0.000000 
#    y 0.000000 1.601400 0.000000 
#    z 0.000000 0.000000 1.611700 
# 
# From -- ./inp_files/6497.got.cif
#   From: 2010.05.17/outbox.cif.g08.bks.cpg/sg25_4_cif.got.tgz:6497.got - 2010.06.04 01:04:00.
