data_PCOD9337608
_publ_section_title
;
Structure prediction by ZEFSAII (Michael W. Deem and Ramdas Pophale) SiO2 
 PCOD9337608
Probable space group: P M M 2
;
_chemical_formula_sum "Si O2"
_cell_formula_units_Z 32
_cell_length_a 13.085476
_cell_length_b 13.474594
_cell_length_c 9.665850
_cell_angle_alpha 90.000000
_cell_angle_beta 90.000000
_cell_angle_gamma 90.000000
_cell_volume 1704.296943
_symmetry_space_group_name_H-M "P M M 2"
_symmetry_group_IT_number 25
_symmetry_cell_setting 'orthorhombic'
loop_
_space_group_symop_operation_xyz
x,y,z
-x,-y,z
-x,y,z
x,-y,z
loop_
_atom_site_type_symbol
_atom_site_label
_atom_site_fract_x
_atom_site_fract_y
_atom_site_fract_z
Si Si1 0.615517 0.792572 0.676610
Si Si2 0.773145 0.113637 0.874051
Si Si3 0.892120 0.619476 0.560101
Si Si4 0.720621 0.386560 0.771638
Si Si5 0.118916 0.305139 0.974036
Si Si6 0.616032 0.112944 0.127183
Si Si7 0.616823 0.278899 0.359354
Si Si8 0.815511 0.617145 0.262869
O O1 0.500000 0.832242 0.693410
O O2 0.704700 0.861681 0.738705
O O3 0.629390 0.691457 0.766971
O O4 0.628230 0.762726 0.515369
O O5 0.857584 0.197293 0.907071
O O6 0.809774 0.000000 0.869744
O O7 0.694559 0.125150 0.002525
O O8 0.893692 0.500000 0.573327
O O9 0.794117 0.648872 0.646460
O O10 0.880586 0.641466 0.399384
O O11 0.000000 0.658942 0.614542
O O12 0.688629 0.500000 0.753561
O O13 0.797460 0.375585 0.900001
O O14 0.000000 0.332537 0.955083
O O15 0.147479 0.316479 0.135273
O O16 0.500000 0.126259 0.074645
O O17 0.631276 0.189211 0.251204
O O18 0.625183 0.000000 0.178948
O O19 0.500000 0.315834 0.347829
O O20 0.700245 0.359300 0.312861
O O21 0.827404 0.500000 0.230554
#
# Coordination Sequence:
#
# PCOD9337608 Si02
#       8
#     4   4   4   4   4   4   4   4
#     4  10  21  35  55  83 114 149 188 230 278 334
#     4  10  21  38  60  85 112 143 180 230 287 342
#     4   9  17  30  50  73 100 140 188 233 273 316
#     4  10  20  35  53  78 111 146 187 232 278 330
#     4  11  23  38  58  83 110 144 186 235 286 336
#     4   9  17  32  56  81 106 140 181 225 273 326
#     4  10  20  35  54  81 116 150 186 228 277 336
#     4  11  21  35  53  80 115 150 192 234 276 327
#
# _framework density 18.776071000000002
#
# number of rings (size 3 to 8) (size 9 to 14) (size 15 to 20)
#    0.000    2.000    2.500    1.500    0.000    4.000 
#    0.000    2.500    0.000    1.500    0.000    0.000 
#    0.000    0.000    0.000    0.000    0.000    0.000 
#
# Total GULP energy -178336.896562 kJ/mol
# GULP energy per Si atom -5573.028018 kJ/mol
# Density = 1.873334 g / cm^3
# Si number density = 18.776071 Si / 1000 Ang^3
#
#
#
# Elastic Constant Matrix: (Units=GPa)
#
#
# Indices 1 2 3 4 5 6 
#
# 1 48.1057 -8.8411 7.1728 0.0000 0.0000 0.0000
# 2 -8.8411 46.5869 -3.7601 0.0000 0.0000 0.0000
# 3 7.1728 -3.7601 58.4422 0.0000 0.0000 0.0000
# 4 0.0000 0.0000 0.0000 16.8254 0.0000 0.0000
# 5 0.0000 0.0000 0.0000 0.0000 -15.5998 0.0000
# 6 0.0000 0.0000 0.0000 0.0000 0.0000 3.7575
#
#
#
# Elastic Compliance Matrix: (Units=1/GPa)
#
#
# Indices 1 2 3 4 5 6 
#
# 1 0.021877 0.003956 -0.002431 0.000000 0.000000 0.000000
# 2 0.003956 0.022292 0.000949 0.000000 0.000000 0.000000
# 3 -0.002431 0.000949 0.017470 0.000000 0.000000 0.000000
# 4 0.000000 0.000000 0.000000 0.059434 0.000000 0.000000
# 5 0.000000 0.000000 0.000000 0.000000 -0.064104 0.000000
# 6 0.000000 0.000000 0.000000 0.000000 0.000000 0.266137
#
#
# Mechanical properties :
#
#
# Convention : Reuss Voigt Hill
#
# Bulk Modulus (GPa) = 15.01787 15.80866 15.41326
# Shear Modulus (GPa) = 14.69052 11.56750 13.12901
#
# Velocity S-wave (km/s) = 2.80019 2.48478 2.64719
# Velocity P-wave (km/s) = 4.29773 4.08290 4.19169
#
# Compressibility (1/GPa) = 0.06658736
#
# Stress axis : x y z
#
# Youngs Moduli (GPa) = 45.71023 44.85815 57.24010
#
# Poissons Ratio (x) = -0.17744 0.13912
# Poissons Ratio (y) = -0.18081 -0.05431
# Poissons Ratio (z) = 0.11110 -0.04256
#
# Static dielectric constant tensor:
#      x y z
#    x 1.682200 0.000000 0.000000 
#    y 0.000000 1.646940 0.000000 
#    z 0.000000 0.000000 1.672870 
# 
# From -- ./inp_files/2796.got.cif
#   From: 2010.05.17/outbox.cif.g08.bks.cpg/sg25_2_cif.got.tgz:2796.got - 2010.06.04 01:04:00.
