data_PCOD9337187
_publ_section_title
;
Structure prediction by ZEFSAII (Michael W. Deem and Ramdas Pophale) SiO2 
 PCOD9337187
Probable space group: P M M 2
;
_chemical_formula_sum "Si O2"
_cell_formula_units_Z 16
_cell_length_a 8.027333
_cell_length_b 8.206198
_cell_length_c 12.286579
_cell_angle_alpha 90.000000
_cell_angle_beta 90.000000
_cell_angle_gamma 90.000000
_cell_volume 809.364680
_symmetry_space_group_name_H-M "P M M 2"
_symmetry_group_IT_number 25
_symmetry_cell_setting 'orthorhombic'
loop_
_space_group_symop_operation_xyz
x,y,z
-x,-y,z
-x,y,z
x,-y,z
loop_
_atom_site_type_symbol
_atom_site_label
_atom_site_fract_x
_atom_site_fract_y
_atom_site_fract_z
Si Si1 0.685697 0.301031 0.923860
Si Si2 0.000000 0.693612 0.315371
Si Si3 0.805428 0.303021 0.685787
Si Si4 0.000000 0.300117 0.067598
Si Si5 0.683100 0.193859 0.452928
O O1 0.500000 0.248570 0.955971
O O2 0.687632 0.500000 0.924310
O O3 0.725013 0.250839 0.799842
O O4 0.834577 0.248007 0.002707
O O5 0.000000 0.757597 0.191883
O O6 0.164689 0.743017 0.380997
O O7 0.000000 0.500000 0.308686
O O8 0.798488 0.500000 0.681894
O O9 0.717084 0.237510 0.578597
O O10 0.000000 0.255600 0.684183
O O11 0.000000 0.500000 0.067122
O O12 0.500000 0.258098 0.420959
O O13 0.681671 0.000000 0.442754
#
# Coordination Sequence:
#
# PCOD9337187 Si02
#       5
#     4   2   4   2   4
#     4   9  16  28  49  78 113 146 173 214 274 333
#     4  11  23  38  59  84 112 147 190 241 282 323
#     4  10  18  31  56  87 116 145 179 224 277 334
#     4   9  18  32  49  76 110 141 180 225 272 325
#     4  11  24  40  58  81 113 152 190 231 281 337
#
# _framework density 19.768592999999999
#
# number of rings (size 3 to 8) (size 9 to 14) (size 15 to 20)
#    0.000    2.000    2.500    1.875    0.000    4.000 
#    0.000    2.500    0.000    3.000    0.000    3.500 
#    0.000    0.000    0.000    0.000    0.000    0.000 
#
# Total GULP energy -89356.857236 kJ/mol
# GULP energy per Si atom -5584.803577 kJ/mol
# Density = 1.972360 g / cm^3
# Si number density = 19.768593 Si / 1000 Ang^3
#
#
#
# Elastic Constant Matrix: (Units=GPa)
#
#
# Indices 1 2 3 4 5 6 
#
# 1 218.3513 21.0688 104.1398 0.0000 0.0000 0.0000
# 2 21.0688 12.2686 13.2747 0.0000 0.0000 0.0000
# 3 104.1398 13.2747 167.4792 0.0000 0.0000 0.0000
# 4 0.0000 0.0000 0.0000 -28.6086 0.0000 0.0000
# 5 0.0000 0.0000 0.0000 0.0000 -1.0937 0.0000
# 6 0.0000 0.0000 0.0000 0.0000 0.0000 -126.2753
#
#
#
# Elastic Compliance Matrix: (Units=1/GPa)
#
#
# Indices 1 2 3 4 5 6 
#
# 1 0.007197 -0.008222 -0.003823 0.000000 0.000000 0.000000
# 2 -0.008222 0.098548 -0.002699 0.000000 0.000000 0.000000
# 3 -0.003823 -0.002699 0.008562 0.000000 0.000000 0.000000
# 4 0.000000 0.000000 0.000000 -0.034955 0.000000 0.000000
# 5 0.000000 0.000000 0.000000 0.000000 -0.914311 0.000000
# 6 0.000000 0.000000 0.000000 0.000000 0.000000 -0.007919
#
#
# Mechanical properties :
#
#
# Convention : Reuss Voigt Hill
#
# Bulk Modulus (GPa) = 11.78975 75.00729 43.39852
# Shear Modulus (GPa) = -6.36848 -13.88779 -10.12813
#
# Velocity S-wave (km/s) = -1.79680 -2.65338 -2.26594
# Velocity P-wave (km/s) = 1.29312 5.35143 3.89294
#
# Compressibility (1/GPa) = 0.08481944
#
# Stress axis : x y z
#
# Youngs Moduli (GPa) = 138.95621 10.14731 116.79430
#
# Poissons Ratio (x) = 0.08343 0.44652
# Poissons Ratio (y) = 1.14248 0.31519
# Poissons Ratio (z) = 0.53125 0.02738
#
# Static dielectric constant tensor:
#      x y z
#    x 1.563360 0.000000 0.000000 
#    y 0.000000 1.686970 0.000000 
#    z 0.000000 0.000000 1.666400 
# 
# From -- ./inp_files/3669.got.cif
#   From: 2010.05.17/outbox.cif.g08.bks.cpg/sg25_2_cif.got.tgz:3669.got - 2010.06.04 01:04:00.
