data_PCOD9337410
_publ_section_title
;
Structure prediction by ZEFSAII (Michael W. Deem and Ramdas Pophale) SiO2 
 PCOD9337410
Probable space group: P M M 2
;
_chemical_formula_sum "Si O2"
_cell_formula_units_Z 28
_cell_length_a 7.591014
_cell_length_b 9.530857
_cell_length_c 19.047676
_cell_angle_alpha 90.000000
_cell_angle_beta 90.000000
_cell_angle_gamma 90.000000
_cell_volume 1378.077814
_symmetry_space_group_name_H-M "P M M 2"
_symmetry_group_IT_number 25
_symmetry_cell_setting 'orthorhombic'
loop_
_space_group_symop_operation_xyz
x,y,z
-x,-y,z
-x,y,z
x,-y,z
loop_
_atom_site_type_symbol
_atom_site_label
_atom_site_fract_x
_atom_site_fract_y
_atom_site_fract_z
Si Si1 0.792211 0.157627 0.702440
Si Si2 0.714983 0.164089 0.007102
Si Si3 0.284417 0.838491 0.278177
Si Si4 0.710671 0.161064 0.853703
Si Si5 0.289568 0.342002 0.567923
Si Si6 0.714813 0.336813 0.412344
Si Si7 0.715581 0.338297 0.142072
O O1 0.749839 0.226421 0.778044
O O2 0.744097 0.244546 0.634005
O O3 0.000000 0.143940 0.701167
O O4 0.712675 0.000000 0.700116
O O5 0.500000 0.165690 0.008558
O O6 0.771764 0.216016 0.929471
O O7 0.765725 0.000000 0.014930
O O8 0.774488 0.259094 0.071520
O O9 0.500000 0.838664 0.278366
O O10 0.225314 0.762249 0.349473
O O11 0.229528 0.748908 0.210507
O O12 0.228145 0.000000 0.274104
O O13 0.500000 0.155478 0.858218
O O14 0.777573 0.000000 0.849612
O O15 0.500000 0.351385 0.561578
O O16 0.221557 0.500000 0.580068
O O17 0.226660 0.293745 0.490804
O O18 0.500000 0.333483 0.410934
O O19 0.764729 0.500000 0.401529
O O20 0.500000 0.338422 0.141729
O O21 0.771758 0.500000 0.144709
#
# Coordination Sequence:
#
# PCOD9337410 Si02
#       7
#     4   4   4   4   4   4   4
#     4  10  20  32  47  69  95 121 151 188 230 277
#     4   8  13  22  36  52  71 100 140 180 214 253
#     4   9  15  21  31  50  77 109 143 174 206 251
#     4   8  14  26  44  63  84 114 150 186 225 267
#     4   9  18  32  49  68  90 119 155 192 231 276
#     4   8  14  25  39  55  78 108 142 180 220 261
#     4   9  15  21  30  47  75 109 139 169 210 256
#
# _framework density 20.318155999999998
#
# number of rings (size 3 to 8) (size 9 to 14) (size 15 to 20)
#    0.000    3.286    0.000    3.000    0.000    5.143 
#    0.000    2.143    0.000    2.571    0.000    0.000 
#    0.000    1.143    0.000    6.000    0.000    6.714 
#
# Total GULP energy -156037.065011 kJ/mol
# GULP energy per Si atom -5572.752322 kJ/mol
# Density = 2.027191 g / cm^3
# Si number density = 20.318156 Si / 1000 Ang^3
#
#
#
# Elastic Constant Matrix: (Units=GPa)
#
#
# Indices 1 2 3 4 5 6 
#
# 1 41.6070 3.7915 8.3990 0.0000 0.0000 0.0000
# 2 3.7915 116.9569 127.0783 0.0000 0.0000 0.0000
# 3 8.3990 127.0783 262.9029 0.0000 0.0000 0.0000
# 4 0.0000 0.0000 0.0000 -81.7139 0.0000 0.0000
# 5 0.0000 0.0000 0.0000 0.0000 -34.3225 0.0000
# 6 0.0000 0.0000 0.0000 0.0000 0.0000 -5.2543
#
#
#
# Elastic Compliance Matrix: (Units=1/GPa)
#
#
# Indices 1 2 3 4 5 6 
#
# 1 0.024191 0.000117 -0.000829 0.000000 0.000000 0.000000
# 2 0.000117 0.018008 -0.008708 0.000000 0.000000 0.000000
# 3 -0.000829 -0.008708 0.008040 0.000000 0.000000 0.000000
# 4 0.000000 0.000000 0.000000 -0.012238 0.000000 0.000000
# 5 0.000000 0.000000 0.000000 0.000000 -0.029135 0.000000
# 6 0.000000 0.000000 0.000000 0.000000 0.000000 -0.190319
#
#
# Mechanical properties :
#
#
# Convention : Reuss Voigt Hill
#
# Bulk Modulus (GPa) = 31.84974 77.77826 54.81400
# Shear Modulus (GPa) = -32.86317 -5.44494 -19.15406
#
# Velocity S-wave (km/s) = -4.02609 -1.63880 -3.07368
# Velocity P-wave (km/s) = 2.42961 5.89766 3.79996
#
# Compressibility (1/GPa) = 0.03139743
#
# Stress axis : x y z
#
# Youngs Moduli (GPa) = 41.33736 55.52983 124.38581
#
# Poissons Ratio (x) = -0.00649 0.10316
# Poissons Ratio (y) = -0.00483 1.08320
# Poissons Ratio (z) = 0.03428 0.48357
#
# Static dielectric constant tensor:
#      x y z
#    x 1.747170 0.000000 0.000000 
#    y 0.000000 1.690270 0.000000 
#    z 0.000000 0.000000 1.746110 
# 
# From -- ./inp_files/6416.got.cif
#   From: 2010.05.17/outbox.cif.g08.bks.cpg/sg25_4_cif.got.tgz:6416.got - 2010.06.04 01:04:00.
