data_PCOD9337701
_publ_section_title
;
Structure prediction by ZEFSAII (Michael W. Deem and Ramdas Pophale) SiO2 
 PCOD9337701
Probable space group: P M M 2
;
_chemical_formula_sum "Si O2"
_cell_formula_units_Z 32
_cell_length_a 9.033730
_cell_length_b 14.259420
_cell_length_c 13.305039
_cell_angle_alpha 90.000000
_cell_angle_beta 90.000000
_cell_angle_gamma 90.000000
_cell_volume 1713.898581
_symmetry_space_group_name_H-M "P M M 2"
_symmetry_group_IT_number 25
_symmetry_cell_setting 'orthorhombic'
loop_
_space_group_symop_operation_xyz
x,y,z
-x,-y,z
-x,y,z
x,-y,z
loop_
_atom_site_type_symbol
_atom_site_label
_atom_site_fract_x
_atom_site_fract_y
_atom_site_fract_z
Si Si1 0.677675 0.390451 0.463450
Si Si2 0.331579 0.113812 0.558414
Si Si3 0.678106 0.719517 0.262812
Si Si4 0.822456 0.283120 0.873420
Si Si5 0.321540 0.609972 0.059705
Si Si6 0.176183 0.890872 0.351243
Si Si7 0.321262 0.109501 0.784243
Si Si8 0.176749 0.389258 0.668574
O O1 0.500000 0.386150 0.469996
O O2 0.720288 0.500000 0.454183
O O3 0.723998 0.336650 0.363183
O O4 0.745249 0.353588 0.567439
O O5 0.500000 0.148990 0.544084
O O6 0.234300 0.137692 0.462212
O O7 0.276709 0.138169 0.669964
O O8 0.339282 0.000000 0.560561
O O9 0.500000 0.728230 0.264705
O O10 0.718474 0.661639 0.163664
O O11 0.750229 0.821432 0.271725
O O12 0.755493 0.179422 0.861208
O O13 0.779994 0.337535 0.770729
O O14 0.000000 0.280288 0.879785
O O15 0.755671 0.338160 0.967366
O O16 0.500000 0.615883 0.048653
O O17 0.282012 0.500000 0.063050
O O18 0.000000 0.883526 0.348230
O O19 0.217558 0.000000 0.335702
O O20 0.500000 0.117417 0.788610
O O21 0.283858 0.000000 0.799414
O O22 0.212243 0.500000 0.678747
O O23 0.000000 0.380434 0.656502
#
# Coordination Sequence:
#
# PCOD9337701 Si02
#       8
#     4   4   4   4   4   4   4   4
#     4   9  18  33  54  81 111 141 176 223 279 337
#     4   8  15  30  52  77 108 148 190 232 277 325
#     4  10  21  37  59  85 111 143 187 237 289 340
#     4  11  23  37  57  85 117 152 191 236 289 346
#     4  10  22  42  66  88 111 144 191 244 292 343
#     4  10  21  35  52  79 116 154 192 233 277 333
#     4   9  19  36  57  82 114 152 196 242 285 336
#     4   9  19  35  52  75 112 151 182 219 273 337
#
# _framework density 18.670884000000001
#
# number of rings (size 3 to 8) (size 9 to 14) (size 15 to 20)
#    0.000    2.500    0.000    2.250    1.750    5.750 
#    0.000    3.125    0.000    3.000    0.000    0.000 
#    0.000    0.000    0.000    0.000    0.000    0.000 
#
# Total GULP energy -178646.314957 kJ/mol
# GULP energy per Si atom -5582.697342 kJ/mol
# Density = 1.862839 g / cm^3
# Si number density = 18.670884 Si / 1000 Ang^3
#
#
#
# Elastic Constant Matrix: (Units=GPa)
#
#
# Indices 1 2 3 4 5 6 
#
# 1 23.9047 45.7678 50.2571 0.0000 0.0000 0.0000
# 2 45.7678 132.1427 91.7283 0.0000 0.0000 0.0000
# 3 50.2571 91.7283 149.3526 0.0000 0.0000 0.0000
# 4 0.0000 0.0000 0.0000 38.0891 0.0000 0.0000
# 5 0.0000 0.0000 0.0000 0.0000 119.8405 0.0000
# 6 0.0000 0.0000 0.0000 0.0000 0.0000 20.5518
#
#
#
# Elastic Compliance Matrix: (Units=1/GPa)
#
#
# Indices 1 2 3 4 5 6 
#
# 1 0.246060 -0.048368 -0.053092 0.000000 0.000000 0.000000
# 2 -0.048368 0.022700 0.002335 0.000000 0.000000 0.000000
# 3 -0.053092 0.002335 0.023127 0.000000 0.000000 0.000000
# 4 0.000000 0.000000 0.000000 0.026254 0.000000 0.000000
# 5 0.000000 0.000000 0.000000 0.000000 0.008344 0.000000
# 6 0.000000 0.000000 0.000000 0.000000 0.000000 0.048657
#
#
# Mechanical properties :
#
#
# Convention : Reuss Voigt Hill
#
# Bulk Modulus (GPa) = 10.67989 75.65626 43.16807
# Shear Modulus (GPa) = 8.26984 43.53942 25.90463
#
# Velocity S-wave (km/s) = 2.10687 4.83426 3.72887
# Velocity P-wave (km/s) = 3.41336 8.47166 6.45833
#
# Compressibility (1/GPa) = 0.09363390
#
# Stress axis : x y z
#
# Youngs Moduli (GPa) = 4.06406 44.05380 43.23896
#
# Poissons Ratio (x) = 2.13082 2.29566
# Poissons Ratio (y) = 0.19657 -0.10094
# Poissons Ratio (z) = 0.21577 -0.10285
#
# Static dielectric constant tensor:
#      x y z
#    x 1.614280 0.000000 0.000000 
#    y 0.000000 1.674840 0.000000 
#    z 0.000000 0.000000 1.623360 
# 
# From -- ./inp_files/4210.got.cif
#   From: 2010.05.17/outbox.cif.g08.bks.cpg/sg25_3_cif.got.tgz:4210.got - 2010.06.04 01:04:00.
