data_PCOD9337861
_publ_section_title
;
Structure prediction by ZEFSAII (Michael W. Deem and Ramdas Pophale) SiO2 
 PCOD9337861
Probable space group: P M M 2
;
_chemical_formula_sum "Si O2"
_cell_formula_units_Z 24
_cell_length_a 19.904812
_cell_length_b 7.437093
_cell_length_c 7.889666
_cell_angle_alpha 90.000000
_cell_angle_beta 90.000000
_cell_angle_gamma 90.000000
_cell_volume 1167.938327
_symmetry_space_group_name_H-M "P M M 2"
_symmetry_group_IT_number 25
_symmetry_cell_setting 'orthorhombic'
loop_
_space_group_symop_operation_xyz
x,y,z
-x,-y,z
-x,y,z
x,-y,z
loop_
_atom_site_type_symbol
_atom_site_label
_atom_site_fract_x
_atom_site_fract_y
_atom_site_fract_z
Si Si1 0.422862 0.720000 0.712930
Si Si2 0.183228 0.292413 0.507746
Si Si3 0.923485 0.000000 0.505861
Si Si4 0.076515 0.000000 0.919999
Si Si5 0.668641 0.280757 0.024778
Si Si6 0.331359 0.719243 0.401082
Si Si7 0.183228 0.292413 0.918114
O O1 0.500000 0.777747 0.712930
O O2 0.422891 0.500000 0.712930
O O3 0.381703 0.778421 0.547474
O O4 0.381703 0.778421 0.878386
O O5 0.174199 0.500000 0.458070
O O6 0.254653 0.226130 0.437829
O O7 0.188218 0.285682 0.712930
O O8 0.120592 0.171851 0.454494
O O9 0.925590 0.000000 0.712930
O O10 0.000000 0.000000 0.445577
O O11 0.120592 0.171851 0.971366
O O12 0.000000 0.000000 0.980284
O O13 0.669399 0.500000 0.019250
O O14 0.648248 0.225670 0.212930
O O15 0.745347 0.226130 0.988031
O O16 0.330601 0.500000 0.406610
O O17 0.174199 0.500000 0.967790
#
# Coordination Sequence:
#
# PCOD9337861 Si02
#       7
#     4   4   2   2   4   4   4
#     4   9  16  26  42  69 105 138 171 215 264 312
#     4   9  16  29  49  70  99 138 175 215 261 307
#     4   9  18  30  47  77 107 131 171 218 261 318
#     4   9  18  30  47  77 107 131 171 218 261 318
#     4   9  16  27  45  69  98 135 178 217 256 308
#     4   9  16  27  45  69  98 135 178 217 256 308
#     4   9  16  29  49  70  99 138 175 215 261 307
#
# _framework density 20.549030999999999
#
# number of rings (size 3 to 8) (size 9 to 14) (size 15 to 20)
#    0.000    3.000    1.667    0.000    0.000    1.333 
#    0.000    7.500    0.000    2.000    0.000    7.000 
#    0.000    2.667    0.000    0.333    0.000    0.000 
#
# Total GULP energy -134012.705822 kJ/mol
# GULP energy per Si atom -5583.862743 kJ/mol
# Density = 2.050226 g / cm^3
# Si number density = 20.549031 Si / 1000 Ang^3
#
#
#
# Elastic Constant Matrix: (Units=GPa)
#
#
# Indices 1 2 3 4 5 6 
#
# 1 219.3263 51.4931 93.5743 0.0000 0.0000 0.0000
# 2 51.4931 78.4716 27.7689 0.0000 0.0000 0.0000
# 3 93.5743 27.7689 112.1657 0.0000 0.0000 0.0000
# 4 0.0000 0.0000 0.0000 -4.6964 0.0000 0.0000
# 5 0.0000 0.0000 0.0000 0.0000 -6.2105 0.0000
# 6 0.0000 0.0000 0.0000 0.0000 0.0000 58.7928
#
#
#
# Elastic Compliance Matrix: (Units=1/GPa)
#
#
# Indices 1 2 3 4 5 6 
#
# 1 0.007689 -0.003042 -0.005661 0.000000 0.000000 0.000000
# 2 -0.003042 0.015171 -0.001218 0.000000 0.000000 0.000000
# 3 -0.005661 -0.001218 0.013940 0.000000 0.000000 0.000000
# 4 0.000000 0.000000 0.000000 -0.212928 0.000000 0.000000
# 5 0.000000 0.000000 0.000000 0.000000 -0.161018 0.000000
# 6 0.000000 0.000000 0.000000 0.000000 0.000000 0.017009
#
#
# Mechanical properties :
#
#
# Convention : Reuss Voigt Hill
#
# Bulk Modulus (GPa) = 58.97366 83.95956 71.46661
# Shear Modulus (GPa) = -16.96971 25.38567 4.20798
#
# Velocity S-wave (km/s) = -2.87682 3.51860 1.43256
# Velocity P-wave (km/s) = 4.21029 7.57986 6.13110
#
# Compressibility (1/GPa) = 0.01695672
#
# Stress axis : x y z
#
# Youngs Moduli (GPa) = 130.05463 65.91654 71.73613
#
# Poissons Ratio (x) = 0.20053 0.40613
# Poissons Ratio (y) = 0.39564 0.08737
# Poissons Ratio (z) = 0.73630 0.08028
#
# Static dielectric constant tensor:
#      x y z
#    x 1.671950 0.000000 0.000000 
#    y 0.000000 1.779240 0.000000 
#    z 0.000000 0.000000 1.732310 
# 
# From -- ./inp_files/3380.got.cif
#   From: 2010.05.17/outbox.cif.g08.bks.cpg/sg25_2_cif.got.tgz:3380.got - 2010.06.04 01:04:00.
