data_PCOD9337830
_publ_section_title
;
Structure prediction by ZEFSAII (Michael W. Deem and Ramdas Pophale) SiO2 
 PCOD9337830
Probable space group: P M M 2
;
_chemical_formula_sum "Si O2"
_cell_formula_units_Z 32
_cell_length_a 9.834809
_cell_length_b 7.458484
_cell_length_c 21.592026
_cell_angle_alpha 90.000000
_cell_angle_beta 90.000000
_cell_angle_gamma 90.000000
_cell_volume 1583.834821
_symmetry_space_group_name_H-M "P M M 2"
_symmetry_group_IT_number 25
_symmetry_cell_setting 'orthorhombic'
loop_
_space_group_symop_operation_xyz
x,y,z
-x,-y,z
-x,y,z
x,-y,z
loop_
_atom_site_type_symbol
_atom_site_label
_atom_site_fract_x
_atom_site_fract_y
_atom_site_fract_z
Si Si1 0.657243 0.719485 0.811270
Si Si2 0.154161 0.785096 0.195840
Si Si3 0.344864 0.713766 0.584537
Si Si4 0.157380 0.781257 0.333279
Si Si5 0.843357 0.280617 0.696514
Si Si6 0.665493 0.292970 0.947215
Si Si7 0.345444 0.215240 0.444455
Si Si8 0.653679 0.714306 0.080502
O O1 0.500000 0.772325 0.799430
O O2 0.656416 0.500000 0.812920
O O3 0.758792 0.774417 0.757208
O O4 0.700300 0.783639 0.879907
O O5 0.201114 0.723603 0.264142
O O6 0.251366 0.744102 0.138969
O O7 0.000000 0.718934 0.185585
O O8 0.147046 0.000000 0.199553
O O9 0.500000 0.784405 0.590898
O O10 0.353495 0.500000 0.593146
O O11 0.240664 0.780224 0.636188
O O12 0.298016 0.745540 0.514190
O O13 0.250322 0.717208 0.389443
O O14 0.000000 0.729546 0.341334
O O15 0.160868 0.000000 0.334231
O O16 0.844700 0.500000 0.696165
O O17 0.000000 0.222481 0.696750
O O18 0.500000 0.293338 0.948743
O O19 0.712128 0.500000 0.945817
O O20 0.706411 0.214721 0.013873
O O21 0.500000 0.283296 0.438934
O O22 0.350323 0.000000 0.438943
O O23 0.500000 0.781648 0.091531
O O24 0.644141 0.500000 0.072384
#
# Coordination Sequence:
#
# PCOD9337830 Si02
#       8
#     4   4   4   4   4   4   4   4
#     4   8  12  20  36  55  76 107 143 173 206 251
#     4   9  18  32  48  66  89 118 152 186 219 261
#     4   9  17  29  43  59  83 114 140 162 199 252
#     4   8  15  29  47  64  83 109 141 176 212 251
#     4   9  16  24  35  55  83 110 137 173 210 241
#     4   7  11  21  37  57  82 111 141 173 210 253
#     4   9  17  29  46  67  86 104 133 174 212 245
#     4   9  17  29  45  67  94 120 147 183 226 268
#
# _framework density 20.204125000000001
#
# number of rings (size 3 to 8) (size 9 to 14) (size 15 to 20)
#    0.000    3.500    0.000    2.625    0.000    3.000 
#    0.000    2.500    0.000    4.500    0.000    0.875 
#    0.000    3.000    0.000    0.000    0.000    0.000 
#
# Total GULP energy -178318.718701 kJ/mol
# GULP energy per Si atom -5572.459959 kJ/mol
# Density = 2.015814 g / cm^3
# Si number density = 20.204125 Si / 1000 Ang^3
#
#
#
# Elastic Constant Matrix: (Units=GPa)
#
#
# Indices 1 2 3 4 5 6 
#
# 1 105.1354 4.5414 132.0443 0.0000 0.0000 0.0000
# 2 4.5414 58.3550 4.7698 0.0000 0.0000 0.0000
# 3 132.0443 4.7698 256.5615 0.0000 0.0000 0.0000
# 4 0.0000 0.0000 0.0000 22.4785 0.0000 0.0000
# 5 0.0000 0.0000 0.0000 0.0000 -165.6412 0.0000
# 6 0.0000 0.0000 0.0000 0.0000 0.0000 4.7772
#
#
#
# Elastic Compliance Matrix: (Units=1/GPa)
#
#
# Indices 1 2 3 4 5 6 
#
# 1 0.026953 -0.000965 -0.013854 0.000000 0.000000 0.000000
# 2 -0.000965 0.017197 0.000177 0.000000 0.000000 0.000000
# 3 -0.013854 0.000177 0.011025 0.000000 0.000000 0.000000
# 4 0.000000 0.000000 0.000000 0.044487 0.000000 0.000000
# 5 0.000000 0.000000 0.000000 0.000000 -0.006037 0.000000
# 6 0.000000 0.000000 0.000000 0.000000 0.000000 0.209328
#
#
# Mechanical properties :
#
#
# Convention : Reuss Voigt Hill
#
# Bulk Modulus (GPa) = 38.62407 78.08475 58.35441
# Shear Modulus (GPa) = 14.66847 -9.09735 2.78556
#
# Velocity S-wave (km/s) = 2.69739 -2.12426 1.17546
# Velocity P-wave (km/s) = 5.37212 5.71972 5.54864
#
# Compressibility (1/GPa) = 0.02589059
#
# Stress axis : x y z
#
# Youngs Moduli (GPa) = 37.10156 58.14921 90.70615
#
# Poissons Ratio (x) = 0.05612 1.25664
# Poissons Ratio (y) = 0.03581 -0.01606
# Poissons Ratio (z) = 0.51400 -0.01029
#
# Static dielectric constant tensor:
#      x y z
#    x 1.680090 0.000000 0.000000 
#    y 0.000000 1.797140 0.000000 
#    z 0.000000 0.000000 1.730480 
# 
# From -- ./inp_files/6292.got.cif
#   From: 2010.05.17/outbox.cif.g08.bks.cpg/sg25_4_cif.got.tgz:6292.got - 2010.06.04 01:04:00.
