data_PCOD9337807
_publ_section_title
;
Structure prediction by ZEFSAII (Michael W. Deem and Ramdas Pophale) SiO2 
 PCOD9337807
Probable space group: P M M 2
;
_chemical_formula_sum "Si O2"
_cell_formula_units_Z 32
_cell_length_a 8.311976
_cell_length_b 14.531871
_cell_length_c 13.407835
_cell_angle_alpha 90.000000
_cell_angle_beta 90.000000
_cell_angle_gamma 90.000000
_cell_volume 1619.513122
_symmetry_space_group_name_H-M "P M M 2"
_symmetry_group_IT_number 25
_symmetry_cell_setting 'orthorhombic'
loop_
_space_group_symop_operation_xyz
x,y,z
-x,-y,z
-x,y,z
x,-y,z
loop_
_atom_site_type_symbol
_atom_site_label
_atom_site_fract_x
_atom_site_fract_y
_atom_site_fract_z
Si Si1 0.697568 0.895011 0.837790
Si Si2 0.309392 0.288489 0.748238
Si Si3 0.302432 0.104988 0.274065
Si Si4 0.193563 0.609347 0.166833
Si Si5 0.190728 0.603511 0.555923
Si Si6 0.193560 0.609351 0.945007
Si Si7 0.309390 0.288492 0.363604
Si Si8 0.683392 0.111933 0.055927
O O1 0.500000 0.895412 0.842707
O O2 0.748010 0.816953 0.760727
O O3 0.746642 0.000000 0.816947
O O4 0.757092 0.865900 0.948698
O O5 0.500000 0.286336 0.735006
O O6 0.238695 0.342358 0.655176
O O7 0.270277 0.339001 0.852196
O O8 0.500000 0.104587 0.269147
O O9 0.251992 0.183048 0.351127
O O10 0.242908 0.134098 0.163156
O O11 0.253357 0.000000 0.294909
O O12 0.227908 0.500000 0.173769
O O13 0.270259 0.661002 0.259646
O O14 0.000000 0.619494 0.172122
O O15 0.246020 0.641067 0.055920
O O16 0.260798 0.500000 0.555928
O O17 0.238705 0.657636 0.456668
O O18 0.000000 0.595811 0.555919
O O19 0.227878 0.500000 0.938075
O O20 0.000000 0.619512 0.939710
O O21 0.500000 0.286342 0.376826
O O22 0.500000 0.147662 0.055927
O O23 0.674084 0.000000 0.055926
#
# Coordination Sequence:
#
# PCOD9337807 Si02
#       8
#     4   4   4   4   4   4   4   4
#     4   8  15  28  47  76 115 152 181 213 263 327
#     4  11  22  34  57  89 114 137 179 239 290 320
#     4   8  15  28  47  76 115 152 181 213 263 327
#     4   9  19  36  55  76 109 153 190 218 265 341
#     4  11  25  45  64  77 100 146 193 227 274 349
#     4   9  19  36  55  76 109 153 190 218 265 341
#     4  11  22  34  57  89 114 137 179 239 290 320
#     4   7  10  20  40  66 102 147 182 204 237 301
#
# _framework density 19.759025000000001
#
# number of rings (size 3 to 8) (size 9 to 14) (size 15 to 20)
#    0.000    2.750    0.000    4.125    1.750    5.000 
#    0.000    1.875    0.000    6.750    0.000    1.750 
#    0.000    0.000    0.000    0.000    0.000    0.000 
#
# Total GULP energy -178486.547424 kJ/mol
# GULP energy per Si atom -5577.704607 kJ/mol
# Density = 1.971405 g / cm^3
# Si number density = 19.759025 Si / 1000 Ang^3
#
#
#
# Elastic Constant Matrix: (Units=GPa)
#
#
# Indices 1 2 3 4 5 6 
#
# 1 18.4500 21.8118 21.5263 0.0000 0.0000 0.0000
# 2 21.8118 134.4985 93.1980 0.0000 0.0000 0.0000
# 3 21.5263 93.1980 139.9686 0.0000 0.0000 0.0000
# 4 0.0000 0.0000 0.0000 21.5474 0.0000 0.0000
# 5 0.0000 0.0000 0.0000 0.0000 34.8885 0.0000
# 6 0.0000 0.0000 0.0000 0.0000 0.0000 48.4591
#
#
#
# Elastic Compliance Matrix: (Units=1/GPa)
#
#
# Indices 1 2 3 4 5 6 
#
# 1 0.069602 -0.007185 -0.005920 0.000000 0.000000 0.000000
# 2 -0.007185 0.014546 -0.008580 0.000000 0.000000 0.000000
# 3 -0.005920 -0.008580 0.013768 0.000000 0.000000 0.000000
# 4 0.000000 0.000000 0.000000 0.046409 0.000000 0.000000
# 5 0.000000 0.000000 0.000000 0.000000 0.028663 0.000000
# 6 0.000000 0.000000 0.000000 0.000000 0.000000 0.020636
#
#
# Mechanical properties :
#
#
# Convention : Reuss Voigt Hill
#
# Bulk Modulus (GPa) = 18.33352 62.88768 40.61060
# Shear Modulus (GPa) = 19.59425 31.40439 25.49932
#
# Velocity S-wave (km/s) = 3.15248 3.99101 3.59627
# Velocity P-wave (km/s) = 4.74864 7.28931 6.15157
#
# Compressibility (1/GPa) = 0.05454489
#
# Stress axis : x y z
#
# Youngs Moduli (GPa) = 14.36736 68.74853 72.63181
#
# Poissons Ratio (x) = 0.49398 0.42999
# Poissons Ratio (y) = 0.10323 0.62320
# Poissons Ratio (z) = 0.08506 0.58988
#
# Static dielectric constant tensor:
#      x y z
#    x 1.690180 0.000000 0.000000 
#    y 0.000000 1.734250 0.000000 
#    z 0.000000 0.000000 1.686920 
# 
# From -- ./inp_files/4304.got.cif
#   From: 2010.05.17/outbox.cif.g08.bks.cpg/sg25_3_cif.got.tgz:4304.got - 2010.06.04 01:04:00.
