data_PCOD9337422
_publ_section_title
;
Structure prediction by ZEFSAII (Michael W. Deem and Ramdas Pophale) SiO2 
 PCOD9337422
Probable space group: P M M 2
;
_chemical_formula_sum "Si O2"
_cell_formula_units_Z 28
_cell_length_a 7.470956
_cell_length_b 9.361169
_cell_length_c 19.139523
_cell_angle_alpha 90.000000
_cell_angle_beta 90.000000
_cell_angle_gamma 90.000000
_cell_volume 1338.558556
_symmetry_space_group_name_H-M "P M M 2"
_symmetry_group_IT_number 25
_symmetry_cell_setting 'orthorhombic'
loop_
_space_group_symop_operation_xyz
x,y,z
-x,-y,z
-x,y,z
x,-y,z
loop_
_atom_site_type_symbol
_atom_site_label
_atom_site_fract_x
_atom_site_fract_y
_atom_site_fract_z
Si Si1 0.215205 0.664515 0.668910
Si Si2 0.719357 0.164226 0.381223
Si Si3 0.713136 0.336793 0.516081
Si Si4 0.785327 0.838518 0.106050
Si Si5 0.285902 0.661694 0.245830
Si Si6 0.780696 0.666012 0.971204
Si Si7 0.789168 0.673902 0.818498
O O1 0.280876 0.500000 0.664942
O O2 0.256697 0.727921 0.593255
O O3 0.282160 0.725089 0.743214
O O4 0.000000 0.659899 0.674171
O O5 0.500000 0.164270 0.381183
O O6 0.779730 0.242453 0.451961
O O7 0.779750 0.251081 0.313063
O O8 0.776005 0.000000 0.378390
O O9 0.500000 0.347223 0.507406
O O10 0.785077 0.500000 0.514018
O O11 0.748162 0.745845 0.174513
O O12 0.000000 0.846046 0.099511
O O13 0.716988 0.000000 0.113244
O O14 0.719540 0.760618 0.035970
O O15 0.500000 0.652613 0.253666
O O16 0.215701 0.500000 0.243054
O O17 0.729595 0.500000 0.980833
O O18 0.717524 0.716592 0.894423
O O19 0.000000 0.667844 0.969906
O O20 0.777045 0.500000 0.816997
O O21 0.000000 0.710086 0.819650
#
# Coordination Sequence:
#
# PCOD9337422 Si02
#       7
#     4   4   4   4   4   4   4
#     4   8  13  22  38  61  87 113 143 180 221 263
#     4   9  17  30  48  67  87 115 150 183 217 264
#     4   9  16  26  42  64  87 110 141 182 222 259
#     4  10  20  32  47  70  99 127 154 186 227 275
#     4  10  20  34  53  74  93 116 151 193 233 274
#     4   8  13  23  41  63  86 115 152 190 224 260
#     4   7  10  18  35  59  83 109 145 185 220 256
#
# _framework density 20.918023000000002
#
# number of rings (size 3 to 8) (size 9 to 14) (size 15 to 20)
#    0.000    3.286    0.000    3.000    0.000    3.429 
#    0.000    0.714    0.000    4.714    0.000    6.000 
#    0.000    0.000    0.000    0.000    0.000    0.000 
#
# Total GULP energy -156063.590741 kJ/mol
# GULP energy per Si atom -5573.699669 kJ/mol
# Density = 2.087041 g / cm^3
# Si number density = 20.918023 Si / 1000 Ang^3
#
#
#
# Elastic Constant Matrix: (Units=GPa)
#
#
# Indices 1 2 3 4 5 6 
#
# 1 59.7990 5.8393 3.9262 0.0000 0.0000 0.0000
# 2 5.8393 121.2970 113.4275 0.0000 0.0000 0.0000
# 3 3.9262 113.4275 270.4119 0.0000 0.0000 0.0000
# 4 0.0000 0.0000 0.0000 -30.4569 0.0000 0.0000
# 5 0.0000 0.0000 0.0000 0.0000 21.9179 0.0000
# 6 0.0000 0.0000 0.0000 0.0000 0.0000 2.7875
#
#
#
# Elastic Compliance Matrix: (Units=1/GPa)
#
#
# Indices 1 2 3 4 5 6 
#
# 1 0.016806 -0.000956 0.000157 0.000000 0.000000 0.000000
# 2 -0.000956 0.013619 -0.005699 0.000000 0.000000 0.000000
# 3 0.000157 -0.005699 0.006086 0.000000 0.000000 0.000000
# 4 0.000000 0.000000 0.000000 -0.032833 0.000000 0.000000
# 5 0.000000 0.000000 0.000000 0.000000 0.045625 0.000000
# 6 0.000000 0.000000 0.000000 0.000000 0.000000 0.358745
#
#
# Mechanical properties :
#
#
# Convention : Reuss Voigt Hill
#
# Bulk Modulus (GPa) = 42.52459 77.54376 60.03417
# Shear Modulus (GPa) = 11.65821 20.73736 16.19779
#
# Velocity S-wave (km/s) = 2.36334 3.15201 2.78573
# Velocity P-wave (km/s) = 5.27451 7.09913 6.25372
#
# Compressibility (1/GPa) = 0.02351581
#
# Stress axis : x y z
#
# Youngs Moduli (GPa) = 59.50359 73.42425 164.30377
#
# Poissons Ratio (x) = 0.07018 -0.02578
# Poissons Ratio (y) = 0.05687 0.93636
# Poissons Ratio (z) = -0.00934 0.41844
#
# Static dielectric constant tensor:
#      x y z
#    x 1.821580 0.000000 0.000000 
#    y 0.000000 1.714640 0.000000 
#    z 0.000000 0.000000 1.774720 
# 
# From -- ./inp_files/6239.got.cif
#   From: 2010.05.17/outbox.cif.g08.bks.cpg/sg25_4_cif.got.tgz:6239.got - 2010.06.04 01:04:00.
