data_PCOD9337904
_publ_section_title
;
Structure prediction by ZEFSAII (Michael W. Deem and Ramdas Pophale) SiO2 
 PCOD9337904
Probable space group: P M C 21
;
_chemical_formula_sum "Si O2"
_cell_formula_units_Z 32
_cell_length_a 8.626900
_cell_length_b 11.905011
_cell_length_c 12.924939
_cell_angle_alpha 90.000000
_cell_angle_beta 90.000000
_cell_angle_gamma 90.000000
_cell_volume 1327.434397
_symmetry_space_group_name_H-M "P M C 21"
_symmetry_group_IT_number 26
_symmetry_cell_setting 'orthorhombic'
loop_
_space_group_symop_operation_xyz
x,y,z
-x,-y,1/2+z
-x,y,z
x,-y,1/2+z
loop_
_atom_site_type_symbol
_atom_site_label
_atom_site_fract_x
_atom_site_fract_y
_atom_site_fract_z
Si Si1 0.317880 0.867219 0.827620
Si Si2 0.172750 0.302523 0.483934
Si Si3 0.676046 0.487886 0.926554
Si Si4 0.811479 0.039725 0.989186
Si Si5 0.678583 0.478195 0.194901
Si Si6 0.825712 0.876172 0.165252
Si Si7 0.185170 0.753479 0.621055
Si Si8 0.817052 0.311103 0.795714
O O1 0.500000 0.879475 0.807464
O O2 0.283944 0.770335 0.911472
O O3 0.253111 0.978555 0.886684
O O4 0.233011 0.825960 0.723291
O O5 0.236795 0.427351 0.500733
O O6 0.157803 0.227016 0.585095
O O7 0.000000 0.311622 0.436584
O O8 0.500000 0.468112 0.954103
O O9 0.678037 0.555658 0.817164
O O10 0.756086 0.371466 0.898281
O O11 0.000000 0.027730 0.985052
O O12 0.753750 0.969543 0.091013
O O13 0.776232 0.167243 0.022254
O O14 0.500000 0.507770 0.171236
O O15 0.735958 0.369229 0.132919
O O16 0.777744 0.591365 0.212087
O O17 0.749839 0.809221 0.260743
O O18 0.000000 0.915672 0.194929
O O19 0.000000 0.737061 0.621639
O O20 0.000000 0.296218 0.803725
#
# Coordination Sequence:
#
# PCOD9337904 Si02
#       8
#     4   4   4   4   4   4   4   4
#     4  11  20  31  48  72 103 133 163 206 256 301
#     4  10  17  28  47  70  95 122 157 200 244 286
#     4   9  17  27  40  66  95 119 148 188 234 280
#     4   9  20  36  52  75 101 130 171 210 249 298
#     4   9  18  29  44  69  99 123 154 196 242 289
#     4   8  16  30  48  70  96 121 152 198 240 282
#     4  11  20  32  54  77 100 132 170 212 253 297
#     4   9  15  27  47  67  89 120 153 184 228 279
#
# _framework density 24.106653999999999
#
# number of rings (size 3 to 8) (size 9 to 14) (size 15 to 20)
#    0.750    1.750    1.250    3.375    0.000    1.000 
#    0.000    6.250    0.000    1.500    0.000    5.250 
#    0.000    0.000    0.000    0.000    0.000    0.000 
#
# Total GULP energy -178424.655800 kJ/mol
# GULP energy per Si atom -5575.770494 kJ/mol
# Density = 2.405179 g / cm^3
# Si number density = 24.106654 Si / 1000 Ang^3
#
#
#
# Elastic Constant Matrix: (Units=GPa)
#
#
# Indices 1 2 3 4 5 6 
#
# 1 56.9141 24.4780 -11.2145 0.0000 0.0000 0.0000
# 2 24.4780 161.7046 29.0526 0.0000 0.0000 0.0000
# 3 -11.2145 29.0526 54.2921 0.0000 0.0000 0.0000
# 4 0.0000 0.0000 0.0000 53.7353 0.0000 0.0000
# 5 0.0000 0.0000 0.0000 0.0000 4.7964 0.0000
# 6 0.0000 0.0000 0.0000 0.0000 0.0000 -63.4736
#
#
#
# Elastic Compliance Matrix: (Units=1/GPa)
#
#
# Indices 1 2 3 4 5 6 
#
# 1 0.020729 -0.004323 0.006595 0.000000 0.000000 0.000000
# 2 -0.004323 0.007743 -0.005036 0.000000 0.000000 0.000000
# 3 0.006595 -0.005036 0.022476 0.000000 0.000000 0.000000
# 4 0.000000 0.000000 0.000000 0.018610 0.000000 0.000000
# 5 0.000000 0.000000 0.000000 0.000000 0.208492 0.000000
# 6 0.000000 0.000000 0.000000 0.000000 0.000000 -0.015755
#
#
# Mechanical properties :
#
#
# Convention : Reuss Voigt Hill
#
# Bulk Modulus (GPa) = 22.01675 39.72699 30.87187
# Shear Modulus (GPa) = 17.67009 14.38459 16.02734
#
# Velocity S-wave (km/s) = 2.71033 2.44541 2.58127
# Velocity P-wave (km/s) = 4.35286 4.94862 4.66027
#
# Compressibility (1/GPa) = 0.04541997
#
# Stress axis : x y z
#
# Youngs Moduli (GPa) = 48.24166 129.14317 44.49143
#
# Poissons Ratio (x) = 0.55825 -0.29342
# Poissons Ratio (y) = 0.20854 0.22408
# Poissons Ratio (z) = -0.31815 0.65043
#
# Static dielectric constant tensor:
#      x y z
#    x 1.848500 0.000000 0.000000 
#    y 0.000000 1.975480 0.000000 
#    z 0.000000 0.000000 2.063820 
# 
# From -- ./inp_files/4341.got.cif
#   From: 2010.05.17/outbox.cif.g08.bks.cpg/sg26_3_cif.got.tgz:4341.got - 2010.06.04 01:07:29.
