data_PCOD9337199
_publ_section_title
;
Structure prediction by ZEFSAII (Michael W. Deem and Ramdas Pophale) SiO2 
 PCOD9337199
Probable space group: P M M 2
;
_chemical_formula_sum "Si O2"
_cell_formula_units_Z 32
_cell_length_a 15.895499
_cell_length_b 8.679598
_cell_length_c 12.167889
_cell_angle_alpha 90.000000
_cell_angle_beta 90.000000
_cell_angle_gamma 90.000000
_cell_volume 1678.761561
_symmetry_space_group_name_H-M "P M M 2"
_symmetry_group_IT_number 25
_symmetry_cell_setting 'orthorhombic'
loop_
_space_group_symop_operation_xyz
x,y,z
-x,-y,z
-x,y,z
x,-y,z
loop_
_atom_site_type_symbol
_atom_site_label
_atom_site_fract_x
_atom_site_fract_y
_atom_site_fract_z
Si Si1 0.251129 0.683079 0.750000
Si Si2 0.093780 0.812602 0.360400
Si Si3 0.351913 0.683581 0.117731
Si Si4 0.405935 0.183937 0.888346
Si Si5 0.747763 0.184927 0.505301
Si Si6 0.905276 0.185448 0.884581
Si Si7 0.594721 0.685789 0.363741
Si Si8 0.835345 0.185427 0.123377
O O1 0.251577 0.500000 0.746064
O O2 0.332048 0.740182 0.818122
O O3 0.253847 0.750574 0.627793
O O4 0.167350 0.740511 0.811754
O O5 0.168328 0.761247 0.440673
O O6 0.116885 0.771119 0.235071
O O7 0.000000 0.758661 0.389355
O O8 0.092882 0.000000 0.364261
O O9 0.360518 0.500000 0.103791
O O10 0.390168 0.726445 0.235890
O O11 0.254162 0.731148 0.118800
O O12 0.394279 0.766483 0.014757
O O13 0.500000 0.228394 0.851486
O O14 0.397682 0.000000 0.880275
O O15 0.666529 0.239363 0.437513
O O16 0.748907 0.000000 0.508789
O O17 0.000000 0.234313 0.855686
O O18 0.900344 0.000000 0.872084
O O19 0.886477 0.219486 0.012648
O O20 0.500000 0.730302 0.396249
O O21 0.601683 0.500000 0.371811
O O22 0.821045 0.000000 0.126351
#
# Coordination Sequence:
#
# PCOD9337199 Si02
#       8
#     4   4   4   4   4   4   4   4
#     4  12  26  43  63  87 120 162 204 253 309 367
#     4   9  18  34  59  91 122 154 196 243 293 350
#     4  11  21  35  60  92 128 164 196 237 298 366
#     4  11  24  42  65  92 121 155 200 253 305 362
#     4  11  23  40  63  89 117 155 205 257 302 352
#     4  10  21  38  63  93 125 162 203 249 300 357
#     4  10  22  40  61  87 123 163 199 240 297 363
#     4  10  18  33  60  91 124 159 197 242 296 356
#
# _framework density 19.061671
#
# number of rings (size 3 to 8) (size 9 to 14) (size 15 to 20)
#    0.000    1.500    2.500    3.000    0.000    5.000 
#    0.000    1.250    0.000    3.750    0.000    0.000 
#    0.000    0.000    0.000    0.000    0.000    0.000 
#
# Total GULP energy -178857.125665 kJ/mol
# GULP energy per Si atom -5589.285177 kJ/mol
# Density = 1.901829 g / cm^3
# Si number density = 19.061671 Si / 1000 Ang^3
#
#
#
# Elastic Constant Matrix: (Units=GPa)
#
#
# Indices 1 2 3 4 5 6 
#
# 1 193.3905 53.9713 88.6525 0.0000 0.0000 0.0000
# 2 53.9713 45.4885 47.2960 0.0000 0.0000 0.0000
# 3 88.6525 47.2960 150.3728 0.0000 0.0000 0.0000
# 4 0.0000 0.0000 0.0000 29.3173 0.0000 0.0000
# 5 0.0000 0.0000 0.0000 0.0000 3.7236 0.0000
# 6 0.0000 0.0000 0.0000 0.0000 0.0000 33.9708
#
#
#
# Elastic Compliance Matrix: (Units=1/GPa)
#
#
# Indices 1 2 3 4 5 6 
#
# 1 0.008411 -0.007168 -0.002704 0.000000 0.000000 0.000000
# 2 -0.007168 0.038774 -0.007970 0.000000 0.000000 0.000000
# 3 -0.002704 -0.007970 0.010751 0.000000 0.000000 0.000000
# 4 0.000000 0.000000 0.000000 0.034110 0.000000 0.000000
# 5 0.000000 0.000000 0.000000 0.000000 0.268560 0.000000
# 6 0.000000 0.000000 0.000000 0.000000 0.000000 0.029437
#
#
# Mechanical properties :
#
#
# Convention : Reuss Voigt Hill
#
# Bulk Modulus (GPa) = 44.93778 85.45460 65.19619
# Shear Modulus (GPa) = 11.54350 26.69115 19.11732
#
# Velocity S-wave (km/s) = 2.46354 3.74605 3.17033
# Velocity P-wave (km/s) = 5.63189 7.97737 6.90495
#
# Compressibility (1/GPa) = 0.02225299
#
# Stress axis : x y z
#
# Youngs Moduli (GPa) = 118.89352 25.79018 93.01349
#
# Poissons Ratio (x) = 0.18486 0.25153
# Poissons Ratio (y) = 0.85219 0.74130
# Poissons Ratio (z) = 0.32152 0.20554
#
# Static dielectric constant tensor:
#      x y z
#    x 1.649090 0.000000 0.000000 
#    y 0.000000 1.642930 0.000000 
#    z 0.000000 0.000000 1.634780 
# 
# From -- ./inp_files/4196.got.cif
#   From: 2010.05.17/outbox.cif.g08.bks.cpg/sg25_3_cif.got.tgz:4196.got - 2010.06.04 01:04:00.
