data_PCOD9337325
_publ_section_title
;
Structure prediction by ZEFSAII (Michael W. Deem and Ramdas Pophale) SiO2 
 PCOD9337325
Probable space group: P M M 2
;
_chemical_formula_sum "Si O2"
_cell_formula_units_Z 32
_cell_length_a 13.428268
_cell_length_b 18.272979
_cell_length_c 7.192579
_cell_angle_alpha 90.000000
_cell_angle_beta 90.000000
_cell_angle_gamma 90.000000
_cell_volume 1764.875182
_symmetry_space_group_name_H-M "P M M 2"
_symmetry_group_IT_number 25
_symmetry_cell_setting 'orthorhombic'
loop_
_space_group_symop_operation_xyz
x,y,z
-x,-y,z
-x,y,z
x,-y,z
loop_
_atom_site_type_symbol
_atom_site_label
_atom_site_fract_x
_atom_site_fract_y
_atom_site_fract_z
Si Si1 0.699331 0.802464 0.757690
Si Si2 0.886941 0.699410 0.748204
Si Si3 0.883091 0.581946 0.424690
Si Si4 0.380451 0.203358 0.171498
Si Si5 0.384385 0.688447 0.474246
Si Si6 0.200392 0.413959 0.024339
Si Si7 0.387120 0.413376 0.782389
Si Si8 0.381644 0.085683 0.489963
O O1 0.807004 0.764327 0.744871
O O2 0.627888 0.749336 0.636056
O O3 0.683638 0.879619 0.655433
O O4 0.667368 0.803768 0.970974
O O5 0.871191 0.646779 0.570602
O O6 0.000000 0.726187 0.748949
O O7 0.868937 0.644254 0.920257
O O8 0.865097 0.500000 0.504403
O O9 0.815799 0.591331 0.243359
O O10 0.000000 0.582927 0.365730
O O11 0.500000 0.209674 0.150255
O O12 0.341944 0.273361 0.290535
O O13 0.362321 0.133374 0.304596
O O14 0.500000 0.674777 0.432487
O O15 0.348641 0.617148 0.584527
O O16 0.179981 0.500000 0.976303
O O17 0.310180 0.395477 0.945438
O O18 0.500000 0.385755 0.816120
O O19 0.391980 0.500000 0.770863
O O20 0.500000 0.094723 0.534005
O O21 0.362955 0.000000 0.462784
#
# Coordination Sequence:
#
# PCOD9337325 Si02
#       8
#     4   4   4   4   4   4   4   4
#     4  11  20  34  55  81 111 146 178 215 270 325
#     4  11  23  37  54  78 108 143 187 240 287 327
#     4   9  19  36  58  80 102 135 184 241 298 344
#     4   9  18  32  55  83 112 145 179 213 260 322
#     4   9  17  32  51  75 105 140 182 223 263 318
#     4  10  19  34  55  78 104 140 186 239 291 338
#     4   9  17  31  51  74 104 144 186 227 271 325
#     4   9  19  36  59  90 121 142 170 212 257 317
#
# _framework density 18.131594
#
# number of rings (size 3 to 8) (size 9 to 14) (size 15 to 20)
#    0.000    2.375    1.250    2.625    0.000    3.750 
#    0.000    1.250    0.000    3.375    0.000    7.000 
#    0.000    0.000    0.000    0.000    0.000    0.000 
#
# Total GULP energy -178501.390798 kJ/mol
# GULP energy per Si atom -5578.168462 kJ/mol
# Density = 1.809033 g / cm^3
# Si number density = 18.131594 Si / 1000 Ang^3
#
#
#
# Elastic Constant Matrix: (Units=GPa)
#
#
# Indices 1 2 3 4 5 6 
#
# 1 76.6520 43.3227 38.9572 0.0000 0.0000 0.0000
# 2 43.3227 74.5776 45.5153 0.0000 0.0000 0.0000
# 3 38.9572 45.5153 127.2819 0.0000 0.0000 0.0000
# 4 0.0000 0.0000 0.0000 16.3584 0.0000 0.0000
# 5 0.0000 0.0000 0.0000 0.0000 21.8037 0.0000
# 6 0.0000 0.0000 0.0000 0.0000 0.0000 -6.2563
#
#
#
# Elastic Compliance Matrix: (Units=1/GPa)
#
#
# Indices 1 2 3 4 5 6 
#
# 1 0.020036 -0.010101 -0.002520 0.000000 0.000000 0.000000
# 2 -0.010101 0.022244 -0.004863 0.000000 0.000000 0.000000
# 3 -0.002520 -0.004863 0.010367 0.000000 0.000000 0.000000
# 4 0.000000 0.000000 0.000000 0.061131 0.000000 0.000000
# 5 0.000000 0.000000 0.000000 0.000000 0.045864 0.000000
# 6 0.000000 0.000000 0.000000 0.000000 0.000000 -0.159840
#
#
# Mechanical properties :
#
#
# Convention : Reuss Voigt Hill
#
# Bulk Modulus (GPa) = 56.56439 59.34465 57.95452
# Shear Modulus (GPa) = 122.96455 16.42893 69.69674
#
# Velocity S-wave (km/s) = 8.24409 3.01341 6.20668
# Velocity P-wave (km/s) = 11.04013 6.70138 9.13217
#
# Compressibility (1/GPa) = 0.01767897
#
# Stress axis : x y z
#
# Youngs Moduli (GPa) = 49.91099 44.95532 96.46039
#
# Poissons Ratio (x) = 0.45408 0.24312
# Poissons Ratio (y) = 0.50413 0.46908
# Poissons Ratio (z) = 0.12579 0.21861
#
# Static dielectric constant tensor:
#      x y z
#    x 1.670560 0.000000 0.000000 
#    y 0.000000 1.640370 0.000000 
#    z 0.000000 0.000000 1.630220 
# 
# From -- ./inp_files/981.got.cif
#   From: 2010.05.17/outbox.cif.g08.bks.cpg/sg25_1_cif.got.tgz:981.got - 2010.06.04 01:04:00.
