data_PCOD9337412
_publ_section_title
;
Structure prediction by ZEFSAII (Michael W. Deem and Ramdas Pophale) SiO2 
 PCOD9337412
Probable space group: P M M 2
;
_chemical_formula_sum "Si O2"
_cell_formula_units_Z 28
_cell_length_a 9.693741
_cell_length_b 7.495424
_cell_length_c 18.800081
_cell_angle_alpha 90.000000
_cell_angle_beta 90.000000
_cell_angle_gamma 90.000000
_cell_volume 1365.989425
_symmetry_space_group_name_H-M "P M M 2"
_symmetry_group_IT_number 25
_symmetry_cell_setting 'orthorhombic'
loop_
_space_group_symop_operation_xyz
x,y,z
-x,-y,z
-x,y,z
x,-y,z
loop_
_atom_site_type_symbol
_atom_site_label
_atom_site_fract_x
_atom_site_fract_y
_atom_site_fract_z
Si Si1 0.843448 0.286815 0.498440
Si Si2 0.167739 0.293334 0.918498
Si Si3 0.345238 0.289410 0.203677
Si Si4 0.840337 0.719079 0.073996
Si Si5 0.341631 0.281574 0.628960
Si Si6 0.159699 0.281532 0.763077
Si Si7 0.843870 0.788370 0.336699
O O1 0.850905 0.500000 0.507325
O O2 0.739663 0.220935 0.558571
O O3 0.799778 0.253309 0.417301
O O4 0.000000 0.216604 0.506955
O O5 0.212868 0.500000 0.918343
O O6 0.206576 0.217966 0.841463
O O7 0.000000 0.292422 0.918608
O O8 0.207283 0.218796 0.995522
O O9 0.500000 0.215472 0.208505
O O10 0.357255 0.500000 0.189862
O O11 0.255251 0.217652 0.138059
O O12 0.261102 0.272343 0.276654
O O13 0.840183 0.500000 0.072399
O O14 0.000000 0.771197 0.085297
O O15 0.500000 0.223869 0.629835
O O16 0.341984 0.500000 0.628708
O O17 0.257312 0.226072 0.698893
O O18 0.159800 0.500000 0.765127
O O19 0.000000 0.229143 0.751153
O O20 0.000000 0.715217 0.326581
O O21 0.852223 0.000000 0.330524
#
# Coordination Sequence:
#
# PCOD9337412 Si02
#       7
#     4   4   4   4   4   4   4
#     4   9  17  30  48  67  87 114 147 181 220 268
#     4   7  10  17  31  52  77 108 146 183 218 257
#     4  10  20  32  47  69  96 125 156 188 225 273
#     4   8  13  23  40  60  83 114 152 190 224 260
#     4   9  16  24  35  55  83 113 146 182 217 256
#     4   8  12  19  32  50  76 111 147 180 216 259
#     4  10  21  36  53  72  92 115 148 191 236 280
#
# _framework density 20.497962999999999
#
# number of rings (size 3 to 8) (size 9 to 14) (size 15 to 20)
#    0.000    3.286    0.000    3.000    0.000    4.000 
#    0.000    2.143    0.000    4.286    0.000    0.000 
#    0.000    1.143    0.000    9.143    0.000   11.286 
#
# Total GULP energy -156109.888140 kJ/mol
# GULP energy per Si atom -5575.353148 kJ/mol
# Density = 2.045131 g / cm^3
# Si number density = 20.497963 Si / 1000 Ang^3
#
#
#
# Elastic Constant Matrix: (Units=GPa)
#
#
# Indices 1 2 3 4 5 6 
#
# 1 130.2231 5.5392 139.3311 0.0000 0.0000 0.0000
# 2 5.5392 54.9521 0.1022 0.0000 0.0000 0.0000
# 3 139.3311 0.1022 232.2378 0.0000 0.0000 0.0000
# 4 0.0000 0.0000 0.0000 -43.6257 0.0000 0.0000
# 5 0.0000 0.0000 0.0000 0.0000 0.4309 0.0000
# 6 0.0000 0.0000 0.0000 0.0000 0.0000 -4.9589
#
#
#
# Elastic Compliance Matrix: (Units=1/GPa)
#
#
# Indices 1 2 3 4 5 6 
#
# 1 0.021699 -0.002163 -0.013017 0.000000 0.000000 0.000000
# 2 -0.002163 0.018413 0.001290 0.000000 0.000000 0.000000
# 3 -0.013017 0.001290 0.012115 0.000000 0.000000 0.000000
# 4 0.000000 0.000000 0.000000 -0.022922 0.000000 0.000000
# 5 0.000000 0.000000 0.000000 0.000000 2.320767 0.000000
# 6 0.000000 0.000000 0.000000 0.000000 0.000000 -0.201659
#
#
# Mechanical properties :
#
#
# Convention : Reuss Voigt Hill
#
# Bulk Modulus (GPa) = 40.90678 78.59535 59.75107
# Shear Modulus (GPa) = 2.28902 8.53196 5.41049
#
# Velocity S-wave (km/s) = 1.05789 2.04240 1.62642
# Velocity P-wave (km/s) = 4.63595 6.63235 5.72189
#
# Compressibility (1/GPa) = 0.02444583
#
# Stress axis : x y z
#
# Youngs Moduli (GPa) = 46.08534 54.30856 82.54169
#
# Poissons Ratio (x) = 0.11747 1.07447
# Poissons Ratio (y) = 0.09968 -0.10645
# Poissons Ratio (z) = 0.59991 -0.07004
#
# Static dielectric constant tensor:
#      x y z
#    x 1.694930 0.000000 0.000000 
#    y 0.000000 1.765240 0.000000 
#    z 0.000000 0.000000 1.735890 
# 
# From -- ./inp_files/6402.got.cif
#   From: 2010.05.17/outbox.cif.g08.bks.cpg/sg25_4_cif.got.tgz:6402.got - 2010.06.04 01:04:00.
