data_PCOD9337793
_publ_section_title
;
Structure prediction by ZEFSAII (Michael W. Deem and Ramdas Pophale) SiO2 
 PCOD9337793
Probable space group: P M M 2
;
_chemical_formula_sum "Si O2"
_cell_formula_units_Z 25
_cell_length_a 7.322978
_cell_length_b 21.440541
_cell_length_c 7.748550
_cell_angle_alpha 90.000000
_cell_angle_beta 90.000000
_cell_angle_gamma 90.000000
_cell_volume 1216.589065
_symmetry_space_group_name_H-M "P M M 2"
_symmetry_group_IT_number 25
_symmetry_cell_setting 'orthorhombic'
loop_
_space_group_symop_operation_xyz
x,y,z
-x,-y,z
-x,y,z
x,-y,z
loop_
_atom_site_type_symbol
_atom_site_label
_atom_site_fract_x
_atom_site_fract_y
_atom_site_fract_z
Si Si1 0.290021 0.857977 0.402500
Si Si2 0.780037 0.282487 0.353466
Si Si3 0.777277 0.384915 0.064168
Si Si4 0.211664 0.690667 0.736243
Si Si5 0.500000 0.500000 0.110350
Si Si6 0.721021 0.832048 0.784921
Si Si7 0.276560 0.929175 0.075470
O O1 0.500000 0.877001 0.427128
O O2 0.286336 0.787963 0.325378
O O3 0.211672 0.852113 0.594614
O O4 0.212352 0.904793 0.261687
O O5 0.735631 0.331071 0.204456
O O6 0.711391 0.304912 0.542318
O O7 0.000000 0.278039 0.361906
O O8 0.660651 0.445427 0.106281
O O9 0.000000 0.394469 0.066154
O O10 0.719698 0.358232 0.876311
O O11 0.223528 0.760479 0.813162
O O12 0.000000 0.674661 0.713828
O O13 0.500000 0.831747 0.781817
O O14 0.781437 0.880147 0.930050
O O15 0.500000 0.927815 0.076517
O O16 0.221621 0.000000 0.040767
#
# Coordination Sequence:
#
# PCOD9337793 Si02
#       7
#     4   4   4   4   1   4   4
#     4   9  17  28  46  73  99 125 168 223 267 310
#     4   9  18  34  57  81 105 136 173 220 275 318
#     4  10  22  40  58  81 114 146 183 224 261 317
#     4   9  18  34  57  81 105 136 173 220 275 318
#     4  12  26  40  62  86 112 158 184 208 266 318
#     4   9  17  28  46  73  99 125 168 223 267 310
#     4   9  17  28  42  64  98 138 174 210 261 320
#
# _framework density 20.549257999999998
#
# number of rings (size 3 to 8) (size 9 to 14) (size 15 to 20)
#    0.000    2.720    0.000    1.200    2.240    0.640 
#    0.000    4.800    0.000    5.760    0.000    4.480 
#    0.000    0.000    0.000    0.000    0.000    0.000 
#
# Total GULP energy -139238.502443 kJ/mol
# GULP energy per Si atom -5569.540098 kJ/mol
# Density = 2.050249 g / cm^3
# Si number density = 20.549258 Si / 1000 Ang^3
#
#
#
# Elastic Constant Matrix: (Units=GPa)
#
#
# Indices 1 2 3 4 5 6 
#
# 1 85.2645 -6.7909 0.8812 0.0000 0.0000 0.0000
# 2 -6.7909 32.2993 11.8233 0.0000 0.0000 0.0000
# 3 0.8812 11.8233 38.2179 0.0000 0.0000 0.0000
# 4 0.0000 0.0000 0.0000 -4.8823 0.0000 0.0000
# 5 0.0000 0.0000 0.0000 0.0000 -3.6347 0.0000
# 6 0.0000 0.0000 0.0000 0.0000 0.0000 38.0787
#
#
#
# Elastic Compliance Matrix: (Units=1/GPa)
#
#
# Indices 1 2 3 4 5 6 
#
# 1 0.011976 0.002953 -0.001190 0.000000 0.000000 0.000000
# 2 0.002953 0.035643 -0.011095 0.000000 0.000000 0.000000
# 3 -0.001190 -0.011095 0.029626 0.000000 0.000000 0.000000
# 4 0.000000 0.000000 0.000000 -0.204821 0.000000 0.000000
# 5 0.000000 0.000000 0.000000 0.000000 -0.275127 0.000000
# 6 0.000000 0.000000 0.000000 0.000000 0.000000 0.026261
#
#
# Mechanical properties :
#
#
# Convention : Reuss Voigt Hill
#
# Bulk Modulus (GPa) = 17.07017 18.62321 17.84669
# Shear Modulus (GPa) = -14.78183 15.90355 0.56086
#
# Velocity S-wave (km/s) = -2.68495 2.78497 0.52300
# Velocity P-wave (km/s) = 1.13446 4.40724 3.01138
#
# Compressibility (1/GPa) = 0.05858171
#
# Stress axis : x y z
#
# Youngs Moduli (GPa) = 83.50214 28.05625 33.75467
#
# Poissons Ratio (x) = -0.08286 0.04016
# Poissons Ratio (y) = -0.24662 0.37450
# Poissons Ratio (z) = 0.09935 0.31128
#
# Static dielectric constant tensor:
#      x y z
#    x 1.791240 0.000000 0.000000 
#    y 0.000000 1.665460 0.000000 
#    z 0.000000 0.000000 1.747420 
# 
# From -- ./inp_files/2152.got.cif
#   From: 2010.05.17/outbox.cif.g08.bks.cpg/sg25_2_cif.got.tgz:2152.got - 2010.06.04 01:04:00.
