data_PCOD9337847
_publ_section_title
;
Structure prediction by ZEFSAII (Michael W. Deem and Ramdas Pophale) SiO2 
 PCOD9337847
Probable space group: P M M 2
;
_chemical_formula_sum "Si O2"
_cell_formula_units_Z 32
_cell_length_a 7.477256
_cell_length_b 9.811917
_cell_length_c 21.637147
_cell_angle_alpha 90.000000
_cell_angle_beta 90.000000
_cell_angle_gamma 90.000000
_cell_volume 1587.435584
_symmetry_space_group_name_H-M "P M M 2"
_symmetry_group_IT_number 25
_symmetry_cell_setting 'orthorhombic'
loop_
_space_group_symop_operation_xyz
x,y,z
-x,-y,z
-x,y,z
x,-y,z
loop_
_atom_site_type_symbol
_atom_site_label
_atom_site_fract_x
_atom_site_fract_y
_atom_site_fract_z
Si Si1 0.781971 0.157743 0.846430
Si Si2 0.718381 0.658041 0.235963
Si Si3 0.713757 0.346275 0.099119
Si Si4 0.781112 0.342669 0.732426
Si Si5 0.287663 0.155103 0.346952
Si Si6 0.786220 0.153062 0.984437
Si Si7 0.785416 0.842808 0.481808
Si Si8 0.781797 0.159042 0.617414
O O1 0.722768 0.261027 0.793534
O O2 0.000000 0.159169 0.845267
O O3 0.729687 0.000000 0.834697
O O4 0.723113 0.195786 0.915965
O O5 0.500000 0.660868 0.237340
O O6 0.770035 0.500000 0.243985
O O7 0.775975 0.702209 0.166945
O O8 0.783433 0.752872 0.291406
O O9 0.500000 0.354864 0.103983
O O10 0.782140 0.500000 0.089056
O O11 0.750036 0.251427 0.041152
O O12 0.724319 0.500000 0.731510
O O13 0.723167 0.256723 0.672484
O O14 0.000000 0.342905 0.732304
O O15 0.500000 0.144491 0.337802
O O16 0.263252 0.217743 0.415458
O O17 0.214529 0.000000 0.346303
O O18 0.000000 0.144924 0.979337
O O19 0.718439 0.000000 0.996595
O O20 0.725585 0.790861 0.548918
O O21 0.000000 0.844380 0.483655
O O22 0.721781 0.000000 0.479480
O O23 0.000000 0.158262 0.618420
O O24 0.728333 0.000000 0.625482
#
# Coordination Sequence:
#
# PCOD9337847 Si02
#       8
#     4   4   4   4   4   4   4   4
#     4   8  14  25  39  55  80 113 143 171 207 253
#     4   8  15  29  46  62  83 111 141 173 209 251
#     4   9  18  32  49  68  89 116 151 186 220 263
#     4   9  15  21  32  54  81 105 133 172 212 245
#     4   9  16  26  43  66  85 102 133 176 212 242
#     4   9  18  31  46  67  94 120 147 182 224 267
#     4   8  14  25  40  58  82 111 138 164 202 252
#     4   8  13  22  36  51  70 102 138 165 196 244
#
# _framework density 20.158297000000001
#
# number of rings (size 3 to 8) (size 9 to 14) (size 15 to 20)
#    0.000    3.500    0.000    2.625    0.000    3.000 
#    0.000    3.750    0.000    3.375    0.000    0.875 
#    0.000    5.000    0.000    0.000    0.000    0.000 
#
# Total GULP energy -178286.462635 kJ/mol
# GULP energy per Si atom -5571.451957 kJ/mol
# Density = 2.011242 g / cm^3
# Si number density = 20.158297 Si / 1000 Ang^3
#
#
#
# Elastic Constant Matrix: (Units=GPa)
#
#
# Indices 1 2 3 4 5 6 
#
# 1 53.6212 3.5607 5.5729 0.0000 0.0000 0.0000
# 2 3.5607 106.5552 130.8841 0.0000 0.0000 0.0000
# 3 5.5729 130.8841 253.3766 0.0000 0.0000 0.0000
# 4 0.0000 0.0000 0.0000 -21.2429 0.0000 0.0000
# 5 0.0000 0.0000 0.0000 0.0000 21.2273 0.0000
# 6 0.0000 0.0000 0.0000 0.0000 0.0000 2.4117
#
#
#
# Elastic Compliance Matrix: (Units=1/GPa)
#
#
# Indices 1 2 3 4 5 6 
#
# 1 0.018696 -0.000327 -0.000242 0.000000 0.000000 0.000000
# 2 -0.000327 0.025682 -0.013259 0.000000 0.000000 0.000000
# 3 -0.000242 -0.013259 0.010801 0.000000 0.000000 0.000000
# 4 0.000000 0.000000 0.000000 -0.047075 0.000000 0.000000
# 5 0.000000 0.000000 0.000000 0.000000 0.047109 0.000000
# 6 0.000000 0.000000 0.000000 0.000000 0.000000 0.414648
#
#
# Mechanical properties :
#
#
# Convention : Reuss Voigt Hill
#
# Bulk Modulus (GPa) = 36.33413 77.06537 56.69975
# Shear Modulus (GPa) = 9.86788 18.71491 14.29140
#
# Velocity S-wave (km/s) = 2.21491 3.05027 2.66552
# Velocity P-wave (km/s) = 4.96031 7.12170 6.13691
#
# Compressibility (1/GPa) = 0.02752233
#
# Stress axis : x y z
#
# Youngs Moduli (GPa) = 53.48667 38.93712 92.58198
#
# Poissons Ratio (x) = 0.01275 0.02241
# Poissons Ratio (y) = 0.01751 1.22757
# Poissons Ratio (z) = 0.01295 0.51628
#
# Static dielectric constant tensor:
#      x y z
#    x 1.785900 0.000000 0.000000 
#    y 0.000000 1.687190 0.000000 
#    z 0.000000 0.000000 1.731670 
# 
# From -- ./inp_files/6364.got.cif
#   From: 2010.05.17/outbox.cif.g08.bks.cpg/sg25_4_cif.got.tgz:6364.got - 2010.06.04 01:04:00.
