data_PCOD9337177
_publ_section_title
;
Structure prediction by ZEFSAII (Michael W. Deem and Ramdas Pophale) SiO2 
 PCOD9337177
Probable space group: P M M 2
;
_chemical_formula_sum "Si O2"
_cell_formula_units_Z 28
_cell_length_a 8.374262
_cell_length_b 18.530099
_cell_length_c 9.671134
_cell_angle_alpha 90.000000
_cell_angle_beta 90.000000
_cell_angle_gamma 90.000000
_cell_volume 1500.726960
_symmetry_space_group_name_H-M "P M M 2"
_symmetry_group_IT_number 25
_symmetry_cell_setting 'orthorhombic'
loop_
_space_group_symop_operation_xyz
x,y,z
-x,-y,z
-x,y,z
x,-y,z
loop_
_atom_site_type_symbol
_atom_site_label
_atom_site_fract_x
_atom_site_fract_y
_atom_site_fract_z
Si Si1 0.315213 0.300838 0.199960
Si Si2 0.686516 0.260177 0.668483
Si Si3 0.187200 0.416320 0.704830
Si Si4 0.316140 0.415550 0.005530
Si Si5 0.806406 0.081766 0.159645
Si Si6 0.811052 0.206014 0.958562
Si Si7 0.185304 0.809942 0.399945
O O1 0.500000 0.298852 0.246045
O O2 0.265610 0.379143 0.148192
O O3 0.204307 0.262623 0.309870
O O4 0.292713 0.256877 0.057467
O O5 0.500000 0.261270 0.698848
O O6 0.737879 0.343760 0.638632
O O7 0.775393 0.226813 0.801704
O O8 0.722746 0.207854 0.539670
O O9 0.247722 0.500000 0.679088
O O10 0.000000 0.416744 0.673424
O O11 0.213726 0.401688 0.868859
O O12 0.500000 0.392126 0.977247
O O13 0.317097 0.500000 0.024703
O O14 0.753315 0.127947 0.294407
O O15 0.000000 0.079647 0.169403
O O16 0.746454 0.000000 0.158755
O O17 0.772136 0.126401 0.019184
O O18 0.000000 0.218015 0.985487
O O19 0.000000 0.824184 0.431135
#
# Coordination Sequence:
#
# PCOD9337177 Si02
#       7
#     4   4   4   4   4   4   4
#     4  10  18  31  51  76 105 139 177 221 267 321
#     4  12  23  36  54  78 111 149 187 230 274 327
#     4  10  20  33  52  78 107 140 182 232 281 325
#     4   9  17  29  47  73 104 139 178 220 268 319
#     4   8  16  34  60  87 110 136 176 223 271 326
#     4  10  19  32  55  82 108 138 177 224 268 316
#     4  10  21  36  56  79 107 144 184 227 272 324
#
# _framework density 18.657624999999999
#
# number of rings (size 3 to 8) (size 9 to 14) (size 15 to 20)
#    0.000    2.143    1.429    3.857    0.000    1.429 
#    0.000    1.429    0.000   22.286    0.000    0.000 
#    0.000    0.000    0.000    0.000    0.000    0.000 
#
# Total GULP energy -155931.620517 kJ/mol
# GULP energy per Si atom -5568.986447 kJ/mol
# Density = 1.861516 g / cm^3
# Si number density = 18.657625 Si / 1000 Ang^3
#
#
#
# Elastic Constant Matrix: (Units=GPa)
#
#
# Indices 1 2 3 4 5 6 
#
# 1 34.0066 23.3197 -4.4017 0.0000 0.0000 0.0000
# 2 23.3197 97.3233 29.2822 0.0000 0.0000 0.0000
# 3 -4.4017 29.2822 58.7166 0.0000 0.0000 0.0000
# 4 0.0000 0.0000 0.0000 20.3918 0.0000 0.0000
# 5 0.0000 0.0000 0.0000 0.0000 21.2445 0.0000
# 6 0.0000 0.0000 0.0000 0.0000 0.0000 -1.8901
#
#
#
# Elastic Compliance Matrix: (Units=1/GPa)
#
#
# Indices 1 2 3 4 5 6 
#
# 1 0.038750 -0.011952 0.008866 0.000000 0.000000 0.000000
# 2 -0.011952 0.015776 -0.008763 0.000000 0.000000 0.000000
# 3 0.008866 -0.008763 0.022066 0.000000 0.000000 0.000000
# 4 0.000000 0.000000 0.000000 0.049039 0.000000 0.000000
# 5 0.000000 0.000000 0.000000 0.000000 0.047071 0.000000
# 6 0.000000 0.000000 0.000000 0.000000 0.000000 -0.529066
#
#
# Mechanical properties :
#
#
# Convention : Reuss Voigt Hill
#
# Bulk Modulus (GPa) = 18.90682 31.82745 25.36714
# Shear Modulus (GPa) = -15.87130 17.40566 0.76718
#
# Velocity S-wave (km/s) = -2.91977 3.05765 0.64194
# Velocity P-wave (km/s) = 1.10054 5.43704 3.76498
#
# Compressibility (1/GPa) = 0.05289096
#
# Stress axis : x y z
#
# Youngs Moduli (GPa) = 25.80666 63.38899 45.31880
#
# Poissons Ratio (x) = 0.75764 -0.40177
# Poissons Ratio (y) = 0.30845 0.39715
# Poissons Ratio (z) = -0.22879 0.55550
#
# Static dielectric constant tensor:
#      x y z
#    x 1.649310 0.000000 0.000000 
#    y 0.000000 1.709970 0.000000 
#    z 0.000000 0.000000 1.651710 
# 
# From -- ./inp_files/2316.got.cif
#   From: 2010.05.17/outbox.cif.g08.bks.cpg/sg25_2_cif.got.tgz:2316.got - 2010.06.04 01:04:00.
