data_PCOD9337040
_publ_section_title
;
Structure prediction by ZEFSAII (Michael W. Deem and Ramdas Pophale) SiO2 
 PCOD9337040
Probable space group: I 21 21 21
;
_chemical_formula_sum "Si O2"
_cell_formula_units_Z 28
_cell_length_a 21.000000
_cell_length_b 15.000000
_cell_length_c 9.000000
_cell_angle_alpha 90.000000
_cell_angle_beta 90.000000
_cell_angle_gamma 90.000000
_cell_volume 2835.000000
_symmetry_space_group_name_H-M "I 21 21 21"
_symmetry_group_IT_number 24
_symmetry_cell_setting 'orthorhombic'
loop_
_space_group_symop_operation_xyz
x,y,z
-x,1/2-y,z
x,-y,1/2-z
1/2-x,y,-z
1/2+x,1/2+y,1/2+z
1/2-x,-y,1/2+z
1/2+x,1/2-y,-z
-x,1/2+y,1/2-z
loop_
_atom_site_type_symbol
_atom_site_label
_atom_site_fract_x
_atom_site_fract_y
_atom_site_fract_z
Si Si1 0.329974 0.722957 0.249955
Si Si2 0.238260 0.091733 0.819578
Si Si3 0.482809 0.598213 0.740049
Si Si4 0.931625 0.775675 0.995811
Si Si5 0.622613 0.354131 0.734102
Si Si6 0.607509 0.812033 0.560374
Si Si7 0.724855 0.908146 0.668467
O O1 0.306993 0.825133 0.274130
O O2 0.377463 0.696939 0.118298
O O3 0.368705 0.692850 0.394954
O O4 0.264905 0.667187 0.247073
O O5 0.307788 0.104293 0.742459
O O6 0.211942 0.000000 0.750000
O O7 0.250000 0.089816 0.000000
O O8 0.456115 0.500000 0.750000
O O9 0.558635 0.591071 0.741906
O O10 0.462182 0.651712 0.593102
O O11 0.455496 0.656127 0.877099
O O12 0.000000 0.750000 0.922848
O O13 0.895281 0.696559 0.082595
O O14 0.620600 0.282321 0.865833
O O15 0.652552 0.878587 0.653009
O O16 0.750000 0.912884 0.500000
O O17 0.733225 0.000000 0.750000
#
# Coordination Sequence:
#
# PCOD9337040 Si02
#       7
#     8   8   8   8   8   8   8
#     4  11  22  41  62  88 130 163 204 268 321 372
#     4  12  25  43  65  97 130 168 215 266 322 386
#     4  10  21  39  62  93 121 164 217 260 304 381
#     4   9  22  39  62  91 120 159 211 257 316 379
#     4  10  20  41  64  86 123 165 208 255 310 377
#     4  10  19  38  62  83 123 165 205 250 317 374
#     4  10  21  36  57  88 122 162 206 255 310 376
#
# _framework density 9.8765429999999999
#
# number of rings (size 3 to 8) (size 9 to 14) (size 15 to 20)
#    0.000    1.714    2.857    2.571    2.000    5.714 
#    0.000    0.000    0.000    0.857    0.000    0.000 
#    0.000    0.000    0.000    0.000    0.000    0.000 
#
# Total GULP energy -155949.109767 kJ/mol
# GULP energy per Si atom -5569.611063 kJ/mol
# Density = 0.985406 g / cm^3
# Si number density = 9.876543 Si / 1000 Ang^3
#
#
#
# Elastic Constant Matrix: (Units=GPa)
#
#
# Indices 1 2 3 4 5 6 
#
# 1 76.8570 16.4405 38.7255 0.0000 0.0000 0.0000
# 2 16.4405 74.8663 -23.1246 0.0000 0.0000 0.0000
# 3 38.7255 -23.1246 -17.8014 0.0000 0.0000 0.0000
# 4 0.0000 0.0000 0.0000 41.5251 0.0000 0.0000
# 5 0.0000 0.0000 0.0000 0.0000 -6.4404 0.0000
# 6 0.0000 0.0000 0.0000 0.0000 0.0000 -147.4427
#
#
#
# Elastic Compliance Matrix: (Units=1/GPa)
#
#
# Indices 1 2 3 4 5 6 
#
# 1 0.006659 0.002150 0.011694 0.000000 0.000000 0.000000
# 2 0.002150 0.010226 -0.008608 0.000000 0.000000 0.000000
# 3 0.011694 -0.008608 -0.019554 0.000000 0.000000 0.000000
# 4 0.000000 0.000000 0.000000 0.024082 0.000000 0.000000
# 5 0.000000 0.000000 0.000000 0.000000 -0.155269 0.000000
# 6 0.000000 0.000000 0.000000 0.000000 0.000000 -0.006782
#
#
# Mechanical properties :
#
#
# Convention : Reuss Voigt Hill
#
# Bulk Modulus (GPa) = 128.15845 22.00051 75.07948
# Shear Modulus (GPa) = -33.66798 -15.67957 -24.67378
#
# Velocity S-wave (km/s) = -4.13297 -2.82046 -3.53811
# Velocity P-wave (km/s) = 6.49968 0.74515 4.62607
#
# Compressibility (1/GPa) = 0.00780284
#
# Stress axis : x y z
#
# Youngs Moduli (GPa) = 150.16872 97.78717 -51.13994
#
# Poissons Ratio (x) = -0.21021 0.59803
# Poissons Ratio (y) = -0.32281 -0.44020
# Poissons Ratio (z) = -1.75607 0.84174
#
# Static dielectric constant tensor:
#      x y z
#    x 1.705400 0.000000 0.000000 
#    y 0.000000 1.684160 0.000000 
#    z 0.000000 0.000000 2.379760 
# 
# From -- ./inp_files/15251.got.cif
#   From: 2010.05.17/outbox.ucp.g08.bks.cvg/sg24_8_cif.got.tgz:15251.got - 2010.06.11 15:20:44.
