data_PCOD9337019
_publ_section_title
;
Structure prediction by ZEFSAII (Michael W. Deem and Ramdas Pophale) SiO2 
 PCOD9337019
Probable space group: I 21 21 21
;
_chemical_formula_sum "Si O2"
_cell_formula_units_Z 20
_cell_length_a 22.179259
_cell_length_b 5.157054
_cell_length_c 7.614685
_cell_angle_alpha 90.000000
_cell_angle_beta 90.000000
_cell_angle_gamma 90.000000
_cell_volume 870.964901
_symmetry_space_group_name_H-M "I 21 21 21"
_symmetry_group_IT_number 24
_symmetry_cell_setting 'orthorhombic'
loop_
_space_group_symop_operation_xyz
x,y,z
-x,1/2-y,z
x,-y,1/2-z
1/2-x,y,-z
1/2+x,1/2+y,1/2+z
1/2-x,-y,1/2+z
1/2+x,1/2-y,-z
-x,1/2+y,1/2-z
loop_
_atom_site_type_symbol
_atom_site_label
_atom_site_fract_x
_atom_site_fract_y
_atom_site_fract_z
Si Si1 0.000000 0.250000 0.874440
Si Si2 0.705368 0.500000 0.250000
Si Si3 0.709825 0.000000 0.750000
Si Si4 0.624845 0.658483 0.567060
O O1 0.006780 0.500000 0.750000
O O2 0.941156 0.283949 0.994600
O O3 0.747969 0.249658 0.267050
O O4 0.662784 0.511689 0.418967
O O5 0.663576 0.079740 0.903319
O O6 0.622501 0.500000 0.750000
#
# Coordination Sequence:
#
# PCOD9337019 Si02
#       4
#     4   4   4   8
#     4  12  32  58  84 114 164 214 274 344 400 466
#     4  12  30  54  80 122 172 204 266 332 416 472
#     4  12  30  48  86 122 162 210 262 332 398 494
#     4  12  31  53  86 120 159 218 272 331 402 483
#
# _framework density 22.963035999999999
#
# number of rings (size 3 to 8) (size 9 to 14) (size 15 to 20)
#    0.000    0.000    4.000    1.200   22.400    0.000 
#    0.000    0.000    0.000    0.000    0.000    0.000 
#    0.000    0.000    0.000    0.000    0.000    0.000 
#
# Total GULP energy -56070.085730 kJ/mol
# GULP energy per Si atom -5607.008573 kJ/mol
# Density = 2.291077 g / cm^3
# Si number density = 22.963036 Si / 1000 Ang^3
#
#
#
# Elastic Constant Matrix: (Units=GPa)
#
#
# Indices 1 2 3 4 5 6 
#
# 1 272.3796 108.9982 121.7625 0.0000 0.0000 0.0000
# 2 108.9982 192.5956 87.5724 0.0000 0.0000 0.0000
# 3 121.7625 87.5724 193.2134 0.0000 0.0000 0.0000
# 4 0.0000 0.0000 0.0000 33.4294 0.0000 0.0000
# 5 0.0000 0.0000 0.0000 0.0000 12.0418 0.0000
# 6 0.0000 0.0000 0.0000 0.0000 0.0000 9.3939
#
#
#
# Elastic Compliance Matrix: (Units=1/GPa)
#
#
# Indices 1 2 3 4 5 6 
#
# 1 0.005659 -0.001992 -0.002664 0.000000 0.000000 0.000000
# 2 -0.001992 0.007241 -0.002027 0.000000 0.000000 0.000000
# 3 -0.002664 -0.002027 0.007773 0.000000 0.000000 0.000000
# 4 0.000000 0.000000 0.000000 0.029914 0.000000 0.000000
# 5 0.000000 0.000000 0.000000 0.000000 0.083044 0.000000
# 6 0.000000 0.000000 0.000000 0.000000 0.000000 0.106452
#
#
# Mechanical properties :
#
#
# Convention : Reuss Voigt Hill
#
# Bulk Modulus (GPa) = 136.82131 143.87276 140.34703
# Shear Modulus (GPa) = 19.54023 33.63008 26.58515
#
# Velocity S-wave (km/s) = 2.92026 3.83107 3.40624
# Velocity P-wave (km/s) = 8.43108 9.07522 8.75907
#
# Compressibility (1/GPa) = 0.00730880
#
# Stress axis : x y z
#
# Youngs Moduli (GPa) = 176.70819 138.10413 128.65224
#
# Poissons Ratio (x) = 0.27504 0.34269
# Poissons Ratio (y) = 0.35192 0.26075
# Poissons Ratio (z) = 0.47069 0.27991
#
# Static dielectric constant tensor:
#      x y z
#    x 1.802930 0.000000 0.000000 
#    y 0.000000 2.100030 0.000000 
#    z 0.000000 0.000000 1.900410 
# 
# From -- ./inp_files/15525.got.cif
#   From: 2010.05.17/outbox.cif.g08.bks.cpg/sg24_8_cif.got.tgz:15525.got - 2010.06.04 00:33:39.
