data_PCOD9337638
_publ_section_title
;
Structure prediction by ZEFSAII (Michael W. Deem and Ramdas Pophale) SiO2 
 PCOD9337638
Probable space group: P M M 2
;
_chemical_formula_sum "Si O2"
_cell_formula_units_Z 32
_cell_length_a 18.538297
_cell_length_b 16.775525
_cell_length_c 5.276797
_cell_angle_alpha 90.000000
_cell_angle_beta 90.000000
_cell_angle_gamma 90.000000
_cell_volume 1641.029330
_symmetry_space_group_name_H-M "P M M 2"
_symmetry_group_IT_number 25
_symmetry_cell_setting 'orthorhombic'
loop_
_space_group_symop_operation_xyz
x,y,z
-x,-y,z
-x,y,z
x,-y,z
loop_
_atom_site_type_symbol
_atom_site_label
_atom_site_fract_x
_atom_site_fract_y
_atom_site_fract_z
Si Si1 0.414239 0.811281 0.959350
Si Si2 0.151063 0.667712 0.766937
Si Si3 0.586209 0.089122 0.462904
Si Si4 0.726916 0.743990 0.030382
Si Si5 0.170572 0.806306 0.428532
Si Si6 0.084283 0.593928 0.271423
Si Si7 0.773328 0.087813 0.792425
Si Si8 0.919198 0.087977 0.083409
O O1 0.500000 0.791734 0.954680
O O2 0.393409 0.851677 0.690606
O O3 0.402335 0.874256 0.186675
O O4 0.359178 0.740028 0.026274
O O5 0.137299 0.757107 0.661766
O O6 0.128822 0.614436 0.526577
O O7 0.234347 0.678538 0.854819
O O8 0.109244 0.641271 0.019955
O O9 0.500000 0.082406 0.491919
O O10 0.616561 0.000000 0.484321
O O11 0.773825 0.746919 0.287061
O O12 0.741307 0.835174 0.932693
O O13 0.219957 0.882258 0.504555
O O14 0.106321 0.840707 0.262473
O O15 0.091649 0.500000 0.216633
O O16 0.000000 0.611307 0.322313
O O17 0.742307 0.000000 0.835361
O O18 0.856827 0.083609 0.876152
O O19 0.000000 0.099516 0.986704
O O20 0.917624 0.000000 0.213401
#
# Coordination Sequence:
#
# PCOD9337638 Si02
#       8
#     4   4   4   4   4   4   4   4
#     4  10  21  35  54  78 107 147 195 252 308 358
#     4  11  22  41  62  90 124 162 190 231 280 340
#     4   9  18  32  48  71 104 141 189 251 315 371
#     4  10  22  38  56  78 118 155 199 248 299 357
#     4  10  20  36  52  76 109 151 193 241 294 348
#     4  11  24  43  68  98 129 158 189 226 271 333
#     4   9  19  33  49  71 101 145 199 250 301 350
#     4   9  18  32  48  68  97 137 191 253 302 342
#
# _framework density 19.499956000000001
#
# number of rings (size 3 to 8) (size 9 to 14) (size 15 to 20)
#    0.000    2.125    1.250    1.500    3.500    5.500 
#    0.000    3.125    0.000    0.000    0.000    0.000 
#    0.000    3.000    0.000    0.000    0.000    0.000 
#
# Total GULP energy -178214.798942 kJ/mol
# GULP energy per Si atom -5569.212467 kJ/mol
# Density = 1.945557 g / cm^3
# Si number density = 19.499956 Si / 1000 Ang^3
#
#
#
# Elastic Constant Matrix: (Units=GPa)
#
#
# Indices 1 2 3 4 5 6 
#
# 1 98.7658 22.2881 20.0709 0.0000 0.0000 0.0000
# 2 22.2881 53.5412 21.3261 0.0000 0.0000 0.0000
# 3 20.0709 21.3261 75.9615 0.0000 0.0000 0.0000
# 4 0.0000 0.0000 0.0000 26.2113 0.0000 0.0000
# 5 0.0000 0.0000 0.0000 0.0000 20.3218 0.0000
# 6 0.0000 0.0000 0.0000 0.0000 0.0000 12.4897
#
#
#
# Elastic Compliance Matrix: (Units=1/GPa)
#
#
# Indices 1 2 3 4 5 6 
#
# 1 0.011412 -0.003996 -0.001893 0.000000 0.000000 0.000000
# 2 -0.003996 0.022428 -0.005241 0.000000 0.000000 0.000000
# 3 -0.001893 -0.005241 0.015136 0.000000 0.000000 0.000000
# 4 0.000000 0.000000 0.000000 0.038152 0.000000 0.000000
# 5 0.000000 0.000000 0.000000 0.000000 0.049208 0.000000
# 6 0.000000 0.000000 0.000000 0.000000 0.000000 0.080066
#
#
# Mechanical properties :
#
#
# Convention : Reuss Voigt Hill
#
# Bulk Modulus (GPa) = 37.43174 39.51539 38.47356
# Shear Modulus (GPa) = 20.19650 22.77677 21.48664
#
# Velocity S-wave (km/s) = 3.22175 3.42137 3.32306
# Velocity P-wave (km/s) = 5.75127 5.99300 5.87338
#
# Compressibility (1/GPa) = 0.02671530
#
# Stress axis : x y z
#
# Youngs Moduli (GPa) = 87.63066 44.58665 66.06697
#
# Poissons Ratio (x) = 0.17818 0.12508
# Poissons Ratio (y) = 0.35020 0.34624
# Poissons Ratio (z) = 0.16591 0.23367
#
# Static dielectric constant tensor:
#      x y z
#    x 1.749840 0.000000 0.000000 
#    y 0.000000 1.697090 0.000000 
#    z 0.000000 0.000000 1.784420 
# 
# From -- ./inp_files/1194.got.cif
#   From: 2010.05.17/outbox.cif.g08.bks.cpg/sg25_1_cif.got.tgz:1194.got - 2010.06.04 01:04:00.
