data_PCOD9337654
_publ_section_title
;
Structure prediction by ZEFSAII (Michael W. Deem and Ramdas Pophale) SiO2 
 PCOD9337654
Probable space group: P M M 2
;
_chemical_formula_sum "Si O2"
_cell_formula_units_Z 20
_cell_length_a 15.600417
_cell_length_b 8.641875
_cell_length_c 7.422844
_cell_angle_alpha 90.000000
_cell_angle_beta 90.000000
_cell_angle_gamma 90.000000
_cell_volume 1000.724473
_symmetry_space_group_name_H-M "P M M 2"
_symmetry_group_IT_number 25
_symmetry_cell_setting 'orthorhombic'
loop_
_space_group_symop_operation_xyz
x,y,z
-x,-y,z
-x,y,z
x,-y,z
loop_
_atom_site_type_symbol
_atom_site_label
_atom_site_fract_x
_atom_site_fract_y
_atom_site_fract_z
Si Si1 0.093235 0.314271 0.109830
Si Si2 0.598877 0.313078 0.400126
Si Si3 0.093388 0.814361 0.700613
Si Si4 0.728911 0.684981 0.710095
Si Si5 0.728717 0.816182 0.113802
O O1 0.099234 0.500000 0.098824
O O2 0.180888 0.249032 0.189917
O O3 0.000000 0.274413 0.191472
O O4 0.091749 0.243671 0.908059
O O5 0.500000 0.264218 0.405581
O O6 0.601240 0.500000 0.386801
O O7 0.651298 0.269875 0.579775
O O8 0.650600 0.243940 0.233030
O O9 0.180261 0.740160 0.627487
O O10 0.000000 0.769915 0.623321
O O11 0.100333 0.000000 0.696621
O O12 0.731106 0.500000 0.728081
O O13 0.719834 0.756935 0.908536
O O14 0.732648 0.000000 0.114299
#
# Coordination Sequence:
#
# PCOD9337654 Si02
#       5
#     4   4   4   4   4
#     4   9  16  28  50  79 111 149 191 230 268 318
#     4  10  23  43  63  82 107 143 190 241 287 333
#     4   9  16  27  47  77 113 150 184 221 271 329
#     4  10  20  36  60  86 112 147 190 233 279 331
#     4  11  22  36  58  87 119 152 184 226 283 341
#
# _framework density 19.985520999999999
#
# number of rings (size 3 to 8) (size 9 to 14) (size 15 to 20)
#    0.000    2.200    0.000    6.000    0.000    5.200 
#    0.000    3.000    0.000    1.200    0.000    0.000 
#    0.000    0.000    0.000    0.000    0.000    0.000 
#
# Total GULP energy -111637.732363 kJ/mol
# GULP energy per Si atom -5581.886618 kJ/mol
# Density = 1.994003 g / cm^3
# Si number density = 19.985521 Si / 1000 Ang^3
#
#
#
# Elastic Constant Matrix: (Units=GPa)
#
#
# Indices 1 2 3 4 5 6 
#
# 1 236.0159 57.8896 72.8915 0.0000 0.0000 0.0000
# 2 57.8896 53.1393 26.7497 0.0000 0.0000 0.0000
# 3 72.8915 26.7497 94.1600 0.0000 0.0000 0.0000
# 4 0.0000 0.0000 0.0000 36.4554 0.0000 0.0000
# 5 0.0000 0.0000 0.0000 0.0000 46.3300 0.0000
# 6 0.0000 0.0000 0.0000 0.0000 0.0000 11.4421
#
#
#
# Elastic Compliance Matrix: (Units=1/GPa)
#
#
# Indices 1 2 3 4 5 6 
#
# 1 0.006701 -0.005471 -0.003633 0.000000 0.000000 0.000000
# 2 -0.005471 0.026426 -0.003272 0.000000 0.000000 0.000000
# 3 -0.003633 -0.003272 0.014362 0.000000 0.000000 0.000000
# 4 0.000000 0.000000 0.000000 0.027431 0.000000 0.000000
# 5 0.000000 0.000000 0.000000 0.000000 0.021584 0.000000
# 6 0.000000 0.000000 0.000000 0.000000 0.000000 0.087396
#
#
# Mechanical properties :
#
#
# Convention : Reuss Voigt Hill
#
# Bulk Modulus (GPa) = 43.98188 77.59744 60.78966
# Shear Modulus (GPa) = 23.12335 33.89780 28.51057
#
# Velocity S-wave (km/s) = 3.40517 4.12286 3.78108
# Velocity P-wave (km/s) = 6.12494 7.84698 7.03882
#
# Compressibility (1/GPa) = 0.02273664
#
# Stress axis : x y z
#
# Youngs Moduli (GPa) = 149.23093 37.84187 69.62720
#
# Poissons Ratio (x) = 0.20704 0.25296
# Poissons Ratio (y) = 0.81647 0.22781
# Poissons Ratio (z) = 0.54217 0.12381
#
# Static dielectric constant tensor:
#      x y z
#    x 1.737500 0.000000 0.000000 
#    y 0.000000 1.665620 0.000000 
#    z 0.000000 0.000000 1.743130 
# 
# From -- ./inp_files/2982.got.cif
#   From: 2010.05.17/outbox.cif.g08.bks.cpg/sg25_2_cif.got.tgz:2982.got - 2010.06.04 01:04:00.
