data_PCOD9337048
_publ_section_title
;
Structure prediction by ZEFSAII (Michael W. Deem and Ramdas Pophale) SiO2 
 PCOD9337048
Probable space group: I 21 21 21
;
_chemical_formula_sum "Si O2"
_cell_formula_units_Z 32
_cell_length_a 9.000000
_cell_length_b 15.000000
_cell_length_c 24.000000
_cell_angle_alpha 90.000000
_cell_angle_beta 90.000000
_cell_angle_gamma 90.000000
_cell_volume 3240.000000
_symmetry_space_group_name_H-M "I 21 21 21"
_symmetry_group_IT_number 24
_symmetry_cell_setting 'orthorhombic'
loop_
_space_group_symop_operation_xyz
x,y,z
-x,1/2-y,z
x,-y,1/2-z
1/2-x,y,-z
1/2+x,1/2+y,1/2+z
1/2-x,-y,1/2+z
1/2+x,1/2-y,-z
-x,1/2+y,1/2-z
loop_
_atom_site_type_symbol
_atom_site_label
_atom_site_fract_x
_atom_site_fract_y
_atom_site_fract_z
Si Si1 0.818878 0.653078 0.058994
Si Si2 0.158375 0.200939 0.798964
Si Si3 0.469021 0.843561 0.128266
Si Si4 0.560766 0.342998 0.724133
Si Si5 0.251189 0.352586 0.439659
Si Si6 0.986285 0.970140 0.688326
Si Si7 0.537767 0.962508 0.874966
Si Si8 0.171563 0.372308 0.174944
O O1 0.698743 0.651133 0.108374
O O2 0.841511 0.760533 0.055075
O O3 0.939123 0.579242 0.075472
O O4 0.750000 0.627816 0.000000
O O5 0.273457 0.173086 0.749107
O O6 0.256929 0.273355 0.834015
O O7 0.000000 0.250000 0.784463
O O8 0.100371 0.109645 0.827782
O O9 0.500000 0.750000 0.160230
O O10 0.579180 0.833454 0.075653
O O11 0.503552 0.938207 0.155111
O O12 0.500000 0.250000 0.697284
O O13 0.537491 0.423861 0.681187
O O14 0.444530 0.360333 0.774476
O O15 0.250000 0.398061 0.500000
O O16 0.188840 0.409503 0.388630
O O17 0.818642 0.930609 0.688902
O O18 0.027542 0.000000 0.750000
O O19 0.579856 0.066500 0.869084
#
# Coordination Sequence:
#
# PCOD9337048 Si02
#       8
#     8   8   8   8   8   8   8   8
#     4  10  22  37  54  84 122 158 202 253 308 368
#     4   9  22  41  60  83 123 165 202 249 302 354
#     4  10  22  37  56  86 120 162 204 249 302 368
#     4  10  21  36  55  84 121 159 203 246 299 361
#     4  10  20  38  59  82 118 160 203 253 309 371
#     4  11  22  37  56  84 123 165 207 247 295 360
#     4  12  21  35  60  86 118 162 208 244 307 365
#     4  10  22  39  57  87 123 160 205 252 296 358
#
# _framework density 9.8765429999999999
#
# number of rings (size 3 to 8) (size 9 to 14) (size 15 to 20)
#    0.000    1.750    1.250    3.000    3.500    3.500 
#    2.250    0.000    0.000    0.000    0.000    0.875 
#    0.000    0.000    0.000    0.000    0.000    0.000 
#
# Total GULP energy -178278.131811 kJ/mol
# GULP energy per Si atom -5571.191619 kJ/mol
# Density = 0.985406 g / cm^3
# Si number density = 9.876543 Si / 1000 Ang^3
#
#
#
# Elastic Constant Matrix: (Units=GPa)
#
#
# Indices 1 2 3 4 5 6 
#
# 1 77.8401 32.3754 10.8498 0.0000 0.0000 0.0000
# 2 32.3754 137.7619 38.2925 0.0000 0.0000 0.0000
# 3 10.8498 38.2925 43.7237 0.0000 0.0000 0.0000
# 4 0.0000 0.0000 0.0000 17.2307 0.0000 0.0000
# 5 0.0000 0.0000 0.0000 0.0000 21.0813 0.0000
# 6 0.0000 0.0000 0.0000 0.0000 0.0000 31.6646
#
#
#
# Elastic Compliance Matrix: (Units=1/GPa)
#
#
# Indices 1 2 3 4 5 6 
#
# 1 0.014260 -0.003129 -0.000798 0.000000 0.000000 0.000000
# 2 -0.003129 0.010281 -0.008228 0.000000 0.000000 0.000000
# 3 -0.000798 -0.008228 0.030275 0.000000 0.000000 0.000000
# 4 0.000000 0.000000 0.000000 0.058036 0.000000 0.000000
# 5 0.000000 0.000000 0.000000 0.000000 0.047435 0.000000
# 6 0.000000 0.000000 0.000000 0.000000 0.000000 0.031581
#
#
# Mechanical properties :
#
#
# Convention : Reuss Voigt Hill
#
# Bulk Modulus (GPa) = 32.78065 46.92901 39.85483
# Shear Modulus (GPa) = 22.09005 25.84918 23.96961
#
# Velocity S-wave (km/s) = 3.34774 3.62140 3.48726
# Velocity P-wave (km/s) = 5.61911 6.42615 6.03613
#
# Compressibility (1/GPa) = 0.03050580
#
# Stress axis : x y z
#
# Youngs Moduli (GPa) = 70.12799 97.26375 33.03104
#
# Poissons Ratio (x) = 0.30438 0.02635
# Poissons Ratio (y) = 0.21946 0.27177
# Poissons Ratio (z) = 0.05595 0.80026
#
# Static dielectric constant tensor:
#      x y z
#    x 1.789820 0.000000 0.000000 
#    y 0.000000 1.849950 0.000000 
#    z 0.000000 0.000000 1.727250 
# 
# From -- ./inp_files/35283.got.cif
#   From: 2010.05.17/outbox.ucp.g08.bks.cvg/sg24_18_cif.got.tgz:35283.got - 2010.06.11 15:20:44.
