data_PCOD9337902
_publ_section_title
;
Structure prediction by ZEFSAII (Michael W. Deem and Ramdas Pophale) SiO2 
 PCOD9337902
Probable space group: P M C 21
;
_chemical_formula_sum "Si O2"
_cell_formula_units_Z 32
_cell_length_a 9.167716
_cell_length_b 7.007434
_cell_length_c 21.245666
_cell_angle_alpha 90.000000
_cell_angle_beta 90.000000
_cell_angle_gamma 90.000000
_cell_volume 1364.867576
_symmetry_space_group_name_H-M "P M C 21"
_symmetry_group_IT_number 26
_symmetry_cell_setting 'orthorhombic'
loop_
_space_group_symop_operation_xyz
x,y,z
-x,-y,1/2+z
-x,y,z
x,-y,1/2+z
loop_
_atom_site_type_symbol
_atom_site_label
_atom_site_fract_x
_atom_site_fract_y
_atom_site_fract_z
Si Si1 0.335140 0.565973 0.263970
Si Si2 0.335719 0.374100 0.526903
Si Si3 0.159270 0.326225 0.649484
Si Si4 0.331904 0.015587 0.307714
Si Si5 0.332050 0.825286 0.557589
Si Si6 0.677765 0.509499 0.400701
Si Si7 0.174866 0.911181 0.432348
Si Si8 0.835198 0.888199 0.687092
O O1 0.500000 0.518213 0.245549
O O2 0.236365 0.547408 0.202681
O O3 0.334829 0.790626 0.285711
O O4 0.295386 0.459210 0.328404
O O5 0.500000 0.303330 0.531806
O O6 0.244334 0.301030 0.584847
O O7 0.337271 0.603694 0.537229
O O8 0.286072 0.357769 0.454860
O O9 0.149607 0.117121 0.678978
O O10 0.000000 0.401798 0.634577
O O11 0.500000 0.069342 0.320336
O O12 0.238281 0.021463 0.371595
O O13 0.263750 0.129197 0.249049
O O14 0.500000 0.885854 0.566937
O O15 0.253839 0.938601 0.500267
O O16 0.242746 0.829501 0.622345
O O17 0.500000 0.550396 0.405517
O O18 0.775996 0.693970 0.415201
O O19 0.000000 0.929895 0.437846
O O20 0.000000 0.813105 0.694457
#
# Coordination Sequence:
#
# PCOD9337902 Si02
#       8
#     4   4   4   4   4   4   4   4
#     4   8  14  26  45  66  90 120 155 195 236 275
#     4   9  18  32  50  71  96 125 160 198 237 283
#     4  10  20  31  46  71 101 128 157 193 237 287
#     4   9  16  28  46  68  94 125 160 198 237 282
#     4  10  20  34  51  72  97 128 164 202 242 289
#     4   8  15  28  45  67  92 120 157 199 238 281
#     4  10  17  26  44  70  97 124 155 198 244 283
#     4  10  20  33  49  73 101 128 160 201 245 290
#
# _framework density 23.445499000000002
#
# number of rings (size 3 to 8) (size 9 to 14) (size 15 to 20)
#    0.000    2.750    0.000    4.125    0.000    7.000 
#    0.000    0.000    0.000    1.500    0.000    1.750 
#    0.000    0.000    0.000    0.000    0.000    0.000 
#
# Total GULP energy -178825.769922 kJ/mol
# GULP energy per Si atom -5588.305310 kJ/mol
# Density = 2.339214 g / cm^3
# Si number density = 23.445499 Si / 1000 Ang^3
#
#
#
# Elastic Constant Matrix: (Units=GPa)
#
#
# Indices 1 2 3 4 5 6 
#
# 1 145.3275 -5.4969 101.9680 0.0000 0.0000 0.0000
# 2 -5.4969 53.6316 14.4088 0.0000 0.0000 0.0000
# 3 101.9680 14.4088 192.2198 0.0000 0.0000 0.0000
# 4 0.0000 0.0000 0.0000 44.3583 0.0000 0.0000
# 5 0.0000 0.0000 0.0000 0.0000 20.0047 0.0000
# 6 0.0000 0.0000 0.0000 0.0000 0.0000 13.2898
#
#
#
# Elastic Compliance Matrix: (Units=1/GPa)
#
#
# Indices 1 2 3 4 5 6 
#
# 1 0.011370 0.002843 -0.006245 0.000000 0.000000 0.000000
# 2 0.002843 0.019740 -0.002988 0.000000 0.000000 0.000000
# 3 -0.006245 -0.002988 0.008739 0.000000 0.000000 0.000000
# 4 0.000000 0.000000 0.000000 0.022544 0.000000 0.000000
# 5 0.000000 0.000000 0.000000 0.000000 0.049988 0.000000
# 6 0.000000 0.000000 0.000000 0.000000 0.000000 0.075246
#
#
# Mechanical properties :
#
#
# Convention : Reuss Voigt Hill
#
# Bulk Modulus (GPa) = 36.94130 68.10430 52.52280
# Shear Modulus (GPa) = 23.87445 34.21715 29.04580
#
# Velocity S-wave (km/s) = 3.19454 3.82440 3.52357
# Velocity P-wave (km/s) = 5.42192 6.97226 6.24538
#
# Compressibility (1/GPa) = 0.02706997
#
# Stress axis : x y z
#
# Youngs Moduli (GPa) = 87.95008 50.65892 114.42949
#
# Poissons Ratio (x) = -0.14403 0.71458
# Poissons Ratio (y) = -0.25005 0.34190
# Poissons Ratio (z) = 0.54922 0.15136
#
# Static dielectric constant tensor:
#      x y z
#    x 1.815500 0.000000 0.000000 
#    y 0.000000 2.009480 0.000000 
#    z 0.000000 0.000000 1.872280 
# 
# From -- ./inp_files/5050.got.cif
#   From: 2010.05.17/outbox.cif.g08.bks.cpg/sg26_3_cif.got.tgz:5050.got - 2010.06.04 01:07:29.
