data_PCOD9337991
_publ_section_title
;
Structure prediction by ZEFSAII (Michael W. Deem and Ramdas Pophale) SiO2 
 PCOD9337991
Probable space group: P M C 21
;
_chemical_formula_sum "Si O2"
_cell_formula_units_Z 32
_cell_length_a 8.549458
_cell_length_b 11.611421
_cell_length_c 16.735349
_cell_angle_alpha 90.000000
_cell_angle_beta 90.000000
_cell_angle_gamma 90.000000
_cell_volume 1661.340791
_symmetry_space_group_name_H-M "P M C 21"
_symmetry_group_IT_number 26
_symmetry_cell_setting 'orthorhombic'
loop_
_space_group_symop_operation_xyz
x,y,z
-x,-y,1/2+z
-x,y,z
x,-y,1/2+z
loop_
_atom_site_type_symbol
_atom_site_label
_atom_site_fract_x
_atom_site_fract_y
_atom_site_fract_z
Si Si1 0.314611 0.925080 0.726950
Si Si2 0.686010 0.563515 0.487131
Si Si3 0.677671 0.406962 0.243528
Si Si4 0.185260 0.177124 0.695670
Si Si5 0.187241 0.233421 0.363858
Si Si6 0.179703 0.266503 0.112340
Si Si7 0.187686 0.686529 0.037324
Si Si8 0.318054 0.350519 0.815421
O O1 0.500000 0.915368 0.735851
O O2 0.236604 0.874672 0.808482
O O3 0.256850 0.843634 0.654365
O O4 0.266015 0.054232 0.706468
O O5 0.500000 0.549408 0.483911
O O6 0.730629 0.673821 0.540161
O O7 0.752023 0.443432 0.521752
O O8 0.742384 0.596884 0.398451
O O9 0.500000 0.375282 0.218415
O O10 0.718560 0.339813 0.324718
O O11 0.803696 0.362971 0.181153
O O12 0.683472 0.541798 0.255472
O O13 0.242782 0.249865 0.618124
O O14 0.220890 0.250259 0.775053
O O15 0.000000 0.159387 0.686350
O O16 0.223880 0.237075 0.458104
O O17 0.000000 0.249745 0.355181
O O18 0.000000 0.243770 0.092561
O O19 0.000000 0.677789 0.042853
O O20 0.500000 0.314635 0.826237
#
# Coordination Sequence:
#
# PCOD9337991 Si02
#       8
#     4   4   4   4   4   4   4   4
#     4  11  23  42  64  86 116 157 205 251 300 361
#     4  11  22  38  60  90 126 159 198 246 300 360
#     4  10  18  33  57  87 119 154 193 238 294 353
#     4  11  24  42  62  87 120 161 205 253 303 359
#     4  10  19  35  61  90 120 155 196 247 298 355
#     4  11  22  37  59  88 118 154 197 245 297 354
#     4  10  22  39  62  93 125 157 200 248 303 366
#     4  10  22  38  57  85 122 159 196 242 297 358
#
# _framework density 19.26155
#
# number of rings (size 3 to 8) (size 9 to 14) (size 15 to 20)
#    0.000    1.500    1.250    6.000    0.000    5.500 
#    2.250    0.000    0.000    0.000    0.000    0.000 
#    0.000    0.000    0.000    0.000    0.000    0.000 
#
# Total GULP energy -178600.239123 kJ/mol
# GULP energy per Si atom -5581.257473 kJ/mol
# Density = 1.921771 g / cm^3
# Si number density = 19.261550 Si / 1000 Ang^3
#
#
#
# Elastic Constant Matrix: (Units=GPa)
#
#
# Indices 1 2 3 4 5 6 
#
# 1 46.7789 29.9655 8.7438 0.0000 0.0000 0.0000
# 2 29.9655 118.6371 55.3458 0.0000 0.0000 0.0000
# 3 8.7438 55.3458 71.5730 0.0000 0.0000 0.0000
# 4 0.0000 0.0000 0.0000 21.4112 0.0000 0.0000
# 5 0.0000 0.0000 0.0000 0.0000 22.9936 0.0000
# 6 0.0000 0.0000 0.0000 0.0000 0.0000 29.8989
#
#
#
# Elastic Compliance Matrix: (Units=1/GPa)
#
#
# Indices 1 2 3 4 5 6 
#
# 1 0.025899 -0.007924 0.002964 0.000000 0.000000 0.000000
# 2 -0.007924 0.015610 -0.011103 0.000000 0.000000 0.000000
# 3 0.002964 -0.011103 0.022195 0.000000 0.000000 0.000000
# 4 0.000000 0.000000 0.000000 0.046704 0.000000 0.000000
# 5 0.000000 0.000000 0.000000 0.000000 0.043490 0.000000
# 6 0.000000 0.000000 0.000000 0.000000 0.000000 0.033446
#
#
# Mechanical properties :
#
#
# Convention : Reuss Voigt Hill
#
# Bulk Modulus (GPa) = 31.66788 47.23323 39.45055
# Shear Modulus (GPa) = 21.73921 24.38967 23.06444
#
# Velocity S-wave (km/s) = 3.36316 3.56228 3.46415
# Velocity P-wave (km/s) = 5.61763 6.44167 6.04371
#
# Compressibility (1/GPa) = 0.03157774
#
# Stress axis : x y z
#
# Youngs Moduli (GPa) = 38.61105 64.06033 45.05436
#
# Poissons Ratio (x) = 0.50763 -0.13352
# Poissons Ratio (y) = 0.30596 0.50024
# Poissons Ratio (z) = -0.11443 0.71126
#
# Static dielectric constant tensor:
#      x y z
#    x 1.662530 0.000000 0.000000 
#    y 0.000000 1.651150 0.000000 
#    z 0.000000 0.000000 1.739980 
# 
# From -- ./inp_files/4253.got.cif
#   From: 2010.05.17/outbox.cif.g08.bks.cpg/sg26_3_cif.got.tgz:4253.got - 2010.06.04 01:07:29.
