data_PCOD9337134
_publ_section_title
;
Structure prediction by ZEFSAII (Michael W. Deem and Ramdas Pophale) SiO2 
 PCOD9337134
Probable space group: P M M 2
;
_chemical_formula_sum "Si O2"
_cell_formula_units_Z 32
_cell_length_a 7.666181
_cell_length_b 15.316867
_cell_length_c 12.690963
_cell_angle_alpha 90.000000
_cell_angle_beta 90.000000
_cell_angle_gamma 90.000000
_cell_volume 1490.196668
_symmetry_space_group_name_H-M "P M M 2"
_symmetry_group_IT_number 25
_symmetry_cell_setting 'orthorhombic'
loop_
_space_group_symop_operation_xyz
x,y,z
-x,-y,z
-x,y,z
x,-y,z
loop_
_atom_site_type_symbol
_atom_site_label
_atom_site_fract_x
_atom_site_fract_y
_atom_site_fract_z
Si Si1 0.795864 0.163703 0.761930
Si Si2 0.297264 0.784513 0.534429
Si Si3 0.704504 0.405784 0.593118
Si Si4 0.714467 0.899014 0.339390
Si Si5 0.788284 0.094515 0.975228
Si Si6 0.707227 0.404828 0.066569
Si Si7 0.203281 0.636218 0.827300
Si Si8 0.297087 0.774330 0.152954
O O1 0.711318 0.169154 0.648039
O O2 0.780667 0.259761 0.813461
O O3 0.000000 0.145372 0.743773
O O4 0.730280 0.101455 0.854005
O O5 0.500000 0.771449 0.507602
O O6 0.220347 0.686305 0.549683
O O7 0.226603 0.848258 0.444768
O O8 0.500000 0.406655 0.565174
O O9 0.780258 0.500000 0.560112
O O10 0.714693 0.400819 0.720448
O O11 0.500000 0.901840 0.337967
O O12 0.775516 0.838323 0.242506
O O13 0.771679 0.000000 0.333742
O O14 0.714418 0.171516 0.045120
O O15 0.000000 0.102102 0.975558
O O16 0.740148 0.000000 0.019826
O O17 0.500000 0.406339 0.086790
O O18 0.780020 0.500000 0.094628
O O19 0.780645 0.321036 0.128697
O O20 0.727092 0.391499 0.940665
O O21 0.000000 0.612869 0.824646
O O22 0.500000 0.761166 0.180736
#
# Coordination Sequence:
#
# PCOD9337134 Si02
#       8
#     4   4   4   4   4   4   4   4
#     4   9  18  32  48  71 105 137 163 201 251 300
#     4   9  18  32  51  73  97 128 167 207 250 298
#     4   9  17  29  45  68 100 134 166 202 246 296
#     4   9  18  34  55  77  99 125 164 216 263 298
#     4  10  20  34  52  75 105 137 165 204 261 313
#     4  10  20  32  47  71 103 136 169 208 255 302
#     4  10  18  29  47  71 100 136 174 206 241 295
#     4  10  20  35  55  75 100 134 173 214 256 306
#
# _framework density 21.473676000000001
#
# number of rings (size 3 to 8) (size 9 to 14) (size 15 to 20)
#    0.000    2.500    1.250    1.125    0.000    4.250 
#    0.000    1.250    0.000    4.500    0.000    0.000 
#    0.000    4.000    0.000    0.000    0.000    0.000 
#
# Total GULP energy -178447.054956 kJ/mol
# GULP energy per Si atom -5576.470467 kJ/mol
# Density = 2.142480 g / cm^3
# Si number density = 21.473676 Si / 1000 Ang^3
#
#
#
# Elastic Constant Matrix: (Units=GPa)
#
#
# Indices 1 2 3 4 5 6 
#
# 1 36.0984 13.5668 -2.5009 0.0000 0.0000 0.0000
# 2 13.5668 171.9000 84.1941 0.0000 0.0000 0.0000
# 3 -2.5009 84.1941 107.4763 0.0000 0.0000 0.0000
# 4 0.0000 0.0000 0.0000 40.6522 0.0000 0.0000
# 5 0.0000 0.0000 0.0000 0.0000 32.3903 0.0000
# 6 0.0000 0.0000 0.0000 0.0000 0.0000 438.4700
#
#
#
# Elastic Compliance Matrix: (Units=1/GPa)
#
#
# Indices 1 2 3 4 5 6 
#
# 1 0.029617 -0.004340 0.004089 0.000000 0.000000 0.000000
# 2 -0.004340 0.010075 -0.007993 0.000000 0.000000 0.000000
# 3 0.004089 -0.007993 0.015661 0.000000 0.000000 0.000000
# 4 0.000000 0.000000 0.000000 0.024599 0.000000 0.000000
# 5 0.000000 0.000000 0.000000 0.000000 0.030873 0.000000
# 6 0.000000 0.000000 0.000000 0.000000 0.000000 0.002281
#
#
# Mechanical properties :
#
#
# Convention : Reuss Voigt Hill
#
# Bulk Modulus (GPa) = 25.73084 56.22165 40.97624
# Shear Modulus (GPa) = 35.07554 116.98348 76.02951
#
# Velocity S-wave (km/s) = 4.04594 7.38890 5.95674
# Velocity P-wave (km/s) = 5.81676 9.95153 8.15070
#
# Compressibility (1/GPa) = 0.03886387
#
# Stress axis : x y z
#
# Youngs Moduli (GPa) = 33.76493 99.25609 63.85133
#
# Poissons Ratio (x) = 0.43080 -0.26110
# Poissons Ratio (y) = 0.14655 0.51039
# Poissons Ratio (z) = -0.13807 0.79340
#
# Static dielectric constant tensor:
#      x y z
#    x 1.797860 0.000000 0.000000 
#    y 0.000000 1.835230 0.000000 
#    z 0.000000 0.000000 1.749240 
# 
# From -- ./inp_files/4182.got.cif
#   From: 2010.05.17/outbox.cif.g08.bks.cpg/sg25_3_cif.got.tgz:4182.got - 2010.06.04 01:04:00.
