data_PCOD9337292
_publ_section_title
;
Structure prediction by ZEFSAII (Michael W. Deem and Ramdas Pophale) SiO2 
 PCOD9337292
Probable space group: P M M 2
;
_chemical_formula_sum "Si O2"
_cell_formula_units_Z 32
_cell_length_a 14.674012
_cell_length_b 7.552646
_cell_length_c 13.368876
_cell_angle_alpha 90.000000
_cell_angle_beta 90.000000
_cell_angle_gamma 90.000000
_cell_volume 1481.640683
_symmetry_space_group_name_H-M "P M M 2"
_symmetry_group_IT_number 25
_symmetry_cell_setting 'orthorhombic'
loop_
_space_group_symop_operation_xyz
x,y,z
-x,-y,z
-x,y,z
x,-y,z
loop_
_atom_site_type_symbol
_atom_site_label
_atom_site_fract_x
_atom_site_fract_y
_atom_site_fract_z
Si Si1 0.102887 0.210462 0.291330
Si Si2 0.603693 0.283035 0.007999
Si Si3 0.106437 0.284334 0.893612
Si Si4 0.212100 0.713629 0.090658
Si Si5 0.389296 0.299615 0.787817
Si Si6 0.601900 0.792785 0.565180
Si Si7 0.218406 0.207913 0.475802
Si Si8 0.106569 0.713790 0.672957
O O1 0.157541 0.234328 0.188846
O O2 0.160227 0.284796 0.384645
O O3 0.000000 0.282545 0.285041
O O4 0.094534 0.000000 0.308046
O O5 0.500000 0.225533 0.028382
O O6 0.601470 0.500000 0.003511
O O7 0.682325 0.229624 0.084502
O O8 0.633945 0.223524 0.896313
O O9 0.109584 0.500000 0.893696
O O10 0.139584 0.227948 0.783322
O O11 0.000000 0.235002 0.902771
O O12 0.161792 0.223093 0.989836
O O13 0.211697 0.500000 0.087526
O O14 0.500000 0.305566 0.791042
O O15 0.353074 0.500000 0.784000
O O16 0.367569 0.216057 0.681513
O O17 0.500000 0.714943 0.557081
O O18 0.681737 0.713823 0.497665
O O19 0.768137 0.000000 0.453639
O O20 0.162317 0.220029 0.578671
O O21 0.405509 0.000000 0.541192
O O22 0.110542 0.500000 0.671007
O O23 0.000000 0.764163 0.664230
#
# Coordination Sequence:
#
# PCOD9337292 Si02
#       8
#     4   4   4   4   4   4   4   4
#     4  10  22  40  57  73  99 133 169 217 271 314
#     4   8  15  28  47  75 109 140 170 204 247 299
#     4   8  15  28  46  72 104 131 157 199 256 307
#     4  10  19  32  55  80 101 133 176 214 251 301
#     4   8  14  26  46  72 102 137 172 203 240 292
#     4   9  18  32  49  72 103 136 171 210 251 297
#     4  10  21  36  54  74  99 136 176 210 256 311
#     4   9  18  32  51  77 107 134 162 205 259 310
#
# _framework density 21.597677999999998
#
# number of rings (size 3 to 8) (size 9 to 14) (size 15 to 20)
#    0.000    3.000    0.000    2.250    1.750    2.500 
#    0.000    1.875    0.000    2.625    0.000    0.000 
#    0.000    0.000    0.000    0.000    0.000    0.000 
#
# Total GULP energy -178535.006851 kJ/mol
# GULP energy per Si atom -5579.218964 kJ/mol
# Density = 2.154852 g / cm^3
# Si number density = 21.597678 Si / 1000 Ang^3
#
#
#
# Elastic Constant Matrix: (Units=GPa)
#
#
# Indices 1 2 3 4 5 6 
#
# 1 158.8544 5.4351 103.5439 0.0000 0.0000 0.0000
# 2 5.4351 48.0291 -2.1553 0.0000 0.0000 0.0000
# 3 103.5439 -2.1553 142.5569 0.0000 0.0000 0.0000
# 4 0.0000 0.0000 0.0000 -1.4556 0.0000 0.0000
# 5 0.0000 0.0000 0.0000 0.0000 33.7694 0.0000
# 6 0.0000 0.0000 0.0000 0.0000 0.0000 8.5244
#
#
#
# Elastic Compliance Matrix: (Units=1/GPa)
#
#
# Indices 1 2 3 4 5 6 
#
# 1 0.012103 -0.001765 -0.008817 0.000000 0.000000 0.000000
# 2 -0.001765 0.021092 0.001601 0.000000 0.000000 0.000000
# 3 -0.008817 0.001601 0.013443 0.000000 0.000000 0.000000
# 4 0.000000 0.000000 0.000000 -0.686980 0.000000 0.000000
# 5 0.000000 0.000000 0.000000 0.000000 0.029613 0.000000
# 6 0.000000 0.000000 0.000000 0.000000 0.000000 0.117310
#
#
# Mechanical properties :
#
#
# Convention : Reuss Voigt Hill
#
# Bulk Modulus (GPa) = 34.87319 62.56530 48.71925
# Shear Modulus (GPa) = -10.73196 24.34207 6.80506
#
# Velocity S-wave (km/s) = -2.23155 3.36083 1.77698
# Velocity P-wave (km/s) = 3.08902 6.64015 5.17850
#
# Compressibility (1/GPa) = 0.02867532
#
# Stress axis : x y z
#
# Youngs Moduli (GPa) = 82.62586 47.41057 74.38664
#
# Poissons Ratio (x) = 0.08369 0.65589
# Poissons Ratio (y) = 0.14586 -0.11910
# Poissons Ratio (z) = 0.72854 -0.07591
#
# Static dielectric constant tensor:
#      x y z
#    x 1.823720 0.000000 0.000000 
#    y 0.000000 1.834240 0.000000 
#    z 0.000000 0.000000 1.749850 
# 
# From -- ./inp_files/4939.got.cif
#   From: 2010.05.17/outbox.cif.g08.bks.cpg/sg25_3_cif.got.tgz:4939.got - 2010.06.04 01:04:00.
