data_PCOD9337354
_publ_section_title
;
Structure prediction by ZEFSAII (Michael W. Deem and Ramdas Pophale) SiO2 
 PCOD9337354
Probable space group: P M M 2
;
_chemical_formula_sum "Si O2"
_cell_formula_units_Z 25
_cell_length_a 17.709704
_cell_length_b 7.566529
_cell_length_c 7.222430
_cell_angle_alpha 90.000000
_cell_angle_beta 90.000000
_cell_angle_gamma 90.000000
_cell_volume 967.812762
_symmetry_space_group_name_H-M "P M M 2"
_symmetry_group_IT_number 25
_symmetry_cell_setting 'orthorhombic'
loop_
_space_group_symop_operation_xyz
x,y,z
-x,-y,z
-x,y,z
x,-y,z
loop_
_atom_site_type_symbol
_atom_site_label
_atom_site_fract_x
_atom_site_fract_y
_atom_site_fract_z
Si Si1 0.418364 0.790376 0.474480
Si Si2 0.748045 0.200418 0.542495
Si Si3 0.600655 0.298303 0.051186
Si Si4 0.235285 0.203824 0.986018
Si Si5 0.917248 0.704039 0.488576
Si Si6 0.500000 0.000000 0.882921
Si Si7 0.079474 0.785025 0.925991
O O1 0.500000 0.717340 0.542374
O O2 0.335324 0.712647 0.520105
O O3 0.422122 0.771149 0.253064
O O4 0.421025 0.000000 0.525993
O O5 0.761773 0.207298 0.762414
O O6 0.829369 0.243271 0.449444
O O7 0.733964 0.000000 0.483412
O O8 0.577943 0.500000 0.019267
O O9 0.565949 0.157008 0.909397
O O10 0.690989 0.296860 0.054594
O O11 0.240107 0.000000 0.045095
O O12 0.153252 0.279245 0.030419
O O13 0.921081 0.500000 0.441042
O O14 0.000000 0.786002 0.429131
O O15 0.919587 0.726766 0.712674
O O16 0.000000 0.728599 0.007733
O O17 0.083117 0.000000 0.924733
#
# Coordination Sequence:
#
# PCOD9337354 Si02
#       7
#     4   4   4   4   4   1   4
#     4  10  19  38  58  80 108 142 181 228 273 328
#     4   9  19  33  55  82 110 146 181 222 278 324
#     4  12  23  38  63  85 107 145 187 226 279 335
#     4   9  17  33  51  83 119 147 178 231 278 322
#     4   9  16  26  43  70 105 142 176 220 272 319
#     4  12  22  44  60  80 110 140 182 246 268 322
#     4   8  14  26  48  74 103 141 182 218 263 323
#
# _framework density 25.831443
#
# number of rings (size 3 to 8) (size 9 to 14) (size 15 to 20)
#    0.000    2.400    2.400    1.680    0.000    4.160 
#    1.440    0.000    0.000    0.960    0.000    2.240 
#    0.000    0.000    0.000    0.000    0.000    0.000 
#
# Total GULP energy -139201.918053 kJ/mol
# GULP energy per Si atom -5568.076722 kJ/mol
# Density = 2.577265 g / cm^3
# Si number density = 25.831443 Si / 1000 Ang^3
#
#
#
# Elastic Constant Matrix: (Units=GPa)
#
#
# Indices 1 2 3 4 5 6 
#
# 1 330.2267 37.3377 3.0300 0.0000 0.0000 0.0000
# 2 37.3377 113.6318 -6.2931 0.0000 0.0000 0.0000
# 3 3.0300 -6.2931 84.5358 0.0000 0.0000 0.0000
# 4 0.0000 0.0000 0.0000 14.2406 0.0000 0.0000
# 5 0.0000 0.0000 0.0000 0.0000 629.5217 0.0000
# 6 0.0000 0.0000 0.0000 0.0000 0.0000 34.9762
#
#
#
# Elastic Compliance Matrix: (Units=1/GPa)
#
#
# Indices 1 2 3 4 5 6 
#
# 1 0.003148 -0.001045 -0.000191 0.000000 0.000000 0.000000
# 2 -0.001045 0.009184 0.000721 0.000000 0.000000 0.000000
# 3 -0.000191 0.000721 0.011890 0.000000 0.000000 0.000000
# 4 0.000000 0.000000 0.000000 0.070222 0.000000 0.000000
# 5 0.000000 0.000000 0.000000 0.000000 0.001589 0.000000
# 6 0.000000 0.000000 0.000000 0.000000 0.000000 0.028591
#
#
# Mechanical properties :
#
#
# Convention : Reuss Voigt Hill
#
# Bulk Modulus (GPa) = 43.11720 66.28261 54.69990
# Shear Modulus (GPa) = 37.48620 168.70235 103.09427
#
# Velocity S-wave (km/s) = 3.81357 8.09016 6.32432
# Velocity P-wave (km/s) = 6.00992 10.62934 8.63429
#
# Compressibility (1/GPa) = 0.02319260
#
# Stress axis : x y z
#
# Youngs Moduli (GPa) = 317.64941 108.88912 84.10550
#
# Poissons Ratio (x) = 0.11379 0.01603
# Poissons Ratio (y) = 0.33194 -0.06065
# Poissons Ratio (z) = 0.06055 -0.07852
#
# Static dielectric constant tensor:
#      x y z
#    x 1.925810 0.000000 0.000000 
#    y 0.000000 1.949520 0.000000 
#    z 0.000000 0.000000 2.046980 
# 
# From -- ./inp_files/3368.got.cif
#   From: 2010.05.17/outbox.cif.g08.bks.cpg/sg25_2_cif.got.tgz:3368.got - 2010.06.04 01:04:00.
