data_PCOD9337695
_publ_section_title
;
Structure prediction by ZEFSAII (Michael W. Deem and Ramdas Pophale) SiO2 
 PCOD9337695
Probable space group: P M M 2
;
_chemical_formula_sum "Si O2"
_cell_formula_units_Z 28
_cell_length_a 8.265002
_cell_length_b 9.848190
_cell_length_c 18.532369
_cell_angle_alpha 90.000000
_cell_angle_beta 90.000000
_cell_angle_gamma 90.000000
_cell_volume 1508.447921
_symmetry_space_group_name_H-M "P M M 2"
_symmetry_group_IT_number 25
_symmetry_cell_setting 'orthorhombic'
loop_
_space_group_symop_operation_xyz
x,y,z
-x,-y,z
-x,y,z
x,-y,z
loop_
_atom_site_type_symbol
_atom_site_label
_atom_site_fract_x
_atom_site_fract_y
_atom_site_fract_z
Si Si1 0.304919 0.655708 0.629040
Si Si2 0.806584 0.344625 0.469594
Si Si3 0.197372 0.655616 0.053085
Si Si4 0.195534 0.656433 0.889427
Si Si5 0.695140 0.844578 0.759585
Si Si6 0.195360 0.844089 0.183052
Si Si7 0.306722 0.155903 0.339954
O O1 0.500000 0.653113 0.632182
O O2 0.247349 0.500000 0.641061
O O3 0.255092 0.697929 0.548578
O O4 0.245860 0.758307 0.690489
O O5 0.749049 0.500000 0.457787
O O6 0.750226 0.247939 0.405688
O O7 0.000000 0.345608 0.471170
O O8 0.245440 0.500000 0.066912
O O9 0.254351 0.754083 0.116321
O O10 0.000000 0.658778 0.053358
O O11 0.247052 0.691235 0.971380
O O12 0.246325 0.500000 0.874216
O O13 0.258862 0.761141 0.830815
O O14 0.000000 0.658148 0.887830
O O15 0.500000 0.849221 0.755422
O O16 0.754593 0.000000 0.760425
O O17 0.247472 0.793372 0.261852
O O18 0.000000 0.844419 0.181152
O O19 0.251681 0.000000 0.176190
O O20 0.500000 0.153473 0.339356
O O21 0.247165 0.000000 0.348119
#
# Coordination Sequence:
#
# PCOD9337695 Si02
#       7
#     4   4   4   4   4   4   4
#     4   9  18  34  54  73  98 135 173 207 248 300
#     4  10  21  36  55  80 106 131 164 208 255 301
#     4   8  15  29  49  73  99 127 163 208 255 300
#     4   9  18  33  53  76 102 134 172 212 254 301
#     4  10  21  35  51  75 106 137 170 208 251 300
#     4   9  17  30  49  72  98 130 168 208 251 300
#     4  10  21  36  53  74 103 139 174 207 248 299
#
# _framework density 18.562125999999999
#
# number of rings (size 3 to 8) (size 9 to 14) (size 15 to 20)
#    0.000    2.714    0.000    2.143    0.000    5.143 
#    0.000    6.429    0.000    2.571    0.000    0.000 
#    0.000    0.000    0.000    0.000    0.000    0.000 
#
# Total GULP energy -156179.912056 kJ/mol
# GULP energy per Si atom -5577.854002 kJ/mol
# Density = 1.851988 g / cm^3
# Si number density = 18.562126 Si / 1000 Ang^3
#
#
#
# Elastic Constant Matrix: (Units=GPa)
#
#
# Indices 1 2 3 4 5 6 
#
# 1 7.3719 13.7844 13.1906 0.0000 0.0000 0.0000
# 2 13.7844 115.6059 127.0759 0.0000 0.0000 0.0000
# 3 13.1906 127.0759 199.3659 0.0000 0.0000 0.0000
# 4 0.0000 0.0000 0.0000 110.9213 0.0000 0.0000
# 5 0.0000 0.0000 0.0000 0.0000 36.5520 0.0000
# 6 0.0000 0.0000 0.0000 0.0000 0.0000 19.8959
#
#
#
# Elastic Compliance Matrix: (Units=1/GPa)
#
#
# Indices 1 2 3 4 5 6 
#
# 1 0.176559 -0.027430 0.005802 0.000000 0.000000 0.000000
# 2 -0.027430 0.033157 -0.019319 0.000000 0.000000 0.000000
# 3 0.005802 -0.019319 0.016946 0.000000 0.000000 0.000000
# 4 0.000000 0.000000 0.000000 0.009015 0.000000 0.000000
# 5 0.000000 0.000000 0.000000 0.000000 0.027358 0.000000
# 6 0.000000 0.000000 0.000000 0.000000 0.000000 0.050262
#
#
# Mechanical properties :
#
#
# Convention : Reuss Voigt Hill
#
# Bulk Modulus (GPa) = 6.90762 70.04947 38.47855
# Shear Modulus (GPa) = 11.27530 44.69337 27.98433
#
# Velocity S-wave (km/s) = 2.46729 4.91223 3.88700
# Velocity P-wave (km/s) = 3.44182 8.36619 6.39684
#
# Compressibility (1/GPa) = 0.14476763
#
# Stress axis : x y z
#
# Youngs Moduli (GPa) = 5.66383 30.15968 59.01048
#
# Poissons Ratio (x) = 0.82729 -0.34241
# Poissons Ratio (y) = 0.15536 1.14004
# Poissons Ratio (z) = -0.03286 0.58266
#
# Static dielectric constant tensor:
#      x y z
#    x 1.649700 0.000000 0.000000 
#    y 0.000000 1.642170 0.000000 
#    z 0.000000 0.000000 1.616790 
# 
# From -- ./inp_files/6046.got.cif
#   From: 2010.05.17/outbox.cif.g08.bks.cpg/sg25_4_cif.got.tgz:6046.got - 2010.06.04 01:04:00.
