data_PCOD9337836
_publ_section_title
;
Structure prediction by ZEFSAII (Michael W. Deem and Ramdas Pophale) SiO2 
 PCOD9337836
Probable space group: P M M 2
;
_chemical_formula_sum "Si O2"
_cell_formula_units_Z 32
_cell_length_a 9.867373
_cell_length_b 7.416342
_cell_length_c 21.500146
_cell_angle_alpha 90.000000
_cell_angle_beta 90.000000
_cell_angle_gamma 90.000000
_cell_volume 1573.376660
_symmetry_space_group_name_H-M "P M M 2"
_symmetry_group_IT_number 25
_symmetry_cell_setting 'orthorhombic'
loop_
_space_group_symop_operation_xyz
x,y,z
-x,-y,z
-x,y,z
x,-y,z
loop_
_atom_site_type_symbol
_atom_site_label
_atom_site_fract_x
_atom_site_fract_y
_atom_site_fract_z
Si Si1 0.846271 0.783955 0.530290
Si Si2 0.155754 0.280382 0.163523
Si Si3 0.657839 0.720006 0.910368
Si Si4 0.346084 0.786492 0.638632
Si Si5 0.155649 0.719769 0.022954
Si Si6 0.343948 0.279287 0.276975
Si Si7 0.343380 0.283677 0.774730
Si Si8 0.154469 0.284773 0.388903
O O1 0.746956 0.713190 0.583537
O O2 0.800798 0.748858 0.459684
O O3 0.000000 0.714092 0.536326
O O4 0.852793 0.000000 0.537329
O O5 0.155394 0.500000 0.164018
O O6 0.260926 0.222087 0.215831
O O7 0.000000 0.225510 0.176690
O O8 0.191756 0.224198 0.093225
O O9 0.500000 0.772144 0.915752
O O10 0.660147 0.500000 0.911250
O O11 0.746060 0.782596 0.968402
O O12 0.711032 0.776530 0.841902
O O13 0.500000 0.712046 0.638319
O O14 0.284097 0.765097 0.707771
O O15 0.357619 0.000000 0.628399
O O16 0.159064 0.500000 0.022763
O O17 0.000000 0.772349 0.011404
O O18 0.500000 0.221161 0.277258
O O19 0.345157 0.500000 0.277095
O O20 0.259271 0.218833 0.337317
O O21 0.500000 0.220036 0.772873
O O22 0.345204 0.500000 0.776524
O O23 0.146547 0.500000 0.380766
O O24 0.000000 0.214549 0.381556
#
# Coordination Sequence:
#
# PCOD9337836 Si02
#       8
#     4   4   4   4   4   4   4   4
#     4   9  18  32  47  62  82 107 133 163 200 240
#     4   8  13  21  32  46  69 104 138 162 192 239
#     4   8  13  21  33  48  68  97 130 160 192 233
#     4   9  17  29  45  63  81 103 133 167 200 236
#     4   8  13  20  30  46  70 100 132 164 197 233
#     4   9  16  24  35  54  79 104 132 168 204 235
#     4   8  14  25  40  58  81 108 135 163 199 242
#     4   9  17  29  44  60  80 108 137 163 196 240
#
# _framework density 20.338421
#
# number of rings (size 3 to 8) (size 9 to 14) (size 15 to 20)
#    0.000    3.500    0.000    1.875    0.000    3.000 
#    0.000    3.125    0.000    0.750    0.000    0.000 
#    0.000    1.000    0.000    5.750    0.000    9.000 
#
# Total GULP energy -178352.365251 kJ/mol
# GULP energy per Si atom -5573.511414 kJ/mol
# Density = 2.029213 g / cm^3
# Si number density = 20.338421 Si / 1000 Ang^3
#
#
#
# Elastic Constant Matrix: (Units=GPa)
#
#
# Indices 1 2 3 4 5 6 
#
# 1 108.0605 4.8079 134.3651 0.0000 0.0000 0.0000
# 2 4.8079 64.8356 2.0751 0.0000 0.0000 0.0000
# 3 134.3651 2.0751 238.0419 0.0000 0.0000 0.0000
# 4 0.0000 0.0000 0.0000 40.4492 0.0000 0.0000
# 5 0.0000 0.0000 0.0000 0.0000 45.6215 0.0000
# 6 0.0000 0.0000 0.0000 0.0000 0.0000 -13.6942
#
#
#
# Elastic Compliance Matrix: (Units=1/GPa)
#
#
# Indices 1 2 3 4 5 6 
#
# 1 0.031238 -0.001753 -0.017617 0.000000 0.000000 0.000000
# 2 -0.001753 0.015526 0.000854 0.000000 0.000000 0.000000
# 3 -0.017617 0.000854 0.014138 0.000000 0.000000 0.000000
# 4 0.000000 0.000000 0.000000 0.024722 0.000000 0.000000
# 5 0.000000 0.000000 0.000000 0.000000 0.021919 0.000000
# 6 0.000000 0.000000 0.000000 0.000000 0.000000 -0.073024
#
#
# Mechanical properties :
#
#
# Convention : Reuss Voigt Hill
#
# Bulk Modulus (GPa) = 41.89360 77.04821 59.47091
# Shear Modulus (GPa) = 62.88689 32.45463 47.67076
#
# Velocity S-wave (km/s) = 5.56663 3.99899 4.84661
# Velocity P-wave (km/s) = 7.87143 7.69986 7.78612
#
# Compressibility (1/GPa) = 0.02386999
#
# Stress axis : x y z
#
# Youngs Moduli (GPa) = 32.01274 64.40698 70.73323
#
# Poissons Ratio (x) = 0.11288 1.24611
# Poissons Ratio (y) = 0.05610 -0.06040
# Poissons Ratio (z) = 0.56397 -0.05500
#
# Static dielectric constant tensor:
#      x y z
#    x 1.694060 0.000000 0.000000 
#    y 0.000000 1.775430 0.000000 
#    z 0.000000 0.000000 1.724110 
# 
# From -- ./inp_files/6301.got.cif
#   From: 2010.05.17/outbox.cif.g08.bks.cpg/sg25_4_cif.got.tgz:6301.got - 2010.06.04 01:04:00.
