data_PCOD9337529
_publ_section_title
;
Structure prediction by ZEFSAII (Michael W. Deem and Ramdas Pophale) SiO2 
 PCOD9337529
Probable space group: P M M 2
;
_chemical_formula_sum "Si O2"
_cell_formula_units_Z 32
_cell_length_a 15.711485
_cell_length_b 9.165951
_cell_length_c 11.839479
_cell_angle_alpha 90.000000
_cell_angle_beta 90.000000
_cell_angle_gamma 90.000000
_cell_volume 1705.011678
_symmetry_space_group_name_H-M "P M M 2"
_symmetry_group_IT_number 25
_symmetry_cell_setting 'orthorhombic'
loop_
_space_group_symop_operation_xyz
x,y,z
-x,-y,z
-x,y,z
x,-y,z
loop_
_atom_site_type_symbol
_atom_site_label
_atom_site_fract_x
_atom_site_fract_y
_atom_site_fract_z
Si Si1 0.600409 0.659264 0.688660
Si Si2 0.100820 0.824982 0.886463
Si Si3 0.246851 0.325466 0.037110
Si Si4 0.233901 0.828875 0.275301
Si Si5 0.325975 0.163361 0.505402
Si Si6 0.096235 0.663940 0.412353
Si Si7 0.858332 0.166854 0.625047
Si Si8 0.601624 0.172089 0.908168
O O1 0.500000 0.646431 0.703043
O O2 0.640030 0.500000 0.709990
O O3 0.618042 0.715066 0.563728
O O4 0.625946 0.778757 0.781142
O O5 0.166396 0.742099 0.968548
O O6 0.128441 0.796784 0.756130
O O7 0.000000 0.788158 0.900715
O O8 0.109204 0.000000 0.904723
O O9 0.243987 0.500000 0.031405
O O10 0.334948 0.264250 0.985292
O O11 0.244816 0.267704 0.165146
O O12 0.303608 0.810511 0.374866
O O13 0.148737 0.776891 0.338113
O O14 0.230912 0.000000 0.245994
O O15 0.238627 0.167084 0.579132
O O16 0.362075 0.000000 0.516706
O O17 0.133039 0.500000 0.405930
O O18 0.097564 0.720414 0.540855
O O19 0.000000 0.659330 0.371932
O O20 0.890052 0.000000 0.609076
O O21 0.500000 0.199227 0.926446
O O22 0.616171 0.000000 0.923164
#
# Coordination Sequence:
#
# PCOD9337529 Si02
#       8
#     4   4   4   4   4   4   4   4
#     4  10  20  33  53  85 120 147 174 215 270 330
#     4  10  21  37  58  84 116 156 199 239 280 335
#     4  12  25  40  60  84 114 151 190 240 294 341
#     4  10  22  40  59  77 102 141 189 234 274 327
#     4   9  18  33  55  81 107 140 180 223 273 329
#     4  10  20  33  52  80 111 141 177 226 282 335
#     4   9  18  33  54  80 108 140 182 229 276 330
#     4  10  21  39  64  90 116 149 190 234 279 335
#
# _framework density 18.7682
#
# number of rings (size 3 to 8) (size 9 to 14) (size 15 to 20)
#    0.000    2.000    0.000    4.500    0.000    7.750 
#    0.000    0.625    0.000    0.750    0.000    0.000 
#    0.000    0.000    0.000    0.000    0.000    0.000 
#
# Total GULP energy -178468.352269 kJ/mol
# GULP energy per Si atom -5577.136008 kJ/mol
# Density = 1.872548 g / cm^3
# Si number density = 18.768200 Si / 1000 Ang^3
#
#
#
# Elastic Constant Matrix: (Units=GPa)
#
#
# Indices 1 2 3 4 5 6 
#
# 1 40.0235 44.0241 40.9822 0.0000 0.0000 0.0000
# 2 44.0241 103.8505 60.7530 0.0000 0.0000 0.0000
# 3 40.9822 60.7530 111.5629 0.0000 0.0000 0.0000
# 4 0.0000 0.0000 0.0000 -56.1845 0.0000 0.0000
# 5 0.0000 0.0000 0.0000 0.0000 9.7619 0.0000
# 6 0.0000 0.0000 0.0000 0.0000 0.0000 22.8247
#
#
#
# Elastic Compliance Matrix: (Units=1/GPa)
#
#
# Indices 1 2 3 4 5 6 
#
# 1 0.054613 -0.016752 -0.010940 0.000000 0.000000 0.000000
# 2 -0.016752 0.019269 -0.004340 0.000000 0.000000 0.000000
# 3 -0.010940 -0.004340 0.015345 0.000000 0.000000 0.000000
# 4 0.000000 0.000000 0.000000 -0.017799 0.000000 0.000000
# 5 0.000000 0.000000 0.000000 0.000000 0.102439 0.000000
# 6 0.000000 0.000000 0.000000 0.000000 0.000000 0.043812
#
#
# Mechanical properties :
#
#
# Convention : Reuss Voigt Hill
#
# Bulk Modulus (GPa) = 39.73636 60.77283 50.25459
# Shear Modulus (GPa) = 17.23360 2.59227 9.91293
#
# Velocity S-wave (km/s) = 3.03353 1.17652 2.30070
# Velocity P-wave (km/s) = 5.78687 5.85633 5.82170
#
# Compressibility (1/GPa) = 0.02516587
#
# Stress axis : x y z
#
# Youngs Moduli (GPa) = 18.31060 51.89592 65.16626
#
# Poissons Ratio (x) = 0.86935 0.71289
# Poissons Ratio (y) = 0.30674 0.28280
# Poissons Ratio (z) = 0.20031 0.22521
#
# Static dielectric constant tensor:
#      x y z
#    x 1.674180 0.000000 0.000000 
#    y 0.000000 1.659250 0.000000 
#    z 0.000000 0.000000 1.646070 
# 
# From -- ./inp_files/4940.got.cif
#   From: 2010.05.17/outbox.cif.g08.bks.cpg/sg25_3_cif.got.tgz:4940.got - 2010.06.04 01:04:00.
