data_PCOD9337931
_publ_section_title
;
Structure prediction by ZEFSAII (Michael W. Deem and Ramdas Pophale) SiO2 
 PCOD9337931
Probable space group: P M C 21
;
_chemical_formula_sum "Si O2"
_cell_formula_units_Z 26
_cell_length_a 32.852569
_cell_length_b 6.686761
_cell_length_c 5.151557
_cell_angle_alpha 90.000000
_cell_angle_beta 90.000000
_cell_angle_gamma 90.000000
_cell_volume 1131.680015
_symmetry_space_group_name_H-M "P M C 21"
_symmetry_group_IT_number 26
_symmetry_cell_setting 'orthorhombic'
loop_
_space_group_symop_operation_xyz
x,y,z
-x,-y,1/2+z
-x,y,z
x,-y,1/2+z
loop_
_atom_site_type_symbol
_atom_site_label
_atom_site_fract_x
_atom_site_fract_y
_atom_site_fract_z
Si Si1 0.913713 0.743113 0.222660
Si Si2 0.289571 0.137183 0.156044
Si Si3 0.544781 0.368698 0.157429
Si Si4 0.000000 0.364833 0.545890
Si Si5 0.880660 0.292949 0.220995
Si Si6 0.374595 0.128085 0.029416
Si Si7 0.202561 0.860109 0.555795
O O1 0.899939 0.510638 0.269551
O O2 0.910001 0.816694 0.515649
O O3 0.958704 0.751672 0.108523
O O4 0.881691 0.806034 0.003737
O O5 0.332520 0.243254 0.097646
O O6 0.289473 0.046552 0.445929
O O7 0.246622 0.242133 0.099209
O O8 0.500000 0.271998 0.119664
O O9 0.546531 0.449818 0.450474
O O10 0.583689 0.237530 0.092799
O O11 0.000000 0.452739 0.256010
O O12 0.835646 0.283799 0.105113
O O13 0.373528 0.942258 0.231896
O O14 0.200792 0.966054 0.276185
#
# Coordination Sequence:
#
# PCOD9337931 Si02
#       7
#     4   4   4   2   4   4   4
#     4  10  19  30  48  74  92 119 146 195 247 279
#     4   8  16  30  49  72  95 122 165 210 249 279
#     4  10  21  36  53  75 110 150 177 212 273 339
#     4  12  16  30  48  74  92 112 158 190 236 292
#     4  10  18  30  46  68  98 118 148 193 233 277
#     4  10  19  33  56  81 103 134 181 238 267 298
#     4  10  19  32  50  71  94 130 166 193 229 292
#
# _framework density 22.974692000000001
#
# number of rings (size 3 to 8) (size 9 to 14) (size 15 to 20)
#    0.000    2.154    3.077    1.846    0.000    0.615 
#    0.000    0.000    6.769    0.000    0.000   18.308 
#    0.000    0.000    0.000    0.000    0.000    0.000 
#
# Total GULP energy -145000.750366 kJ/mol
# GULP energy per Si atom -5576.951937 kJ/mol
# Density = 2.292240 g / cm^3
# Si number density = 22.974692 Si / 1000 Ang^3
#
#
#
# Elastic Constant Matrix: (Units=GPa)
#
#
# Indices 1 2 3 4 5 6 
#
# 1 192.8239 4.7209 -14.2523 0.0000 0.0000 0.0000
# 2 4.7209 28.1854 -16.9291 0.0000 0.0000 0.0000
# 3 -14.2523 -16.9291 116.9488 0.0000 0.0000 0.0000
# 4 0.0000 0.0000 0.0000 -0.7606 0.0000 0.0000
# 5 0.0000 0.0000 0.0000 0.0000 37.3217 0.0000
# 6 0.0000 0.0000 0.0000 0.0000 0.0000 -1.5526
#
#
#
# Elastic Compliance Matrix: (Units=1/GPa)
#
#
# Indices 1 2 3 4 5 6 
#
# 1 0.005241 -0.000541 0.000560 0.000000 0.000000 0.000000
# 2 -0.000541 0.038914 0.005567 0.000000 0.000000 0.000000
# 3 0.000560 0.005567 0.009425 0.000000 0.000000 0.000000
# 4 0.000000 0.000000 0.000000 -1.314743 0.000000 0.000000
# 5 0.000000 0.000000 0.000000 0.000000 0.026794 0.000000
# 6 0.000000 0.000000 0.000000 0.000000 0.000000 -0.644100
#
#
# Mechanical properties :
#
#
# Convention : Reuss Voigt Hill
#
# Bulk Modulus (GPa) = 15.44361 31.67078 23.55719
# Shear Modulus (GPa) = -2.67658 31.29629 14.30985
#
# Velocity S-wave (km/s) = -1.08053 3.69481 2.49841
# Velocity P-wave (km/s) = 2.27594 5.65837 4.31260
#
# Compressibility (1/GPa) = 0.06475171
#
# Stress axis : x y z
#
# Youngs Moduli (GPa) = 190.81254 25.69785 106.10186
#
# Poissons Ratio (x) = 0.01391 -0.05945
# Poissons Ratio (y) = 0.10327 -0.59067
# Poissons Ratio (z) = -0.10692 -0.14306
#
# Static dielectric constant tensor:
#      x y z
#    x 1.907850 0.000000 0.000000 
#    y 0.000000 2.276810 0.000000 
#    z 0.000000 0.000000 1.908160 
# 
# From -- ./inp_files/1052.got.cif
#   From: 2010.05.17/outbox.cif.g08.bks.cpg/sg26_1_cif.got.tgz:1052.got - 2010.06.04 01:07:29.
