data_PCOD9337779
_publ_section_title
;
Structure prediction by ZEFSAII (Michael W. Deem and Ramdas Pophale) SiO2 
 PCOD9337779
Probable space group: P M M 2
;
_chemical_formula_sum "Si O2"
_cell_formula_units_Z 32
_cell_length_a 8.774120
_cell_length_b 15.837787
_cell_length_c 12.170994
_cell_angle_alpha 90.000000
_cell_angle_beta 90.000000
_cell_angle_gamma 90.000000
_cell_volume 1691.313502
_symmetry_space_group_name_H-M "P M M 2"
_symmetry_group_IT_number 25
_symmetry_cell_setting 'orthorhombic'
loop_
_space_group_symop_operation_xyz
x,y,z
-x,-y,z
-x,y,z
x,-y,z
loop_
_atom_site_type_symbol
_atom_site_label
_atom_site_fract_x
_atom_site_fract_y
_atom_site_fract_z
Si Si1 0.182215 0.904749 0.672570
Si Si2 0.316618 0.594804 0.216017
Si Si3 0.681842 0.849990 0.442032
Si Si4 0.682646 0.248068 0.813003
Si Si5 0.181971 0.095112 0.211385
Si Si6 0.316089 0.754014 0.068175
Si Si7 0.181928 0.662416 0.439227
Si Si8 0.183093 0.595309 0.681040
O O1 0.249730 0.891727 0.551053
O O2 0.249344 0.832663 0.750435
O O3 0.000000 0.895077 0.666887
O O4 0.217383 0.000000 0.710685
O O5 0.500000 0.600209 0.230110
O O6 0.280046 0.500000 0.177871
O O7 0.270979 0.668229 0.131479
O O8 0.238792 0.612694 0.332716
O O9 0.745992 0.891316 0.331387
O O10 0.734953 0.752575 0.441371
O O11 0.000000 0.895966 0.220383
O O12 0.500000 0.244567 0.806312
O O13 0.740083 0.332647 0.753529
O O14 0.728363 0.248051 0.940758
O O15 0.500000 0.144874 0.443638
O O16 0.246148 0.166431 0.131128
O O17 0.216734 0.000000 0.172820
O O18 0.500000 0.760085 0.073934
O O19 0.215266 0.614420 0.552839
O O20 0.000000 0.675869 0.432830
O O21 0.231477 0.500000 0.708732
O O22 0.000000 0.600938 0.694368
#
# Coordination Sequence:
#
# PCOD9337779 Si02
#       8
#     4   4   4   4   4   4   4   4
#     4  11  24  42  64  90 122 161 203 249 305 366
#     4  10  21  38  61  89 122 160 202 249 301 358
#     4  12  23  37  62  94 126 159 197 244 303 365
#     4  11  24  41  63  90 121 161 208 257 308 361
#     4  11  24  41  63  92 124 160 201 246 301 362
#     4  10  23  42  62  87 121 162 206 253 303 356
#     4  11  21  36  61  91 124 161 199 242 299 364
#     4  10  22  40  62  89 124 164 203 249 305 364
#
# _framework density 18.920206
#
# number of rings (size 3 to 8) (size 9 to 14) (size 15 to 20)
#    0.000    1.250    2.500    3.375    0.000    7.000 
#    0.000    3.750    0.000    0.000    0.000    0.000 
#    0.000    0.000    0.000    0.000    0.000    0.000 
#
# Total GULP energy -178936.314686 kJ/mol
# GULP energy per Si atom -5591.759834 kJ/mol
# Density = 1.887714 g / cm^3
# Si number density = 18.920206 Si / 1000 Ang^3
#
#
#
# Elastic Constant Matrix: (Units=GPa)
#
#
# Indices 1 2 3 4 5 6 
#
# 1 51.0199 63.2498 57.0361 0.0000 0.0000 0.0000
# 2 63.2498 190.1996 97.7838 0.0000 0.0000 0.0000
# 3 57.0361 97.7838 163.3939 0.0000 0.0000 0.0000
# 4 0.0000 0.0000 0.0000 -2.3088 0.0000 0.0000
# 5 0.0000 0.0000 0.0000 0.0000 84.3126 0.0000
# 6 0.0000 0.0000 0.0000 0.0000 0.0000 28.3700
#
#
#
# Elastic Compliance Matrix: (Units=1/GPa)
#
#
# Indices 1 2 3 4 5 6 
#
# 1 0.040531 -0.008962 -0.008785 0.000000 0.000000 0.000000
# 2 -0.008962 0.009576 -0.002602 0.000000 0.000000 0.000000
# 3 -0.008785 -0.002602 0.010744 0.000000 0.000000 0.000000
# 4 0.000000 0.000000 0.000000 -0.433119 0.000000 0.000000
# 5 0.000000 0.000000 0.000000 0.000000 0.011861 0.000000
# 6 0.000000 0.000000 0.000000 0.000000 0.000000 0.035249
#
#
# Mechanical properties :
#
#
# Convention : Reuss Voigt Hill
#
# Bulk Modulus (GPa) = 49.62113 93.41695 71.51904
# Shear Modulus (GPa) = -18.00229 34.51100 8.25436
#
# Velocity S-wave (km/s) = -3.08796 4.27550 2.09098
# Velocity P-wave (km/s) = 3.68367 8.59387 6.61151
#
# Compressibility (1/GPa) = 0.02015271
#
# Stress axis : x y z
#
# Youngs Moduli (GPa) = 24.67225 104.43040 93.07433
#
# Poissons Ratio (x) = 0.93591 0.81766
# Poissons Ratio (y) = 0.22111 0.24220
# Poissons Ratio (z) = 0.21675 0.27176
#
# Static dielectric constant tensor:
#      x y z
#    x 1.633940 0.000000 0.000000 
#    y 0.000000 1.651850 0.000000 
#    z 0.000000 0.000000 1.624490 
# 
# From -- ./inp_files/4162.got.cif
#   From: 2010.05.17/outbox.cif.g08.bks.cpg/sg25_3_cif.got.tgz:4162.got - 2010.06.04 01:04:00.
