data_PCOD9337319
_publ_section_title
;
Structure prediction by ZEFSAII (Michael W. Deem and Ramdas Pophale) SiO2 
 PCOD9337319
Probable space group: P M M 2
;
_chemical_formula_sum "Si O2"
_cell_formula_units_Z 32
_cell_length_a 8.690497
_cell_length_b 15.032825
_cell_length_c 12.604877
_cell_angle_alpha 90.000000
_cell_angle_beta 90.000000
_cell_angle_gamma 90.000000
_cell_volume 1646.735424
_symmetry_space_group_name_H-M "P M M 2"
_symmetry_group_IT_number 25
_symmetry_cell_setting 'orthorhombic'
loop_
_space_group_symop_operation_xyz
x,y,z
-x,-y,z
-x,y,z
x,-y,z
loop_
_atom_site_type_symbol
_atom_site_label
_atom_site_fract_x
_atom_site_fract_y
_atom_site_fract_z
Si Si1 0.685705 0.899480 0.436450
Si Si2 0.315350 0.396174 0.709122
Si Si3 0.182863 0.403252 0.330069
Si Si4 0.818056 0.712712 0.905238
Si Si5 0.815214 0.277996 0.518012
Si Si6 0.313351 0.901830 0.963720
Si Si7 0.677711 0.865587 0.198686
Si Si8 0.324367 0.336817 0.124895
O O1 0.500000 0.888437 0.435042
O O2 0.755875 0.822585 0.509037
O O3 0.743393 0.888688 0.313912
O O4 0.720242 0.000000 0.471132
O O5 0.500000 0.395011 0.704572
O O6 0.265136 0.500000 0.704081
O O7 0.259859 0.347821 0.816078
O O8 0.249288 0.336541 0.613784
O O9 0.209967 0.500000 0.380143
O O10 0.236567 0.327197 0.409725
O O11 0.261582 0.399346 0.216294
O O12 0.000000 0.392366 0.314538
O O13 0.754314 0.814369 0.908023
O O14 0.000000 0.714821 0.889280
O O15 0.776166 0.671132 0.019684
O O16 0.000000 0.278975 0.522405
O O17 0.500000 0.891688 0.965676
O O18 0.278060 0.000000 0.918877
O O19 0.257686 0.900886 0.087044
O O20 0.500000 0.896258 0.202176
O O21 0.678513 0.760161 0.180265
O O22 0.500000 0.357266 0.095266
#
# Coordination Sequence:
#
# PCOD9337319 Si02
#       8
#     4   4   4   4   4   4   4   4
#     4  10  19  33  56  86 121 162 207 250 293 346
#     4  11  25  46  71  93 112 144 199 257 303 358
#     4  10  21  36  55  83 120 159 194 234 296 367
#     4  11  23  39  61  89 124 159 195 244 304 364
#     4  11  23  40  62  88 124 159 193 244 304 364
#     4   9  17  32  56  87 124 165 207 248 291 344
#     4   8  14  27  50  80 115 156 200 243 285 333
#     4  10  19  34  57  84 118 158 201 247 292 345
#
# _framework density 19.432388
#
# number of rings (size 3 to 8) (size 9 to 14) (size 15 to 20)
#    0.000    2.000    1.250    3.750    0.000    4.750 
#    0.000    0.625    0.000    5.250    0.000    0.000 
#    0.000    0.000    0.000    0.000    0.000    0.000 
#
# Total GULP energy -178536.939478 kJ/mol
# GULP energy per Si atom -5579.279359 kJ/mol
# Density = 1.938816 g / cm^3
# Si number density = 19.432388 Si / 1000 Ang^3
#
#
#
# Elastic Constant Matrix: (Units=GPa)
#
#
# Indices 1 2 3 4 5 6 
#
# 1 48.0697 45.8534 26.5167 0.0000 0.0000 0.0000
# 2 45.8534 150.3466 68.6731 0.0000 0.0000 0.0000
# 3 26.5167 68.6731 89.3625 0.0000 0.0000 0.0000
# 4 0.0000 0.0000 0.0000 16.5085 0.0000 0.0000
# 5 0.0000 0.0000 0.0000 0.0000 26.6350 0.0000
# 6 0.0000 0.0000 0.0000 0.0000 0.0000 18.5944
#
#
#
# Elastic Compliance Matrix: (Units=1/GPa)
#
#
# Indices 1 2 3 4 5 6 
#
# 1 0.029807 -0.007782 -0.002864 0.000000 0.000000 0.000000
# 2 -0.007782 0.012281 -0.007128 0.000000 0.000000 0.000000
# 3 -0.002864 -0.007128 0.017518 0.000000 0.000000 0.000000
# 4 0.000000 0.000000 0.000000 0.060575 0.000000 0.000000
# 5 0.000000 0.000000 0.000000 0.000000 0.037545 0.000000
# 6 0.000000 0.000000 0.000000 0.000000 0.000000 0.053780
#
#
# Mechanical properties :
#
#
# Convention : Reuss Voigt Hill
#
# Bulk Modulus (GPa) = 41.56923 63.31837 52.44380
# Shear Modulus (GPa) = 19.60230 22.12995 20.86613
#
# Velocity S-wave (km/s) = 3.17952 3.37830 3.28041
# Velocity P-wave (km/s) = 5.90908 6.91895 6.43386
#
# Compressibility (1/GPa) = 0.02405626
#
# Stress axis : x y z
#
# Youngs Moduli (GPa) = 33.54969 81.42857 57.08398
#
# Poissons Ratio (x) = 0.63371 0.16349
# Poissons Ratio (y) = 0.26110 0.40690
# Poissons Ratio (z) = 0.09609 0.58044
#
# Static dielectric constant tensor:
#      x y z
#    x 1.664290 0.000000 0.000000 
#    y 0.000000 1.712700 0.000000 
#    z 0.000000 0.000000 1.674200 
# 
# From -- ./inp_files/4202.got.cif
#   From: 2010.05.17/outbox.cif.g08.bks.cpg/sg25_3_cif.got.tgz:4202.got - 2010.06.04 01:04:00.
