data_PCOD9337683
_publ_section_title
;
Structure prediction by ZEFSAII (Michael W. Deem and Ramdas Pophale) SiO2 
 PCOD9337683
Probable space group: P M M 2
;
_chemical_formula_sum "Si O2"
_cell_formula_units_Z 32
_cell_length_a 7.425741
_cell_length_b 9.945796
_cell_length_c 21.397552
_cell_angle_alpha 90.000000
_cell_angle_beta 90.000000
_cell_angle_gamma 90.000000
_cell_volume 1580.314173
_symmetry_space_group_name_H-M "P M M 2"
_symmetry_group_IT_number 25
_symmetry_cell_setting 'orthorhombic'
loop_
_space_group_symop_operation_xyz
x,y,z
-x,-y,z
-x,y,z
x,-y,z
loop_
_atom_site_type_symbol
_atom_site_label
_atom_site_fract_x
_atom_site_fract_y
_atom_site_fract_z
Si Si1 0.283859 0.847162 0.314920
Si Si2 0.720656 0.344375 0.698614
Si Si3 0.279207 0.344420 0.425782
Si Si4 0.716790 0.847429 0.951651
Si Si5 0.213110 0.348223 0.065614
Si Si6 0.719383 0.846123 0.810223
Si Si7 0.709963 0.663469 0.562311
Si Si8 0.785448 0.152772 0.172653
O O1 0.500000 0.851502 0.320376
O O2 0.218486 0.748357 0.368954
O O3 0.243427 0.803550 0.244157
O O4 0.216164 0.000000 0.322166
O O5 0.500000 0.342273 0.697148
O O6 0.772767 0.500000 0.706797
O O7 0.780499 0.253824 0.756247
O O8 0.783599 0.295667 0.629972
O O9 0.500000 0.343221 0.427178
O O10 0.226606 0.500000 0.417108
O O11 0.216553 0.296383 0.494569
O O12 0.500000 0.852274 0.950375
O O13 0.767119 0.737399 0.002446
O O14 0.778818 0.000000 0.967356
O O15 0.777094 0.813837 0.881078
O O16 0.286131 0.500000 0.061493
O O17 0.287863 0.257602 0.122243
O O18 0.000000 0.360759 0.076991
O O19 0.500000 0.842017 0.810259
O O20 0.771458 0.000000 0.797183
O O21 0.500000 0.703395 0.562262
O O22 0.715783 0.500000 0.562455
O O23 0.000000 0.144170 0.163013
O O24 0.713716 0.000000 0.165476
#
# Coordination Sequence:
#
# PCOD9337683 Si02
#       8
#     4   4   4   4   4   4   4   4
#     4   9  17  28  42  62  86 108 134 173 214 248
#     4   8  12  18  30  48  71 103 141 174 204 244
#     4   8  13  22  36  53  76 108 141 170 204 248
#     4   9  18  32  49  68  91 121 154 184 217 263
#     4  10  21  35  50  70  94 116 142 182 227 266
#     4   8  14  24  36  53  80 110 139 174 213 249
#     4   7  10  17  29  46  70 102 139 172 200 239
#     4   9  18  33  50  64  82 113 146 171 205 259
#
# _framework density 20.249137999999999
#
# number of rings (size 3 to 8) (size 9 to 14) (size 15 to 20)
#    0.000    3.500    0.000    2.625    0.000    2.500 
#    0.000    3.125    0.000    3.750    0.000    0.000 
#    0.000    1.000    0.000    7.000    0.000   10.750 
#
# Total GULP energy -178348.751069 kJ/mol
# GULP energy per Si atom -5573.398471 kJ/mol
# Density = 2.020305 g / cm^3
# Si number density = 20.249138 Si / 1000 Ang^3
#
#
#
# Elastic Constant Matrix: (Units=GPa)
#
#
# Indices 1 2 3 4 5 6 
#
# 1 63.6781 5.0352 1.8212 0.0000 0.0000 0.0000
# 2 5.0352 119.5290 137.6401 0.0000 0.0000 0.0000
# 3 1.8212 137.6401 221.0409 0.0000 0.0000 0.0000
# 4 0.0000 0.0000 0.0000 40.6694 0.0000 0.0000
# 5 0.0000 0.0000 0.0000 0.0000 34.2720 0.0000
# 6 0.0000 0.0000 0.0000 0.0000 0.0000 1.1326
#
#
#
# Elastic Compliance Matrix: (Units=1/GPa)
#
#
# Indices 1 2 3 4 5 6 
#
# 1 0.015820 -0.001825 0.001006 0.000000 0.000000 0.000000
# 2 -0.001825 0.029777 -0.018527 0.000000 0.000000 0.000000
# 3 0.001006 -0.018527 0.016052 0.000000 0.000000 0.000000
# 4 0.000000 0.000000 0.000000 0.024588 0.000000 0.000000
# 5 0.000000 0.000000 0.000000 0.000000 0.029178 0.000000
# 6 0.000000 0.000000 0.000000 0.000000 0.000000 0.882943
#
#
# Mechanical properties :
#
#
# Convention : Reuss Voigt Hill
#
# Bulk Modulus (GPa) = 43.55873 77.02676 60.29275
# Shear Modulus (GPa) = 4.78605 32.53157 18.65881
#
# Velocity S-wave (km/s) = 1.53906 4.01255 3.03885
# Velocity P-wave (km/s) = 4.97156 7.71942 6.49253
#
# Compressibility (1/GPa) = 0.02295751
#
# Stress axis : x y z
#
# Youngs Moduli (GPa) = 63.21312 33.58274 62.29628
#
# Poissons Ratio (x) = 0.06128 -0.06266
# Poissons Ratio (y) = 0.11534 1.15416
# Poissons Ratio (z) = -0.06358 0.62219
#
# Static dielectric constant tensor:
#      x y z
#    x 1.778520 0.000000 0.000000 
#    y 0.000000 1.691790 0.000000 
#    z 0.000000 0.000000 1.719040 
# 
# From -- ./inp_files/6369.got.cif
#   From: 2010.05.17/outbox.cif.g08.bks.cpg/sg25_4_cif.got.tgz:6369.got - 2010.06.04 01:04:00.
