data_PCOD9337526
_publ_section_title
;
Structure prediction by ZEFSAII (Michael W. Deem and Ramdas Pophale) SiO2 
 PCOD9337526
Probable space group: P M M 2
;
_chemical_formula_sum "Si O2"
_cell_formula_units_Z 32
_cell_length_a 9.461511
_cell_length_b 7.805413
_cell_length_c 21.339006
_cell_angle_alpha 90.000000
_cell_angle_beta 90.000000
_cell_angle_gamma 90.000000
_cell_volume 1575.906953
_symmetry_space_group_name_H-M "P M M 2"
_symmetry_group_IT_number 25
_symmetry_cell_setting 'orthorhombic'
loop_
_space_group_symop_operation_xyz
x,y,z
-x,-y,z
-x,y,z
x,-y,z
loop_
_atom_site_type_symbol
_atom_site_label
_atom_site_fract_x
_atom_site_fract_y
_atom_site_fract_z
Si Si1 0.161251 0.293437 0.090980
Si Si2 0.336435 0.709047 0.209965
Si Si3 0.160788 0.293663 0.468985
Si Si4 0.160534 0.294680 0.714451
Si Si5 0.335888 0.709246 0.349520
Si Si6 0.838144 0.203735 0.952520
Si Si7 0.659899 0.295680 0.831811
Si Si8 0.661106 0.795567 0.591907
O O1 0.158953 0.500000 0.094408
O O2 0.247941 0.229460 0.150656
O O3 0.000000 0.230274 0.094114
O O4 0.216459 0.247379 0.022062
O O5 0.500000 0.757961 0.203216
O O6 0.331406 0.500000 0.209544
O O7 0.289228 0.762743 0.279651
O O8 0.153719 0.500000 0.464433
O O9 0.237295 0.230303 0.405837
O O10 0.256045 0.253276 0.528997
O O11 0.000000 0.229680 0.475632
O O12 0.149988 0.500000 0.721607
O O13 0.245234 0.226094 0.774740
O O14 0.249837 0.262397 0.651987
O O15 0.000000 0.227455 0.710263
O O16 0.500000 0.760101 0.358687
O O17 0.334690 0.500000 0.350179
O O18 0.739169 0.268274 0.897233
O O19 0.000000 0.272150 0.946904
O O20 0.845094 0.000000 0.947260
O O21 0.500000 0.226301 0.831869
O O22 0.649593 0.500000 0.822344
O O23 0.500000 0.727404 0.592441
O O24 0.653447 0.000000 0.594188
#
# Coordination Sequence:
#
# PCOD9337526 Si02
#       8
#     4   4   4   4   4   4   4   4
#     4   9  17  29  47  71  98 129 167 213 262 309
#     4   8  14  25  43  69  99 129 164 208 257 307
#     4  10  20  33  52  79 107 136 173 216 261 309
#     4  10  21  38  61  86 109 135 169 209 254 305
#     4   8  14  26  45  70 100 132 166 209 261 311
#     4  10  21  36  53  74 103 140 178 215 257 305
#     4  10  21  37  58  83 108 135 169 210 256 305
#     4  11  24  39  55  77 106 141 178 214 254 302
#
# _framework density 20.305765999999998
#
# number of rings (size 3 to 8) (size 9 to 14) (size 15 to 20)
#    0.000    2.500    0.000    3.000    0.000    7.000 
#    0.000    3.750    0.000    0.750    0.000    3.500 
#    0.000    0.000    0.000    0.000    0.000    0.000 
#
# Total GULP energy -178621.167738 kJ/mol
# GULP energy per Si atom -5581.911492 kJ/mol
# Density = 2.025955 g / cm^3
# Si number density = 20.305766 Si / 1000 Ang^3
#
#
#
# Elastic Constant Matrix: (Units=GPa)
#
#
# Indices 1 2 3 4 5 6 
#
# 1 164.3640 7.9494 129.9406 0.0000 0.0000 0.0000
# 2 7.9494 25.8255 -2.0864 0.0000 0.0000 0.0000
# 3 129.9406 -2.0864 218.4486 0.0000 0.0000 0.0000
# 4 0.0000 0.0000 0.0000 -90.6656 0.0000 0.0000
# 5 0.0000 0.0000 0.0000 0.0000 45.1814 0.0000
# 6 0.0000 0.0000 0.0000 0.0000 0.0000 9.3820
#
#
#
# Elastic Compliance Matrix: (Units=1/GPa)
#
#
# Indices 1 2 3 4 5 6 
#
# 1 0.011933 -0.004250 -0.007139 0.000000 0.000000 0.000000
# 2 -0.004250 0.040265 0.002913 0.000000 0.000000 0.000000
# 3 -0.007139 0.002913 0.008852 0.000000 0.000000 0.000000
# 4 0.000000 0.000000 0.000000 -0.011030 0.000000 0.000000
# 5 0.000000 0.000000 0.000000 0.000000 0.022133 0.000000
# 6 0.000000 0.000000 0.000000 0.000000 0.000000 0.106587
#
#
# Mechanical properties :
#
#
# Convention : Reuss Voigt Hill
#
# Bulk Modulus (GPa) = 22.67691 75.58281 49.12986
# Shear Modulus (GPa) = 23.76505 10.96852 17.36679
#
# Velocity S-wave (km/s) = 3.42476 2.32667 2.92766
# Velocity P-wave (km/s) = 5.17983 6.67241 5.97292
#
# Compressibility (1/GPa) = 0.04409771
#
# Stress axis : x y z
#
# Youngs Moduli (GPa) = 83.79775 24.83547 112.96757
#
# Poissons Ratio (x) = 0.10555 0.80648
# Poissons Ratio (y) = 0.35614 -0.32903
# Poissons Ratio (z) = 0.59824 -0.07234
#
# Static dielectric constant tensor:
#      x y z
#    x 1.714240 0.000000 0.000000 
#    y 0.000000 1.739610 0.000000 
#    z 0.000000 0.000000 1.693680 
# 
# From -- ./inp_files/6564.got.cif
#   From: 2010.05.17/outbox.cif.g08.bks.cpg/sg25_4_cif.got.tgz:6564.got - 2010.06.04 01:04:00.
