data_PCOD9337652
_publ_section_title
;
Structure prediction by ZEFSAII (Michael W. Deem and Ramdas Pophale) SiO2 
 PCOD9337652
Probable space group: P M M 2
;
_chemical_formula_sum "Si O2"
_cell_formula_units_Z 32
_cell_length_a 11.227457
_cell_length_b 14.017342
_cell_length_c 9.810279
_cell_angle_alpha 90.000000
_cell_angle_beta 90.000000
_cell_angle_gamma 90.000000
_cell_volume 1543.932924
_symmetry_space_group_name_H-M "P M M 2"
_symmetry_group_IT_number 25
_symmetry_cell_setting 'orthorhombic'
loop_
_space_group_symop_operation_xyz
x,y,z
-x,-y,z
-x,y,z
x,-y,z
loop_
_atom_site_type_symbol
_atom_site_label
_atom_site_fract_x
_atom_site_fract_y
_atom_site_fract_z
Si Si1 0.712627 0.246635 0.615280
Si Si2 0.867339 0.898452 0.718419
Si Si3 0.366619 0.113891 0.396403
Si Si4 0.634146 0.390704 0.405199
Si Si5 0.366757 0.300443 0.918235
Si Si6 0.725894 0.895677 0.995937
Si Si7 0.785189 0.391411 0.140157
Si Si8 0.133823 0.811915 0.231302
O O1 0.838825 0.195621 0.635307
O O2 0.636772 0.161260 0.546480
O O3 0.714153 0.330366 0.506416
O O4 0.662779 0.283392 0.759161
O O5 0.776436 0.899608 0.843176
O O6 0.000000 0.894430 0.773292
O O7 0.855088 0.000000 0.642281
O O8 0.500000 0.133288 0.337544
O O9 0.251128 0.160315 0.321438
O O10 0.352434 0.000000 0.399287
O O11 0.500000 0.353226 0.415865
O O12 0.635051 0.500000 0.449179
O O13 0.678435 0.388412 0.250790
O O14 0.500000 0.338442 0.931969
O O15 0.357091 0.197347 0.994290
O O16 0.270294 0.366351 0.993345
O O17 0.674663 0.000000 0.031301
O O18 0.835681 0.872099 0.095386
O O19 0.834570 0.500000 0.143749
O O20 0.861887 0.300160 0.188484
O O21 0.000000 0.833812 0.283389
#
# Coordination Sequence:
#
# PCOD9337652 Si02
#       8
#     4   4   4   4   4   4   4   4
#     4  11  21  37  58  86 125 161 207 256 309 370
#     4   9  18  34  57  83 114 157 207 256 309 373
#     4  11  24  40  59  87 128 175 216 257 312 375
#     4  10  20  36  60  85 114 157 202 245 301 369
#     4  10  21  35  57  90 124 160 206 259 308 363
#     4   9  19  35  55  82 118 160 204 252 310 370
#     4  10  22  41  63  89 121 157 200 253 315 378
#     4  11  23  39  63  94 125 161 209 264 316 373
#
# _framework density 20.726289000000001
#
# number of rings (size 3 to 8) (size 9 to 14) (size 15 to 20)
#    0.000    1.875    1.250    2.625    0.000    6.250 
#    0.000    0.000    0.000    0.375    0.000    0.000 
#    0.000    0.000    0.000    0.000    0.000    0.000 
#
# Total GULP energy -178299.840038 kJ/mol
# GULP energy per Si atom -5571.870001 kJ/mol
# Density = 2.067912 g / cm^3
# Si number density = 20.726289 Si / 1000 Ang^3
#
#
#
# Elastic Constant Matrix: (Units=GPa)
#
#
# Indices 1 2 3 4 5 6 
#
# 1 83.3436 5.3387 25.0619 0.0000 0.0000 0.0000
# 2 5.3387 106.3608 29.6565 0.0000 0.0000 0.0000
# 3 25.0619 29.6565 80.7661 0.0000 0.0000 0.0000
# 4 0.0000 0.0000 0.0000 28.2649 0.0000 0.0000
# 5 0.0000 0.0000 0.0000 0.0000 15.0143 0.0000
# 6 0.0000 0.0000 0.0000 0.0000 0.0000 13.0648
#
#
#
# Elastic Compliance Matrix: (Units=1/GPa)
#
#
# Indices 1 2 3 4 5 6 
#
# 1 0.013261 0.000537 -0.004312 0.000000 0.000000 0.000000
# 2 0.000537 0.010496 -0.004021 0.000000 0.000000 0.000000
# 3 -0.004312 -0.004021 0.015196 0.000000 0.000000 0.000000
# 4 0.000000 0.000000 0.000000 0.035380 0.000000 0.000000
# 5 0.000000 0.000000 0.000000 0.000000 0.066603 0.000000
# 6 0.000000 0.000000 0.000000 0.000000 0.000000 0.076542
#
#
# Mechanical properties :
#
#
# Convention : Reuss Voigt Hill
#
# Bulk Modulus (GPa) = 42.80647 43.39829 43.10238
# Shear Modulus (GPa) = 20.75932 25.29636 23.02784
#
# Velocity S-wave (km/s) = 3.16823 3.49735 3.33685
# Velocity P-wave (km/s) = 5.83795 6.10679 5.97388
#
# Compressibility (1/GPa) = 0.02336096
#
# Stress axis : x y z
#
# Youngs Moduli (GPa) = 75.41044 95.27367 65.80794
#
# Poissons Ratio (x) = -0.05113 0.28376
# Poissons Ratio (y) = -0.04047 0.26459
# Poissons Ratio (z) = 0.32516 0.38306
#
# Static dielectric constant tensor:
#      x y z
#    x 1.754490 0.000000 0.000000 
#    y 0.000000 1.784480 0.000000 
#    z 0.000000 0.000000 1.774450 
# 
# From -- ./inp_files/2812.got.cif
#   From: 2010.05.17/outbox.cif.g08.bks.cpg/sg25_2_cif.got.tgz:2812.got - 2010.06.04 01:04:00.
