data_PCOD9337690
_publ_section_title
;
Structure prediction by ZEFSAII (Michael W. Deem and Ramdas Pophale) SiO2 
 PCOD9337690
Probable space group: P M M 2
;
_chemical_formula_sum "Si O2"
_cell_formula_units_Z 32
_cell_length_a 9.022915
_cell_length_b 19.138241
_cell_length_c 10.946315
_cell_angle_alpha 90.000000
_cell_angle_beta 90.000000
_cell_angle_gamma 90.000000
_cell_volume 1890.239468
_symmetry_space_group_name_H-M "P M M 2"
_symmetry_group_IT_number 25
_symmetry_cell_setting 'orthorhombic'
loop_
_space_group_symop_operation_xyz
x,y,z
-x,-y,z
-x,y,z
x,-y,z
loop_
_atom_site_type_symbol
_atom_site_label
_atom_site_fract_x
_atom_site_fract_y
_atom_site_fract_z
Si Si1 0.322841 0.699293 0.357700
Si Si2 0.822701 0.419009 0.491385
Si Si3 0.322841 0.300707 0.625070
Si Si4 0.331799 0.915252 0.491385
Si Si5 0.677799 0.209860 0.126628
Si Si6 0.822980 0.081280 0.745871
Si Si7 0.822980 0.918720 0.236899
Si Si8 0.677799 0.209860 0.856141
O O1 0.500000 0.689722 0.348281
O O2 0.244135 0.624667 0.377442
O O3 0.294837 0.735020 0.491385
O O4 0.272492 0.741749 0.239672
O O5 0.780017 0.500000 0.491385
O O6 0.755865 0.375333 0.605327
O O7 0.000000 0.413909 0.491385
O O8 0.500000 0.310278 0.634489
O O9 0.245792 0.102237 0.614811
O O10 0.272492 0.258251 0.743097
O O11 0.500000 0.887542 0.491385
O O12 0.245792 0.897763 0.367959
O O13 0.340250 0.000000 0.491386
O O14 0.500000 0.201299 0.137861
O O15 0.753925 0.134901 0.141857
O O16 0.709110 0.238706 0.991385
O O17 0.753925 0.134901 0.840912
O O18 0.000000 0.086720 0.742024
O O19 0.784852 0.000000 0.769540
O O20 0.000000 0.913280 0.240745
O O21 0.784852 0.000000 0.213230
O O22 0.500000 0.201299 0.844908
#
# Coordination Sequence:
#
# PCOD9337690 Si02
#       8
#     4   4   4   4   4   4   4   4
#     4   8  17  33  53  77 103 134 169 207 250 300
#     4   9  17  30  53  86 114 134 164 205 245 289
#     4   8  17  33  53  77 103 134 169 207 250 300
#     4   9  17  30  49  70  91 118 156 205 260 314
#     4  10  21  36  53  74 102 136 176 222 267 312
#     4  10  21  35  50  71 100 133 173 222 274 324
#     4  10  21  35  50  71 100 133 173 222 274 324
#     4  10  21  36  53  74 102 136 176 222 267 312
#
# _framework density 16.929072000000001
#
# number of rings (size 3 to 8) (size 9 to 14) (size 15 to 20)
#    0.750    2.000    0.000    1.125    1.750    6.000 
#    0.000    2.500    0.000    0.750    0.000    5.250 
#    0.000    0.000    0.000    0.000    0.000    0.000 
#
# Total GULP energy -178178.344527 kJ/mol
# GULP energy per Si atom -5568.073266 kJ/mol
# Density = 1.689054 g / cm^3
# Si number density = 16.929072 Si / 1000 Ang^3
#
#
#
# Elastic Constant Matrix: (Units=GPa)
#
#
# Indices 1 2 3 4 5 6 
#
# 1 26.8091 33.9203 35.2191 0.0000 0.0000 0.0000
# 2 33.9203 102.0973 63.3007 0.0000 0.0000 0.0000
# 3 35.2191 63.3007 117.1107 0.0000 0.0000 0.0000
# 4 0.0000 0.0000 0.0000 10.1426 0.0000 0.0000
# 5 0.0000 0.0000 0.0000 0.0000 12.7440 0.0000
# 6 0.0000 0.0000 0.0000 0.0000 0.0000 25.2058
#
#
#
# Elastic Compliance Matrix: (Units=1/GPa)
#
#
# Indices 1 2 3 4 5 6 
#
# 1 0.077195 -0.016926 -0.014067 0.000000 0.000000 0.000000
# 2 -0.016926 0.018443 -0.004878 0.000000 0.000000 0.000000
# 3 -0.014067 -0.004878 0.015406 0.000000 0.000000 0.000000
# 4 0.000000 0.000000 0.000000 0.098594 0.000000 0.000000
# 5 0.000000 0.000000 0.000000 0.000000 0.078468 0.000000
# 6 0.000000 0.000000 0.000000 0.000000 0.000000 0.039673
#
#
# Mechanical properties :
#
#
# Convention : Reuss Voigt Hill
#
# Bulk Modulus (GPa) = 25.44362 56.76635 41.10498
# Shear Modulus (GPa) = 12.11765 17.19029 14.65397
#
# Velocity S-wave (km/s) = 2.67833 3.19004 2.94532
# Velocity P-wave (km/s) = 4.96253 6.86827 5.99166
#
# Compressibility (1/GPa) = 0.03930259
#
# Stress axis : x y z
#
# Youngs Moduli (GPa) = 12.95418 54.22258 64.90934
#
# Poissons Ratio (x) = 0.91775 0.91305
# Poissons Ratio (y) = 0.21926 0.31666
# Poissons Ratio (z) = 0.18222 0.26452
#
# Static dielectric constant tensor:
#      x y z
#    x 1.558480 0.000000 0.000000 
#    y 0.000000 1.577900 0.000000 
#    z 0.000000 0.000000 1.603530 
# 
# From -- ./inp_files/5758.got.cif
#   From: 2010.05.17/outbox.cif.g08.bks.cpg/sg25_3_cif.got.tgz:5758.got - 2010.06.04 01:04:00.
