data_PCOD9337926
_publ_section_title
;
Structure prediction by ZEFSAII (Michael W. Deem and Ramdas Pophale) SiO2 
 PCOD9337926
Probable space group: P M C 21
;
_chemical_formula_sum "Si O2"
_cell_formula_units_Z 32
_cell_length_a 7.413580
_cell_length_b 7.448800
_cell_length_c 25.586442
_cell_angle_alpha 90.000000
_cell_angle_beta 90.000000
_cell_angle_gamma 90.000000
_cell_volume 1412.941529
_symmetry_space_group_name_H-M "P M C 21"
_symmetry_group_IT_number 26
_symmetry_cell_setting 'orthorhombic'
loop_
_space_group_symop_operation_xyz
x,y,z
-x,-y,1/2+z
-x,y,z
x,-y,1/2+z
loop_
_atom_site_type_symbol
_atom_site_label
_atom_site_fract_x
_atom_site_fract_y
_atom_site_fract_z
Si Si1 0.711358 0.350668 0.932300
Si Si2 0.720147 0.045358 0.119795
Si Si3 0.210686 0.323800 0.818781
Si Si4 0.296598 0.735514 0.801036
Si Si5 0.720728 0.356105 0.190934
Si Si6 0.279101 0.964797 0.501709
Si Si7 0.716442 0.763934 0.206548
Si Si8 0.278380 0.245936 0.413784
O O1 0.500000 0.372365 0.942996
O O2 0.728741 0.256904 0.875455
O O3 0.783733 0.551526 0.926207
O O4 0.783564 0.224115 0.977550
O O5 0.500000 0.039660 0.119396
O O6 0.781605 0.903873 0.163529
O O7 0.771669 0.242327 0.140508
O O8 0.779930 0.006921 0.061034
O O9 0.304117 0.517466 0.809359
O O10 0.241473 0.203614 0.767642
O O11 0.000000 0.361481 0.822038
O O12 0.500000 0.807755 0.797526
O O13 0.215450 0.747028 0.743388
O O14 0.215194 0.804564 0.855226
O O15 0.500000 0.358393 0.193553
O O16 0.780698 0.561911 0.193324
O O17 0.500000 0.964732 0.501894
O O18 0.224419 0.115327 0.460144
O O19 0.500000 0.763280 0.203176
O O20 0.500000 0.246703 0.411031
#
# Coordination Sequence:
#
# PCOD9337926 Si02
#       8
#     4   4   4   4   4   4   4   4
#     4   9  17  30  48  68  93 124 152 184 230 276
#     4   9  17  27  42  69  98 122 155 194 227 265
#     4  10  18  29  48  72  95 117 148 191 233 278
#     4   8  14  27  46  68  93 119 148 183 229 280
#     4   8  14  25  42  65  92 119 148 185 226 268
#     4   9  17  27  42  69  98 122 155 194 227 265
#     4   9  17  30  48  68  93 124 152 184 230 276
#     4   8  14  25  42  65  92 119 148 185 226 268
#
# _framework density 22.647786
#
# number of rings (size 3 to 8) (size 9 to 14) (size 15 to 20)
#    0.000    3.250    0.000    2.625    0.000    2.000 
#    0.000    8.750    0.000   12.750    0.000    7.000 
#    0.000    0.000    0.000    0.000    0.000    0.000 
#
# Total GULP energy -178565.596255 kJ/mol
# GULP energy per Si atom -5580.174883 kJ/mol
# Density = 2.259624 g / cm^3
# Si number density = 22.647786 Si / 1000 Ang^3
#
#
#
# Elastic Constant Matrix: (Units=GPa)
#
#
# Indices 1 2 3 4 5 6 
#
# 1 78.0400 -3.3869 -12.6513 0.0000 0.0000 0.0000
# 2 -3.3869 47.3643 19.5406 0.0000 0.0000 0.0000
# 3 -12.6513 19.5406 115.9693 0.0000 0.0000 0.0000
# 4 0.0000 0.0000 0.0000 35.6526 0.0000 0.0000
# 5 0.0000 0.0000 0.0000 0.0000 -32.2946 0.0000
# 6 0.0000 0.0000 0.0000 0.0000 0.0000 -18.1607
#
#
#
# Elastic Compliance Matrix: (Units=1/GPa)
#
#
# Indices 1 2 3 4 5 6 
#
# 1 0.013051 0.000372 0.001361 0.000000 0.000000 0.000000
# 2 0.000372 0.022701 -0.003785 0.000000 0.000000 0.000000
# 3 0.001361 -0.003785 0.009409 0.000000 0.000000 0.000000
# 4 0.000000 0.000000 0.000000 0.028048 0.000000 0.000000
# 5 0.000000 0.000000 0.000000 0.000000 -0.030965 0.000000
# 6 0.000000 0.000000 0.000000 0.000000 0.000000 -0.055064
#
#
# Mechanical properties :
#
#
# Convention : Reuss Voigt Hill
#
# Bulk Modulus (GPa) = 24.35621 27.59761 25.97691
# Shear Modulus (GPa) = 1006.12012 12.89753 509.50883
#
# Velocity S-wave (km/s) = 21.10002 2.38897 15.01530
# Velocity P-wave (km/s) = 24.58439 4.45215 17.66655
#
# Compressibility (1/GPa) = 0.04105729
#
# Stress axis : x y z
#
# Youngs Moduli (GPa) = 76.62410 44.05116 106.27964
#
# Poissons Ratio (x) = -0.01637 -0.14466
# Poissons Ratio (y) = -0.02848 0.40222
# Poissons Ratio (z) = -0.10429 0.16671
#
# Static dielectric constant tensor:
#      x y z
#    x 1.863370 0.000000 0.000000 
#    y 0.000000 1.838600 0.000000 
#    z 0.000000 0.000000 1.826580 
# 
# From -- ./inp_files/5579.got.cif
#   From: 2010.05.17/outbox.cif.g08.bks.cpg/sg26_3_cif.got.tgz:5579.got - 2010.06.04 01:07:29.
