data_PCOD9337460
_publ_section_title
;
Structure prediction by ZEFSAII (Michael W. Deem and Ramdas Pophale) SiO2 
 PCOD9337460
Probable space group: P M M 2
;
_chemical_formula_sum "Si O2"
_cell_formula_units_Z 32
_cell_length_a 7.452221
_cell_length_b 9.336488
_cell_length_c 22.063305
_cell_angle_alpha 90.000000
_cell_angle_beta 90.000000
_cell_angle_gamma 90.000000
_cell_volume 1535.111191
_symmetry_space_group_name_H-M "P M M 2"
_symmetry_group_IT_number 25
_symmetry_cell_setting 'orthorhombic'
loop_
_space_group_symop_operation_xyz
x,y,z
-x,-y,z
-x,y,z
x,-y,z
loop_
_atom_site_type_symbol
_atom_site_label
_atom_site_fract_x
_atom_site_fract_y
_atom_site_fract_z
Si Si1 0.710792 0.174573 0.618550
Si Si2 0.781095 0.832645 0.226240
Si Si3 0.280448 0.166289 0.750877
Si Si4 0.785379 0.835287 0.358328
Si Si5 0.784818 0.661906 0.109071
Si Si6 0.285273 0.161932 0.987420
Si Si7 0.285488 0.835801 0.489011
Si Si8 0.280480 0.335526 0.869954
O O1 0.500000 0.212808 0.619878
O O2 0.783701 0.216838 0.684366
O O3 0.783189 0.225141 0.553219
O O4 0.721288 0.000000 0.617196
O O5 0.724499 0.777470 0.293026
O O6 0.716878 0.741386 0.169341
O O7 0.000000 0.830371 0.225043
O O8 0.729719 0.000000 0.220586
O O9 0.500000 0.167977 0.749491
O O10 0.223365 0.260800 0.807550
O O11 0.228954 0.000000 0.759316
O O12 0.745519 0.765876 0.423445
O O13 0.000000 0.841827 0.355115
O O14 0.716798 0.000000 0.360751
O O15 0.716203 0.500000 0.103428
O O16 0.748846 0.752704 0.049013
O O17 0.000000 0.654112 0.115055
O O18 0.500000 0.153081 0.980694
O O19 0.215146 0.000000 0.990590
O O20 0.219011 0.247123 0.928561
O O21 0.500000 0.844600 0.495459
O O22 0.215358 0.000000 0.484756
O O23 0.500000 0.334210 0.870111
O O24 0.224001 0.500000 0.873462
#
# Coordination Sequence:
#
# PCOD9337460 Si02
#       8
#     4   4   4   4   4   4   4   4
#     4   7  10  16  27  45  69  95 123 160 206 248
#     4   8  14  26  43  61  83 111 141 175 215 256
#     4   8  12  19  32  50  73 102 137 174 209 249
#     4   8  13  21  34  52  74 102 134 166 204 250
#     4  10  20  33  50  71  92 116 148 184 222 265
#     4  10  20  33  49  69  93 121 150 180 219 266
#     4   8  12  18  29  48  75 102 127 162 208 249
#     4   9  16  25  38  58  85 114 142 176 217 256
#
# _framework density 20.845396000000001
#
# number of rings (size 3 to 8) (size 9 to 14) (size 15 to 20)
#    0.000    3.500    0.000    3.375    0.000    3.000 
#    0.000    0.625    0.000    2.250    0.000    1.750 
#    0.000    4.000    0.000    0.000    0.000    0.000 
#
# Total GULP energy -178240.607361 kJ/mol
# GULP energy per Si atom -5570.018980 kJ/mol
# Density = 2.079795 g / cm^3
# Si number density = 20.845396 Si / 1000 Ang^3
#
#
#
# Elastic Constant Matrix: (Units=GPa)
#
#
# Indices 1 2 3 4 5 6 
#
# 1 61.8441 4.5466 6.6335 0.0000 0.0000 0.0000
# 2 4.5466 99.2559 103.4404 0.0000 0.0000 0.0000
# 3 6.6335 103.4404 282.4079 0.0000 0.0000 0.0000
# 4 0.0000 0.0000 0.0000 -19.2004 0.0000 0.0000
# 5 0.0000 0.0000 0.0000 0.0000 22.1185 0.0000
# 6 0.0000 0.0000 0.0000 0.0000 0.0000 0.5950
#
#
#
# Elastic Compliance Matrix: (Units=1/GPa)
#
#
# Indices 1 2 3 4 5 6 
#
# 1 0.016230 -0.000560 -0.000176 0.000000 0.000000 0.000000
# 2 -0.000560 0.016315 -0.005963 0.000000 0.000000 0.000000
# 3 -0.000176 -0.005963 0.005729 0.000000 0.000000 0.000000
# 4 0.000000 0.000000 0.000000 -0.052082 0.000000 0.000000
# 5 0.000000 0.000000 0.000000 0.000000 0.045211 0.000000
# 6 0.000000 0.000000 0.000000 0.000000 0.000000 1.680704
#
#
# Mechanical properties :
#
#
# Convention : Reuss Voigt Hill
#
# Bulk Modulus (GPa) = 40.19899 74.74989 57.47444
# Shear Modulus (GPa) = 2.88385 22.62844 12.75614
#
# Velocity S-wave (km/s) = 1.17748 3.29832 2.47643
# Velocity P-wave (km/s) = 4.60161 7.10227 5.98402
#
# Compressibility (1/GPa) = 0.02487624
#
# Stress axis : x y z
#
# Youngs Moduli (GPa) = 61.61528 61.29509 174.54831
#
# Poissons Ratio (x) = 0.03432 0.03075
# Poissons Ratio (y) = 0.03450 1.04075
# Poissons Ratio (z) = 0.01085 0.36547
#
# Static dielectric constant tensor:
#      x y z
#    x 1.822740 0.000000 0.000000 
#    y 0.000000 1.700390 0.000000 
#    z 0.000000 0.000000 1.793360 
# 
# From -- ./inp_files/6520.got.cif
#   From: 2010.05.17/outbox.cif.g08.bks.cpg/sg25_4_cif.got.tgz:6520.got - 2010.06.04 01:04:00.
