data_PCOD9337216
_publ_section_title
;
Structure prediction by ZEFSAII (Michael W. Deem and Ramdas Pophale) SiO2 
 PCOD9337216
Probable space group: P M M 2
;
_chemical_formula_sum "Si O2"
_cell_formula_units_Z 32
_cell_length_a 8.819240
_cell_length_b 14.745701
_cell_length_c 16.019448
_cell_angle_alpha 90.000000
_cell_angle_beta 90.000000
_cell_angle_gamma 90.000000
_cell_volume 2083.263150
_symmetry_space_group_name_H-M "P M M 2"
_symmetry_group_IT_number 25
_symmetry_cell_setting 'orthorhombic'
loop_
_space_group_symop_operation_xyz
x,y,z
-x,-y,z
-x,y,z
x,-y,z
loop_
_atom_site_type_symbol
_atom_site_label
_atom_site_fract_x
_atom_site_fract_y
_atom_site_fract_z
Si Si1 0.182908 0.106271 0.225660
Si Si2 0.674813 0.889939 0.050723
Si Si3 0.681665 0.790397 0.718941
Si Si4 0.182643 0.106892 0.559728
Si Si5 0.682586 0.601671 0.646409
Si Si6 0.818739 0.106136 0.875590
Si Si7 0.815426 0.789307 0.390513
Si Si8 0.183122 0.601403 0.461686
O O1 0.249679 0.138877 0.137609
O O2 0.236077 0.164098 0.305088
O O3 0.000000 0.110508 0.221168
O O4 0.223267 0.000000 0.237841
O O5 0.500000 0.862109 0.047092
O O6 0.680624 0.000000 0.051886
O O7 0.760074 0.862780 0.966236
O O8 0.500000 0.795643 0.723091
O O9 0.739495 0.844865 0.637887
O O10 0.726877 0.685292 0.704975
O O11 0.751076 0.834866 0.801198
O O12 0.228921 0.153735 0.472665
O O13 0.000000 0.117137 0.567959
O O14 0.216449 0.000000 0.558292
O O15 0.500000 0.604146 0.637787
O O16 0.725201 0.500000 0.674914
O O17 0.754063 0.615570 0.554975
O O18 0.000000 0.109784 0.873614
O O19 0.773542 0.000000 0.864183
O O20 0.767493 0.685360 0.404587
O O21 0.000000 0.791125 0.388454
O O22 0.229061 0.500000 0.434351
O O23 0.000000 0.603492 0.465904
#
# Coordination Sequence:
#
# PCOD9337216 Si02
#       8
#     4   4   4   4   4   4   4   4
#     4   9  16  27  44  64  87 118 153 184 218 266
#     4   9  17  30  47  67  91 116 144 185 231 267
#     4  11  21  31  45  66  91 120 152 188 229 269
#     4  10  19  30  43  60  88 126 161 188 217 260
#     4   9  18  32  47  63  86 117 152 189 230 274
#     4  10  20  33  49  68  91 121 154 185 220 269
#     4   9  16  27  43  64  89 118 153 189 223 264
#     4   9  16  27  45  66  86 112 150 196 237 267
#
# _framework density 15.360517
#
# number of rings (size 3 to 8) (size 9 to 14) (size 15 to 20)
#    0.000    2.500    1.250    1.875    0.000    6.000 
#    0.000    1.250    0.000    1.500    0.000    0.875 
#    0.000    3.000    0.000    0.000    0.000    0.000 
#
# Total GULP energy -178357.222847 kJ/mol
# GULP energy per Si atom -5573.663214 kJ/mol
# Density = 1.532556 g / cm^3
# Si number density = 15.360517 Si / 1000 Ang^3
#
#
#
# Elastic Constant Matrix: (Units=GPa)
#
#
# Indices 1 2 3 4 5 6 
#
# 1 21.7433 33.0912 36.2093 0.0000 0.0000 0.0000
# 2 33.0912 113.1413 81.2307 0.0000 0.0000 0.0000
# 3 36.2093 81.2307 149.2860 0.0000 0.0000 0.0000
# 4 0.0000 0.0000 0.0000 9.0979 0.0000 0.0000
# 5 0.0000 0.0000 0.0000 0.0000 -21.8103 0.0000
# 6 0.0000 0.0000 0.0000 0.0000 0.0000 14.8486
#
#
#
# Elastic Compliance Matrix: (Units=1/GPa)
#
#
# Indices 1 2 3 4 5 6 
#
# 1 0.096520 -0.018745 -0.013211 0.000000 0.000000 0.000000
# 2 -0.018745 0.018145 -0.005327 0.000000 0.000000 0.000000
# 3 -0.013211 -0.005327 0.012801 0.000000 0.000000 0.000000
# 4 0.000000 0.000000 0.000000 0.109916 0.000000 0.000000
# 5 0.000000 0.000000 0.000000 0.000000 -0.045850 0.000000
# 6 0.000000 0.000000 0.000000 0.000000 0.000000 0.067347
#
#
# Mechanical properties :
#
#
# Convention : Reuss Voigt Hill
#
# Bulk Modulus (GPa) = 18.90329 65.02590 41.96459
# Shear Modulus (GPa) = 14.24185 9.33654 11.78919
#
# Velocity S-wave (km/s) = 3.04825 2.46809 2.77338
# Velocity P-wave (km/s) = 4.97215 7.10964 6.13471
#
# Compressibility (1/GPa) = 0.05290085
#
# Stress axis : x y z
#
# Youngs Moduli (GPa) = 10.36058 55.11056 78.11589
#
# Poissons Ratio (x) = 1.03302 1.03202
# Poissons Ratio (y) = 0.19420 0.41612
# Poissons Ratio (z) = 0.13688 0.29357
#
# Static dielectric constant tensor:
#      x y z
#    x 1.517220 0.000000 0.000000 
#    y 0.000000 1.522220 0.000000 
#    z 0.000000 0.000000 1.485330 
# 
# From -- ./inp_files/5663.got.cif
#   From: 2010.05.17/outbox.cif.g08.bks.cpg/sg25_3_cif.got.tgz:5663.got - 2010.06.04 01:04:00.
