data_PCOD9337738
_publ_section_title
;
Structure prediction by ZEFSAII (Michael W. Deem and Ramdas Pophale) SiO2 
 PCOD9337738
Probable space group: P M M 2
;
_chemical_formula_sum "Si O2"
_cell_formula_units_Z 24
_cell_length_a 18.038395
_cell_length_b 8.337303
_cell_length_c 8.100899
_cell_angle_alpha 90.000000
_cell_angle_beta 90.000000
_cell_angle_gamma 90.000000
_cell_volume 1218.306876
_symmetry_space_group_name_H-M "P M M 2"
_symmetry_group_IT_number 25
_symmetry_cell_setting 'orthorhombic'
loop_
_space_group_symop_operation_xyz
x,y,z
-x,-y,z
-x,y,z
x,-y,z
loop_
_atom_site_type_symbol
_atom_site_label
_atom_site_fract_x
_atom_site_fract_y
_atom_site_fract_z
Si Si1 0.317054 0.807366 0.821510
Si Si2 0.155369 0.307688 0.480264
Si Si3 0.000000 0.305403 0.315139
Si Si4 0.000000 0.309963 0.951132
Si Si5 0.585998 0.694253 0.126873
Si Si6 0.320015 0.690938 0.442021
Si Si7 0.155988 0.817852 0.834842
O O1 0.330667 0.754552 0.630415
O O2 0.235773 0.745405 0.884490
O O3 0.313100 0.000000 0.819779
O O4 0.376144 0.752641 0.957357
O O5 0.151875 0.500000 0.523309
O O6 0.233735 0.284754 0.389435
O O7 0.161654 0.196479 0.638656
O O8 0.078031 0.263527 0.396674
O O9 0.000000 0.500000 0.310301
O O10 0.000000 0.237866 0.132777
O O11 0.922012 0.263136 0.872885
O O12 0.000000 0.500000 0.959454
O O13 0.500000 0.741876 0.132158
O O14 0.589882 0.500000 0.126951
O O15 0.628052 0.751978 0.293657
O O16 0.331738 0.500000 0.455096
O O17 0.151748 0.000000 0.893913
#
# Coordination Sequence:
#
# PCOD9337738 Si02
#       7
#     4   4   2   2   4   4   4
#     4  10  22  39  60  87 120 158 196 237 290 352
#     4   9  17  33  55  78 104 140 186 232 277 330
#     4   9  19  31  48  78 108 135 178 229 274 320
#     4  11  22  33  52  80 110 147 188 233 278 326
#     4  10  22  39  61  89 119 152 192 241 295 351
#     4   9  19  36  60  86 115 153 195 242 292 343
#     4  10  21  37  54  77 111 148 187 230 278 334
#
# _framework density 19.699470000000002
#
# number of rings (size 3 to 8) (size 9 to 14) (size 15 to 20)
#    0.000    2.333    0.000    1.750    2.333    4.333 
#    0.000    3.333    0.000    0.000    0.000    0.000 
#    0.000    0.000    0.000    0.000    0.000    0.000 
#
# Total GULP energy -133653.207607 kJ/mol
# GULP energy per Si atom -5568.883650 kJ/mol
# Density = 1.965463 g / cm^3
# Si number density = 19.699470 Si / 1000 Ang^3
#
#
#
# Elastic Constant Matrix: (Units=GPa)
#
#
# Indices 1 2 3 4 5 6 
#
# 1 186.6088 29.1759 84.3416 0.0000 0.0000 0.0000
# 2 29.1759 18.0812 10.7329 0.0000 0.0000 0.0000
# 3 84.3416 10.7329 90.5421 0.0000 0.0000 0.0000
# 4 0.0000 0.0000 0.0000 -353.3066 0.0000 0.0000
# 5 0.0000 0.0000 0.0000 0.0000 39.7803 0.0000
# 6 0.0000 0.0000 0.0000 0.0000 0.0000 1.1734
#
#
#
# Elastic Compliance Matrix: (Units=1/GPa)
#
#
# Indices 1 2 3 4 5 6 
#
# 1 0.011606 -0.013242 -0.009242 0.000000 0.000000 0.000000
# 2 -0.013242 0.074600 0.003492 0.000000 0.000000 0.000000
# 3 -0.009242 0.003492 0.019239 0.000000 0.000000 0.000000
# 4 0.000000 0.000000 0.000000 -0.002830 0.000000 0.000000
# 5 0.000000 0.000000 0.000000 0.000000 0.025138 0.000000
# 6 0.000000 0.000000 0.000000 0.000000 0.000000 0.852236
#
#
# Mechanical properties :
#
#
# Convention : Reuss Voigt Hill
#
# Bulk Modulus (GPa) = 14.82302 60.41478 37.61890
# Shear Modulus (GPa) = 4.80557 -51.07180 -23.13312
#
# Velocity S-wave (km/s) = 1.56357 -5.09723 -3.43053
# Velocity P-wave (km/s) = 3.28642 1.97675 1.85648
#
# Compressibility (1/GPa) = 0.06746263
#
# Stress axis : x y z
#
# Youngs Moduli (GPa) = 86.16221 13.40476 51.97689
#
# Poissons Ratio (x) = 0.17750 0.48035
# Poissons Ratio (y) = 1.14094 -0.18149
# Poissons Ratio (z) = 0.79627 -0.04681
#
# Static dielectric constant tensor:
#      x y z
#    x 1.929130 0.000000 0.000000 
#    y 0.000000 1.719740 0.000000 
#    z 0.000000 0.000000 1.683990 
# 
# From -- ./inp_files/3378.got.cif
#   From: 2010.05.17/outbox.cif.g08.bks.cpg/sg25_2_cif.got.tgz:3378.got - 2010.06.04 01:04:00.
