data_PCOD9337307
_publ_section_title
;
Structure prediction by ZEFSAII (Michael W. Deem and Ramdas Pophale) SiO2 
 PCOD9337307
Probable space group: P M M 2
;
_chemical_formula_sum "Si O2"
_cell_formula_units_Z 20
_cell_length_a 15.084828
_cell_length_b 8.032782
_cell_length_c 7.598580
_cell_angle_alpha 90.000000
_cell_angle_beta 90.000000
_cell_angle_gamma 90.000000
_cell_volume 920.743759
_symmetry_space_group_name_H-M "P M M 2"
_symmetry_group_IT_number 25
_symmetry_cell_setting 'orthorhombic'
loop_
_space_group_symop_operation_xyz
x,y,z
-x,-y,z
-x,y,z
x,-y,z
loop_
_atom_site_type_symbol
_atom_site_label
_atom_site_fract_x
_atom_site_fract_y
_atom_site_fract_z
Si Si1 0.595142 0.200629 0.764580
Si Si2 0.788786 0.812970 0.875160
Si Si3 0.102209 0.500000 0.862907
Si Si4 0.790131 0.180279 0.286890
Si Si5 0.896772 0.500000 0.295160
Si Si6 0.402288 0.304861 0.361659
O O1 0.500000 0.247736 0.847057
O O2 0.685769 0.240512 0.862680
O O3 0.598884 0.282776 0.572795
O O4 0.594739 0.000000 0.742022
O O5 0.848539 0.666385 0.799247
O O6 0.798019 0.000000 0.799413
O O7 0.812163 0.826196 0.080333
O O8 0.000000 0.500000 0.813322
O O9 0.106945 0.500000 0.079046
O O10 0.844331 0.336617 0.358845
O O11 0.684719 0.210904 0.297658
O O12 0.810991 0.000000 0.366276
O O13 0.000000 0.500000 0.343786
O O14 0.500000 0.243972 0.302579
O O15 0.394624 0.500000 0.317341
#
# Coordination Sequence:
#
# PCOD9337307 Si02
#       6
#     4   4   2   4   2   4
#     4   9  18  33  51  73 102 136 172 207 246 296
#     4   9  19  33  52  78 104 131 167 209 251 299
#     4   9  18  32  52  75 102 134 165 205 256 303
#     4  10  19  33  54  78 104 135 169 208 256 301
#     4   9  18  34  52  75 106 132 165 213 256 303
#     4  10  20  33  50  75 105 138 175 209 247 300
#
# _framework density 21.72157
#
# number of rings (size 3 to 8) (size 9 to 14) (size 15 to 20)
#    0.000    2.600    1.000    0.600    1.400    2.800 
#    0.000    6.000    0.000    2.400    0.000    2.800 
#    0.000    0.000    0.000    0.000    0.000    0.000 
#
# Total GULP energy -111577.795744 kJ/mol
# GULP energy per Si atom -5578.889787 kJ/mol
# Density = 2.167213 g / cm^3
# Si number density = 21.721570 Si / 1000 Ang^3
#
#
#
# Elastic Constant Matrix: (Units=GPa)
#
#
# Indices 1 2 3 4 5 6 
#
# 1 158.2290 110.3326 -5.4255 0.0000 0.0000 0.0000
# 2 110.3326 149.0051 4.3380 0.0000 0.0000 0.0000
# 3 -5.4255 4.3380 38.8651 0.0000 0.0000 0.0000
# 4 0.0000 0.0000 0.0000 7.4897 0.0000 0.0000
# 5 0.0000 0.0000 0.0000 0.0000 48.4003 0.0000
# 6 0.0000 0.0000 0.0000 0.0000 0.0000 20.3915
#
#
#
# Elastic Compliance Matrix: (Units=1/GPa)
#
#
# Indices 1 2 3 4 5 6 
#
# 1 0.013404 -0.010012 0.002989 0.000000 0.000000 0.000000
# 2 -0.010012 0.014212 -0.002984 0.000000 0.000000 0.000000
# 3 0.002989 -0.002984 0.026480 0.000000 0.000000 0.000000
# 4 0.000000 0.000000 0.000000 0.133518 0.000000 0.000000
# 5 0.000000 0.000000 0.000000 0.000000 0.020661 0.000000
# 6 0.000000 0.000000 0.000000 0.000000 0.000000 0.049040
#
#
# Mechanical properties :
#
#
# Convention : Reuss Voigt Hill
#
# Bulk Modulus (GPa) = 29.34177 62.73216 46.03696
# Shear Modulus (GPa) = 17.31967 31.04656 24.18312
#
# Velocity S-wave (km/s) = 2.82680 3.78471 3.34027
# Velocity P-wave (km/s) = 4.91852 6.93120 6.00971
#
# Compressibility (1/GPa) = 0.03408111
#
# Stress axis : x y z
#
# Youngs Moduli (GPa) = 74.60588 70.36527 37.76393
#
# Poissons Ratio (x) = 0.70450 -0.11286
# Poissons Ratio (y) = 0.74695 0.11268
# Poissons Ratio (z) = -0.22297 0.20996
#
# Static dielectric constant tensor:
#      x y z
#    x 1.768530 0.000000 0.000000 
#    y 0.000000 1.797330 0.000000 
#    z 0.000000 0.000000 1.800950 
# 
# From -- ./inp_files/1888.got.cif
#   From: 2010.05.17/outbox.cif.g08.bks.cpg/sg25_1_cif.got.tgz:1888.got - 2010.06.04 01:04:00.
