data_PCOD9337405
_publ_section_title
;
Structure prediction by ZEFSAII (Michael W. Deem and Ramdas Pophale) SiO2 
 PCOD9337405
Probable space group: P M M 2
;
_chemical_formula_sum "Si O2"
_cell_formula_units_Z 32
_cell_length_a 7.526427
_cell_length_b 9.774232
_cell_length_c 21.702637
_cell_angle_alpha 90.000000
_cell_angle_beta 90.000000
_cell_angle_gamma 90.000000
_cell_volume 1596.555438
_symmetry_space_group_name_H-M "P M M 2"
_symmetry_group_IT_number 25
_symmetry_cell_setting 'orthorhombic'
loop_
_space_group_symop_operation_xyz
x,y,z
-x,-y,z
-x,y,z
x,-y,z
loop_
_atom_site_type_symbol
_atom_site_label
_atom_site_fract_x
_atom_site_fract_y
_atom_site_fract_z
Si Si1 0.783195 0.340178 0.498600
Si Si2 0.787547 0.343224 0.363642
Si Si3 0.783343 0.657903 0.727925
Si Si4 0.216513 0.840900 0.979267
Si Si5 0.290809 0.654247 0.230020
Si Si6 0.788275 0.845665 0.115273
Si Si7 0.217550 0.157821 0.613707
Si Si8 0.216735 0.657703 0.866398
O O1 0.730924 0.500000 0.506289
O O2 0.726270 0.290489 0.430262
O O3 0.724126 0.243183 0.553769
O O4 0.000000 0.339912 0.499966
O O5 0.720165 0.500000 0.359865
O O6 0.748390 0.280520 0.297077
O O7 0.000000 0.348367 0.367632
O O8 0.729618 0.500000 0.716363
O O9 0.725056 0.760574 0.674737
O O10 0.727688 0.697724 0.797170
O O11 0.000000 0.657873 0.727326
O O12 0.276093 0.796879 0.047859
O O13 0.000000 0.833821 0.978017
O O14 0.264341 0.000000 0.972124
O O15 0.280439 0.751313 0.922172
O O16 0.500000 0.639886 0.227452
O O17 0.211096 0.500000 0.227111
O O18 0.241550 0.746111 0.172124
O O19 0.000000 0.856815 0.109033
O O20 0.719434 0.000000 0.126532
O O21 0.000000 0.157872 0.613570
O O22 0.273949 0.000000 0.612850
O O23 0.267785 0.500000 0.875960
O O24 0.000000 0.661891 0.866432
#
# Coordination Sequence:
#
# PCOD9337405 Si02
#       8
#     4   4   4   4   4   4   4   4
#     4   8  13  22  36  50  65  92 130 167 202 242
#     4   8  14  26  44  63  82 108 143 178 212 255
#     4   8  13  20  28  39  61  96 133 163 193 237
#     4   8  14  24  37  53  74 100 132 172 213 250
#     4  10  20  32  47  69  94 117 143 179 223 268
#     4   9  18  32  48  66  88 116 151 186 220 263
#     4   9  15  20  27  43  67  93 124 164 205 241
#     4   8  13  20  30  46  68  95 130 169 204 240
#
# _framework density 20.043150000000001
#
# number of rings (size 3 to 8) (size 9 to 14) (size 15 to 20)
#    0.000    3.500    0.000    3.000    0.000    3.500 
#    0.000    4.375    0.000    2.250    0.000    0.000 
#    0.000    0.000    0.000    1.125    0.000   18.750 
#
# Total GULP energy -178267.712730 kJ/mol
# GULP energy per Si atom -5570.866023 kJ/mol
# Density = 1.999753 g / cm^3
# Si number density = 20.043150 Si / 1000 Ang^3
#
#
#
# Elastic Constant Matrix: (Units=GPa)
#
#
# Indices 1 2 3 4 5 6 
#
# 1 48.1820 3.7026 7.2846 0.0000 0.0000 0.0000
# 2 3.7026 99.8788 128.4306 0.0000 0.0000 0.0000
# 3 7.2846 128.4306 260.5101 0.0000 0.0000 0.0000
# 4 0.0000 0.0000 0.0000 -16.2429 0.0000 0.0000
# 5 0.0000 0.0000 0.0000 0.0000 -34.1285 0.0000
# 6 0.0000 0.0000 0.0000 0.0000 0.0000 -6.8736
#
#
#
# Elastic Compliance Matrix: (Units=1/GPa)
#
#
# Indices 1 2 3 4 5 6 
#
# 1 0.020843 -0.000063 -0.000552 0.000000 0.000000 0.000000
# 2 -0.000063 0.027350 -0.013482 0.000000 0.000000 0.000000
# 3 -0.000552 -0.013482 0.010501 0.000000 0.000000 0.000000
# 4 0.000000 0.000000 0.000000 -0.061565 0.000000 0.000000
# 5 0.000000 0.000000 0.000000 0.000000 -0.029301 0.000000
# 6 0.000000 0.000000 0.000000 0.000000 0.000000 -0.145485
#
#
# Mechanical properties :
#
#
# Convention : Reuss Voigt Hill
#
# Bulk Modulus (GPa) = 32.78682 76.37853 54.58268
# Shear Modulus (GPa) = -35.89455 6.49454 -14.70001
#
# Velocity S-wave (km/s) = -4.23645 1.80203 -2.71111
# Velocity P-wave (km/s) = 2.74525 6.52070 4.18229
#
# Compressibility (1/GPa) = 0.03050006
#
# Stress axis : x y z
#
# Youngs Moduli (GPa) = 47.97796 36.56269 95.23321
#
# Poissons Ratio (x) = 0.00232 0.05252
# Poissons Ratio (y) = 0.00305 1.28392
# Poissons Ratio (z) = 0.02646 0.49293
#
# Static dielectric constant tensor:
#      x y z
#    x 1.744180 0.000000 0.000000 
#    y 0.000000 1.644190 0.000000 
#    z 0.000000 0.000000 1.734490 
# 
# From -- ./inp_files/6552.got.cif
#   From: 2010.05.17/outbox.cif.g08.bks.cpg/sg25_4_cif.got.tgz:6552.got - 2010.06.04 01:04:00.
