data_PCOD9337634
_publ_section_title
;
Structure prediction by ZEFSAII (Michael W. Deem and Ramdas Pophale) SiO2 
 PCOD9337634
Probable space group: P M M 2
;
_chemical_formula_sum "Si O2"
_cell_formula_units_Z 32
_cell_length_a 14.233889
_cell_length_b 8.992963
_cell_length_c 13.315499
_cell_angle_alpha 90.000000
_cell_angle_beta 90.000000
_cell_angle_gamma 90.000000
_cell_volume 1704.448281
_symmetry_space_group_name_H-M "P M M 2"
_symmetry_group_IT_number 25
_symmetry_cell_setting 'orthorhombic'
loop_
_space_group_symop_operation_xyz
x,y,z
-x,-y,z
-x,y,z
x,-y,z
loop_
_atom_site_type_symbol
_atom_site_label
_atom_site_fract_x
_atom_site_fract_y
_atom_site_fract_z
Si Si1 0.786037 0.176814 0.350390
Si Si2 0.219476 0.678990 0.742372
Si Si3 0.390517 0.679510 0.263235
Si Si4 0.385989 0.668616 0.036648
Si Si5 0.113852 0.325769 0.163091
Si Si6 0.110266 0.320786 0.539230
Si Si7 0.608984 0.823210 0.829570
Si Si8 0.891784 0.680858 0.940308
O O1 0.681683 0.244075 0.337994
O O2 0.842755 0.231376 0.252143
O O3 0.838229 0.243242 0.446882
O O4 0.782956 0.000000 0.354965
O O5 0.226364 0.500000 0.745388
O O6 0.161153 0.719086 0.643543
O O7 0.322304 0.748570 0.749744
O O8 0.165443 0.729125 0.843271
O O9 0.500000 0.720071 0.277754
O O10 0.384371 0.500000 0.269550
O O11 0.360631 0.719691 0.148607
O O12 0.500000 0.661116 0.039530
O O13 0.350363 0.500000 0.020560
O O14 0.362215 0.766988 0.940910
O O15 0.139991 0.500000 0.176905
O O16 0.000000 0.318970 0.165236
O O17 0.143954 0.276332 0.051043
O O18 0.116605 0.500000 0.527244
O O19 0.000000 0.282273 0.542244
O O20 0.500000 0.780128 0.814864
O O21 0.615863 0.000000 0.825258
O O22 0.892329 0.500000 0.940776
O O23 0.000000 0.729003 0.930795
#
# Coordination Sequence:
#
# PCOD9337634 Si02
#       8
#     4   4   4   4   4   4   4   4
#     4  12  25  37  55  84 118 154 192 235 288 349
#     4  10  20  35  60  89 111 139 188 243 291 339
#     4   9  19  37  60  84 112 149 195 243 288 338
#     4   8  15  30  53  79 107 144 190 236 277 321
#     4   9  18  34  56  81 112 150 189 230 281 343
#     4  10  22  42  66  88 111 144 192 247 295 343
#     4  10  21  35  51  77 118 161 194 227 274 336
#     4   8  15  30  54  84 113 139 173 224 285 342
#
# _framework density 18.774403
#
# number of rings (size 3 to 8) (size 9 to 14) (size 15 to 20)
#    0.000    2.500    0.000    3.750    1.750    5.500 
#    0.000    1.875    0.000    2.625    0.000    0.000 
#    0.000    0.000    0.000    0.000    0.000    0.000 
#
# Total GULP energy -178654.181392 kJ/mol
# GULP energy per Si atom -5582.943169 kJ/mol
# Density = 1.873167 g / cm^3
# Si number density = 18.774403 Si / 1000 Ang^3
#
#
#
# Elastic Constant Matrix: (Units=GPa)
#
#
# Indices 1 2 3 4 5 6 
#
# 1 132.0301 50.8543 92.4217 0.0000 0.0000 0.0000
# 2 50.8543 36.2899 53.6100 0.0000 0.0000 0.0000
# 3 92.4217 53.6100 145.8897 0.0000 0.0000 0.0000
# 4 0.0000 0.0000 0.0000 -20.8714 0.0000 0.0000
# 5 0.0000 0.0000 0.0000 0.0000 37.9405 0.0000
# 6 0.0000 0.0000 0.0000 0.0000 0.0000 11.0231
#
#
#
# Elastic Compliance Matrix: (Units=1/GPa)
#
#
# Indices 1 2 3 4 5 6 
#
# 1 0.017768 -0.018092 -0.004608 0.000000 0.000000 0.000000
# 2 -0.018092 0.078700 -0.017458 0.000000 0.000000 0.000000
# 3 -0.004608 -0.017458 0.016189 0.000000 0.000000 0.000000
# 4 0.000000 0.000000 0.000000 -0.047912 0.000000 0.000000
# 5 0.000000 0.000000 0.000000 0.000000 0.026357 0.000000
# 6 0.000000 0.000000 0.000000 0.000000 0.000000 0.090718
#
#
# Mechanical properties :
#
#
# Convention : Reuss Voigt Hill
#
# Bulk Modulus (GPa) = 30.92120 78.66465 54.79292
# Shear Modulus (GPa) = 18.32061 13.44001 15.88031
#
# Velocity S-wave (km/s) = 3.12722 2.67848 2.91150
# Velocity P-wave (km/s) = 5.43552 7.18029 6.36795
#
# Compressibility (1/GPa) = 0.03234027
#
# Stress axis : x y z
#
# Youngs Moduli (GPa) = 56.28058 12.70653 61.77009
#
# Poissons Ratio (x) = 0.22989 0.28463
# Poissons Ratio (y) = 1.01823 1.07841
# Poissons Ratio (z) = 0.25934 0.22184
#
# Static dielectric constant tensor:
#      x y z
#    x 1.686300 0.000000 0.000000 
#    y 0.000000 1.615870 0.000000 
#    z 0.000000 0.000000 1.636080 
# 
# From -- ./inp_files/4942.got.cif
#   From: 2010.05.17/outbox.cif.g08.bks.cpg/sg25_3_cif.got.tgz:4942.got - 2010.06.04 01:04:00.
