data_PCOD9337590
_publ_section_title
;
Structure prediction by ZEFSAII (Michael W. Deem and Ramdas Pophale) SiO2 
 PCOD9337590
Probable space group: P M M 2
;
_chemical_formula_sum "Si O2"
_cell_formula_units_Z 24
_cell_length_a 9.399415
_cell_length_b 8.895864
_cell_length_c 15.867520
_cell_angle_alpha 90.000000
_cell_angle_beta 90.000000
_cell_angle_gamma 90.000000
_cell_volume 1326.777244
_symmetry_space_group_name_H-M "P M M 2"
_symmetry_group_IT_number 25
_symmetry_cell_setting 'orthorhombic'
loop_
_space_group_symop_operation_xyz
x,y,z
-x,-y,z
-x,y,z
x,-y,z
loop_
_atom_site_type_symbol
_atom_site_label
_atom_site_fract_x
_atom_site_fract_y
_atom_site_fract_z
Si Si1 0.167845 0.679408 0.810340
Si Si2 0.663820 0.683001 0.288824
Si Si3 0.165934 0.681884 0.123591
Si Si4 0.329038 0.322920 0.477341
Si Si5 0.333446 0.819903 0.966460
Si Si6 0.168111 0.177475 0.632132
O O1 0.182410 0.500000 0.815218
O O2 0.259879 0.756317 0.882613
O O3 0.210000 0.736894 0.717677
O O4 0.000000 0.716608 0.822232
O O5 0.500000 0.730588 0.274456
O O6 0.662701 0.500000 0.290591
O O7 0.764019 0.729419 0.212290
O O8 0.710048 0.729822 0.382722
O O9 0.175551 0.500000 0.118249
O O10 0.000000 0.722748 0.119400
O O11 0.252478 0.752129 0.046749
O O12 0.500000 0.310319 0.483410
O O13 0.293070 0.500000 0.484855
O O14 0.253880 0.234223 0.551623
O O15 0.500000 0.778590 0.969007
O O16 0.322323 0.000000 0.967405
O O17 0.000000 0.205731 0.618589
O O18 0.188472 0.000000 0.644559
#
# Coordination Sequence:
#
# PCOD9337590 Si02
#       6
#     4   4   4   4   4   4
#     4  10  21  38  60  83 105 134 175 220 266 316
#     4   8  15  30  52  77 106 140 178 221 266 310
#     4  10  20  34  55  83 110 138 176 220 266 316
#     4   9  18  33  54  80 108 140 180 223 266 313
#     4  11  24  39  55  78 108 142 178 215 260 315
#     4  10  21  36  54  78 109 144 179 216 262 315
#
# _framework density 18.088944999999999
#
# number of rings (size 3 to 8) (size 9 to 14) (size 15 to 20)
#    0.000    2.333    0.000    3.500    0.000    8.000 
#    0.000    2.500    0.000    1.000    0.000    0.000 
#    0.000    0.000    0.000    0.000    0.000    0.000 
#
# Total GULP energy -133979.142665 kJ/mol
# GULP energy per Si atom -5582.464278 kJ/mol
# Density = 1.804777 g / cm^3
# Si number density = 18.088945 Si / 1000 Ang^3
#
#
#
# Elastic Constant Matrix: (Units=GPa)
#
#
# Indices 1 2 3 4 5 6 
#
# 1 102.2049 44.2002 99.6556 0.0000 0.0000 0.0000
# 2 44.2002 30.4084 46.5941 0.0000 0.0000 0.0000
# 3 99.6556 46.5941 179.0822 0.0000 0.0000 0.0000
# 4 0.0000 0.0000 0.0000 -38.5404 0.0000 0.0000
# 5 0.0000 0.0000 0.0000 0.0000 41.0048 0.0000
# 6 0.0000 0.0000 0.0000 0.0000 0.0000 25.0725
#
#
#
# Elastic Compliance Matrix: (Units=1/GPa)
#
#
# Indices 1 2 3 4 5 6 
#
# 1 0.035099 -0.035072 -0.010407 0.000000 0.000000 0.000000
# 2 -0.035072 0.089734 -0.003830 0.000000 0.000000 0.000000
# 3 -0.010407 -0.003830 0.012372 0.000000 0.000000 0.000000
# 4 0.000000 0.000000 0.000000 -0.025947 0.000000 0.000000
# 5 0.000000 0.000000 0.000000 0.000000 0.024387 0.000000
# 6 0.000000 0.000000 0.000000 0.000000 0.000000 0.039884
#
#
# Mechanical properties :
#
#
# Convention : Reuss Voigt Hill
#
# Bulk Modulus (GPa) = 25.91595 76.95506 51.43551
# Shear Modulus (GPa) = 17.42102 13.59042 15.50572
#
# Velocity S-wave (km/s) = 3.10671 2.74398 2.93096
# Velocity P-wave (km/s) = 5.21794 7.25770 6.32065
#
# Compressibility (1/GPa) = 0.03858627
#
# Stress axis : x y z
#
# Youngs Moduli (GPa) = 28.49094 11.14406 80.82985
#
# Poissons Ratio (x) = 0.39085 0.84117
# Poissons Ratio (y) = 0.99924 0.30960
# Poissons Ratio (z) = 0.29649 0.04268
#
# Static dielectric constant tensor:
#      x y z
#    x 1.602930 0.000000 0.000000 
#    y 0.000000 1.606270 0.000000 
#    z 0.000000 0.000000 1.598240 
# 
# From -- ./inp_files/5229.got.cif
#   From: 2010.05.17/outbox.cif.g08.bks.cpg/sg25_3_cif.got.tgz:5229.got - 2010.06.04 01:04:00.
