data_PCOD9337051
_publ_section_title
;
Structure prediction by ZEFSAII (Michael W. Deem and Ramdas Pophale) SiO2 
 PCOD9337051
Probable space group: I 21 21 21
;
_chemical_formula_sum "Si O2"
_cell_formula_units_Z 24
_cell_length_a 15.000000
_cell_length_b 27.000000
_cell_length_c 6.000000
_cell_angle_alpha 90.000000
_cell_angle_beta 90.000000
_cell_angle_gamma 90.000000
_cell_volume 2430.000000
_symmetry_space_group_name_H-M "I 21 21 21"
_symmetry_group_IT_number 24
_symmetry_cell_setting 'orthorhombic'
loop_
_space_group_symop_operation_xyz
x,y,z
-x,1/2-y,z
x,-y,1/2-z
1/2-x,y,-z
1/2+x,1/2+y,1/2+z
1/2-x,-y,1/2+z
1/2+x,1/2-y,-z
-x,1/2+y,1/2-z
loop_
_atom_site_type_symbol
_atom_site_label
_atom_site_fract_x
_atom_site_fract_y
_atom_site_fract_z
Si Si1 0.350848 0.126295 0.565592
Si Si2 0.842765 0.720325 0.374606
Si Si3 0.359261 0.691105 0.969557
Si Si4 0.715393 0.942758 0.747607
Si Si5 0.517031 0.327681 0.193223
Si Si6 0.966923 0.104390 0.209986
O O1 0.250000 0.106177 0.500000
O O2 0.327509 0.168951 0.743858
O O3 0.406688 0.152077 0.363918
O O4 0.434575 0.095756 0.679642
O O5 0.750000 0.733842 0.500000
O O6 0.865958 0.760724 0.187203
O O7 0.926353 0.709572 0.536538
O O8 0.409405 0.647349 0.835631
O O9 0.250000 0.684840 0.000000
O O10 0.427060 0.693257 0.184132
O O11 0.750000 0.921854 0.500000
O O12 0.607634 0.938269 0.727514
O O13 0.743884 0.000000 0.750000
O O14 0.750000 0.924453 0.000000
O O15 0.485134 0.373231 0.035536
#
# Coordination Sequence:
#
# PCOD9337051 Si02
#       6
#     8   8   8   8   8   8
#     4  10  20  39  60  83 113 157 213 263 310 367
#     4  11  23  39  56  76 110 163 216 265 316 370
#     4  11  26  39  54  83 117 159 203 259 322 371
#     4  10  23  43  71 103 136 171 206 250 313 395
#     4  10  24  41  56  80 115 157 206 266 312 371
#     4  10  24  37  63  90 120 160 201 259 314 381
#
# _framework density 9.8765429999999999
#
# number of rings (size 3 to 8) (size 9 to 14) (size 15 to 20)
#    0.000    1.667    1.667    1.000    9.333    7.333 
#    0.000    0.000    0.000    0.000    4.333    0.000 
#    0.000    0.000    0.000    0.000    0.000    0.000 
#
# Total GULP energy -133655.877545 kJ/mol
# GULP energy per Si atom -5568.994898 kJ/mol
# Density = 0.985406 g / cm^3
# Si number density = 9.876543 Si / 1000 Ang^3
#
#
#
# Elastic Constant Matrix: (Units=GPa)
#
#
# Indices 1 2 3 4 5 6 
#
# 1 191.1279 1.4270 54.8567 0.0030 -0.0012 -0.0006
# 2 1.4270 21.0659 11.3198 0.0041 0.0012 -0.0004
# 3 54.8567 11.3198 127.2400 0.0180 -0.0016 0.0019
# 4 0.0030 0.0041 0.0180 8.5681 0.0048 -0.0003
# 5 -0.0012 0.0012 -0.0016 0.0048 50.9623 0.0019
# 6 -0.0006 -0.0004 0.0019 -0.0003 0.0019 29.5022
#
#
#
# Elastic Compliance Matrix: (Units=1/GPa)
#
#
# Indices 1 2 3 4 5 6 
#
# 1 0.005992 0.001032 -0.002675 0.000003 0.000000 0.000000
# 2 0.001032 0.050031 -0.004896 -0.000014 -0.000001 0.000001
# 3 -0.002675 -0.004896 0.009448 -0.000017 0.000000 -0.000001
# 4 0.000003 -0.000014 -0.000017 0.116712 -0.000011 0.000001
# 5 0.000000 -0.000001 0.000000 -0.000011 0.019622 -0.000001
# 6 0.000000 0.000001 -0.000001 0.000001 -0.000001 0.033896
#
#
# Mechanical properties :
#
#
# Convention : Reuss Voigt Hill
#
# Bulk Modulus (GPa) = 19.08666 52.73786 35.91226
# Shear Modulus (GPa) = 18.77979 35.92855 27.35417
#
# Velocity S-wave (km/s) = 3.08673 4.26946 3.72533
# Velocity P-wave (km/s) = 4.73154 7.14569 6.06005
#
# Compressibility (1/GPa) = 0.05239260
#
# Stress axis : x y z
#
# Youngs Moduli (GPa) = 166.88321 19.98764 105.84185
#
# Poissons Ratio (x) = -0.02062 0.28315
# Poissons Ratio (y) = -0.17216 0.51817
# Poissons Ratio (z) = 0.44644 0.09785
#
# Static dielectric constant tensor:
#      x y z
#    x 1.706390 0.000000 0.000000 
#    y 0.000000 1.734810 -0.000010 
#    z 0.000000 -0.000010 1.786630 
# 
# From -- ./inp_files/3775.got.cif
#   From: 2010.05.17/outbox.ucp.g08.bks.cvg/sg24_2_cif.got.tgz:3775.got - 2010.06.11 15:20:44.
