data_PCOD9337342
_publ_section_title
;
Structure prediction by ZEFSAII (Michael W. Deem and Ramdas Pophale) SiO2 
 PCOD9337342
Probable space group: P M M 2
;
_chemical_formula_sum "Si O2"
_cell_formula_units_Z 32
_cell_length_a 14.099506
_cell_length_b 11.620456
_cell_length_c 10.042480
_cell_angle_alpha 90.000000
_cell_angle_beta 90.000000
_cell_angle_gamma 90.000000
_cell_volume 1645.386928
_symmetry_space_group_name_H-M "P M M 2"
_symmetry_group_IT_number 25
_symmetry_cell_setting 'orthorhombic'
loop_
_space_group_symop_operation_xyz
x,y,z
-x,-y,z
-x,y,z
x,-y,z
loop_
_atom_site_type_symbol
_atom_site_label
_atom_site_fract_x
_atom_site_fract_y
_atom_site_fract_z
Si Si1 0.894889 0.368871 0.968610
Si Si2 0.392678 0.863214 0.024910
Si Si3 0.108714 0.720792 0.682893
Si Si4 0.708444 0.132724 0.757287
Si Si5 0.248650 0.274209 0.170073
Si Si6 0.387451 0.625102 0.342054
Si Si7 0.613050 0.128781 0.473428
Si Si8 0.111814 0.634113 0.384529
O O1 0.888221 0.500000 0.015232
O O2 0.888782 0.364187 0.809189
O O3 0.000000 0.324570 0.004392
O O4 0.813534 0.298560 0.040186
O O5 0.500000 0.819182 0.050202
O O6 0.316447 0.833005 0.138434
O O7 0.400212 0.000000 0.015569
O O8 0.349106 0.819745 0.884618
O O9 0.192994 0.808021 0.717153
O O10 0.126323 0.663016 0.540017
O O11 0.000000 0.768161 0.678892
O O12 0.641747 0.135828 0.627886
O O13 0.730100 0.000000 0.788555
O O14 0.326815 0.369939 0.207347
O O15 0.173228 0.283575 0.290063
O O16 0.500000 0.630075 0.321078
O O17 0.367863 0.500000 0.408887
O O18 0.358648 0.745993 0.413037
O O19 0.500000 0.125026 0.456886
O O20 0.648445 0.000000 0.426908
O O21 0.136370 0.500000 0.359825
O O22 0.000000 0.647404 0.356551
#
# Coordination Sequence:
#
# PCOD9337342 Si02
#       8
#     4   4   4   4   4   4   4   4
#     4  10  20  35  57  84 114 149 193 241 285 340
#     4  10  22  40  61  85 114 151 200 256 307 358
#     4  10  20  36  57  86 119 153 192 237 290 352
#     4  10  19  35  58  86 114 149 195 246 301 357
#     4  12  21  35  57  84 114 151 198 244 295 356
#     4  10  21  35  52  79 118 158 194 241 308 370
#     4   9  18  34  59  86 111 147 200 253 295 350
#     4  10  21  37  59  87 120 158 198 239 287 350
#
# _framework density 19.448312999999999
#
# number of rings (size 3 to 8) (size 9 to 14) (size 15 to 20)
#    0.000    1.875    1.250    3.375    0.000    4.750 
#    0.000    2.500    0.000    2.250    0.000    0.000 
#    0.000    0.000    0.000    0.000    0.000    0.000 
#
# Total GULP energy -178165.078868 kJ/mol
# GULP energy per Si atom -5567.658715 kJ/mol
# Density = 1.940405 g / cm^3
# Si number density = 19.448313 Si / 1000 Ang^3
#
#
#
# Elastic Constant Matrix: (Units=GPa)
#
#
# Indices 1 2 3 4 5 6 
#
# 1 107.0905 38.5542 43.4703 0.0000 0.0000 0.0000
# 2 38.5542 80.1123 26.6667 0.0000 0.0000 0.0000
# 3 43.4703 26.6667 95.2332 0.0000 0.0000 0.0000
# 4 0.0000 0.0000 0.0000 20.8717 0.0000 0.0000
# 5 0.0000 0.0000 0.0000 0.0000 30.4984 0.0000
# 6 0.0000 0.0000 0.0000 0.0000 0.0000 19.6031
#
#
#
# Elastic Compliance Matrix: (Units=1/GPa)
#
#
# Indices 1 2 3 4 5 6 
#
# 1 0.012875 -0.004676 -0.004568 0.000000 0.000000 0.000000
# 2 -0.004676 0.015464 -0.002196 0.000000 0.000000 0.000000
# 3 -0.004568 -0.002196 0.013200 0.000000 0.000000 0.000000
# 4 0.000000 0.000000 0.000000 0.047912 0.000000 0.000000
# 5 0.000000 0.000000 0.000000 0.000000 0.032789 0.000000
# 6 0.000000 0.000000 0.000000 0.000000 0.000000 0.051012
#
#
# Mechanical properties :
#
#
# Convention : Reuss Voigt Hill
#
# Bulk Modulus (GPa) = 53.58856 55.53538 54.56197
# Shear Modulus (GPa) = 24.70953 25.77764 25.24359
#
# Velocity S-wave (km/s) = 3.56831 3.64461 3.60666
# Velocity P-wave (km/s) = 6.67767 6.80649 6.74239
#
# Compressibility (1/GPa) = 0.01866070
#
# Stress axis : x y z
#
# Youngs Moduli (GPa) = 77.66712 64.66798 75.75521
#
# Poissons Ratio (x) = 0.30238 0.34604
# Poissons Ratio (y) = 0.36316 0.16633
# Poissons Ratio (z) = 0.35477 0.14199
#
# Static dielectric constant tensor:
#      x y z
#    x 1.690000 0.000000 0.000000 
#    y 0.000000 1.698940 0.000000 
#    z 0.000000 0.000000 1.727180 
# 
# From -- ./inp_files/2806.got.cif
#   From: 2010.05.17/outbox.cif.g08.bks.cpg/sg25_2_cif.got.tgz:2806.got - 2010.06.04 01:04:00.
