data_PCOD9337570
_publ_section_title
;
Structure prediction by ZEFSAII (Michael W. Deem and Ramdas Pophale) SiO2 
 PCOD9337570
Probable space group: P M M 2
;
_chemical_formula_sum "Si O2"
_cell_formula_units_Z 32
_cell_length_a 9.341698
_cell_length_b 7.992901
_cell_length_c 21.472837
_cell_angle_alpha 90.000000
_cell_angle_beta 90.000000
_cell_angle_gamma 90.000000
_cell_volume 1603.318060
_symmetry_space_group_name_H-M "P M M 2"
_symmetry_group_IT_number 25
_symmetry_cell_setting 'orthorhombic'
loop_
_space_group_symop_operation_xyz
x,y,z
-x,-y,z
-x,y,z
x,-y,z
loop_
_atom_site_type_symbol
_atom_site_label
_atom_site_fract_x
_atom_site_fract_y
_atom_site_fract_z
Si Si1 0.334751 0.702484 0.986180
Si Si2 0.337052 0.199198 0.715486
Si Si3 0.337284 0.299073 0.230078
Si Si4 0.673378 0.695773 0.850590
Si Si5 0.165066 0.295084 0.351553
Si Si6 0.663752 0.298011 0.474074
Si Si7 0.162697 0.202142 0.596810
Si Si8 0.162543 0.800380 0.108317
O O1 0.500000 0.758139 0.995607
O O2 0.338190 0.500000 0.983060
O O3 0.280785 0.763123 0.918217
O O4 0.237362 0.753088 0.043579
O O5 0.500000 0.267765 0.711597
O O6 0.279323 0.227778 0.785235
O O7 0.238752 0.264946 0.659898
O O8 0.347106 0.000000 0.707133
O O9 0.500000 0.234133 0.229606
O O10 0.345232 0.500000 0.235900
O O11 0.247389 0.238124 0.289554
O O12 0.256164 0.261380 0.166200
O O13 0.500000 0.711251 0.851967
O O14 0.708961 0.500000 0.847922
O O15 0.164947 0.500000 0.351326
O O16 0.248820 0.240433 0.413402
O O17 0.000000 0.241269 0.351950
O O18 0.500000 0.237110 0.473589
O O19 0.659772 0.500000 0.471410
O O20 0.744428 0.248514 0.536895
O O21 0.000000 0.264100 0.591113
O O22 0.157318 0.000000 0.600046
O O23 0.000000 0.734248 0.111637
O O24 0.157110 0.000000 0.112027
#
# Coordination Sequence:
#
# PCOD9337570 Si02
#       8
#     4   4   4   4   4   4   4   4
#     4   9  18  34  56  80 104 133 171 212 255 307
#     4   9  17  30  49  72  98 131 171 211 252 303
#     4  10  20  35  57  82 105 133 172 214 255 304
#     4   8  15  29  50  76 103 128 160 207 257 303
#     4   9  17  31  53  80 109 139 169 205 253 307
#     4  10  20  34  54  80 107 135 171 216 261 304
#     4  10  21  36  52  72 102 140 178 215 258 308
#     4  11  24  38  51  73 106 140 174 214 259 305
#
# _framework density 19.958611000000001
#
# number of rings (size 3 to 8) (size 9 to 14) (size 15 to 20)
#    0.000    2.500    0.000    3.000    0.000    7.500 
#    0.000    3.750    0.000    6.000    0.000    0.000 
#    0.000    0.000    0.000    0.000    0.000    0.000 
#
# Total GULP energy -178573.001988 kJ/mol
# GULP energy per Si atom -5580.406312 kJ/mol
# Density = 1.991318 g / cm^3
# Si number density = 19.958611 Si / 1000 Ang^3
#
#
#
# Elastic Constant Matrix: (Units=GPa)
#
#
# Indices 1 2 3 4 5 6 
#
# 1 170.8038 9.5076 122.3213 0.0000 0.0000 0.0000
# 2 9.5076 10.9636 6.4069 0.0000 0.0000 0.0000
# 3 122.3213 6.4069 213.8588 0.0000 0.0000 0.0000
# 4 0.0000 0.0000 0.0000 48.2428 0.0000 0.0000
# 5 0.0000 0.0000 0.0000 0.0000 -83.5987 0.0000
# 6 0.0000 0.0000 0.0000 0.0000 0.0000 15.0270
#
#
#
# Elastic Compliance Matrix: (Units=1/GPa)
#
#
# Indices 1 2 3 4 5 6 
#
# 1 0.010239 -0.005554 -0.005690 0.000000 0.000000 0.000000
# 2 -0.005554 0.095849 0.000305 0.000000 0.000000 0.000000
# 3 -0.005690 0.000305 0.007921 0.000000 0.000000 0.000000
# 4 0.000000 0.000000 0.000000 0.020728 0.000000 0.000000
# 5 0.000000 0.000000 0.000000 0.000000 -0.011962 0.000000
# 6 0.000000 0.000000 0.000000 0.000000 0.000000 0.066547
#
#
# Mechanical properties :
#
#
# Convention : Reuss Voigt Hill
#
# Bulk Modulus (GPa) = 10.85406 74.67753 42.76580
# Shear Modulus (GPa) = 20.66892 13.09360 16.88126
#
# Velocity S-wave (km/s) = 3.22155 2.56410 2.91144
# Velocity P-wave (km/s) = 4.39180 6.80173 5.72501
#
# Compressibility (1/GPa) = 0.09213140
#
# Stress axis : x y z
#
# Youngs Moduli (GPa) = 97.66994 10.43313 126.24287
#
# Poissons Ratio (x) = 0.05794 0.71830
# Poissons Ratio (y) = 0.54244 -0.03853
# Poissons Ratio (z) = 0.55572 -0.00318
#
# Static dielectric constant tensor:
#      x y z
#    x 1.695020 0.000000 0.000000 
#    y 0.000000 1.720900 0.000000 
#    z 0.000000 0.000000 1.688080 
# 
# From -- ./inp_files/6458.got.cif
#   From: 2010.05.17/outbox.cif.g08.bks.cpg/sg25_4_cif.got.tgz:6458.got - 2010.06.04 01:04:00.
