data_PCOD9337265
_publ_section_title
;
Structure prediction by ZEFSAII (Michael W. Deem and Ramdas Pophale) SiO2 
 PCOD9337265
Probable space group: P M M 2
;
_chemical_formula_sum "Si O2"
_cell_formula_units_Z 32
_cell_length_a 9.013117
_cell_length_b 14.017663
_cell_length_c 14.461315
_cell_angle_alpha 90.000000
_cell_angle_beta 90.000000
_cell_angle_gamma 90.000000
_cell_volume 1827.083559
_symmetry_space_group_name_H-M "P M M 2"
_symmetry_group_IT_number 25
_symmetry_cell_setting 'orthorhombic'
loop_
_space_group_symop_operation_xyz
x,y,z
-x,-y,z
-x,y,z
x,-y,z
loop_
_atom_site_type_symbol
_atom_site_label
_atom_site_fract_x
_atom_site_fract_y
_atom_site_fract_z
Si Si1 0.328311 0.252198 0.490990
Si Si2 0.337246 0.386631 0.318034
Si Si3 0.326472 0.731853 0.006649
Si Si4 0.320427 0.608228 0.650035
Si Si5 0.837206 0.613727 0.146249
Si Si6 0.321768 0.111487 0.153368
Si Si7 0.175128 0.886462 0.350092
Si Si8 0.822346 0.609086 0.852357
O O1 0.500000 0.222158 0.505218
O O2 0.327860 0.336319 0.415375
O O3 0.272394 0.305003 0.583391
O O4 0.240200 0.168945 0.438646
O O5 0.500000 0.361867 0.277410
O O6 0.332286 0.500000 0.329090
O O7 0.205927 0.358348 0.249887
O O8 0.500000 0.741625 0.985533
O O9 0.292076 0.650015 0.081186
O O10 0.275539 0.825257 0.064750
O O11 0.240694 0.692532 0.917443
O O12 0.500000 0.612741 0.656369
O O13 0.284464 0.500000 0.615475
O O14 0.248385 0.617198 0.750806
O O15 0.841669 0.500000 0.142514
O O16 0.000000 0.650378 0.118378
O O17 0.500000 0.120973 0.161283
O O18 0.252690 0.140634 0.252366
O O19 0.285555 0.000000 0.139002
O O20 0.000000 0.868736 0.342490
O O21 0.199518 0.000000 0.361174
O O22 0.786651 0.500000 0.886500
O O23 0.000000 0.615298 0.848224
#
# Coordination Sequence:
#
# PCOD9337265 Si02
#       8
#     4   4   4   4   4   4   4   4
#     4  10  19  31  51  76  99 128 167 207 249 296
#     4   9  17  29  44  65  96 130 161 194 235 288
#     4  11  21  32  51  75  96 125 166 208 251 298
#     4   9  18  34  55  78 104 133 167 208 251 297
#     4  10  20  31  42  62  96 133 164 196 237 287
#     4   9  19  36  55  75 101 132 167 209 255 302
#     4  10  21  35  51  74 104 137 172 210 253 300
#     4  10  21  36  53  75 104 136 168 204 249 300
#
# _framework density 17.514250000000001
#
# number of rings (size 3 to 8) (size 9 to 14) (size 15 to 20)
#    0.000    2.250    0.000    3.000    0.000   10.250 
#    0.000    0.000    0.000    4.500    0.000    1.750 
#    0.000    0.000    0.000    0.000    0.000    0.000 
#
# Total GULP energy -178340.803701 kJ/mol
# GULP energy per Si atom -5573.150116 kJ/mol
# Density = 1.747439 g / cm^3
# Si number density = 17.514250 Si / 1000 Ang^3
#
#
#
# Elastic Constant Matrix: (Units=GPa)
#
#
# Indices 1 2 3 4 5 6 
#
# 1 35.5057 37.9917 26.9902 0.0000 0.0000 0.0000
# 2 37.9917 94.4479 52.6348 0.0000 0.0000 0.0000
# 3 26.9902 52.6348 81.4423 0.0000 0.0000 0.0000
# 4 0.0000 0.0000 0.0000 34.9482 0.0000 0.0000
# 5 0.0000 0.0000 0.0000 0.0000 0.7858 0.0000
# 6 0.0000 0.0000 0.0000 0.0000 0.0000 20.4755
#
#
#
# Elastic Compliance Matrix: (Units=1/GPa)
#
#
# Indices 1 2 3 4 5 6 
#
# 1 0.051088 -0.017372 -0.005704 0.000000 0.000000 0.000000
# 2 -0.017372 0.022455 -0.008755 0.000000 0.000000 0.000000
# 3 -0.005704 -0.008755 0.019827 0.000000 0.000000 0.000000
# 4 0.000000 0.000000 0.000000 0.028614 0.000000 0.000000
# 5 0.000000 0.000000 0.000000 0.000000 1.272654 0.000000
# 6 0.000000 0.000000 0.000000 0.000000 0.000000 0.048839
#
#
# Mechanical properties :
#
#
# Convention : Reuss Voigt Hill
#
# Bulk Modulus (GPa) = 33.65976 49.62547 41.64262
# Shear Modulus (GPa) = 3.29589 17.49384 10.39486
#
# Velocity S-wave (km/s) = 1.37329 3.16386 2.43885
# Velocity P-wave (km/s) = 4.66635 6.46085 5.63548
#
# Compressibility (1/GPa) = 0.02970906
#
# Stress axis : x y z
#
# Youngs Moduli (GPa) = 19.57400 44.53417 50.43577
#
# Poissons Ratio (x) = 0.77363 0.28768
# Poissons Ratio (y) = 0.34003 0.44157
# Poissons Ratio (z) = 0.11165 0.38990
#
# Static dielectric constant tensor:
#      x y z
#    x 1.613390 0.000000 0.000000 
#    y 0.000000 1.621270 0.000000 
#    z 0.000000 0.000000 1.587560 
# 
# From -- ./inp_files/5741.got.cif
#   From: 2010.05.17/outbox.cif.g08.bks.cpg/sg25_3_cif.got.tgz:5741.got - 2010.06.04 01:04:00.
