data_PCOD9337041
_publ_section_title
;
Structure prediction by ZEFSAII (Michael W. Deem and Ramdas Pophale) SiO2 
 PCOD9337041
Probable space group: I 21 21 21
;
_chemical_formula_sum "Si O2"
_cell_formula_units_Z 20
_cell_length_a 9.000000
_cell_length_b 18.000000
_cell_length_c 12.000000
_cell_angle_alpha 90.000000
_cell_angle_beta 90.000000
_cell_angle_gamma 90.000000
_cell_volume 1944.000000
_symmetry_space_group_name_H-M "I 21 21 21"
_symmetry_group_IT_number 24
_symmetry_cell_setting 'orthorhombic'
loop_
_space_group_symop_operation_xyz
x,y,z
-x,1/2-y,z
x,-y,1/2-z
1/2-x,y,-z
1/2+x,1/2+y,1/2+z
1/2-x,-y,1/2+z
1/2+x,1/2-y,-z
-x,1/2+y,1/2-z
loop_
_atom_site_type_symbol
_atom_site_label
_atom_site_fract_x
_atom_site_fract_y
_atom_site_fract_z
Si Si1 0.069805 0.332833 0.984791
Si Si2 0.797634 0.683214 0.871811
Si Si3 0.513452 0.083485 0.245450
Si Si4 0.763291 0.140450 0.371839
Si Si5 0.968295 0.662295 0.277536
O O1 0.000000 0.250000 0.969199
O O2 0.021388 0.380229 0.877008
O O3 0.250000 0.327572 0.000000
O O4 0.005552 0.367399 0.100008
O O5 0.943945 0.639294 0.837856
O O6 0.791831 0.772987 0.861091
O O7 0.693790 0.653515 0.771591
O O8 0.750000 0.668066 0.000000
O O9 0.680274 0.084200 0.291136
O O10 0.451319 0.000000 0.250000
O O11 0.750000 0.119808 0.500000
O O12 0.928884 0.139507 0.325102
O O13 0.000000 0.750000 0.291361
#
# Coordination Sequence:
#
# PCOD9337041 Si02
#       5
#     8   8   8   8   8
#     4  11  23  41  69 100 126 163 217 273 322 376
#     4  10  21  41  66  94 122 160 220 273 315 365
#     4  12  26  41  59  91 136 175 204 251 320 396
#     4  10  19  38  68  91 118 161 214 273 312 361
#     4   9  19  35  63  98 120 148 210 272 323 361
#
# _framework density 10.288066000000001
#
# number of rings (size 3 to 8) (size 9 to 14) (size 15 to 20)
#    0.000    1.600    2.000    3.000    5.600    4.000 
#    3.600    1.000    0.000    0.000    0.000    0.000 
#    0.000    0.000    0.000    0.000    0.000    0.000 
#
# Total GULP energy -111417.539070 kJ/mol
# GULP energy per Si atom -5570.876954 kJ/mol
# Density = 1.026465 g / cm^3
# Si number density = 10.288066 Si / 1000 Ang^3
#
#
#
# Elastic Constant Matrix: (Units=GPa)
#
#
# Indices 1 2 3 4 5 6 
#
# 1 41.7443 17.4178 20.6000 0.0000 0.0000 0.0000
# 2 17.4178 32.7900 35.2942 -0.0004 0.0001 0.0001
# 3 20.6000 35.2942 186.6290 -0.0006 0.0001 0.0001
# 4 0.0000 -0.0004 -0.0006 3.1482 0.0001 0.0001
# 5 0.0000 0.0001 0.0001 0.0001 32.4074 0.0000
# 6 0.0000 0.0001 0.0001 0.0001 0.0000 2.6521
#
#
#
# Elastic Compliance Matrix: (Units=1/GPa)
#
#
# Indices 1 2 3 4 5 6 
#
# 1 0.030799 -0.015947 -0.000384 -0.000002 0.000000 0.000000
# 2 -0.015947 0.046549 -0.007043 0.000005 0.000000 -0.000001
# 3 -0.000384 -0.007043 0.006732 0.000000 0.000000 0.000000
# 4 -0.000002 0.000005 0.000000 0.317639 -0.000001 -0.000008
# 5 0.000000 0.000000 0.000000 -0.000001 0.030857 0.000000
# 6 0.000000 -0.000001 0.000000 -0.000008 0.000000 0.377062
#
#
# Mechanical properties :
#
#
# Convention : Reuss Voigt Hill
#
# Bulk Modulus (GPa) = 26.78614 45.30971 36.04792
# Shear Modulus (GPa) = 5.75488 20.16496 12.95992
#
# Velocity S-wave (km/s) = 1.67420 3.13392 2.51241
# Velocity P-wave (km/s) = 4.09678 5.92989 5.09643
#
# Compressibility (1/GPa) = 0.03733274
#
# Stress axis : x y z
#
# Youngs Moduli (GPa) = 32.46897 21.48287 148.53385
#
# Poissons Ratio (x) = 0.34259 0.05700
# Poissons Ratio (y) = 0.51778 1.04609
# Poissons Ratio (z) = 0.01246 0.15130
#
# Static dielectric constant tensor:
#      x y z
#    x 1.784750 0.000000 0.000000 
#    y 0.000000 1.732130 0.000000 
#    z 0.000000 0.000000 1.706150 
# 
# From -- ./inp_files/10678.got.cif
#   From: 2010.05.17/outbox.ucp.g08.bks.cvg/sg24_6_cif.got.tgz:10678.got - 2010.06.11 15:20:44.
