data_PCOD9337774
_publ_section_title
;
Structure prediction by ZEFSAII (Michael W. Deem and Ramdas Pophale) SiO2 
 PCOD9337774
Probable space group: P M M 2
;
_chemical_formula_sum "Si O2"
_cell_formula_units_Z 20
_cell_length_a 8.888782
_cell_length_b 15.596861
_cell_length_c 7.370639
_cell_angle_alpha 90.000000
_cell_angle_beta 90.000000
_cell_angle_gamma 90.000000
_cell_volume 1021.843996
_symmetry_space_group_name_H-M "P M M 2"
_symmetry_group_IT_number 25
_symmetry_cell_setting 'orthorhombic'
loop_
_space_group_symop_operation_xyz
x,y,z
-x,-y,z
-x,y,z
x,-y,z
loop_
_atom_site_type_symbol
_atom_site_label
_atom_site_fract_x
_atom_site_fract_y
_atom_site_fract_z
Si Si1 0.820221 0.906232 0.224140
Si Si2 0.820298 0.598977 0.935888
Si Si3 0.680475 0.907378 0.625236
Si Si4 0.678486 0.271373 0.214624
Si Si5 0.678753 0.280363 0.646454
O O1 0.767432 0.908449 0.434285
O O2 0.743809 0.820333 0.151497
O O3 0.000000 0.898687 0.212944
O O4 0.775839 0.000000 0.148004
O O5 0.771117 0.500000 0.935990
O O6 0.766992 0.648154 0.755653
O O7 0.000000 0.601429 0.947830
O O8 0.750753 0.652153 0.101803
O O9 0.500000 0.903313 0.588041
O O10 0.718930 0.816221 0.713314
O O11 0.710268 0.000000 0.714936
O O12 0.500000 0.270486 0.188235
O O13 0.707726 0.281969 0.430289
O O14 0.500000 0.292632 0.674576
#
# Coordination Sequence:
#
# PCOD9337774 Si02
#       5
#     4   4   4   4   4
#     4   9  16  27  48  80 116 151 185 223 270 325
#     4  11  25  42  59  81 110 145 186 236 292 344
#     4   8  14  27  49  78 112 148 185 223 266 322
#     4  10  21  38  61  86 113 149 190 232 279 331
#     4   9  19  36  59  86 113 145 185 227 275 332
#
# _framework density 19.572457
#
# number of rings (size 3 to 8) (size 9 to 14) (size 15 to 20)
#    0.000    2.600    0.000    3.000    0.000    7.600 
#    0.000    5.000    0.000    3.600    0.000    0.000 
#    0.000    0.000    0.000    0.000    0.000    0.000 
#
# Total GULP energy -111538.175384 kJ/mol
# GULP energy per Si atom -5576.908769 kJ/mol
# Density = 1.952791 g / cm^3
# Si number density = 19.572457 Si / 1000 Ang^3
#
#
#
# Elastic Constant Matrix: (Units=GPa)
#
#
# Indices 1 2 3 4 5 6 
#
# 1 46.9643 77.0442 40.8875 0.0000 0.0000 0.0000
# 2 77.0442 237.4285 65.8637 0.0000 0.0000 0.0000
# 3 40.8875 65.8637 77.9703 0.0000 0.0000 0.0000
# 4 0.0000 0.0000 0.0000 35.8190 0.0000 0.0000
# 5 0.0000 0.0000 0.0000 0.0000 35.4101 0.0000
# 6 0.0000 0.0000 0.0000 0.0000 0.0000 67.3940
#
#
#
# Elastic Compliance Matrix: (Units=1/GPa)
#
#
# Indices 1 2 3 4 5 6 
#
# 1 0.064166 -0.015003 -0.020975 0.000000 0.000000 0.000000
# 2 -0.015003 0.009009 0.000258 0.000000 0.000000 0.000000
# 3 -0.020975 0.000258 0.023607 0.000000 0.000000 0.000000
# 4 0.000000 0.000000 0.000000 0.027918 0.000000 0.000000
# 5 0.000000 0.000000 0.000000 0.000000 0.028241 0.000000
# 6 0.000000 0.000000 0.000000 0.000000 0.000000 0.014838
#
#
# Mechanical properties :
#
#
# Convention : Reuss Voigt Hill
#
# Bulk Modulus (GPa) = 39.46190 81.10599 60.28394
# Shear Modulus (GPa) = 20.18838 39.62912 29.90875
#
# Velocity S-wave (km/s) = 3.21513 4.50459 3.91334
# Velocity P-wave (km/s) = 5.82997 8.28154 7.16144
#
# Compressibility (1/GPa) = 0.02534090
#
# Stress axis : x y z
#
# Youngs Moduli (GPa) = 15.58452 111.00374 42.35997
#
# Poissons Ratio (x) = 1.66539 0.88851
# Poissons Ratio (y) = 0.23381 -0.01091
# Poissons Ratio (z) = 0.32689 -0.02860
#
# Static dielectric constant tensor:
#      x y z
#    x 1.634100 0.000000 0.000000 
#    y 0.000000 1.711970 0.000000 
#    z 0.000000 0.000000 1.716740 
# 
# From -- ./inp_files/1840.got.cif
#   From: 2010.05.17/outbox.cif.g08.bks.cpg/sg25_1_cif.got.tgz:1840.got - 2010.06.04 01:04:00.
