data_PCOD9337038
_publ_section_title
;
Structure prediction by ZEFSAII (Michael W. Deem and Ramdas Pophale) SiO2 
 PCOD9337038
Probable space group: I 21 21 21
;
_chemical_formula_sum "Si O2"
_cell_formula_units_Z 20
_cell_length_a 15.000000
_cell_length_b 15.000000
_cell_length_c 9.000000
_cell_angle_alpha 90.000000
_cell_angle_beta 90.000000
_cell_angle_gamma 90.000000
_cell_volume 2025.000000
_symmetry_space_group_name_H-M "I 21 21 21"
_symmetry_group_IT_number 24
_symmetry_cell_setting 'orthorhombic'
loop_
_space_group_symop_operation_xyz
x,y,z
-x,1/2-y,z
x,-y,1/2-z
1/2-x,y,-z
1/2+x,1/2+y,1/2+z
1/2-x,-y,1/2+z
1/2+x,1/2-y,-z
-x,1/2+y,1/2-z
loop_
_atom_site_type_symbol
_atom_site_label
_atom_site_fract_x
_atom_site_fract_y
_atom_site_fract_z
Si Si1 0.153049 0.521780 0.923001
Si Si2 0.393951 0.268683 0.413565
Si Si3 0.545640 0.472420 0.073316
Si Si4 0.669123 0.605723 0.896053
Si Si5 0.201640 0.832747 0.645026
O O1 0.166528 0.500000 0.750000
O O2 0.126665 0.627066 0.939706
O O3 0.060889 0.467332 0.966083
O O4 0.250000 0.505471 0.000000
O O5 0.500000 0.250000 0.394126
O O6 0.360047 0.204668 0.547847
O O7 0.340827 0.233832 0.267314
O O8 0.544837 0.500000 0.250000
O O9 0.617500 0.391521 0.085066
O O10 0.588728 0.541431 0.952175
O O11 0.719302 0.613507 0.736237
O O12 0.750000 0.574513 0.000000
O O13 0.250000 0.792922 0.500000
#
# Coordination Sequence:
#
# PCOD9337038 Si02
#       5
#     8   8   8   8   8
#     4  11  24  43  64  87 123 174 220 257 310 381
#     4  11  20  42  68  88 121 169 221 261 314 381
#     4  11  19  37  63  96 125 160 207 262 319 379
#     4  10  19  35  63  95 120 162 204 253 324 384
#     4  11  24  37  61 102 133 160 200 270 335 376
#
# _framework density 9.8765429999999999
#
# number of rings (size 3 to 8) (size 9 to 14) (size 15 to 20)
#    0.000    1.200    6.000    3.600    0.000    0.800 
#    3.600    1.000    0.000    0.000    0.000    0.000 
#    0.000    0.000    0.000    0.000    0.000    0.000 
#
# Total GULP energy -111468.391654 kJ/mol
# GULP energy per Si atom -5573.419583 kJ/mol
# Density = 0.985406 g / cm^3
# Si number density = 9.876543 Si / 1000 Ang^3
#
#
#
# Elastic Constant Matrix: (Units=GPa)
#
#
# Indices 1 2 3 4 5 6 
#
# 1 182.3752 7.8357 43.1868 0.0000 0.0000 0.0000
# 2 7.8357 45.7541 -1.4260 0.0000 0.0000 0.0000
# 3 43.1868 -1.4260 67.0952 0.0000 0.0000 0.0000
# 4 0.0000 0.0000 0.0000 20.3695 0.0000 0.0000
# 5 0.0000 0.0000 0.0000 0.0000 45.6490 0.0000
# 6 0.0000 0.0000 0.0000 0.0000 0.0000 37.1671
#
#
#
# Elastic Compliance Matrix: (Units=1/GPa)
#
#
# Indices 1 2 3 4 5 6 
#
# 1 0.006540 -0.001252 -0.004236 0.000000 0.000000 0.000000
# 2 -0.001252 0.022110 0.001276 0.000000 0.000000 0.000000
# 3 -0.004236 0.001276 0.017658 0.000000 0.000000 0.000000
# 4 0.000000 0.000000 0.000000 0.049093 0.000000 0.000000
# 5 0.000000 0.000000 0.000000 0.000000 0.021906 0.000000
# 6 0.000000 0.000000 0.000000 0.000000 0.000000 0.026905
#
#
# Mechanical properties :
#
#
# Convention : Reuss Voigt Hill
#
# Bulk Modulus (GPa) = 26.39687 43.82417 35.11052
# Shear Modulus (GPa) = 30.25425 37.01232 33.63329
#
# Velocity S-wave (km/s) = 3.91784 4.33338 4.13084
# Velocity P-wave (km/s) = 5.81880 6.87544 6.36907
#
# Compressibility (1/GPa) = 0.03788329
#
# Stress axis : x y z
#
# Youngs Moduli (GPa) = 152.90157 45.22811 56.63141
#
# Poissons Ratio (x) = 0.05663 0.23991
# Poissons Ratio (y) = 0.19144 -0.07225
# Poissons Ratio (z) = 0.64773 -0.05770
#
# Static dielectric constant tensor:
#      x y z
#    x 1.721170 0.000000 0.000000 
#    y 0.000000 1.746470 0.000000 
#    z 0.000000 0.000000 1.713000 
# 
# From -- ./inp_files/12289.got.cif
#   From: 2010.05.17/outbox.ucp.g08.bks.cvg/sg24_7_cif.got.tgz:12289.got - 2010.06.11 15:20:44.
