data_PCOD9337024
_publ_section_title
;
Structure prediction by ZEFSAII (Michael W. Deem and Ramdas Pophale) SiO2 
 PCOD9337024
Probable space group: I 21 21 21
;
_chemical_formula_sum "Si O2"
_cell_formula_units_Z 28
_cell_length_a 7.040007
_cell_length_b 9.528575
_cell_length_c 15.748180
_cell_angle_alpha 90.000000
_cell_angle_beta 90.000000
_cell_angle_gamma 90.000000
_cell_volume 1056.407359
_symmetry_space_group_name_H-M "I 21 21 21"
_symmetry_group_IT_number 24
_symmetry_cell_setting 'orthorhombic'
loop_
_space_group_symop_operation_xyz
x,y,z
-x,1/2-y,z
x,-y,1/2-z
1/2-x,y,-z
1/2+x,1/2+y,1/2+z
1/2-x,-y,1/2+z
1/2+x,1/2-y,-z
-x,1/2+y,1/2-z
loop_
_atom_site_type_symbol
_atom_site_label
_atom_site_fract_x
_atom_site_fract_y
_atom_site_fract_z
Si Si1 0.263707 0.614602 0.141738
Si Si2 0.719882 0.787987 0.685067
Si Si3 0.474942 0.045897 0.510687
Si Si4 0.750000 0.217548 0.000000
O O1 0.289960 0.725660 0.217573
O O2 0.057302 0.613339 0.096466
O O3 0.250000 0.948689 0.000000
O O4 0.417210 0.618515 0.067290
O O5 0.500000 0.750000 0.692216
O O6 0.778572 0.716966 0.595154
O O7 0.770593 0.951089 0.670797
O O8 0.569012 0.889151 0.512385
#
# Coordination Sequence:
#
# PCOD9337024 Si02
#       4
#     8   8   8   4
#     4   8  17  31  53  81 102 141 181 216 274 336
#     4   9  16  33  54  72 112 146 172 229 276 315
#     4   8  14  30  56  75 103 135 175 224 275 323
#     4   8  18  32  46  80 102 142 180 218 272 330
#
# _framework density 26.504926000000001
#
# number of rings (size 3 to 8) (size 9 to 14) (size 15 to 20)
#    0.000    4.571    0.000    0.000    0.000    0.000 
#   10.286   22.857    6.286    0.000    0.000    0.000 
#    0.000    0.000    0.000    4.571    0.000    0.000 
#
# Total GULP energy -78018.678446 kJ/mol
# GULP energy per Si atom -5572.762746 kJ/mol
# Density = 2.644460 g / cm^3
# Si number density = 26.504926 Si / 1000 Ang^3
#
#
#
# Elastic Constant Matrix: (Units=GPa)
#
#
# Indices 1 2 3 4 5 6 
#
# 1 182.2067 -7.6080 47.7765 0.0000 0.0000 0.0000
# 2 -7.6080 65.4039 -2.7085 0.0000 0.0000 0.0000
# 3 47.7765 -2.7085 239.9891 0.0000 0.0000 0.0000
# 4 0.0000 0.0000 0.0000 17.0970 0.0000 0.0000
# 5 0.0000 0.0000 0.0000 0.0000 33.0470 0.0000
# 6 0.0000 0.0000 0.0000 0.0000 0.0000 23.0271
#
#
#
# Elastic Compliance Matrix: (Units=1/GPa)
#
#
# Indices 1 2 3 4 5 6 
#
# 1 0.005816 0.000629 -0.001151 0.000000 0.000000 0.000000
# 2 0.000629 0.015365 0.000048 0.000000 0.000000 0.000000
# 3 -0.001151 0.000048 0.004396 0.000000 0.000000 0.000000
# 4 0.000000 0.000000 0.000000 0.058490 0.000000 0.000000
# 5 0.000000 0.000000 0.000000 0.000000 0.030260 0.000000
# 6 0.000000 0.000000 0.000000 0.000000 0.000000 0.043427
#
#
# Mechanical properties :
#
#
# Convention : Reuss Voigt Hill
#
# Bulk Modulus (GPa) = 40.60059 62.50219 51.55139
# Shear Modulus (GPa) = 29.95595 44.64355 37.29975
#
# Velocity S-wave (km/s) = 3.36550 4.10853 3.75544
# Velocity P-wave (km/s) = 5.51847 6.79259 6.18841
#
# Compressibility (1/GPa) = 0.02463019
#
# Stress axis : x y z
#
# Youngs Moduli (GPa) = 171.93110 65.08400 227.45380
#
# Poissons Ratio (x) = -0.04093 0.26175
# Poissons Ratio (y) = -0.10813 -0.01096
# Poissons Ratio (z) = 0.19786 -0.00314
#
# Static dielectric constant tensor:
#      x y z
#    x 2.109420 0.000000 0.000000 
#    y 0.000000 2.145340 0.000000 
#    z 0.000000 0.000000 2.229990 
# 
# From -- ./inp_files/24282.got.cif
#   From: 2010.05.17/outbox.cif.g08.bks.cpg/sg24_13_cif.got.tgz:24282.got - 2010.06.04 00:33:39.
