data_PCOD9337953
_publ_section_title
;
Structure prediction by ZEFSAII (Michael W. Deem and Ramdas Pophale) SiO2 
 PCOD9337953
Probable space group: P M C 21
;
_chemical_formula_sum "Si O2"
_cell_formula_units_Z 26
_cell_length_a 18.482565
_cell_length_b 16.074685
_cell_length_c 5.017112
_cell_angle_alpha 90.000000
_cell_angle_beta 90.000000
_cell_angle_gamma 90.000000
_cell_volume 1490.591051
_symmetry_space_group_name_H-M "P M C 21"
_symmetry_group_IT_number 26
_symmetry_cell_setting 'orthorhombic'
loop_
_space_group_symop_operation_xyz
x,y,z
-x,-y,1/2+z
-x,y,z
x,-y,1/2+z
loop_
_atom_site_type_symbol
_atom_site_label
_atom_site_fract_x
_atom_site_fract_y
_atom_site_fract_z
Si Si1 0.661511 0.045405 0.598400
Si Si2 0.841726 0.560220 0.370596
Si Si3 0.500000 0.198956 0.131624
Si Si4 0.708143 0.681850 0.337774
Si Si5 0.339698 0.775156 0.815406
Si Si6 0.500000 0.088939 0.621579
Si Si7 0.000000 0.444896 0.765561
Si Si8 0.420310 0.558064 0.396433
O O1 0.670003 0.134170 0.451446
O O2 0.575325 0.043241 0.661192
O O3 0.690000 0.975939 0.392105
O O4 0.833603 0.512686 0.650550
O O5 0.782278 0.630954 0.334507
O O6 0.923221 0.595521 0.334811
O O7 0.576530 0.237606 0.222476
O O8 0.500000 0.117570 0.316925
O O9 0.500000 0.168720 0.824701
O O10 0.706468 0.756972 0.550312
O O11 0.645898 0.618878 0.436330
O O12 0.684122 0.712317 0.047058
O O13 0.000000 0.473358 0.458330
O O14 0.500000 0.598554 0.426161
O O15 0.416293 0.483090 0.606277
#
# Coordination Sequence:
#
# PCOD9337953 Si02
#       8
#     4   4   2   4   4   2   2   4
#     4  11  20  34  51  67  91 122 160 208 254 308
#     4  10  19  34  55  78 104 136 170 204 251 303
#     4  10  20  35  46  62  92 121 159 208 253 305
#     4  12  22  34  51  71 101 131 165 213 257 299
#     4  11  24  34  49  72  96 129 170 208 262 305
#     4  10  18  31  50  68  82 109 155 208 259 303
#     4   8  16  30  52  80 104 128 164 202 240 306
#     4  10  21  35  49  64  85 120 171 213 244 278
#
# _framework density 17.442747000000001
#
# number of rings (size 3 to 8) (size 9 to 14) (size 15 to 20)
#    0.000    1.538    0.000    7.846    2.154    0.000 
#    0.000    0.000    0.000    0.000    0.000    0.000 
#    0.000    0.000    0.000   13.846    0.000    0.000 
#
# Total GULP energy -145017.814661 kJ/mol
# GULP energy per Si atom -5577.608256 kJ/mol
# Density = 1.740305 g / cm^3
# Si number density = 17.442747 Si / 1000 Ang^3
#
#
#
# Elastic Constant Matrix: (Units=GPa)
#
#
# Indices 1 2 3 4 5 6 
#
# 1 104.3897 50.0129 17.3203 0.0000 0.0000 0.0000
# 2 50.0129 37.4871 9.3380 0.0000 0.0000 0.0000
# 3 17.3203 9.3380 64.0312 0.0000 0.0000 0.0000
# 4 0.0000 0.0000 0.0000 35.1654 0.0000 0.0000
# 5 0.0000 0.0000 0.0000 0.0000 13.3768 0.0000
# 6 0.0000 0.0000 0.0000 0.0000 0.0000 15.0442
#
#
#
# Elastic Compliance Matrix: (Units=1/GPa)
#
#
# Indices 1 2 3 4 5 6 
#
# 1 0.026822 -0.035258 -0.002114 0.000000 0.000000 0.000000
# 2 -0.035258 0.074028 -0.001259 0.000000 0.000000 0.000000
# 3 -0.002114 -0.001259 0.016373 0.000000 0.000000 0.000000
# 4 0.000000 0.000000 0.000000 0.028437 0.000000 0.000000
# 5 0.000000 0.000000 0.000000 0.000000 0.074756 0.000000
# 6 0.000000 0.000000 0.000000 0.000000 0.000000 0.066471
#
#
# Mechanical properties :
#
#
# Convention : Reuss Voigt Hill
#
# Bulk Modulus (GPa) = 25.02327 39.91670 32.46999
# Shear Modulus (GPa) = 13.24615 21.33307 17.28961
#
# Velocity S-wave (km/s) = 2.75872 3.50098 3.15178
# Velocity P-wave (km/s) = 4.95222 6.26711 5.64806
#
# Compressibility (1/GPa) = 0.03996280
#
# Stress axis : x y z
#
# Youngs Moduli (GPa) = 37.28262 13.50837 61.07744
#
# Poissons Ratio (x) = 0.47628 0.12909
# Poissons Ratio (y) = 1.31451 0.07687
# Poissons Ratio (z) = 0.07880 0.01700
#
# Static dielectric constant tensor:
#      x y z
#    x 1.590890 0.000000 0.000000 
#    y 0.000000 1.635700 0.000000 
#    z 0.000000 0.000000 1.620630 
# 
# From -- ./inp_files/779.got.cif
#   From: 2010.05.17/outbox.cif.g08.bks.cpg/sg26_1_cif.got.tgz:779.got - 2010.06.04 01:07:29.
