data_PCOD9337130
_publ_section_title
;
Structure prediction by ZEFSAII (Michael W. Deem and Ramdas Pophale) SiO2 
 PCOD9337130
Probable space group: P M M 2
;
_chemical_formula_sum "Si O2"
_cell_formula_units_Z 32
_cell_length_a 14.614584
_cell_length_b 8.830213
_cell_length_c 15.990030
_cell_angle_alpha 90.000000
_cell_angle_beta 90.000000
_cell_angle_gamma 90.000000
_cell_volume 2063.511607
_symmetry_space_group_name_H-M "P M M 2"
_symmetry_group_IT_number 25
_symmetry_cell_setting 'orthorhombic'
loop_
_space_group_symop_operation_xyz
x,y,z
-x,-y,z
-x,y,z
x,-y,z
loop_
_atom_site_type_symbol
_atom_site_label
_atom_site_fract_x
_atom_site_fract_y
_atom_site_fract_z
Si Si1 0.104568 0.680802 0.318300
Si Si2 0.611086 0.825062 0.707045
Si Si3 0.392031 0.681180 0.219658
Si Si4 0.394158 0.184714 0.891092
Si Si5 0.707417 0.182962 0.058291
Si Si6 0.714065 0.179997 0.378147
Si Si7 0.391494 0.320537 0.532872
Si Si8 0.897145 0.818383 0.133942
O O1 0.115286 0.500000 0.320955
O O2 0.182571 0.758828 0.372670
O O3 0.116919 0.737413 0.222869
O O4 0.000000 0.718779 0.342438
O O5 0.500000 0.825599 0.710443
O O6 0.639381 0.767382 0.798901
O O7 0.637299 0.729741 0.626009
O O8 0.640168 0.000000 0.696356
O O9 0.500000 0.715925 0.224204
O O10 0.380762 0.500000 0.221150
O O11 0.349491 0.747118 0.134705
O O12 0.339923 0.751141 0.298837
O O13 0.500000 0.231978 0.903351
O O14 0.394489 0.000000 0.888768
O O15 0.333245 0.232795 0.969391
O O16 0.813828 0.221661 0.073136
O O17 0.698868 0.000000 0.062620
O O18 0.664412 0.234367 0.462056
O O19 0.713344 0.000000 0.371874
O O20 0.500000 0.285620 0.523998
O O21 0.380264 0.500000 0.522319
O O22 0.000000 0.782076 0.104059
O O23 0.893029 0.000000 0.148152
#
# Coordination Sequence:
#
# PCOD9337130 Si02
#       8
#     4   4   4   4   4   4   4   4
#     4  10  20  34  52  71  93 123 157 196 242 286
#     4   8  14  27  46  66  89 119 156 199 242 283
#     4  11  23  35  45  62  94 131 163 197 235 278
#     4   8  14  25  43  67  93 120 156 200 239 281
#     4  10  18  29  47  69  92 126 164 198 237 283
#     4  12  23  34  50  71  94 125 161 197 235 282
#     4  10  20  33  49  70  97 126 157 198 243 288
#     4   9  17  29  45  67  94 123 159 202 242 278
#
# _framework density 15.507543999999999
#
# number of rings (size 3 to 8) (size 9 to 14) (size 15 to 20)
#    0.000    2.250    1.250    3.750    0.000    4.500 
#    0.000    0.625    0.000    2.250    0.000    0.875 
#    0.000    3.000    0.000    0.000    0.000    0.000 
#
# Total GULP energy -178459.214109 kJ/mol
# GULP energy per Si atom -5576.850441 kJ/mol
# Density = 1.547225 g / cm^3
# Si number density = 15.507544 Si / 1000 Ang^3
#
#
#
# Elastic Constant Matrix: (Units=GPa)
#
#
# Indices 1 2 3 4 5 6 
#
# 1 99.3442 44.1890 60.5940 0.0000 0.0000 0.0000
# 2 44.1890 39.1170 34.0340 0.0000 0.0000 0.0000
# 3 60.5940 34.0340 115.9948 0.0000 0.0000 0.0000
# 4 0.0000 0.0000 0.0000 -38.6433 0.0000 0.0000
# 5 0.0000 0.0000 0.0000 0.0000 6.9365 0.0000
# 6 0.0000 0.0000 0.0000 0.0000 0.0000 19.1611
#
#
#
# Elastic Compliance Matrix: (Units=1/GPa)
#
#
# Indices 1 2 3 4 5 6 
#
# 1 0.022858 -0.020723 -0.005860 0.000000 0.000000 0.000000
# 2 -0.020723 0.053115 -0.004759 0.000000 0.000000 0.000000
# 3 -0.005860 -0.004759 0.013079 0.000000 0.000000 0.000000
# 4 0.000000 0.000000 0.000000 -0.025878 0.000000 0.000000
# 5 0.000000 0.000000 0.000000 0.000000 0.144166 0.000000
# 6 0.000000 0.000000 0.000000 0.000000 0.000000 0.052189
#
#
# Mechanical properties :
#
#
# Convention : Reuss Voigt Hill
#
# Bulk Modulus (GPa) = 37.92625 59.12111 48.52368
# Shear Modulus (GPa) = 15.10553 5.20012 10.15283
#
# Velocity S-wave (km/s) = 3.12441 1.83318 2.56149
# Velocity P-wave (km/s) = 6.12582 6.53358 6.33298
#
# Compressibility (1/GPa) = 0.02636697
#
# Stress axis : x y z
#
# Youngs Moduli (GPa) = 43.74742 18.82694 76.45955
#
# Poissons Ratio (x) = 0.39016 0.44809
# Poissons Ratio (y) = 0.90660 0.36386
# Poissons Ratio (z) = 0.25638 0.08960
#
# Static dielectric constant tensor:
#      x y z
#    x 1.518820 0.000000 0.000000 
#    y 0.000000 1.518700 0.000000 
#    z 0.000000 0.000000 1.504970 
# 
# From -- ./inp_files/5940.got.cif
#   From: 2010.05.17/outbox.cif.g08.bks.cpg/sg25_3_cif.got.tgz:5940.got - 2010.06.04 01:04:00.
