data_PCOD9337103
_publ_section_title
;
Structure prediction by ZEFSAII (Michael W. Deem and Ramdas Pophale) SiO2 
 PCOD9337103
Probable space group: P M M 2
;
_chemical_formula_sum "Si O2"
_cell_formula_units_Z 32
_cell_length_a 15.366364
_cell_length_b 7.614104
_cell_length_c 12.715103
_cell_angle_alpha 90.000000
_cell_angle_beta 90.000000
_cell_angle_gamma 90.000000
_cell_volume 1487.680956
_symmetry_space_group_name_H-M "P M M 2"
_symmetry_group_IT_number 25
_symmetry_cell_setting 'orthorhombic'
loop_
_space_group_symop_operation_xyz
x,y,z
-x,-y,z
-x,y,z
x,-y,z
loop_
_atom_site_type_symbol
_atom_site_label
_atom_site_fract_x
_atom_site_fract_y
_atom_site_fract_z
Si Si1 0.213407 0.714764 0.397360
Si Si2 0.369044 0.199746 0.107098
Si Si3 0.099897 0.709919 0.593900
Si Si4 0.818213 0.294123 0.164871
Si Si5 0.595389 0.214920 0.871073
Si Si6 0.405550 0.295155 0.343895
Si Si7 0.092715 0.788809 0.965562
Si Si8 0.222430 0.211871 0.791856
O O1 0.216118 0.500000 0.402710
O O2 0.153563 0.777470 0.492627
O O3 0.171996 0.763374 0.284813
O O4 0.314627 0.776312 0.391172
O O5 0.264687 0.200128 0.113907
O O6 0.397975 0.286342 0.216482
O O7 0.400675 0.000000 0.111579
O O8 0.394807 0.273040 0.993282
O O9 0.092731 0.500000 0.581626
O O10 0.162458 0.741768 0.693240
O O11 0.000000 0.777075 0.604540
O O12 0.796364 0.500000 0.167568
O O13 0.896438 0.264911 0.085908
O O14 0.500000 0.267554 0.832270
O O15 0.677879 0.273328 0.802070
O O16 0.597886 0.000000 0.874061
O O17 0.500000 0.217580 0.373421
O O18 0.407270 0.500000 0.372951
O O19 0.171196 0.722386 0.894706
O O20 0.000000 0.728434 0.922357
O O21 0.094457 0.000000 0.961332
O O22 0.225293 0.000000 0.795111
#
# Coordination Sequence:
#
# PCOD9337103 Si02
#       8
#     4   4   4   4   4   4   4   4
#     4   8  17  34  53  74 102 137 175 217 268 320
#     4  10  17  29  49  74 108 146 182 215 256 311
#     4  10  21  38  59  79 100 133 182 234 276 318
#     4  10  19  32  52  78 109 142 177 215 264 322
#     4   9  17  30  51  77 104 139 179 211 251 313
#     4   9  17  30  49  75 107 142 179 219 265 317
#     4  10  20  34  52  76 107 142 176 214 269 331
#     4  10  20  37  57  77 106 140 176 220 270 322
#
# _framework density 21.509989000000001
#
# number of rings (size 3 to 8) (size 9 to 14) (size 15 to 20)
#    0.000    2.500    1.250    2.250    0.000    2.750 
#    0.000    5.000    0.000    2.625    0.000    0.000 
#    0.000    0.000    0.000    0.000    0.000    0.000 
#
# Total GULP energy -178456.501449 kJ/mol
# GULP energy per Si atom -5576.765670 kJ/mol
# Density = 2.146103 g / cm^3
# Si number density = 21.509989 Si / 1000 Ang^3
#
#
#
# Elastic Constant Matrix: (Units=GPa)
#
#
# Indices 1 2 3 4 5 6 
#
# 1 199.2763 9.9647 91.5869 0.0000 0.0000 0.0000
# 2 9.9647 45.6861 -2.0664 0.0000 0.0000 0.0000
# 3 91.5869 -2.0664 115.7163 0.0000 0.0000 0.0000
# 4 0.0000 0.0000 0.0000 20.9079 0.0000 0.0000
# 5 0.0000 0.0000 0.0000 0.0000 13.0128 0.0000
# 6 0.0000 0.0000 0.0000 0.0000 0.0000 11.2992
#
#
#
# Elastic Compliance Matrix: (Units=1/GPa)
#
#
# Indices 1 2 3 4 5 6 
#
# 1 0.008075 -0.002052 -0.006428 0.000000 0.000000 0.000000
# 2 -0.002052 0.022428 0.002025 0.000000 0.000000 0.000000
# 3 -0.006428 0.002025 0.013765 0.000000 0.000000 0.000000
# 4 0.000000 0.000000 0.000000 0.047829 0.000000 0.000000
# 5 0.000000 0.000000 0.000000 0.000000 0.076847 0.000000
# 6 0.000000 0.000000 0.000000 0.000000 0.000000 0.088502
#
#
# Mechanical properties :
#
#
# Convention : Reuss Voigt Hill
#
# Bulk Modulus (GPa) = 31.89013 62.18323 47.03668
# Shear Modulus (GPa) = 17.80568 26.45686 22.13127
#
# Velocity S-wave (km/s) = 2.88025 3.51091 3.21110
# Velocity P-wave (km/s) = 5.09107 6.73848 5.97186
#
# Compressibility (1/GPa) = 0.03135767
#
# Stress axis : x y z
#
# Youngs Moduli (GPa) = 123.83949 44.58787 72.64570
#
# Poissons Ratio (x) = 0.09149 0.46695
# Poissons Ratio (y) = 0.25412 -0.14708
# Poissons Ratio (z) = 0.79602 -0.09027
#
# Static dielectric constant tensor:
#      x y z
#    x 1.825820 0.000000 0.000000 
#    y 0.000000 1.832300 0.000000 
#    z 0.000000 0.000000 1.753410 
# 
# From -- ./inp_files/4916.got.cif
#   From: 2010.05.17/outbox.cif.g08.bks.cpg/sg25_3_cif.got.tgz:4916.got - 2010.06.04 01:04:00.
