data_PCOD9337889
_publ_section_title
;
Structure prediction by ZEFSAII (Michael W. Deem and Ramdas Pophale) SiO2 
 PCOD9337889
Probable space group: P M C 21
;
_chemical_formula_sum "Si O2"
_cell_formula_units_Z 26
_cell_length_a 21.227632
_cell_length_b 16.722714
_cell_length_c 5.374235
_cell_angle_alpha 90.000000
_cell_angle_beta 90.000000
_cell_angle_gamma 90.000000
_cell_volume 1907.765389
_symmetry_space_group_name_H-M "P M C 21"
_symmetry_group_IT_number 26
_symmetry_cell_setting 'orthorhombic'
loop_
_space_group_symop_operation_xyz
x,y,z
-x,-y,1/2+z
-x,y,z
x,-y,1/2+z
loop_
_atom_site_type_symbol
_atom_site_label
_atom_site_fract_x
_atom_site_fract_y
_atom_site_fract_z
Si Si1 0.129085 0.912439 0.627190
Si Si2 0.277427 0.948768 0.627079
Si Si3 0.423503 0.455460 0.645847
Si Si4 0.613708 0.824300 0.631702
Si Si5 0.075020 0.093859 0.627190
Si Si6 0.423618 0.267814 0.629825
Si Si7 0.500000 0.051216 0.173514
O O1 0.203419 0.927162 0.627280
O O2 0.105176 0.871313 0.376831
O O3 0.095879 0.000210 0.627144
O O4 0.105140 0.871309 0.877487
O O5 0.319954 0.869887 0.628083
O O6 0.290626 0.999789 0.376689
O O7 0.500000 0.459742 0.646425
O O8 0.401719 0.501222 0.397874
O O9 0.407994 0.361824 0.639755
O O10 0.601306 0.775096 0.378961
O O11 0.560995 0.893432 0.645574
O O12 0.603778 0.771099 0.878468
O O13 0.000000 0.098541 0.627275
O O14 0.500000 0.259175 0.623183
O O15 0.500000 0.011036 0.445238
#
# Coordination Sequence:
#
# PCOD9337889 Si02
#       7
#     4   4   4   4   4   4   2
#     4  10  16  27  39  56  77  99 127 167 218 261
#     4  12  21  35  45  57  78 109 149 189 223 263
#     4   9  17  29  49  73  90 106 122 145 196 267
#     4  12  23  34  49  62  80 112 142 181 234 254
#     4  10  16  25  41  60  78  96 123 163 229 274
#     4  11  20  36  50  66  90 106 129 171 217 273
#     4  12  22  36  46  60  74  98 150 196 226 260
#
# _framework density 13.628508999999999
#
# number of rings (size 3 to 8) (size 9 to 14) (size 15 to 20)
#    0.000    1.231    4.615    6.000    0.000    2.462 
#    0.000    0.000    0.000    0.000    0.000    0.000 
#    0.000    0.000    0.000    0.000    0.000    0.000 
#
# Total GULP energy -145019.610736 kJ/mol
# GULP energy per Si atom -5577.677336 kJ/mol
# Density = 1.359749 g / cm^3
# Si number density = 13.628509 Si / 1000 Ang^3
#
#
#
# Elastic Constant Matrix: (Units=GPa)
#
#
# Indices 1 2 3 4 5 6 
#
# 1 53.9454 33.1395 35.2302 0.0000 0.0000 0.0000
# 2 33.1395 58.7833 39.3843 0.0000 0.0000 0.0000
# 3 35.2302 39.3843 144.9780 0.0000 0.0000 0.0000
# 4 0.0000 0.0000 0.0000 22.5343 0.0000 0.0000
# 5 0.0000 0.0000 0.0000 0.0000 13.7565 0.0000
# 6 0.0000 0.0000 0.0000 0.0000 0.0000 -2.8429
#
#
#
# Elastic Compliance Matrix: (Units=1/GPa)
#
#
# Indices 1 2 3 4 5 6 
#
# 1 0.029558 -0.014488 -0.003247 0.000000 0.000000 0.000000
# 2 -0.014488 0.027898 -0.004058 0.000000 0.000000 0.000000
# 3 -0.003247 -0.004058 0.008789 0.000000 0.000000 0.000000
# 4 0.000000 0.000000 0.000000 0.044377 0.000000 0.000000
# 5 0.000000 0.000000 0.000000 0.000000 0.072693 0.000000
# 6 0.000000 0.000000 0.000000 0.000000 0.000000 -0.351748
#
#
# Mechanical properties :
#
#
# Convention : Reuss Voigt Hill
#
# Bulk Modulus (GPa) = 44.13248 52.57941 48.35594
# Shear Modulus (GPa) = -42.62821 16.68641 -12.97090
#
# Velocity S-wave (km/s) = -5.59880 3.50290 -3.08839
# Velocity P-wave (km/s) = 3.05658 7.41786 4.77922
#
# Compressibility (1/GPa) = 0.02265905
#
# Stress axis : x y z
#
# Youngs Moduli (GPa) = 33.83177 35.84444 113.77841
#
# Poissons Ratio (x) = 0.51932 0.36943
# Poissons Ratio (y) = 0.49016 0.46172
# Poissons Ratio (z) = 0.10985 0.14546
#
# Static dielectric constant tensor:
#      x y z
#    x 1.430710 0.000000 0.000000 
#    y 0.000000 1.416570 0.000000 
#    z 0.000000 0.000000 1.623090 
# 
# From -- ./inp_files/775.got.cif
#   From: 2010.05.17/outbox.cif.g08.bks.cpg/sg26_1_cif.got.tgz:775.got - 2010.06.04 01:07:29.
