data_PCOD9337594
_publ_section_title
;
Structure prediction by ZEFSAII (Michael W. Deem and Ramdas Pophale) SiO2 
 PCOD9337594
Probable space group: P M M 2
;
_chemical_formula_sum "Si O2"
_cell_formula_units_Z 24
_cell_length_a 8.921249
_cell_length_b 14.321884
_cell_length_c 10.487796
_cell_angle_alpha 90.000000
_cell_angle_beta 90.000000
_cell_angle_gamma 90.000000
_cell_volume 1340.016186
_symmetry_space_group_name_H-M "P M M 2"
_symmetry_group_IT_number 25
_symmetry_cell_setting 'orthorhombic'
loop_
_space_group_symop_operation_xyz
x,y,z
-x,-y,z
-x,y,z
x,-y,z
loop_
_atom_site_type_symbol
_atom_site_label
_atom_site_fract_x
_atom_site_fract_y
_atom_site_fract_z
Si Si1 0.821286 0.107961 0.347660
Si Si2 0.178335 0.610598 0.215646
Si Si3 0.321679 0.892589 0.068349
Si Si4 0.180887 0.390687 0.695636
Si Si5 0.179778 0.282847 0.953948
Si Si6 0.321758 0.286260 0.455114
O O1 0.757207 0.123430 0.205147
O O2 0.745951 0.182663 0.440039
O O3 0.000000 0.121653 0.345176
O O4 0.790022 0.000000 0.381344
O O5 0.204931 0.500000 0.212399
O O6 0.268622 0.658506 0.329001
O O7 0.000000 0.625506 0.238282
O O8 0.215702 0.656581 0.079844
O O9 0.500000 0.882037 0.084224
O O10 0.290684 0.000000 0.030896
O O11 0.259282 0.816416 0.971016
O O12 0.222062 0.500000 0.699870
O O13 0.221722 0.338816 0.826969
O O14 0.255901 0.339425 0.576873
O O15 0.000000 0.385921 0.682226
O O16 0.000000 0.269357 0.952333
O O17 0.500000 0.282440 0.460831
#
# Coordination Sequence:
#
# PCOD9337594 Si02
#       6
#     4   4   4   4   4   4
#     4  10  20  36  60  87 114 148 192 240 289 342
#     4  10  20  35  57  84 113 146 189 242 291 339
#     4  10  20  34  55  86 122 155 186 228 288 350
#     4  10  22  41  62  83 113 156 201 244 290 341
#     4  10  20  36  60  87 113 148 196 243 288 339
#     4  12  24  37  56  85 119 154 192 236 291 351
#
# _framework density 17.910231
#
# number of rings (size 3 to 8) (size 9 to 14) (size 15 to 20)
#    0.000    1.667    1.667    3.500    0.000    7.333 
#    0.000    0.833    0.000    4.000    0.000    0.000 
#    0.000    0.000    0.000    0.000    0.000    0.000 
#
# Total GULP energy -134099.231634 kJ/mol
# GULP energy per Si atom -5587.467985 kJ/mol
# Density = 1.786947 g / cm^3
# Si number density = 17.910231 Si / 1000 Ang^3
#
#
#
# Elastic Constant Matrix: (Units=GPa)
#
#
# Indices 1 2 3 4 5 6 
#
# 1 64.9903 76.1447 67.9228 0.0000 0.0000 0.0000
# 2 76.1447 171.1778 94.2141 0.0000 0.0000 0.0000
# 3 67.9228 94.2141 140.2547 0.0000 0.0000 0.0000
# 4 0.0000 0.0000 0.0000 34.4950 0.0000 0.0000
# 5 0.0000 0.0000 0.0000 0.0000 -22.6451 0.0000
# 6 0.0000 0.0000 0.0000 0.0000 0.0000 18.0713
#
#
#
# Elastic Compliance Matrix: (Units=1/GPa)
#
#
# Indices 1 2 3 4 5 6 
#
# 1 0.042619 -0.012055 -0.012541 0.000000 0.000000 0.000000
# 2 -0.012055 0.012679 -0.002679 0.000000 0.000000 0.000000
# 3 -0.012541 -0.002679 0.015003 0.000000 0.000000 0.000000
# 4 0.000000 0.000000 0.000000 0.028990 0.000000 0.000000
# 5 0.000000 0.000000 0.000000 0.000000 -0.044160 0.000000
# 6 0.000000 0.000000 0.000000 0.000000 0.000000 0.055336
#
#
# Mechanical properties :
#
#
# Convention : Reuss Voigt Hill
#
# Bulk Modulus (GPa) = 63.49432 94.77623 79.13528
# Shear Modulus (GPa) = 29.36570 15.19367 22.27969
#
# Velocity S-wave (km/s) = 4.05360 2.91576 3.53081
# Velocity P-wave (km/s) = 7.57874 8.02295 7.80401
#
# Compressibility (1/GPa) = 0.01574944
#
# Stress axis : x y z
#
# Youngs Moduli (GPa) = 23.46392 78.87270 66.65445
#
# Poissons Ratio (x) = 0.95084 0.83594
# Poissons Ratio (y) = 0.28287 0.17854
# Poissons Ratio (z) = 0.29427 0.21126
#
# Static dielectric constant tensor:
#      x y z
#    x 1.595720 0.000000 0.000000 
#    y 0.000000 1.618500 0.000000 
#    z 0.000000 0.000000 1.577820 
# 
# From -- ./inp_files/1991.got.cif
#   From: 2010.05.17/outbox.cif.g08.bks.cpg/sg25_1_cif.got.tgz:1991.got - 2010.06.04 01:04:00.
