data_PCOD9337900
_publ_section_title
;
Structure prediction by ZEFSAII (Michael W. Deem and Ramdas Pophale) SiO2 
 PCOD9337900
Probable space group: P M C 21
;
_chemical_formula_sum "Si O2"
_cell_formula_units_Z 32
_cell_length_a 12.373013
_cell_length_b 30.684237
_cell_length_c 5.138943
_cell_angle_alpha 90.000000
_cell_angle_beta 90.000000
_cell_angle_gamma 90.000000
_cell_volume 1951.032924
_symmetry_space_group_name_H-M "P M C 21"
_symmetry_group_IT_number 26
_symmetry_cell_setting 'orthorhombic'
loop_
_space_group_symop_operation_xyz
x,y,z
-x,-y,1/2+z
-x,y,z
x,-y,1/2+z
loop_
_atom_site_type_symbol
_atom_site_label
_atom_site_fract_x
_atom_site_fract_y
_atom_site_fract_z
Si Si1 0.121018 0.801197 0.478520
Si Si2 0.125885 0.970564 0.478183
Si Si3 0.251058 0.882707 0.393048
Si Si4 0.774070 0.231816 0.479539
Si Si5 0.131768 0.526144 0.484944
Si Si6 0.870127 0.377887 0.832644
Si Si7 0.627875 0.846217 0.894896
Si Si8 0.131106 0.323045 0.332424
O O1 0.147244 0.850959 0.411818
O O2 0.144650 0.793260 0.781466
O O3 0.000000 0.788297 0.417951
O O4 0.197144 0.774332 0.282361
O O5 0.208385 0.931282 0.430249
O O6 0.000000 0.955850 0.458595
O O7 0.141004 0.007487 0.258880
O O8 0.310963 0.872563 0.123163
O O9 0.328853 0.865667 0.623531
O O10 0.665037 0.204518 0.424367
O O11 0.796254 0.281397 0.401096
O O12 0.164247 0.508981 0.767286
O O13 0.171232 0.574204 0.407029
O O14 0.000000 0.527471 0.484989
O O15 0.845954 0.360233 0.546461
O O16 0.000000 0.381326 0.843840
O O17 0.842333 0.342125 0.049872
O O18 0.500000 0.850194 0.916208
O O19 0.000000 0.312948 0.344041
#
# Coordination Sequence:
#
# PCOD9337900 Si02
#       8
#     4   4   4   4   4   4   4   4
#     4  10  18  29  45  68  95 117 146 183 221 267
#     4  10  20  34  54  80 109 135 155 180 223 280
#     4  10  20  34  54  75  96 125 157 192 230 270
#     4  10  20  30  45  67  88 119 152 182 227 275
#     4   9  15  23  34  47  66  96 142 190 217 240
#     4   9  17  25  35  52  75 109 144 177 218 259
#     4  10  21  37  55  72  92 121 161 203 236 266
#     4  10  17  26  38  55  84 112 139 173 215 271
#
# _framework density 16.401568999999999
#
# number of rings (size 3 to 8) (size 9 to 14) (size 15 to 20)
#    0.000    2.250    0.000    4.125    0.000    4.000 
#    0.000    3.750    0.000    7.500    0.000    0.000 
#    0.000    0.000    0.000    0.000    0.000   12.500 
#
# Total GULP energy -178290.036680 kJ/mol
# GULP energy per Si atom -5571.563646 kJ/mol
# Density = 1.636424 g / cm^3
# Si number density = 16.401569 Si / 1000 Ang^3
#
#
#
# Elastic Constant Matrix: (Units=GPa)
#
#
# Indices 1 2 3 4 5 6 
#
# 1 28.2759 9.7443 -5.9365 0.0000 0.0000 0.0000
# 2 9.7443 48.2637 -21.3435 0.0000 0.0000 0.0000
# 3 -5.9365 -21.3435 52.4876 0.0000 0.0000 0.0000
# 4 0.0000 0.0000 0.0000 15.9101 0.0000 0.0000
# 5 0.0000 0.0000 0.0000 0.0000 8.9997 0.0000
# 6 0.0000 0.0000 0.0000 0.0000 0.0000 8.2567
#
#
#
# Elastic Compliance Matrix: (Units=1/GPa)
#
#
# Indices 1 2 3 4 5 6 
#
# 1 0.038099 -0.007055 0.001440 0.000000 0.000000 0.000000
# 2 -0.007055 0.026569 0.010006 0.000000 0.000000 0.000000
# 3 0.001440 0.010006 0.023284 0.000000 0.000000 0.000000
# 4 0.000000 0.000000 0.000000 0.062853 0.000000 0.000000
# 5 0.000000 0.000000 0.000000 0.000000 0.111115 0.000000
# 6 0.000000 0.000000 0.000000 0.000000 0.000000 0.121114
#
#
# Mechanical properties :
#
#
# Convention : Reuss Voigt Hill
#
# Bulk Modulus (GPa) = 10.33763 10.43953 10.38858
# Shear Modulus (GPa) = 12.30019 16.40414 14.35216
#
# Velocity S-wave (km/s) = 2.74147 3.16596 2.96133
# Velocity P-wave (km/s) = 4.04196 4.44333 4.24739
#
# Compressibility (1/GPa) = 0.09673401
#
# Stress axis : x y z
#
# Youngs Moduli (GPa) = 26.24708 37.63801 42.94826
#
# Poissons Ratio (x) = 0.26555 -0.06186
# Poissons Ratio (y) = 0.18518 -0.42974
# Poissons Ratio (z) = -0.03780 -0.37660
#
# Static dielectric constant tensor:
#      x y z
#    x 1.516250 0.000000 0.000000 
#    y 0.000000 1.573240 0.000000 
#    z 0.000000 0.000000 1.562160 
# 
# From -- ./inp_files/506.got.cif
#   From: 2010.05.17/outbox.cif.g08.bks.cpg/sg26_1_cif.got.tgz:506.got - 2010.06.04 01:07:29.
