data_PCOD9337682
_publ_section_title
;
Structure prediction by ZEFSAII (Michael W. Deem and Ramdas Pophale) SiO2 
 PCOD9337682
Probable space group: P M M 2
;
_chemical_formula_sum "Si O2"
_cell_formula_units_Z 32
_cell_length_a 7.491570
_cell_length_b 9.836467
_cell_length_c 21.580456
_cell_angle_alpha 90.000000
_cell_angle_beta 90.000000
_cell_angle_gamma 90.000000
_cell_volume 1590.276343
_symmetry_space_group_name_H-M "P M M 2"
_symmetry_group_IT_number 25
_symmetry_cell_setting 'orthorhombic'
loop_
_space_group_symop_operation_xyz
x,y,z
-x,-y,z
-x,y,z
x,-y,z
loop_
_atom_site_type_symbol
_atom_site_label
_atom_site_fract_x
_atom_site_fract_y
_atom_site_fract_z
Si Si1 0.781382 0.843679 0.054740
Si Si2 0.288888 0.652714 0.806119
Si Si3 0.793200 0.334725 0.305440
Si Si4 0.781108 0.657473 0.440399
Si Si5 0.209676 0.345687 0.944311
Si Si6 0.213825 0.846093 0.691305
Si Si7 0.218466 0.342725 0.169582
Si Si8 0.782477 0.157651 0.553822
O O1 0.727120 0.758150 0.115230
O O2 0.000000 0.846155 0.054401
O O3 0.722662 0.000000 0.055394
O O4 0.719163 0.760438 0.994269
O O5 0.500000 0.642917 0.811927
O O6 0.215675 0.500000 0.796186
O O7 0.224278 0.701952 0.873267
O O8 0.252865 0.748425 0.748169
O O9 0.792506 0.500000 0.306412
O O10 0.718374 0.293650 0.372330
O O11 0.717711 0.298583 0.238147
O O12 0.000000 0.290175 0.304956
O O13 0.729873 0.500000 0.448792
O O14 0.721088 0.748701 0.497625
O O15 0.000000 0.659810 0.438753
O O16 0.284643 0.500000 0.948192
O O17 0.000000 0.357650 0.958248
O O18 0.276033 0.799517 0.623019
O O19 0.000000 0.853896 0.687117
O O20 0.280216 0.000000 0.701987
O O21 0.271379 0.500000 0.158034
O O22 0.000000 0.343575 0.171392
O O23 0.000000 0.162351 0.552914
O O24 0.731984 0.000000 0.545521
#
# Coordination Sequence:
#
# PCOD9337682 Si02
#       8
#     4   4   4   4   4   4   4   4
#     4   9  16  24  35  54  78 101 131 175 216 245
#     4  10  21  35  50  70  94 116 141 179 225 269
#     4   7  10  16  26  41  63  94 132 169 202 241
#     4   8  12  18  29  46  68  96 133 173 208 244
#     4   9  17  30  47  64  83 111 144 173 207 257
#     4   9  18  32  49  68  90 118 152 186 219 261
#     4   8  12  19  31  45  65  98 136 169 204 248
#     4   8  14  24  36  52  76 104 135 173 213 249
#
# _framework density 20.12229
#
# number of rings (size 3 to 8) (size 9 to 14) (size 15 to 20)
#    0.000    3.500    0.000    3.000    0.000    3.500 
#    0.000    3.125    0.000    3.750    0.000    0.000 
#    0.000    0.000    0.000    1.125    0.000   22.250 
#
# Total GULP energy -178300.212046 kJ/mol
# GULP energy per Si atom -5571.881626 kJ/mol
# Density = 2.007649 g / cm^3
# Si number density = 20.122290 Si / 1000 Ang^3
#
#
#
# Elastic Constant Matrix: (Units=GPa)
#
#
# Indices 1 2 3 4 5 6 
#
# 1 53.1808 4.4215 2.3605 0.0000 0.0000 0.0000
# 2 4.4215 104.5038 128.7427 0.0000 0.0000 0.0000
# 3 2.3605 128.7427 239.6690 0.0000 0.0000 0.0000
# 4 0.0000 0.0000 0.0000 4.7606 0.0000 0.0000
# 5 0.0000 0.0000 0.0000 0.0000 -36.8300 0.0000
# 6 0.0000 0.0000 0.0000 0.0000 0.0000 -9.5785
#
#
#
# Elastic Compliance Matrix: (Units=1/GPa)
#
#
# Indices 1 2 3 4 5 6 
#
# 1 0.018912 -0.001687 0.000720 0.000000 0.000000 0.000000
# 2 -0.001687 0.028441 -0.015261 0.000000 0.000000 0.000000
# 3 0.000720 -0.015261 0.012363 0.000000 0.000000 0.000000
# 4 0.000000 0.000000 0.000000 0.210058 0.000000 0.000000
# 5 0.000000 0.000000 0.000000 0.000000 -0.027152 0.000000
# 6 0.000000 0.000000 0.000000 0.000000 0.000000 -0.104401
#
#
# Mechanical properties :
#
#
# Convention : Reuss Voigt Hill
#
# Bulk Modulus (GPa) = 36.68397 74.26699 55.47548
# Shear Modulus (GPa) = 27.81407 9.12569 18.46988
#
# Velocity S-wave (km/s) = 3.72190 2.13189 3.03294
# Velocity P-wave (km/s) = 6.06136 6.56109 6.31617
#
# Compressibility (1/GPa) = 0.02725986
#
# Stress axis : x y z
#
# Youngs Moduli (GPa) = 52.87618 35.16014 80.88558
#
# Poissons Ratio (x) = 0.05932 -0.05824
# Poissons Ratio (y) = 0.08922 1.23441
# Poissons Ratio (z) = -0.03808 0.53658
#
# Static dielectric constant tensor:
#      x y z
#    x 1.751890 0.000000 0.000000 
#    y 0.000000 1.678590 0.000000 
#    z 0.000000 0.000000 1.728680 
# 
# From -- ./inp_files/6539.got.cif
#   From: 2010.05.17/outbox.cif.g08.bks.cpg/sg25_4_cif.got.tgz:6539.got - 2010.06.04 01:04:00.
