data_PCOD9337896
_publ_section_title
;
Structure prediction by ZEFSAII (Michael W. Deem and Ramdas Pophale) SiO2 
 PCOD9337896
Probable space group: P M C 21
;
_chemical_formula_sum "Si O2"
_cell_formula_units_Z 32
_cell_length_a 16.242817
_cell_length_b 9.690533
_cell_length_c 9.821961
_cell_angle_alpha 90.000000
_cell_angle_beta 90.000000
_cell_angle_gamma 90.000000
_cell_volume 1545.991926
_symmetry_space_group_name_H-M "P M C 21"
_symmetry_group_IT_number 26
_symmetry_cell_setting 'orthorhombic'
loop_
_space_group_symop_operation_xyz
x,y,z
-x,-y,1/2+z
-x,y,z
x,-y,1/2+z
loop_
_atom_site_type_symbol
_atom_site_label
_atom_site_fract_x
_atom_site_fract_y
_atom_site_fract_z
Si Si1 0.906737 0.000194 0.900500
Si Si2 0.300888 0.232415 0.029440
Si Si3 0.714823 0.712075 0.104021
Si Si4 0.877179 0.325141 0.943315
Si Si5 0.147052 0.502629 0.693424
Si Si6 0.798692 0.021710 0.644358
Si Si7 0.298053 0.352162 0.317227
Si Si8 0.403314 0.378159 0.822281
O O1 0.846885 0.966113 0.775022
O O2 0.000000 0.957065 0.873627
O O3 0.905700 0.166715 0.928427
O O4 0.868552 0.935297 0.036167
O O5 0.222083 0.313228 0.965415
O O6 0.328895 0.294349 0.174087
O O7 0.261382 0.085784 0.069646
O O8 0.373715 0.257065 0.923869
O O9 0.785884 0.596532 0.118878
O O10 0.747379 0.844712 0.183816
O O11 0.632385 0.658838 0.174086
O O12 0.702370 0.747040 0.946417
O O13 0.901318 0.410240 0.079401
O O14 0.897426 0.408028 0.805763
O O15 0.204540 0.604501 0.782273
O O16 0.352929 0.483339 0.360142
O O17 0.500000 0.398676 0.825176
#
# Coordination Sequence:
#
# PCOD9337896 Si02
#       8
#     4   4   4   4   4   4   4   4
#     4  11  23  40  59  88 121 154 196 254 313 357
#     4  10  20  36  56  87 113 153 206 244 289 352
#     4  11  19  34  57  88 110 151 209 241 287 353
#     4  10  18  34  58  83 114 152 197 249 291 356
#     4  10  16  31  55  84 111 149 198 244 294 341
#     4  11  22  39  65  85 116 160 206 249 286 358
#     4  10  19  31  55  85 114 144 198 254 287 344
#     4  11  22  37  57  84 122 153 186 253 316 349
#
# _framework density 20.698685000000001
#
# number of rings (size 3 to 8) (size 9 to 14) (size 15 to 20)
#    0.000    1.500    5.000    3.375    0.000    2.000 
#    0.000    1.250    0.000    1.500    0.000    0.000 
#    0.000    0.000    0.000    0.000    0.000    0.000 
#
# Total GULP energy -178597.180416 kJ/mol
# GULP energy per Si atom -5581.161888 kJ/mol
# Density = 2.065157 g / cm^3
# Si number density = 20.698685 Si / 1000 Ang^3
#
#
#
# Elastic Constant Matrix: (Units=GPa)
#
#
# Indices 1 2 3 4 5 6 
#
# 1 81.5566 9.9724 10.6597 0.0000 0.0000 0.0000
# 2 9.9724 43.9810 -7.5277 0.0000 0.0000 0.0000
# 3 10.6597 -7.5277 101.0480 0.0000 0.0000 0.0000
# 4 0.0000 0.0000 0.0000 31.9969 0.0000 0.0000
# 5 0.0000 0.0000 0.0000 0.0000 8.0803 0.0000
# 6 0.0000 0.0000 0.0000 0.0000 0.0000 8.4443
#
#
#
# Elastic Compliance Matrix: (Units=1/GPa)
#
#
# Indices 1 2 3 4 5 6 
#
# 1 0.012860 -0.003189 -0.001594 0.000000 0.000000 0.000000
# 2 -0.003189 0.023821 0.002111 0.000000 0.000000 0.000000
# 3 -0.001594 0.002111 0.010222 0.000000 0.000000 0.000000
# 4 0.000000 0.000000 0.000000 0.031253 0.000000 0.000000
# 5 0.000000 0.000000 0.000000 0.000000 0.123758 0.000000
# 6 0.000000 0.000000 0.000000 0.000000 0.000000 0.118423
#
#
# Mechanical properties :
#
#
# Convention : Reuss Voigt Hill
#
# Bulk Modulus (GPa) = 24.06210 28.08826 26.07518
# Shear Modulus (GPa) = 14.72609 23.93639 19.33124
#
# Velocity S-wave (km/s) = 2.67020 3.40431 3.05935
# Velocity P-wave (km/s) = 4.59965 5.38999 5.01043
#
# Compressibility (1/GPa) = 0.04155913
#
# Stress axis : x y z
#
# Youngs Moduli (GPa) = 77.76243 41.97904 97.83089
#
# Poissons Ratio (x) = 0.13386 0.15596
# Poissons Ratio (y) = 0.24796 -0.20652
# Poissons Ratio (z) = 0.12396 -0.08862
#
# Static dielectric constant tensor:
#      x y z
#    x 1.710830 0.000000 0.000000 
#    y 0.000000 1.774440 0.000000 
#    z 0.000000 0.000000 1.769920 
# 
# From -- ./inp_files/2237.got.cif
#   From: 2010.05.17/outbox.cif.g08.bks.cpg/sg26_2_cif.got.tgz:2237.got - 2010.06.04 01:07:29.
