data_PCOD9337136
_publ_section_title
;
Structure prediction by ZEFSAII (Michael W. Deem and Ramdas Pophale) SiO2 
 PCOD9337136
Probable space group: P M M 2
;
_chemical_formula_sum "Si O2"
_cell_formula_units_Z 32
_cell_length_a 7.863343
_cell_length_b 14.390307
_cell_length_c 14.598063
_cell_angle_alpha 90.000000
_cell_angle_beta 90.000000
_cell_angle_gamma 90.000000
_cell_volume 1651.857246
_symmetry_space_group_name_H-M "P M M 2"
_symmetry_group_IT_number 25
_symmetry_cell_setting 'orthorhombic'
loop_
_space_group_symop_operation_xyz
x,y,z
-x,-y,z
-x,y,z
x,-y,z
loop_
_atom_site_type_symbol
_atom_site_label
_atom_site_fract_x
_atom_site_fract_y
_atom_site_fract_z
Si Si1 0.311737 0.249821 0.117670
Si Si2 0.208303 0.104799 0.477292
Si Si3 0.705500 0.392844 0.972815
Si Si4 0.794695 0.607029 0.768202
Si Si5 0.698755 0.891105 0.768728
Si Si6 0.796633 0.896940 0.265771
Si Si7 0.197366 0.108494 0.977268
Si Si8 0.807410 0.752055 0.623377
O O1 0.500000 0.281303 0.143749
O O2 0.242356 0.192209 0.203712
O O3 0.227742 0.333970 0.059696
O O4 0.313205 0.171038 0.039751
O O5 0.259164 0.114487 0.371130
O O6 0.271173 0.191606 0.537958
O O7 0.000000 0.106171 0.481873
O O8 0.260031 0.000000 0.507992
O O9 0.500000 0.390724 0.977499
O O10 0.762981 0.500000 0.977215
O O11 0.750492 0.356903 0.870518
O O12 0.736186 0.500000 0.763505
O O13 0.729529 0.666806 0.681659
O O14 0.000000 0.608596 0.763021
O O15 0.500000 0.865206 0.760482
O O16 0.760584 0.876628 0.871699
O O17 0.809078 0.831860 0.700141
O O18 0.714568 0.000000 0.748667
O O19 0.000000 0.903408 0.267035
O O20 0.734015 0.000000 0.233334
O O21 0.000000 0.131232 0.996319
O O22 0.221825 0.000000 0.996903
O O23 0.000000 0.724665 0.596946
#
# Coordination Sequence:
#
# PCOD9337136 Si02
#       8
#     4   4   4   4   4   4   4   4
#     4  11  21  31  48  72  94 118 152 197 244 283
#     4   8  15  29  49  71  93 121 161 201 231 270
#     4   9  19  35  51  67  91 125 161 193 231 283
#     4   9  18  31  47  71 100 125 153 193 238 279
#     4  10  20  31  42  62  95 127 152 186 232 277
#     4   9  18  33  51  70  95 128 162 194 231 280
#     4  10  20  32  45  63  91 127 160 186 219 273
#     4  10  18  29  49  71  91 122 161 196 232 277
#
# _framework density 19.372135
#
# number of rings (size 3 to 8) (size 9 to 14) (size 15 to 20)
#    0.000    2.500    0.000    3.375    0.000    7.250 
#    0.000    0.625    0.000    1.500    0.000    1.750 
#    0.000    0.000    0.000    0.000    0.000    0.000 
#
# Total GULP energy -178288.488487 kJ/mol
# GULP energy per Si atom -5571.515265 kJ/mol
# Density = 1.932804 g / cm^3
# Si number density = 19.372135 Si / 1000 Ang^3
#
#
#
# Elastic Constant Matrix: (Units=GPa)
#
#
# Indices 1 2 3 4 5 6 
#
# 1 18.6532 12.3842 -1.9749 0.0000 0.0000 0.0000
# 2 12.3842 95.6929 60.8810 0.0000 0.0000 0.0000
# 3 -1.9749 60.8810 95.1710 0.0000 0.0000 0.0000
# 4 0.0000 0.0000 0.0000 37.0571 0.0000 0.0000
# 5 0.0000 0.0000 0.0000 0.0000 57.3918 0.0000
# 6 0.0000 0.0000 0.0000 0.0000 0.0000 13.6496
#
#
#
# Elastic Compliance Matrix: (Units=1/GPa)
#
#
# Indices 1 2 3 4 5 6 
#
# 1 0.065231 -0.015688 0.011389 0.000000 0.000000 0.000000
# 2 -0.015688 0.021395 -0.014012 0.000000 0.000000 0.000000
# 3 0.011389 -0.014012 0.019707 0.000000 0.000000 0.000000
# 4 0.000000 0.000000 0.000000 0.026985 0.000000 0.000000
# 5 0.000000 0.000000 0.000000 0.000000 0.017424 0.000000
# 6 0.000000 0.000000 0.000000 0.000000 0.000000 0.073262
#
#
# Mechanical properties :
#
#
# Convention : Reuss Voigt Hill
#
# Bulk Modulus (GPa) = 14.34470 39.12196 26.73333
# Shear Modulus (GPa) = 17.61411 30.83484 24.22447
#
# Velocity S-wave (km/s) = 3.01865 3.99395 3.54005
# Velocity P-wave (km/s) = 4.42386 6.44265 5.52622
#
# Compressibility (1/GPa) = 0.06971215
#
# Stress axis : x y z
#
# Youngs Moduli (GPa) = 15.33007 46.74018 50.74299
#
# Poissons Ratio (x) = 0.73325 -0.57792
# Poissons Ratio (y) = 0.24050 0.71100
# Poissons Ratio (z) = -0.17460 0.65492
#
# Static dielectric constant tensor:
#      x y z
#    x 1.737460 0.000000 0.000000 
#    y 0.000000 1.708730 0.000000 
#    z 0.000000 0.000000 1.693390 
# 
# From -- ./inp_files/5714.got.cif
#   From: 2010.05.17/outbox.cif.g08.bks.cpg/sg25_3_cif.got.tgz:5714.got - 2010.06.04 01:04:00.
