data_PCOD9337028
_publ_section_title
;
Structure prediction by ZEFSAII (Michael W. Deem and Ramdas Pophale) SiO2 
 PCOD9337028
Probable space group: I 21 21 21
;
_chemical_formula_sum "Si O2"
_cell_formula_units_Z 64
_cell_length_a 14.881907
_cell_length_b 9.076303
_cell_length_c 28.821566
_cell_angle_alpha 90.000000
_cell_angle_beta 90.000000
_cell_angle_gamma 90.000000
_cell_volume 3893.006656
_symmetry_space_group_name_H-M "I 21 21 21"
_symmetry_group_IT_number 24
_symmetry_cell_setting 'orthorhombic'
loop_
_space_group_symop_operation_xyz
x,y,z
-x,1/2-y,z
x,-y,1/2-z
1/2-x,y,-z
1/2+x,1/2+y,1/2+z
1/2-x,-y,1/2+z
1/2+x,1/2-y,-z
-x,1/2+y,1/2-z
loop_
_atom_site_type_symbol
_atom_site_label
_atom_site_fract_x
_atom_site_fract_y
_atom_site_fract_z
Si Si1 0.293443 0.427965 0.608371
Si Si2 0.903075 0.926921 0.924642
Si Si3 0.596925 0.573079 0.075358
Si Si4 0.895135 0.573056 0.201449
Si Si5 0.104865 0.426944 0.298551
Si Si6 0.853205 0.582899 0.482592
Si Si7 0.353205 0.417101 0.982592
Si Si8 0.793443 0.427965 0.391629
O O1 0.188536 0.471617 0.601648
O O2 0.334442 0.471462 0.657790
O O3 0.349470 0.499821 0.566366
O O4 0.298972 0.250000 0.604325
O O5 0.899543 0.750000 0.928398
O O6 0.000000 0.967345 0.903189
O O7 0.899981 0.994714 0.976099
O O8 0.688536 0.528383 0.101647
O O9 0.600019 0.505286 0.023901
O O10 0.868294 0.500000 0.250000
O O11 0.889807 0.750000 0.205877
O O12 0.834442 0.528538 0.157790
O O13 0.000000 0.534990 0.192646
O O14 0.131706 0.500000 0.250000
O O15 0.750000 0.589505 0.500000
O O16 0.886602 0.750000 0.478103
O O17 0.849470 0.499821 0.433634
O O18 0.250000 0.410495 0.000000
#
# Coordination Sequence:
#
# PCOD9337028 Si02
#       8
#     8   8   8   8   8   8   8   8
#     4   9  17  30  47  66  89 117 149 184 220 261
#     4   9  17  29  45  64  88 121 156 184 212 252
#     4   9  17  29  45  64  88 121 156 184 212 252
#     4   9  18  32  49  68  88 110 139 178 224 270
#     4   9  18  32  49  68  88 110 139 178 224 270
#     4   9  17  28  42  63  91 120 149 182 219 257
#     4   9  17  28  42  63  91 120 149 182 219 257
#     4   9  17  30  47  66  89 117 149 184 220 261
#
# _framework density 16.439736
#
# number of rings (size 3 to 8) (size 9 to 14) (size 15 to 20)
#    0.000    3.000    0.000    0.750    0.000    5.500 
#    0.000    2.500    0.000    0.750    0.000    0.000 
#    0.000    0.000    0.000    0.000    0.000    0.000 
#
# Total GULP energy -178186.157847 kJ/mol
# GULP energy per Si atom -5568.317433 kJ/mol
# Density = 1.640232 g / cm^3
# Si number density = 16.439736 Si / 1000 Ang^3
#
#
#
# Elastic Constant Matrix: (Units=GPa)
#
#
# Indices 1 2 3 4 5 6 
#
# 1 89.6663 20.2829 66.3366 0.0000 0.0000 0.0000
# 2 20.2829 12.9685 32.1859 0.0000 0.0000 0.0000
# 3 66.3366 32.1859 145.5198 0.0000 0.0000 0.0000
# 4 0.0000 0.0000 0.0000 25.9854 0.0000 0.0000
# 5 0.0000 0.0000 0.0000 0.0000 22.2277 0.0000
# 6 0.0000 0.0000 0.0000 0.0000 0.0000 4.9511
#
#
#
# Elastic Compliance Matrix: (Units=1/GPa)
#
#
# Indices 1 2 3 4 5 6 
#
# 1 0.018503 -0.017747 -0.004510 0.000000 0.000000 0.000000
# 2 -0.017747 0.187973 -0.033485 0.000000 0.000000 0.000000
# 3 -0.004510 -0.033485 0.016334 0.000000 0.000000 0.000000
# 4 0.000000 0.000000 0.000000 0.038483 0.000000 0.000000
# 5 0.000000 0.000000 0.000000 0.000000 0.044989 0.000000
# 6 0.000000 0.000000 0.000000 0.000000 0.000000 0.201974
#
#
# Mechanical properties :
#
#
# Convention : Reuss Voigt Hill
#
# Bulk Modulus (GPa) = 8.98266 53.97394 31.47830
# Shear Modulus (GPa) = 7.61210 19.25612 13.43411
#
# Velocity S-wave (km/s) = 2.15415 3.42616 2.86173
# Velocity P-wave (km/s) = 3.41511 6.96808 5.48713
#
# Compressibility (1/GPa) = 0.11132558
#
# Stress axis : x y z
#
# Youngs Moduli (GPa) = 54.04469 5.31992 61.22234
#
# Poissons Ratio (x) = 0.09441 0.27609
# Poissons Ratio (y) = 0.95914 2.05005
# Poissons Ratio (z) = 0.24372 0.17814
#
# Static dielectric constant tensor:
#      x y z
#    x 1.598770 0.000000 0.000000 
#    y 0.000000 1.556440 0.000000 
#    z 0.000000 0.000000 1.512690 
# 
# From -- ./inp_files/38777.got.cif
#   From: 2010.05.17/outbox.cif.g08.bks.cpg/sg24_20_cif.got.tgz:38777.got - 2010.06.04 00:33:39.
