data_PCOD9337220
_publ_section_title
;
Structure prediction by ZEFSAII (Michael W. Deem and Ramdas Pophale) SiO2 
 PCOD9337220
Probable space group: P M M 2
;
_chemical_formula_sum "Si O2"
_cell_formula_units_Z 28
_cell_length_a 15.827032
_cell_length_b 8.798394
_cell_length_c 12.791141
_cell_angle_alpha 90.000000
_cell_angle_beta 90.000000
_cell_angle_gamma 90.000000
_cell_volume 1781.197894
_symmetry_space_group_name_H-M "P M M 2"
_symmetry_group_IT_number 25
_symmetry_cell_setting 'orthorhombic'
loop_
_space_group_symop_operation_xyz
x,y,z
-x,-y,z
-x,y,z
x,-y,z
loop_
_atom_site_type_symbol
_atom_site_label
_atom_site_fract_x
_atom_site_fract_y
_atom_site_fract_z
Si Si1 0.902072 0.317122 0.954660
Si Si2 0.900223 0.319216 0.393510
Si Si3 0.102506 0.825670 0.174113
Si Si4 0.233900 0.181024 0.549422
Si Si5 0.592447 0.182197 0.783450
Si Si6 0.407410 0.317716 0.548713
Si Si7 0.765292 0.682401 0.782413
O O1 0.900354 0.500000 0.965055
O O2 0.842126 0.275193 0.858418
O O3 0.000000 0.272165 0.936770
O O4 0.871443 0.245535 0.063663
O O5 0.890641 0.500000 0.404684
O O6 0.873524 0.267868 0.277083
O O7 0.843347 0.234951 0.478290
O O8 0.000000 0.282519 0.406016
O O9 0.000000 0.823719 0.172051
O O10 0.130211 0.000000 0.183587
O O11 0.322125 0.246630 0.503040
O O12 0.224272 0.247637 0.666754
O O13 0.238814 0.000000 0.555066
O O14 0.500000 0.216824 0.831088
O O15 0.589928 0.248968 0.665790
O O16 0.676752 0.256349 0.829237
O O17 0.601542 0.000000 0.778797
O O18 0.500000 0.283420 0.500805
O O19 0.398863 0.500000 0.554544
O O20 0.761487 0.500000 0.772954
#
# Coordination Sequence:
#
# PCOD9337220 Si02
#       7
#     4   4   4   4   4   4   4
#     4   9  18  32  48  66  90 121 155 188 223 266
#     4  10  20  34  51  68  90 122 157 192 229 271
#     4   9  17  30  49  71  91 112 146 192 234 269
#     4  11  21  31  45  67  97 127 155 190 231 277
#     4   9  16  26  41  61  86 116 149 187 231 273
#     4   9  16  27  44  64  87 117 153 190 226 268
#     4  10  19  30  45  66  93 125 159 190 223 269
#
# _framework density 15.719758000000001
#
# number of rings (size 3 to 8) (size 9 to 14) (size 15 to 20)
#    0.000    2.429    0.000    5.143    0.000    6.000 
#    0.000    1.429    0.000    0.000    0.000    1.000 
#    0.000    3.429    0.000    0.000    0.000    0.000 
#
# Total GULP energy -155956.600293 kJ/mol
# GULP energy per Si atom -5569.878582 kJ/mol
# Density = 1.568398 g / cm^3
# Si number density = 15.719758 Si / 1000 Ang^3
#
#
#
# Elastic Constant Matrix: (Units=GPa)
#
#
# Indices 1 2 3 4 5 6 
#
# 1 104.4031 50.4748 51.4882 0.0000 0.0000 0.0000
# 2 50.4748 79.2051 36.5992 0.0000 0.0000 0.0000
# 3 51.4882 36.5992 69.0971 0.0000 0.0000 0.0000
# 4 0.0000 0.0000 0.0000 65.6820 0.0000 0.0000
# 5 0.0000 0.0000 0.0000 0.0000 -5.1035 0.0000
# 6 0.0000 0.0000 0.0000 0.0000 0.0000 23.2953
#
#
#
# Elastic Compliance Matrix: (Units=1/GPa)
#
#
# Indices 1 2 3 4 5 6 
#
# 1 0.017533 -0.006801 -0.009462 0.000000 0.000000 0.000000
# 2 -0.006801 0.019355 -0.005184 0.000000 0.000000 0.000000
# 3 -0.009462 -0.005184 0.024269 0.000000 0.000000 0.000000
# 4 0.000000 0.000000 0.000000 0.015225 0.000000 0.000000
# 5 0.000000 0.000000 0.000000 0.000000 -0.195943 0.000000
# 6 0.000000 0.000000 0.000000 0.000000 0.000000 0.042927
#
#
# Mechanical properties :
#
#
# Convention : Reuss Voigt Hill
#
# Bulk Modulus (GPa) = 54.75796 58.86994 56.81395
# Shear Modulus (GPa) = -180.82049 24.38428 -78.21810
#
# Velocity S-wave (km/s) = -10.73672 3.94278 -7.06158
# Velocity P-wave (km/s) = 10.89924 7.63272 5.50160
#
# Compressibility (1/GPa) = 0.01826219
#
# Stress axis : x y z
#
# Youngs Moduli (GPa) = 57.03649 51.66682 41.20404
#
# Poissons Ratio (x) = 0.35136 0.38989
# Poissons Ratio (y) = 0.38788 0.21362
# Poissons Ratio (z) = 0.53971 0.26786
#
# Static dielectric constant tensor:
#      x y z
#    x 1.566940 0.000000 0.000000 
#    y 0.000000 1.524410 0.000000 
#    z 0.000000 0.000000 1.495190 
# 
# From -- ./inp_files/5891.got.cif
#   From: 2010.05.17/outbox.cif.g08.bks.cpg/sg25_3_cif.got.tgz:5891.got - 2010.06.04 01:04:00.
