data_PCOD9337907
_publ_section_title
;
Structure prediction by ZEFSAII (Michael W. Deem and Ramdas Pophale) SiO2 
 PCOD9337907
Probable space group: P M C 21
;
_chemical_formula_sum "Si O2"
_cell_formula_units_Z 32
_cell_length_a 18.614176
_cell_length_b 21.452450
_cell_length_c 5.102031
_cell_angle_alpha 90.000000
_cell_angle_beta 90.000000
_cell_angle_gamma 90.000000
_cell_volume 2037.341386
_symmetry_space_group_name_H-M "P M C 21"
_symmetry_group_IT_number 26
_symmetry_cell_setting 'orthorhombic'
loop_
_space_group_symop_operation_xyz
x,y,z
-x,-y,1/2+z
-x,y,z
x,-y,1/2+z
loop_
_atom_site_type_symbol
_atom_site_label
_atom_site_fract_x
_atom_site_fract_y
_atom_site_fract_z
Si Si1 0.730116 0.461327 0.871450
Si Si2 0.855002 0.826762 0.926927
Si Si3 0.915499 0.041319 0.552562
Si Si4 0.727487 0.259708 0.500517
Si Si5 0.581016 0.691606 0.871560
Si Si6 0.915780 0.241105 0.928441
Si Si7 0.418861 0.396364 0.872589
Si Si8 0.787243 0.673171 0.502612
O O1 0.746266 0.485445 0.582186
O O2 0.645409 0.444876 0.895516
O O3 0.771941 0.398186 0.939861
O O4 0.868458 0.898603 0.988036
O O5 0.773129 0.802889 0.955273
O O6 0.885065 0.807503 0.643133
O O7 0.898683 0.786785 0.143042
O O8 0.000000 0.059648 0.532761
O O9 0.903352 0.012652 0.838504
O O10 0.643601 0.259564 0.433030
O O11 0.742449 0.285556 0.791386
O O12 0.761408 0.308943 0.293361
O O13 0.500000 0.717011 0.881726
O O14 0.590959 0.656392 0.595792
O O15 0.586837 0.638213 0.093967
O O16 0.868693 0.303350 0.967950
O O17 0.000000 0.250051 0.964489
O O18 0.500000 0.421908 0.901589
#
# Coordination Sequence:
#
# PCOD9337907 Si02
#       8
#     4   4   4   4   4   4   4   4
#     4  12  22  32  48  63  87 118 152 185 219 279
#     4  10  20  30  49  74  96 123 158 191 219 261
#     4  10  19  30  44  64  98 135 158 179 210 257
#     4  10  17  32  50  67  92 117 149 192 229 266
#     4  10  17  29  49  67  90 119 144 179 231 279
#     4  10  19  32  52  72  92 115 147 198 237 270
#     4  10  20  32  46  64  88 117 148 182 221 272
#     4  10  20  33  48  67  89 114 148 186 238 278
#
# _framework density 15.706746000000001
#
# number of rings (size 3 to 8) (size 9 to 14) (size 15 to 20)
#    0.000    1.750    2.500    3.375    0.000    1.500 
#    0.000    0.000    0.000    0.750    0.000    0.000 
#    0.000    1.000    0.000    0.000    0.000    3.000 
#
# Total GULP energy -178597.997328 kJ/mol
# GULP energy per Si atom -5581.187417 kJ/mol
# Density = 1.567100 g / cm^3
# Si number density = 15.706746 Si / 1000 Ang^3
#
#
#
# Elastic Constant Matrix: (Units=GPa)
#
#
# Indices 1 2 3 4 5 6 
#
# 1 59.6127 19.5966 -7.3521 0.0000 0.0000 0.0000
# 2 19.5966 46.0182 -14.9888 0.0000 0.0000 0.0000
# 3 -7.3521 -14.9888 49.3312 0.0000 0.0000 0.0000
# 4 0.0000 0.0000 0.0000 12.1555 0.0000 0.0000
# 5 0.0000 0.0000 0.0000 0.0000 15.4374 0.0000
# 6 0.0000 0.0000 0.0000 0.0000 0.0000 26.1830
#
#
#
# Elastic Compliance Matrix: (Units=1/GPa)
#
#
# Indices 1 2 3 4 5 6 
#
# 1 0.019514 -0.008171 0.000425 0.000000 0.000000 0.000000
# 2 -0.008171 0.027539 0.007150 0.000000 0.000000 0.000000
# 3 0.000425 0.007150 0.022507 0.000000 0.000000 0.000000
# 4 0.000000 0.000000 0.000000 0.082268 0.000000 0.000000
# 5 0.000000 0.000000 0.000000 0.000000 0.064778 0.000000
# 6 0.000000 0.000000 0.000000 0.000000 0.000000 0.038193
#
#
# Mechanical properties :
#
#
# Convention : Reuss Voigt Hill
#
# Bulk Modulus (GPa) = 14.62690 16.60819 15.61755
# Shear Modulus (GPa) = 17.93539 21.26893 19.60216
#
# Velocity S-wave (km/s) = 3.38285 3.68384 3.53655
# Velocity P-wave (km/s) = 4.95893 5.35641 5.16150
#
# Compressibility (1/GPa) = 0.06836718
#
# Stress axis : x y z
#
# Youngs Moduli (GPa) = 51.24643 36.31228 44.43085
#
# Poissons Ratio (x) = 0.29671 -0.01890
# Poissons Ratio (y) = 0.41874 -0.31766
# Poissons Ratio (z) = -0.02180 -0.25962
#
# Static dielectric constant tensor:
#      x y z
#    x 1.540610 0.000000 0.000000 
#    y 0.000000 1.495250 0.000000 
#    z 0.000000 0.000000 1.536240 
# 
# From -- ./inp_files/821.got.cif
#   From: 2010.05.17/outbox.cif.g08.bks.cpg/sg26_1_cif.got.tgz:821.got - 2010.06.04 01:07:29.
