data_PCOD9337443
_publ_section_title
;
Structure prediction by ZEFSAII (Michael W. Deem and Ramdas Pophale) SiO2 
 PCOD9337443
Probable space group: P M M 2
;
_chemical_formula_sum "Si O2"
_cell_formula_units_Z 28
_cell_length_a 9.423043
_cell_length_b 7.432334
_cell_length_c 18.561547
_cell_angle_alpha 90.000000
_cell_angle_beta 90.000000
_cell_angle_gamma 90.000000
_cell_volume 1299.961710
_symmetry_space_group_name_H-M "P M M 2"
_symmetry_group_IT_number 25
_symmetry_cell_setting 'orthorhombic'
loop_
_space_group_symop_operation_xyz
x,y,z
-x,-y,z
-x,y,z
x,-y,z
loop_
_atom_site_type_symbol
_atom_site_label
_atom_site_fract_x
_atom_site_fract_y
_atom_site_fract_z
Si Si1 0.836205 0.719385 0.511180
Si Si2 0.838760 0.715601 0.950796
Si Si3 0.661134 0.784818 0.094785
Si Si4 0.839057 0.785119 0.230944
Si Si5 0.163711 0.280880 0.673081
Si Si6 0.336935 0.720151 0.812005
Si Si7 0.339478 0.283999 0.374281
O O1 0.834267 0.500000 0.510778
O O2 0.795473 0.775665 0.592162
O O3 0.735308 0.782463 0.447253
O O4 0.000000 0.772379 0.498414
O O5 0.847538 0.500000 0.943814
O O6 0.755983 0.780816 0.880055
O O7 0.000000 0.784357 0.956044
O O8 0.748565 0.752269 0.022174
O O9 0.500000 0.714911 0.090694
O O10 0.747722 0.714312 0.163702
O O11 0.651075 0.000000 0.103308
O O12 0.756912 0.754374 0.305224
O O13 0.000000 0.714419 0.232711
O O14 0.849026 0.000000 0.221500
O O15 0.165215 0.500000 0.673279
O O16 0.264983 0.221619 0.737318
O O17 0.000000 0.227507 0.685930
O O18 0.500000 0.776785 0.818131
O O19 0.336290 0.500000 0.812235
O O20 0.500000 0.216262 0.365229
O O21 0.347080 0.500000 0.380342
#
# Coordination Sequence:
#
# PCOD9337443 Si02
#       7
#     4   4   4   4   4   4   4
#     4   8  14  25  41  62  91 127 163 199 239 282
#     4  10  20  33  50  73 101 132 165 201 241 285
#     4  10  21  37  56  76  98 125 158 198 244 292
#     4  10  21  37  56  75  95 124 163 202 240 287
#     4   8  13  22  37  58  87 124 162 197 236 283
#     4   9  16  25  39  62  93 127 161 199 242 284
#     4  10  20  32  48  73 103 132 162 199 244 290
#
# _framework density 21.539095
#
# number of rings (size 3 to 8) (size 9 to 14) (size 15 to 20)
#    0.000    2.714    0.000    3.000    0.000    6.286 
#    0.000    2.857    0.000    0.000    0.000    1.000 
#    0.000    1.143    0.000    0.000    0.000    0.000 
#
# Total GULP energy -156420.040003 kJ/mol
# GULP energy per Si atom -5586.430000 kJ/mol
# Density = 2.149007 g / cm^3
# Si number density = 21.539095 Si / 1000 Ang^3
#
#
#
# Elastic Constant Matrix: (Units=GPa)
#
#
# Indices 1 2 3 4 5 6 
#
# 1 234.2966 8.7149 157.6100 0.0000 0.0000 0.0000
# 2 8.7149 68.7000 0.7011 0.0000 0.0000 0.0000
# 3 157.6100 0.7011 219.2353 0.0000 0.0000 0.0000
# 4 0.0000 0.0000 0.0000 38.8855 0.0000 0.0000
# 5 0.0000 0.0000 0.0000 0.0000 69.3966 0.0000
# 6 0.0000 0.0000 0.0000 0.0000 0.0000 5.6315
#
#
#
# Elastic Compliance Matrix: (Units=1/GPa)
#
#
# Indices 1 2 3 4 5 6 
#
# 1 0.008333 -0.000996 -0.005987 0.000000 0.000000 0.000000
# 2 -0.000996 0.014676 0.000669 0.000000 0.000000 0.000000
# 3 -0.005987 0.000669 0.008863 0.000000 0.000000 0.000000
# 4 0.000000 0.000000 0.000000 0.025717 0.000000 0.000000
# 5 0.000000 0.000000 0.000000 0.000000 0.014410 0.000000
# 6 0.000000 0.000000 0.000000 0.000000 0.000000 0.177574
#
#
# Mechanical properties :
#
#
# Convention : Reuss Voigt Hill
#
# Bulk Modulus (GPa) = 51.96575 95.14265 73.55420
# Shear Modulus (GPa) = 18.61401 46.46310 32.53856
#
# Velocity S-wave (km/s) = 2.94291 4.64955 3.89096
# Velocity P-wave (km/s) = 5.97714 8.54941 7.37627
#
# Compressibility (1/GPa) = 0.01924344
#
# Stress axis : x y z
#
# Youngs Moduli (GPa) = 120.00809 68.14047 112.82232
#
# Poissons Ratio (x) = 0.06787 0.67550
# Poissons Ratio (y) = 0.11952 -0.07549
# Poissons Ratio (z) = 0.71853 -0.04559
#
# Static dielectric constant tensor:
#      x y z
#    x 1.745330 0.000000 0.000000 
#    y 0.000000 1.849900 0.000000 
#    z 0.000000 0.000000 1.730090 
# 
# From -- ./inp_files/6222.got.cif
#   From: 2010.05.17/outbox.cif.g08.bks.cpg/sg25_4_cif.got.tgz:6222.got - 2010.06.04 01:04:00.
