data_PCOD9337498
_publ_section_title
;
Structure prediction by ZEFSAII (Michael W. Deem and Ramdas Pophale) SiO2 
 PCOD9337498
Probable space group: P M M 2
;
_chemical_formula_sum "Si O2"
_cell_formula_units_Z 28
_cell_length_a 9.437373
_cell_length_b 7.444030
_cell_length_c 18.525146
_cell_angle_alpha 90.000000
_cell_angle_beta 90.000000
_cell_angle_gamma 90.000000
_cell_volume 1301.430182
_symmetry_space_group_name_H-M "P M M 2"
_symmetry_group_IT_number 25
_symmetry_cell_setting 'orthorhombic'
loop_
_space_group_symop_operation_xyz
x,y,z
-x,-y,z
-x,y,z
x,-y,z
loop_
_atom_site_type_symbol
_atom_site_label
_atom_site_fract_x
_atom_site_fract_y
_atom_site_fract_z
Si Si1 0.340668 0.212783 0.820710
Si Si2 0.838750 0.716192 0.680069
Si Si3 0.163381 0.719636 0.238230
Si Si4 0.337306 0.719518 0.379407
Si Si5 0.661283 0.284832 0.099012
Si Si6 0.836520 0.281129 0.517970
Si Si7 0.160387 0.784888 0.955163
O O1 0.500000 0.286993 0.822107
O O2 0.266999 0.233867 0.743414
O O3 0.240973 0.286081 0.884323
O O4 0.351814 0.000000 0.833922
O O5 0.843052 0.500000 0.677921
O O6 0.798322 0.776834 0.599263
O O7 0.000000 0.778407 0.695220
O O8 0.162457 0.500000 0.237734
O O9 0.243416 0.775162 0.311072
O O10 0.250516 0.780594 0.168134
O O11 0.000000 0.777252 0.236397
O O12 0.500000 0.776681 0.372828
O O13 0.337196 0.500000 0.379656
O O14 0.265662 0.778889 0.454152
O O15 0.500000 0.215970 0.096313
O O16 0.652493 0.500000 0.106638
O O17 0.746581 0.249014 0.025930
O O18 0.833831 0.500000 0.517693
O O19 0.000000 0.229236 0.504302
O O20 0.000000 0.715048 0.962092
O O21 0.149725 0.000000 0.947554
#
# Coordination Sequence:
#
# PCOD9337498 Si02
#       7
#     4   4   4   4   4   4   4
#     4  10  21  36  53  73  97 126 161 200 242 289
#     4   9  18  32  50  73 100 129 162 201 244 289
#     4   9  16  26  41  62  91 127 163 198 237 281
#     4   9  15  22  35  58  89 124 160 196 235 280
#     4  10  20  33  50  74 103 131 160 198 244 290
#     4   8  14  25  40  60  89 123 157 193 234 281
#     4  10  21  37  56  75  95 124 163 202 240 287
#
# _framework density 21.514792
#
# number of rings (size 3 to 8) (size 9 to 14) (size 15 to 20)
#    0.000    2.714    0.000    3.000    0.000    7.429 
#    0.000    1.429    0.000    0.000    0.000    1.000 
#    0.000    3.429    0.000    0.000    0.000    0.000 
#
# Total GULP energy -156412.155571 kJ/mol
# GULP energy per Si atom -5586.148413 kJ/mol
# Density = 2.146582 g / cm^3
# Si number density = 21.514792 Si / 1000 Ang^3
#
#
#
# Elastic Constant Matrix: (Units=GPa)
#
#
# Indices 1 2 3 4 5 6 
#
# 1 236.7141 7.6496 153.3517 0.0000 0.0000 0.0000
# 2 7.6496 65.4962 -0.5229 0.0000 0.0000 0.0000
# 3 153.3517 -0.5229 201.7110 0.0000 0.0000 0.0000
# 4 0.0000 0.0000 0.0000 36.2934 0.0000 0.0000
# 5 0.0000 0.0000 0.0000 0.0000 37.2303 0.0000
# 6 0.0000 0.0000 0.0000 0.0000 0.0000 4.8479
#
#
#
# Elastic Compliance Matrix: (Units=1/GPa)
#
#
# Indices 1 2 3 4 5 6 
#
# 1 0.008394 -0.001031 -0.006384 0.000000 0.000000 0.000000
# 2 -0.001031 0.015395 0.000824 0.000000 0.000000 0.000000
# 3 -0.006384 0.000824 0.009813 0.000000 0.000000 0.000000
# 4 0.000000 0.000000 0.000000 0.027553 0.000000 0.000000
# 5 0.000000 0.000000 0.000000 0.000000 0.026860 0.000000
# 6 0.000000 0.000000 0.000000 0.000000 0.000000 0.206276
#
#
# Mechanical properties :
#
#
# Convention : Reuss Voigt Hill
#
# Bulk Modulus (GPa) = 48.97332 91.65312 70.31322
# Shear Modulus (GPa) = 15.90938 38.57052 27.23995
#
# Velocity S-wave (km/s) = 2.72226 4.23867 3.56209
# Velocity P-wave (km/s) = 5.71777 8.16380 7.04772
#
# Compressibility (1/GPa) = 0.02041928
#
# Stress axis : x y z
#
# Youngs Moduli (GPa) = 119.13908 64.95573 101.90442
#
# Poissons Ratio (x) = 0.06699 0.65055
# Poissons Ratio (y) = 0.12287 -0.08397
# Poissons Ratio (z) = 0.76057 -0.05352
#
# Static dielectric constant tensor:
#      x y z
#    x 1.743270 0.000000 0.000000 
#    y 0.000000 1.838080 0.000000 
#    z 0.000000 0.000000 1.731360 
# 
# From -- ./inp_files/6058.got.cif
#   From: 2010.05.17/outbox.cif.g08.bks.cpg/sg25_4_cif.got.tgz:6058.got - 2010.06.04 01:04:00.
