data_PCOD9337464
_publ_section_title
;
Structure prediction by ZEFSAII (Michael W. Deem and Ramdas Pophale) SiO2 
 PCOD9337464
Probable space group: P M M 2
;
_chemical_formula_sum "Si O2"
_cell_formula_units_Z 24
_cell_length_a 9.396089
_cell_length_b 7.570101
_cell_length_c 16.213364
_cell_angle_alpha 90.000000
_cell_angle_beta 90.000000
_cell_angle_gamma 90.000000
_cell_volume 1153.245925
_symmetry_space_group_name_H-M "P M M 2"
_symmetry_group_IT_number 25
_symmetry_cell_setting 'orthorhombic'
loop_
_space_group_symop_operation_xyz
x,y,z
-x,-y,z
-x,y,z
x,-y,z
loop_
_atom_site_type_symbol
_atom_site_label
_atom_site_fract_x
_atom_site_fract_y
_atom_site_fract_z
Si Si1 0.840267 0.791923 0.934990
Si Si2 0.336435 0.783579 0.091731
Si Si3 0.163707 0.783991 0.253995
Si Si4 0.337638 0.707665 0.775286
Si Si5 0.333761 0.784356 0.414886
Si Si6 0.334984 0.212255 0.594929
O O1 0.759860 0.776844 0.848298
O O2 0.000000 0.717234 0.932120
O O3 0.853609 0.000000 0.952205
O O4 0.744770 0.720793 0.009799
O O5 0.500000 0.726041 0.092941
O O6 0.251932 0.729372 0.173598
O O7 0.338324 0.000000 0.091285
O O8 0.240793 0.724946 0.337832
O O9 0.000000 0.727685 0.249875
O O10 0.164163 0.000000 0.254685
O O11 0.500000 0.782388 0.778030
O O12 0.348829 0.500000 0.788210
O O13 0.274790 0.735257 0.683532
O O14 0.500000 0.733058 0.406417
O O15 0.278804 0.728394 0.505692
O O16 0.332525 0.000000 0.414133
O O17 0.500000 0.272324 0.596737
O O18 0.334412 0.000000 0.593624
#
# Coordination Sequence:
#
# PCOD9337464 Si02
#       6
#     4   4   4   4   4   4
#     4  10  20  33  49  70  96 126 160 198 241 288
#     4   9  16  26  42  64  90 121 155 190 230 278
#     4   9  15  22  34  57  91 123 147 180 229 279
#     4  10  20  33  50  72  96 124 160 200 242 289
#     4   8  13  22  37  57  82 115 153 188 225 272
#     4   8  14  26  45  67  91 121 157 196 235 275
#
# _framework density 20.810824
#
# number of rings (size 3 to 8) (size 9 to 14) (size 15 to 20)
#    0.000    3.000    0.000    3.000    0.000    6.000 
#    0.000    0.833    0.000    3.000    0.000    1.167 
#    0.000    6.667    0.000    0.000    0.000    0.000 
#
# Total GULP energy -133850.327473 kJ/mol
# GULP energy per Si atom -5577.096978 kJ/mol
# Density = 2.076346 g / cm^3
# Si number density = 20.810824 Si / 1000 Ang^3
#
#
#
# Elastic Constant Matrix: (Units=GPa)
#
#
# Indices 1 2 3 4 5 6 
#
# 1 150.8394 5.0294 120.1691 0.0000 0.0000 0.0000
# 2 5.0294 43.7669 -1.1212 0.0000 0.0000 0.0000
# 3 120.1691 -1.1212 225.3857 0.0000 0.0000 0.0000
# 4 0.0000 0.0000 0.0000 -39.8933 0.0000 0.0000
# 5 0.0000 0.0000 0.0000 0.0000 -12.3704 0.0000
# 6 0.0000 0.0000 0.0000 0.0000 0.0000 -2.7860
#
#
#
# Elastic Compliance Matrix: (Units=1/GPa)
#
#
# Indices 1 2 3 4 5 6 
#
# 1 0.011622 -0.001494 -0.006204 0.000000 0.000000 0.000000
# 2 -0.001494 0.023043 0.000911 0.000000 0.000000 0.000000
# 3 -0.006204 0.000911 0.007749 0.000000 0.000000 0.000000
# 4 0.000000 0.000000 0.000000 -0.025067 0.000000 0.000000
# 5 0.000000 0.000000 0.000000 0.000000 -0.080838 0.000000
# 6 0.000000 0.000000 0.000000 0.000000 0.000000 -0.358932
#
#
# Mechanical properties :
#
#
# Convention : Reuss Voigt Hill
#
# Bulk Modulus (GPa) = 34.67334 74.23849 54.45592
# Shear Modulus (GPa) = -12.52394 8.71770 -1.90312
#
# Velocity S-wave (km/s) = -2.45582 2.04893 -0.95733
# Velocity P-wave (km/s) = 2.94210 6.43024 5.00020
#
# Compressibility (1/GPa) = 0.02884060
#
# Stress axis : x y z
#
# Youngs Moduli (GPa) = 86.04516 43.39634 129.04755
#
# Poissons Ratio (x) = 0.06485 0.80059
# Poissons Ratio (y) = 0.12859 -0.11762
# Poissons Ratio (z) = 0.53381 -0.03955
#
# Static dielectric constant tensor:
#      x y z
#    x 1.715230 0.000000 0.000000 
#    y 0.000000 1.771490 0.000000 
#    z 0.000000 0.000000 1.741000 
# 
# From -- ./inp_files/5960.got.cif
#   From: 2010.05.17/outbox.cif.g08.bks.cpg/sg25_3_cif.got.tgz:5960.got - 2010.06.04 01:04:00.
