data_PCOD9337271
_publ_section_title
;
Structure prediction by ZEFSAII (Michael W. Deem and Ramdas Pophale) SiO2 
 PCOD9337271
Probable space group: P M M 2
;
_chemical_formula_sum "Si O2"
_cell_formula_units_Z 32
_cell_length_a 17.719554
_cell_length_b 18.018557
_cell_length_c 5.140349
_cell_angle_alpha 90.000000
_cell_angle_beta 90.000000
_cell_angle_gamma 90.000000
_cell_volume 1641.214709
_symmetry_space_group_name_H-M "P M M 2"
_symmetry_group_IT_number 25
_symmetry_cell_setting 'orthorhombic'
loop_
_space_group_symop_operation_xyz
x,y,z
-x,-y,z
-x,y,z
x,-y,z
loop_
_atom_site_type_symbol
_atom_site_label
_atom_site_fract_x
_atom_site_fract_y
_atom_site_fract_z
Si Si1 0.081561 0.912835 0.239670
Si Si2 0.408094 0.914102 0.595251
Si Si3 0.713514 0.298161 0.176971
Si Si4 0.217463 0.231872 0.676342
Si Si5 0.172391 0.915879 0.753073
Si Si6 0.090217 0.337388 0.591824
Si Si7 0.590143 0.815635 0.097762
Si Si8 0.833368 0.411794 0.093167
O O1 0.106200 0.913660 0.538311
O O2 0.000000 0.876915 0.204900
O O3 0.075782 0.000000 0.166605
O O4 0.142457 0.886689 0.030328
O O5 0.500000 0.918714 0.592958
O O6 0.389507 0.862834 0.842172
O O7 0.381163 0.000000 0.604540
O O8 0.387122 0.868769 0.337107
O O9 0.732287 0.277465 0.473612
O O10 0.747638 0.379949 0.125054
O O11 0.764311 0.252784 0.970861
O O12 0.631644 0.263942 0.116389
O O13 0.228909 0.144739 0.642836
O O14 0.131934 0.257596 0.611581
O O15 0.200194 0.000000 0.772557
O O16 0.117353 0.374943 0.323662
O O17 0.000000 0.333976 0.611985
O O18 0.128491 0.384657 0.824650
O O19 0.500000 0.805293 0.103273
O O20 0.834605 0.500000 0.110536
#
# Coordination Sequence:
#
# PCOD9337271 Si02
#       8
#     4   4   4   4   4   4   4   4
#     4   9  17  28  43  64  86 112 155 212 263 295
#     4   9  17  30  49  77 112 144 179 223 265 306
#     4  10  21  38  55  75 107 138 170 207 255 323
#     4  10  21  37  52  71 105 143 171 209 265 314
#     4  10  19  32  48  65  91 128 173 218 251 296
#     4  10  21  35  54  82 110 137 173 217 263 311
#     4  10  19  33  56  81 106 141 181 221 262 305
#     4  10  21  37  58  81 107 141 172 206 260 320
#
# _framework density 19.497754
#
# number of rings (size 3 to 8) (size 9 to 14) (size 15 to 20)
#    0.000    2.250    0.000    3.000    0.000    5.500 
#    0.000    3.750    0.000    0.375    0.000    0.000 
#    0.000    9.000    0.000    0.000    0.000    1.500 
#
# Total GULP energy -178371.056259 kJ/mol
# GULP energy per Si atom -5574.095508 kJ/mol
# Density = 1.945338 g / cm^3
# Si number density = 19.497754 Si / 1000 Ang^3
#
#
#
# Elastic Constant Matrix: (Units=GPa)
#
#
# Indices 1 2 3 4 5 6 
#
# 1 73.7972 27.6836 -0.6491 0.0000 0.0000 0.0000
# 2 27.6836 78.0293 3.8270 0.0000 0.0000 0.0000
# 3 -0.6491 3.8270 93.8111 0.0000 0.0000 0.0000
# 4 0.0000 0.0000 0.0000 15.7811 0.0000 0.0000
# 5 0.0000 0.0000 0.0000 0.0000 16.4304 0.0000
# 6 0.0000 0.0000 0.0000 0.0000 0.0000 10.6990
#
#
#
# Elastic Compliance Matrix: (Units=1/GPa)
#
#
# Indices 1 2 3 4 5 6 
#
# 1 0.015641 -0.005566 0.000335 0.000000 0.000000 0.000000
# 2 -0.005566 0.014822 -0.000643 0.000000 0.000000 0.000000
# 3 0.000335 -0.000643 0.010688 0.000000 0.000000 0.000000
# 4 0.000000 0.000000 0.000000 0.063367 0.000000 0.000000
# 5 0.000000 0.000000 0.000000 0.000000 0.060863 0.000000
# 6 0.000000 0.000000 0.000000 0.000000 0.000000 0.093467
#
#
# Mechanical properties :
#
#
# Convention : Reuss Voigt Hill
#
# Bulk Modulus (GPa) = 34.00864 34.15119 34.07991
# Shear Modulus (GPa) = 17.83183 22.90049 20.36616
#
# Velocity S-wave (km/s) = 3.02745 3.43084 3.23544
# Velocity P-wave (km/s) = 5.44984 5.76608 5.61019
#
# Compressibility (1/GPa) = 0.02940429
#
# Stress axis : x y z
#
# Youngs Moduli (GPa) = 63.93250 67.46770 93.56040
#
# Poissons Ratio (x) = 0.37551 -0.03137
# Poissons Ratio (y) = 0.35584 0.06018
# Poissons Ratio (z) = -0.02144 0.04339
#
# Static dielectric constant tensor:
#      x y z
#    x 1.636610 0.000000 0.000000 
#    y 0.000000 1.691940 0.000000 
#    z 0.000000 0.000000 1.681470 
# 
# From -- ./inp_files/1179.got.cif
#   From: 2010.05.17/outbox.cif.g08.bks.cpg/sg25_1_cif.got.tgz:1179.got - 2010.06.04 01:04:00.
