data_PCOD9337204
_publ_section_title
;
Structure prediction by ZEFSAII (Michael W. Deem and Ramdas Pophale) SiO2 
 PCOD9337204
Probable space group: P M M 2
;
_chemical_formula_sum "Si O2"
_cell_formula_units_Z 32
_cell_length_a 7.575726
_cell_length_b 14.979234
_cell_length_c 16.181325
_cell_angle_alpha 90.000000
_cell_angle_beta 90.000000
_cell_angle_gamma 90.000000
_cell_volume 1836.233662
_symmetry_space_group_name_H-M "P M M 2"
_symmetry_group_IT_number 25
_symmetry_cell_setting 'orthorhombic'
loop_
_space_group_symop_operation_xyz
x,y,z
-x,-y,z
-x,y,z
x,-y,z
loop_
_atom_site_type_symbol
_atom_site_label
_atom_site_fract_x
_atom_site_fract_y
_atom_site_fract_z
Si Si1 0.288092 0.601579 0.694020
Si Si2 0.716472 0.285640 0.175239
Si Si3 0.710134 0.399227 0.017731
Si Si4 0.704028 0.391501 0.514880
Si Si5 0.287452 0.901142 0.110796
Si Si6 0.788719 0.901020 0.916617
Si Si7 0.209577 0.285534 0.855344
Si Si8 0.283689 0.603379 0.334172
O O1 0.500000 0.595559 0.685334
O O2 0.224491 0.500000 0.711101
O O3 0.218330 0.633008 0.604212
O O4 0.253457 0.666853 0.769590
O O5 0.500000 0.285572 0.174893
O O6 0.775195 0.183666 0.162746
O O7 0.772164 0.333737 0.259344
O O8 0.776792 0.342532 0.095658
O O9 0.500000 0.406063 0.029879
O O10 0.781605 0.500000 0.014360
O O11 0.736001 0.347140 0.932338
O O12 0.500000 0.360985 0.514204
O O13 0.702713 0.500000 0.515208
O O14 0.779705 0.367072 0.425355
O O15 0.500000 0.902875 0.116953
O O16 0.221231 0.000000 0.133806
O O17 0.244170 0.886393 0.014217
O O18 0.718132 0.814720 0.868393
O O19 0.000000 0.904291 0.904864
O O20 0.718548 0.000000 0.895487
O O21 0.000000 0.278774 0.859753
O O22 0.500000 0.603545 0.336421
O O23 0.232269 0.500000 0.319849
#
# Coordination Sequence:
#
# PCOD9337204 Si02
#       8
#     4   4   4   4   4   4   4   4
#     4   9  17  29  44  61  83 111 140 170 204 243
#     4   9  15  23  36  57  83 109 136 166 200 237
#     4  10  19  29  40  56  83 117 145 165 191 234
#     4   7  11  21  37  57  79 103 134 170 202 231
#     4   9  16  26  41  60  81 105 135 172 208 240
#     4   9  18  32  46  58  75 102 137 175 211 245
#     4  11  21  30  42  61  82 106 137 172 208 246
#     4   8  12  19  34  57  83 107 133 167 201 233
#
# _framework density 17.426976
#
# number of rings (size 3 to 8) (size 9 to 14) (size 15 to 20)
#    0.000    3.000    1.250    2.625    0.000    4.000 
#    0.000    0.000    0.000    0.000    0.000    2.625 
#    0.000    7.000    0.000    0.000    0.000    0.000 
#
# Total GULP energy -178281.991566 kJ/mol
# GULP energy per Si atom -5571.312236 kJ/mol
# Density = 1.738731 g / cm^3
# Si number density = 17.426976 Si / 1000 Ang^3
#
#
#
# Elastic Constant Matrix: (Units=GPa)
#
#
# Indices 1 2 3 4 5 6 
#
# 1 37.4729 6.7839 -4.7838 0.0000 0.0000 0.0000
# 2 6.7839 153.1948 97.8723 0.0000 0.0000 0.0000
# 3 -4.7838 97.8723 149.1360 0.0000 0.0000 0.0000
# 4 0.0000 0.0000 0.0000 10.1418 0.0000 0.0000
# 5 0.0000 0.0000 0.0000 0.0000 -64.5793 0.0000
# 6 0.0000 0.0000 0.0000 0.0000 0.0000 4.5965
#
#
#
# Elastic Compliance Matrix: (Units=1/GPa)
#
#
# Indices 1 2 3 4 5 6 
#
# 1 0.027615 -0.003080 0.002907 0.000000 0.000000 0.000000
# 2 -0.003080 0.011584 -0.007701 0.000000 0.000000 0.000000
# 3 0.002907 -0.007701 0.011852 0.000000 0.000000 0.000000
# 4 0.000000 0.000000 0.000000 0.098602 0.000000 0.000000
# 5 0.000000 0.000000 0.000000 0.000000 -0.015485 0.000000
# 6 0.000000 0.000000 0.000000 0.000000 0.000000 0.217556
#
#
# Mechanical properties :
#
#
# Convention : Reuss Voigt Hill
#
# Bulk Modulus (GPa) = 28.32599 59.94981 44.13790
# Shear Modulus (GPa) = 13.18428 6.02720 9.60574
#
# Velocity S-wave (km/s) = 2.75352 1.86173 2.35031
# Velocity P-wave (km/s) = 5.13795 6.25273 5.72255
#
# Compressibility (1/GPa) = 0.03530326
#
# Stress axis : x y z
#
# Youngs Moduli (GPa) = 36.21253 86.32622 84.37130
#
# Poissons Ratio (x) = 0.26590 -0.24529
# Poissons Ratio (y) = 0.11154 0.64974
# Poissons Ratio (z) = -0.10528 0.66479
#
# Static dielectric constant tensor:
#      x y z
#    x 1.659650 0.000000 0.000000 
#    y 0.000000 1.606990 0.000000 
#    z 0.000000 0.000000 1.612880 
# 
# From -- ./inp_files/5670.got.cif
#   From: 2010.05.17/outbox.cif.g08.bks.cpg/sg25_3_cif.got.tgz:5670.got - 2010.06.04 01:04:00.
