data_PCOD9337085
_publ_section_title
;
Structure prediction by ZEFSAII (Michael W. Deem and Ramdas Pophale) SiO2 
 PCOD9337085
Probable space group: I 21 21 21
;
_chemical_formula_sum "Si O2"
_cell_formula_units_Z 24
_cell_length_a 9.000000
_cell_length_b 15.000000
_cell_length_c 18.000000
_cell_angle_alpha 90.000000
_cell_angle_beta 90.000000
_cell_angle_gamma 90.000000
_cell_volume 2430.000000
_symmetry_space_group_name_H-M "I 21 21 21"
_symmetry_group_IT_number 24
_symmetry_cell_setting 'orthorhombic'
loop_
_space_group_symop_operation_xyz
x,y,z
-x,1/2-y,z
x,-y,1/2-z
1/2-x,y,-z
1/2+x,1/2+y,1/2+z
1/2-x,-y,1/2+z
1/2+x,1/2-y,-z
-x,1/2+y,1/2-z
loop_
_atom_site_type_symbol
_atom_site_label
_atom_site_fract_x
_atom_site_fract_y
_atom_site_fract_z
Si Si1 0.864795 0.409448 0.702816
Si Si2 0.322772 0.229427 0.791984
Si Si3 0.780171 0.901156 0.785288
Si Si4 0.129433 0.824287 0.565386
Si Si5 0.385267 0.663567 0.942397
Si Si6 0.091370 0.026725 0.537833
O O1 0.833703 0.500000 0.750000
O O2 0.740985 0.336127 0.726479
O O3 0.869449 0.425745 0.615132
O O4 0.040428 0.388293 0.713746
O O5 0.500000 0.250000 0.800395
O O6 0.267870 0.327767 0.773566
O O7 0.232657 0.188065 0.861587
O O8 0.693304 0.874984 0.864519
O O9 0.749853 0.000000 0.750000
O O10 0.250000 0.812554 0.500000
O O11 0.000000 0.750000 0.564420
O O12 0.053450 0.922838 0.557518
O O13 0.500000 0.750000 0.931075
O O14 0.250000 0.688337 0.000000
O O15 0.478160 0.584428 0.986047
O O16 0.250000 0.019728 0.500000
#
# Coordination Sequence:
#
# PCOD9337085 Si02
#       6
#     8   8   8   8   8   8
#     4  11  23  47  74 102 142 192 240 300 371 443
#     4  12  27  44  72 108 146 191 244 302 366 440
#     4  11  27  46  73 107 143 193 247 304 371 437
#     4  11  25  47  74 108 145 195 245 302 371 439
#     4  12  27  47  72 110 153 193 247 304 372 452
#     4  11  26  45  73 105 143 195 239 299 374 440
#
# _framework density 9.8765429999999999
#
# number of rings (size 3 to 8) (size 9 to 14) (size 15 to 20)
#    0.000    0.667    3.333    3.000    9.333    5.333 
#    0.000    0.000    0.000    0.000    0.000    0.000 
#    0.000    0.000    0.000    0.000    0.000    0.000 
#
# Total GULP energy -133797.818557 kJ/mol
# GULP energy per Si atom -5574.909107 kJ/mol
# Density = 0.985406 g / cm^3
# Si number density = 9.876543 Si / 1000 Ang^3
#
#
#
# Elastic Constant Matrix: (Units=GPa)
#
#
# Indices 1 2 3 4 5 6 
#
# 1 122.4764 65.8685 27.8754 0.0000 0.0000 0.0000
# 2 65.8685 144.0333 23.9815 0.0000 0.0000 0.0000
# 3 27.8754 23.9815 84.3855 0.0000 0.0000 0.0000
# 4 0.0000 0.0000 0.0000 52.5019 0.0000 0.0000
# 5 0.0000 0.0000 0.0000 0.0000 29.2157 0.0000
# 6 0.0000 0.0000 0.0000 0.0000 0.0000 37.8968
#
#
#
# Elastic Compliance Matrix: (Units=1/GPa)
#
#
# Indices 1 2 3 4 5 6 
#
# 1 0.011262 -0.004756 -0.002369 0.000000 0.000000 0.000000
# 2 -0.004756 0.009296 -0.001071 0.000000 0.000000 0.000000
# 3 -0.002369 -0.001071 0.012937 0.000000 0.000000 0.000000
# 4 0.000000 0.000000 0.000000 0.019047 0.000000 0.000000
# 5 0.000000 0.000000 0.000000 0.000000 0.034228 0.000000
# 6 0.000000 0.000000 0.000000 0.000000 0.000000 0.026387
#
#
# Mechanical properties :
#
#
# Convention : Reuss Voigt Hill
#
# Bulk Modulus (GPa) = 58.46436 65.14956 61.80696
# Shear Modulus (GPa) = 36.96886 39.46752 38.21819
#
# Velocity S-wave (km/s) = 4.33083 4.47480 4.40340
# Velocity P-wave (km/s) = 7.39392 7.72994 7.56379
#
# Compressibility (1/GPa) = 0.01710444
#
# Stress axis : x y z
#
# Youngs Moduli (GPa) = 88.79761 107.57323 77.29692
#
# Poissons Ratio (x) = 0.51159 0.18308
# Poissons Ratio (y) = 0.42230 0.08277
# Poissons Ratio (z) = 0.21032 0.11520
#
# Static dielectric constant tensor:
#      x y z
#    x -0.310530 0.000000 0.000000 
#    y 0.000000 1.729590 0.000000 
#    z 0.000000 0.000000 1.767480 
# 
# From -- ./inp_files/29462.got.cif
#   From: 2010.05.17/outbox.ucp.g08.bks.cvg/sg24_15_cif.got.tgz:29462.got - 2010.06.11 15:20:44.
