data_PCOD9337522
_publ_section_title
;
Structure prediction by ZEFSAII (Michael W. Deem and Ramdas Pophale) SiO2 
 PCOD9337522
Probable space group: P M M 2
;
_chemical_formula_sum "Si O2"
_cell_formula_units_Z 28
_cell_length_a 8.313029
_cell_length_b 9.377024
_cell_length_c 18.472566
_cell_angle_alpha 90.000000
_cell_angle_beta 90.000000
_cell_angle_gamma 90.000000
_cell_volume 1439.963720
_symmetry_space_group_name_H-M "P M M 2"
_symmetry_group_IT_number 25
_symmetry_cell_setting 'orthorhombic'
loop_
_space_group_symop_operation_xyz
x,y,z
-x,-y,z
-x,y,z
x,-y,z
loop_
_atom_site_type_symbol
_atom_site_label
_atom_site_fract_x
_atom_site_fract_y
_atom_site_fract_z
Si Si1 0.694162 0.163942 0.784000
Si Si2 0.805924 0.336640 0.363598
Si Si3 0.803203 0.164304 0.505530
Si Si4 0.806081 0.337451 0.646614
Si Si5 0.308021 0.163178 0.224287
Si Si6 0.694344 0.834241 0.948252
Si Si7 0.191826 0.336650 0.085881
O O1 0.500000 0.166067 0.782835
O O2 0.757404 0.266289 0.721995
O O3 0.744057 0.202243 0.865996
O O4 0.745327 0.000000 0.770202
O O5 0.747396 0.500000 0.362499
O O6 0.750457 0.251942 0.434929
O O7 0.758120 0.252410 0.291728
O O8 0.000000 0.341278 0.366606
O O9 0.749759 0.242490 0.578854
O O10 0.000000 0.164207 0.505516
O O11 0.751043 0.000000 0.502933
O O12 0.747652 0.500000 0.641020
O O13 0.000000 0.340468 0.643110
O O14 0.500000 0.159168 0.229976
O O15 0.262863 0.240951 0.149905
O O16 0.247073 0.000000 0.225275
O O17 0.500000 0.827019 0.951478
O O18 0.739122 0.000000 0.961663
O O19 0.764592 0.732541 0.009055
O O20 0.250471 0.500000 0.090600
O O21 0.000000 0.337808 0.094241
#
# Coordination Sequence:
#
# PCOD9337522 Si02
#       7
#     4   4   4   4   4   4   4
#     4   9  19  36  56  78 106 141 181 224 269 319
#     4  10  20  35  57  84 112 141 176 220 269 320
#     4   9  17  31  53  79 107 142 182 222 267 318
#     4  10  20  33  51  78 111 144 180 224 271 319
#     4  11  24  40  58  81 109 142 181 222 264 314
#     4   9  19  37  59  81 106 139 180 223 268 320
#     4  11  24  39  56  82 113 142 176 219 266 317
#
# _framework density 19.444934
#
# number of rings (size 3 to 8) (size 9 to 14) (size 15 to 20)
#    0.000    2.143    0.000    3.857    0.000   10.857 
#    0.000    5.000    0.000    4.286    0.000    0.000 
#    0.000    0.000    0.000    0.000    0.000    0.000 
#
# Total GULP energy -156405.647776 kJ/mol
# GULP energy per Si atom -5585.915992 kJ/mol
# Density = 1.940068 g / cm^3
# Si number density = 19.444934 Si / 1000 Ang^3
#
#
#
# Elastic Constant Matrix: (Units=GPa)
#
#
# Indices 1 2 3 4 5 6 
#
# 1 7.6436 17.3036 8.0468 0.0000 0.0000 0.0000
# 2 17.3036 194.2430 115.3289 0.0000 0.0000 0.0000
# 3 8.0468 115.3289 153.6281 0.0000 0.0000 0.0000
# 4 0.0000 0.0000 0.0000 328.9334 0.0000 0.0000
# 5 0.0000 0.0000 0.0000 0.0000 48.4493 0.0000
# 6 0.0000 0.0000 0.0000 0.0000 0.0000 19.2354
#
#
#
# Elastic Compliance Matrix: (Units=1/GPa)
#
#
# Indices 1 2 3 4 5 6 
#
# 1 0.165455 -0.017308 0.004327 0.000000 0.000000 0.000000
# 2 -0.017308 0.011099 -0.007425 0.000000 0.000000 0.000000
# 3 0.004327 -0.007425 0.011857 0.000000 0.000000 0.000000
# 4 0.000000 0.000000 0.000000 0.003040 0.000000 0.000000
# 5 0.000000 0.000000 0.000000 0.000000 0.020640 0.000000
# 6 0.000000 0.000000 0.000000 0.000000 0.000000 0.051988
#
#
# Mechanical properties :
#
#
# Convention : Reuss Voigt Hill
#
# Bulk Modulus (GPa) = 6.77519 70.76371 38.76945
# Shear Modulus (GPa) = 14.12071 93.64598 53.88334
#
# Velocity S-wave (km/s) = 2.69771 6.94724 5.26981
# Velocity P-wave (km/s) = 3.63255 10.04107 7.55044
#
# Compressibility (1/GPa) = 0.14759735
#
# Stress axis : x y z
#
# Youngs Moduli (GPa) = 6.04395 90.10124 84.34069
#
# Poissons Ratio (x) = 1.55949 -0.36494
# Poissons Ratio (y) = 0.10461 0.62624
# Poissons Ratio (z) = -0.02615 0.66902
#
# Static dielectric constant tensor:
#      x y z
#    x 1.681830 0.000000 0.000000 
#    y 0.000000 1.668240 0.000000 
#    z 0.000000 0.000000 1.642160 
# 
# From -- ./inp_files/6127.got.cif
#   From: 2010.05.17/outbox.cif.g08.bks.cpg/sg25_4_cif.got.tgz:6127.got - 2010.06.04 01:04:00.
