data_PCOD9337668
_publ_section_title
;
Structure prediction by ZEFSAII (Michael W. Deem and Ramdas Pophale) SiO2 
 PCOD9337668
Probable space group: P M M 2
;
_chemical_formula_sum "Si O2"
_cell_formula_units_Z 28
_cell_length_a 21.331904
_cell_length_b 7.520174
_cell_length_c 7.807753
_cell_angle_alpha 90.000000
_cell_angle_beta 90.000000
_cell_angle_gamma 90.000000
_cell_volume 1252.516846
_symmetry_space_group_name_H-M "P M M 2"
_symmetry_group_IT_number 25
_symmetry_cell_setting 'orthorhombic'
loop_
_space_group_symop_operation_xyz
x,y,z
-x,-y,z
-x,y,z
x,-y,z
loop_
_atom_site_type_symbol
_atom_site_label
_atom_site_fract_x
_atom_site_fract_y
_atom_site_fract_z
Si Si1 0.837956 0.717840 0.250000
Si Si2 0.164375 0.281815 0.645752
Si Si3 0.702075 0.297629 0.238509
Si Si4 0.433530 0.793914 0.779124
Si Si5 0.432041 0.701937 0.163949
Si Si6 0.071810 0.282789 0.946324
Si Si7 0.700064 0.301212 0.647243
O O1 0.835395 0.500000 0.250385
O O2 0.847666 0.771768 0.448209
O O3 0.769112 0.779120 0.185049
O O4 0.891523 0.772106 0.118135
O O5 0.167021 0.500000 0.645472
O O6 0.111484 0.227726 0.779733
O O7 0.233830 0.219068 0.704560
O O8 0.698460 0.500000 0.167577
O O9 0.707549 0.309328 0.443116
O O10 0.634680 0.210668 0.205734
O O11 0.500000 0.746765 0.689241
O O12 0.431887 0.693163 0.958464
O O13 0.368367 0.773600 0.682752
O O14 0.436913 0.000000 0.826347
O O15 0.500000 0.780403 0.214446
O O16 0.430490 0.500000 0.235665
O O17 0.071478 0.500000 0.946048
O O18 0.000000 0.223588 0.942351
O O19 0.697815 0.500000 0.720167
#
# Coordination Sequence:
#
# PCOD9337668 Si02
#       7
#     4   4   4   4   4   4   4
#     4   8  14  24  36  54  84 117 149 188 231 272
#     4   8  15  26  39  60  88 117 153 195 232 271
#     4   8  15  27  44  67  89 111 149 198 238 273
#     4  10  21  34  45  63  94 126 154 189 235 284
#     4   9  17  29  46  67  88 115 152 191 233 280
#     4   9  16  23  34  56  86 125 162 183 219 281
#     4   9  17  30  49  70  89 117 158 198 237 278
#
# _framework density 22.354989
#
# number of rings (size 3 to 8) (size 9 to 14) (size 15 to 20)
#    0.000    3.286    0.000    2.143    2.000    2.000 
#    0.000    5.000    0.000    1.714    0.000    0.000 
#    0.000    0.571    0.000    0.286    0.000    0.000 
#
# Total GULP energy -155973.652445 kJ/mol
# GULP energy per Si atom -5570.487587 kJ/mol
# Density = 2.230411 g / cm^3
# Si number density = 22.354989 Si / 1000 Ang^3
#
#
#
# Elastic Constant Matrix: (Units=GPa)
#
#
# Indices 1 2 3 4 5 6 
#
# 1 272.6221 15.7761 86.9065 0.0000 0.0000 0.0000
# 2 15.7761 58.5574 1.5247 0.0000 0.0000 0.0000
# 3 86.9065 1.5247 78.2526 0.0000 0.0000 0.0000
# 4 0.0000 0.0000 0.0000 142.4816 0.0000 0.0000
# 5 0.0000 0.0000 0.0000 0.0000 51.7947 0.0000
# 6 0.0000 0.0000 0.0000 0.0000 0.0000 -0.1554
#
#
#
# Elastic Compliance Matrix: (Units=1/GPa)
#
#
# Indices 1 2 3 4 5 6 
#
# 1 0.005790 -0.001393 -0.006403 0.000000 0.000000 0.000000
# 2 -0.001393 0.017421 0.001208 0.000000 0.000000 0.000000
# 3 -0.006403 0.001208 0.019867 0.000000 0.000000 0.000000
# 4 0.000000 0.000000 0.000000 0.007018 0.000000 0.000000
# 5 0.000000 0.000000 0.000000 0.000000 0.019307 0.000000
# 6 0.000000 0.000000 0.000000 0.000000 0.000000 -6.433570
#
#
# Mechanical properties :
#
#
# Convention : Reuss Voigt Hill
#
# Bulk Modulus (GPa) = 33.44376 68.64964 51.04670
# Shear Modulus (GPa) = -0.78852 59.17250 29.19199
#
# Velocity S-wave (km/s) = -0.59455 5.15043 3.61756
# Velocity P-wave (km/s) = 3.81070 8.13295 6.35084
#
# Compressibility (1/GPa) = 0.02990094
#
# Stress axis : x y z
#
# Youngs Moduli (GPa) = 172.71612 57.40154 50.33551
#
# Poissons Ratio (x) = 0.07997 0.32230
# Poissons Ratio (y) = 0.24062 -0.06079
# Poissons Ratio (z) = 1.10590 -0.06933
#
# Static dielectric constant tensor:
#      x y z
#    x 1.876370 0.000000 0.000000 
#    y 0.000000 1.824060 0.000000 
#    z 0.000000 0.000000 1.783070 
# 
# From -- ./inp_files/3550.got.cif
#   From: 2010.05.17/outbox.cif.g08.bks.cpg/sg25_2_cif.got.tgz:3550.got - 2010.06.04 01:04:00.
