data_PCOD9337753
_publ_section_title
;
Structure prediction by ZEFSAII (Michael W. Deem and Ramdas Pophale) SiO2 
 PCOD9337753
Probable space group: P M M 2
;
_chemical_formula_sum "Si O2"
_cell_formula_units_Z 32
_cell_length_a 14.108269
_cell_length_b 9.038583
_cell_length_c 13.237851
_cell_angle_alpha 90.000000
_cell_angle_beta 90.000000
_cell_angle_gamma 90.000000
_cell_volume 1688.074349
_symmetry_space_group_name_H-M "P M M 2"
_symmetry_group_IT_number 25
_symmetry_cell_setting 'orthorhombic'
loop_
_space_group_symop_operation_xyz
x,y,z
-x,-y,z
-x,y,z
x,-y,z
loop_
_atom_site_type_symbol
_atom_site_label
_atom_site_fract_x
_atom_site_fract_y
_atom_site_fract_z
Si Si1 0.211695 0.176268 0.049540
Si Si2 0.389264 0.678507 0.966149
Si Si3 0.392529 0.177434 0.532643
Si Si4 0.796665 0.821602 0.437117
Si Si5 0.114726 0.671241 0.859090
Si Si6 0.887237 0.675576 0.241318
Si Si7 0.384783 0.331658 0.738800
Si Si8 0.885722 0.171769 0.653325
O O1 0.317798 0.240837 0.040352
O O2 0.160609 0.242816 0.147183
O O3 0.212290 0.000000 0.052781
O O4 0.156849 0.233845 0.950066
O O5 0.500000 0.715763 0.980616
O O6 0.381059 0.500000 0.973029
O O7 0.359377 0.720166 0.851135
O O8 0.500000 0.230845 0.513596
O O9 0.313843 0.219561 0.450978
O O10 0.359928 0.233852 0.642693
O O11 0.394563 0.000000 0.536222
O O12 0.845181 0.739711 0.344843
O O13 0.845304 0.784413 0.544470
O O14 0.804471 0.000000 0.423914
O O15 0.142684 0.500000 0.871816
O O16 0.144793 0.731074 0.749090
O O17 0.000000 0.679435 0.863030
O O18 0.870055 0.500000 0.234128
O O19 0.000000 0.700231 0.239122
O O20 0.500000 0.335943 0.740809
O O21 0.351473 0.500000 0.724308
O O22 0.000000 0.179332 0.647902
O O23 0.859223 0.000000 0.671354
#
# Coordination Sequence:
#
# PCOD9337753 Si02
#       8
#     4   4   4   4   4   4   4   4
#     4  12  25  39  61  89 118 154 198 244 298 359
#     4   9  19  37  59  85 121 161 200 244 293 345
#     4   9  18  32  51  80 120 160 197 238 282 333
#     4  10  21  37  59  86 117 154 197 241 296 356
#     4  10  21  37  57  83 117 155 195 242 298 359
#     4  11  25  45  67  89 113 145 193 251 307 365
#     4   8  15  29  50  77 111 153 196 236 280 330
#     4   9  18  33  53  80 115 151 189 238 297 360
#
# _framework density 18.956512
#
# number of rings (size 3 to 8) (size 9 to 14) (size 15 to 20)
#    0.000    2.250    0.000    3.375    1.750    5.500 
#    0.000    3.125    0.000    2.250    0.000    0.000 
#    0.000    0.000    0.000    0.000    0.000    0.000 
#
# Total GULP energy -178735.647173 kJ/mol
# GULP energy per Si atom -5585.488974 kJ/mol
# Density = 1.891337 g / cm^3
# Si number density = 18.956512 Si / 1000 Ang^3
#
#
#
# Elastic Constant Matrix: (Units=GPa)
#
#
# Indices 1 2 3 4 5 6 
#
# 1 100.6658 65.5653 72.5072 0.0000 0.0000 0.0000
# 2 65.5653 79.4360 72.7055 0.0000 0.0000 0.0000
# 3 72.5072 72.7055 134.8374 0.0000 0.0000 0.0000
# 4 0.0000 0.0000 0.0000 40.7638 0.0000 0.0000
# 5 0.0000 0.0000 0.0000 0.0000 38.6719 0.0000
# 6 0.0000 0.0000 0.0000 0.0000 0.0000 24.3347
#
#
#
# Elastic Compliance Matrix: (Units=1/GPa)
#
#
# Indices 1 2 3 4 5 6 
#
# 1 0.022593 -0.014864 -0.004134 0.000000 0.000000 0.000000
# 2 -0.014864 0.034634 -0.010682 0.000000 0.000000 0.000000
# 3 -0.004134 -0.010682 0.015400 0.000000 0.000000 0.000000
# 4 0.000000 0.000000 0.000000 0.024532 0.000000 0.000000
# 5 0.000000 0.000000 0.000000 0.000000 0.025859 0.000000
# 6 0.000000 0.000000 0.000000 0.000000 0.000000 0.041094
#
#
# Mechanical properties :
#
#
# Convention : Reuss Voigt Hill
#
# Bulk Modulus (GPa) = 75.38165 81.83278 78.60721
# Shear Modulus (GPa) = 21.94017 27.69815 24.81916
#
# Velocity S-wave (km/s) = 3.40574 3.82664 3.62231
# Velocity P-wave (km/s) = 7.43756 7.92380 7.68453
#
# Compressibility (1/GPa) = 0.01326583
#
# Stress axis : x y z
#
# Youngs Moduli (GPa) = 44.26220 28.87326 64.93702
#
# Poissons Ratio (x) = 0.42916 0.26847
# Poissons Ratio (y) = 0.65789 0.69368
# Poissons Ratio (z) = 0.18300 0.30843
#
# Static dielectric constant tensor:
#      x y z
#    x 1.706470 0.000000 0.000000 
#    y 0.000000 1.635810 0.000000 
#    z 0.000000 0.000000 1.620110 
# 
# From -- ./inp_files/4276.got.cif
#   From: 2010.05.17/outbox.cif.g08.bks.cpg/sg25_3_cif.got.tgz:4276.got - 2010.06.04 01:04:00.
