data_PCOD9337299
_publ_section_title
;
Structure prediction by ZEFSAII (Michael W. Deem and Ramdas Pophale) SiO2 
 PCOD9337299
Probable space group: P M M 2
;
_chemical_formula_sum "Si O2"
_cell_formula_units_Z 32
_cell_length_a 18.055311
_cell_length_b 13.962423
_cell_length_c 7.138371
_cell_angle_alpha 90.000000
_cell_angle_beta 90.000000
_cell_angle_gamma 90.000000
_cell_volume 1799.553987
_symmetry_space_group_name_H-M "P M M 2"
_symmetry_group_IT_number 25
_symmetry_cell_setting 'orthorhombic'
loop_
_space_group_symop_operation_xyz
x,y,z
-x,-y,z
-x,y,z
x,-y,z
loop_
_atom_site_type_symbol
_atom_site_label
_atom_site_fract_x
_atom_site_fract_y
_atom_site_fract_z
Si Si1 0.192292 0.611865 0.901190
Si Si2 0.685220 0.612221 0.227158
Si Si3 0.799231 0.113369 0.671992
Si Si4 0.914492 0.200943 0.388329
Si Si5 0.412709 0.386877 0.884463
Si Si6 0.081640 0.115430 0.973870
Si Si7 0.911677 0.608495 0.210110
Si Si8 0.705099 0.286314 0.620568
O O1 0.191453 0.500000 0.853442
O O2 0.223831 0.665929 0.723309
O O3 0.248998 0.625743 0.075937
O O4 0.115168 0.636227 0.001129
O O5 0.684280 0.500000 0.283711
O O6 0.694780 0.677124 0.409266
O O7 0.613188 0.631825 0.098340
O O8 0.858013 0.141566 0.511879
O O9 0.725259 0.174675 0.639097
O O10 0.785943 0.000000 0.674745
O O11 0.845493 0.142554 0.857712
O O12 0.914436 0.156578 0.181235
O O13 0.889235 0.310992 0.358750
O O14 0.000000 0.198300 0.455181
O O15 0.500000 0.373268 0.861258
O O16 0.394964 0.500000 0.849241
O O17 0.364382 0.323019 0.743326
O O18 0.000000 0.143682 0.895670
O O19 0.081882 0.000000 0.979915
O O20 0.884551 0.500000 0.248635
O O21 0.000000 0.607453 0.212472
#
# Coordination Sequence:
#
# PCOD9337299 Si02
#       8
#     4   4   4   4   4   4   4   4
#     4   9  17  30  48  71 101 134 169 208 247 299
#     4   9  17  30  51  79 107 134 162 194 239 298
#     4  11  23  35  49  74 105 136 177 228 271 305
#     4  10  19  33  53  72  96 135 179 224 274 318
#     4   9  19  36  58  86 114 132 154 194 241 298
#     4   9  18  33  53  75  98 129 175 230 281 319
#     4   9  17  29  46  68  96 134 177 219 264 312
#     4  11  20  32  52  76 105 140 171 199 247 308
#
# _framework density 17.782185999999999
#
# number of rings (size 3 to 8) (size 9 to 14) (size 15 to 20)
#    0.000    2.375    0.000    4.125    0.000    2.750 
#    0.000    3.125    0.000    1.875    0.000    7.000 
#    0.000    0.000    0.000    0.000    0.000    0.000 
#
# Total GULP energy -178446.498532 kJ/mol
# GULP energy per Si atom -5576.453079 kJ/mol
# Density = 1.774171 g / cm^3
# Si number density = 17.782186 Si / 1000 Ang^3
#
#
#
# Elastic Constant Matrix: (Units=GPa)
#
#
# Indices 1 2 3 4 5 6 
#
# 1 65.9643 32.9008 24.6634 0.0000 0.0000 0.0000
# 2 32.9008 57.7764 32.3646 0.0000 0.0000 0.0000
# 3 24.6634 32.3646 71.8173 0.0000 0.0000 0.0000
# 4 0.0000 0.0000 0.0000 21.4903 0.0000 0.0000
# 5 0.0000 0.0000 0.0000 0.0000 19.9365 0.0000
# 6 0.0000 0.0000 0.0000 0.0000 0.0000 -13.0539
#
#
#
# Elastic Compliance Matrix: (Units=1/GPa)
#
#
# Indices 1 2 3 4 5 6 
#
# 1 0.021503 -0.010846 -0.002497 0.000000 0.000000 0.000000
# 2 -0.010846 0.028624 -0.009175 0.000000 0.000000 0.000000
# 3 -0.002497 -0.009175 0.018916 0.000000 0.000000 0.000000
# 4 0.000000 0.000000 0.000000 0.046533 0.000000 0.000000
# 5 0.000000 0.000000 0.000000 0.000000 0.050159 0.000000
# 6 0.000000 0.000000 0.000000 0.000000 0.000000 -0.076606
#
#
# Mechanical properties :
#
#
# Convention : Reuss Voigt Hill
#
# Bulk Modulus (GPa) = 41.65286 41.71285 41.68286
# Shear Modulus (GPa) = 35.16989 12.71652 23.94320
#
# Velocity S-wave (km/s) = 4.45209 2.67709 3.67341
# Velocity P-wave (km/s) = 7.06420 5.75016 6.44078
#
# Compressibility (1/GPa) = 0.02400795
#
# Stress axis : x y z
#
# Youngs Moduli (GPa) = 46.50511 34.93579 52.86489
#
# Poissons Ratio (x) = 0.37893 0.13198
# Poissons Ratio (y) = 0.50441 0.48501
# Poissons Ratio (z) = 0.11610 0.32052
#
# Static dielectric constant tensor:
#      x y z
#    x 1.633850 0.000000 0.000000 
#    y 0.000000 1.653030 0.000000 
#    z 0.000000 0.000000 1.610370 
# 
# From -- ./inp_files/980.got.cif
#   From: 2010.05.17/outbox.cif.g08.bks.cpg/sg25_1_cif.got.tgz:980.got - 2010.06.04 01:04:00.
