data_PCOD9337080
_publ_section_title
;
Structure prediction by ZEFSAII (Michael W. Deem and Ramdas Pophale) SiO2 
 PCOD9337080
Probable space group: I 21 21 21
;
_chemical_formula_sum "Si O2"
_cell_formula_units_Z 28
_cell_length_a 21.000000
_cell_length_b 15.000000
_cell_length_c 9.000000
_cell_angle_alpha 90.000000
_cell_angle_beta 90.000000
_cell_angle_gamma 90.000000
_cell_volume 2835.000000
_symmetry_space_group_name_H-M "I 21 21 21"
_symmetry_group_IT_number 24
_symmetry_cell_setting 'orthorhombic'
loop_
_space_group_symop_operation_xyz
x,y,z
-x,1/2-y,z
x,-y,1/2-z
1/2-x,y,-z
1/2+x,1/2+y,1/2+z
1/2-x,-y,1/2+z
1/2+x,1/2-y,-z
-x,1/2+y,1/2-z
loop_
_atom_site_type_symbol
_atom_site_label
_atom_site_fract_x
_atom_site_fract_y
_atom_site_fract_z
Si Si1 0.855691 0.238447 0.439650
Si Si2 0.540209 0.827014 0.715162
Si Si3 0.684657 0.560845 0.902137
Si Si4 0.925635 0.061401 0.958984
Si Si5 0.312493 0.543468 0.913466
Si Si6 0.966873 0.563848 0.040857
Si Si7 0.950840 0.817629 0.813098
O O1 0.916425 0.225311 0.332609
O O2 0.819323 0.329912 0.399362
O O3 0.813842 0.150696 0.409439
O O4 0.891172 0.228501 0.600553
O O5 0.500000 0.750000 0.638911
O O6 0.585198 0.871854 0.595292
O O7 0.495906 0.898773 0.802727
O O8 0.689066 0.500000 0.750000
O O9 0.609611 0.548324 0.958099
O O10 0.750000 0.540561 0.000000
O O11 0.924059 0.110335 0.802725
O O12 0.874672 0.984341 0.991073
O O13 0.996386 0.024647 0.989711
O O14 0.315581 0.500000 0.750000
O O15 0.250000 0.512123 0.000000
O O16 0.999177 0.635038 0.927187
O O17 0.000000 0.750000 0.734000
#
# Coordination Sequence:
#
# PCOD9337080 Si02
#       7
#     8   8   8   8   8   8   8
#     4  11  22  45  70  91 134 182 222 273 349 413
#     4  11  19  37  67  98 131 174 229 277 332 403
#     4  12  27  49  70  96 128 180 239 288 343 402
#     4  12  23  38  64 105 140 170 225 283 334 394
#     4  12  26  43  67 102 142 183 223 272 341 421
#     4  11  21  40  69  93 131 177 222 274 340 399
#     4  11  22  40  66 102 136 177 226 273 335 408
#
# _framework density 9.8765429999999999
#
# number of rings (size 3 to 8) (size 9 to 14) (size 15 to 20)
#    0.000    0.571    7.143    3.429    2.000    1.143 
#    0.000    0.714    0.000    0.000    0.000    0.000 
#    0.000    0.000    0.000    0.000    0.000    0.000 
#
# Total GULP energy -155982.369902 kJ/mol
# GULP energy per Si atom -5570.798925 kJ/mol
# Density = 0.985406 g / cm^3
# Si number density = 9.876543 Si / 1000 Ang^3
#
#
#
# Elastic Constant Matrix: (Units=GPa)
#
#
# Indices 1 2 3 4 5 6 
#
# 1 116.8181 22.9122 46.6498 0.0000 0.0000 0.0000
# 2 22.9122 104.2849 49.7771 0.0000 0.0000 0.0000
# 3 46.6498 49.7771 104.4372 0.0000 0.0000 0.0000
# 4 0.0000 0.0000 0.0000 20.4941 0.0000 0.0000
# 5 0.0000 0.0000 0.0000 0.0000 27.3022 0.0000
# 6 0.0000 0.0000 0.0000 0.0000 0.0000 25.5217
#
#
#
# Elastic Compliance Matrix: (Units=1/GPa)
#
#
# Indices 1 2 3 4 5 6 
#
# 1 0.010419 -0.000088 -0.004612 0.000000 0.000000 0.000000
# 2 -0.000088 0.012414 -0.005878 0.000000 0.000000 0.000000
# 3 -0.004612 -0.005878 0.014437 0.000000 0.000000 0.000000
# 4 0.000000 0.000000 0.000000 0.048794 0.000000 0.000000
# 5 0.000000 0.000000 0.000000 0.000000 0.036627 0.000000
# 6 0.000000 0.000000 0.000000 0.000000 0.000000 0.039182
#
#
# Mechanical properties :
#
#
# Convention : Reuss Voigt Hill
#
# Bulk Modulus (GPa) = 62.05453 62.69093 62.37273
# Shear Modulus (GPa) = 26.53920 28.41034 27.47477
#
# Velocity S-wave (km/s) = 3.66942 3.79657 3.73354
# Velocity P-wave (km/s) = 7.03108 7.14316 7.08735
#
# Compressibility (1/GPa) = 0.01611486
#
# Stress axis : x y z
#
# Youngs Moduli (GPa) = 95.97490 80.55519 69.26775
#
# Poissons Ratio (x) = 0.00706 0.31949
# Poissons Ratio (y) = 0.00841 0.40713
# Poissons Ratio (z) = 0.44267 0.47347
#
# Static dielectric constant tensor:
#      x y z
#    x 1.708220 0.000000 0.000000 
#    y 0.000000 1.799830 0.000000 
#    z 0.000000 0.000000 1.725140 
# 
# From -- ./inp_files/15245.got.cif
#   From: 2010.05.17/outbox.ucp.g08.bks.cvg/sg24_8_cif.got.tgz:15245.got - 2010.06.11 15:20:44.
