data_PCOD9337797
_publ_section_title
;
Structure prediction by ZEFSAII (Michael W. Deem and Ramdas Pophale) SiO2 
 PCOD9337797
Probable space group: P M M 2
;
_chemical_formula_sum "Si O2"
_cell_formula_units_Z 25
_cell_length_a 11.915698
_cell_length_b 7.747019
_cell_length_c 12.247719
_cell_angle_alpha 90.000000
_cell_angle_beta 90.000000
_cell_angle_gamma 90.000000
_cell_volume 1130.600889
_symmetry_space_group_name_H-M "P M M 2"
_symmetry_group_IT_number 25
_symmetry_cell_setting 'orthorhombic'
loop_
_space_group_symop_operation_xyz
x,y,z
-x,-y,z
-x,y,z
x,-y,z
loop_
_atom_site_type_symbol
_atom_site_label
_atom_site_fract_x
_atom_site_fract_y
_atom_site_fract_z
Si Si1 0.332231 0.701904 0.155400
Si Si2 0.130077 0.208991 0.294714
Si Si3 0.746893 0.704088 0.925754
Si Si4 0.629233 0.290910 0.706062
Si Si5 0.500000 0.000000 0.224866
Si Si6 0.000000 0.811556 0.921038
Si Si7 0.802834 0.798075 0.536069
Si Si8 0.000000 0.312262 0.689433
O O1 0.369026 0.500000 0.161514
O O2 0.206364 0.710824 0.201688
O O3 0.403650 0.844790 0.219070
O O4 0.326391 0.762206 0.028962
O O5 0.182565 0.260279 0.412028
O O6 0.000000 0.260276 0.290891
O O7 0.134271 0.000000 0.286489
O O8 0.729678 0.500000 0.920472
O O9 0.703274 0.773116 0.809254
O O10 0.878691 0.732947 0.946432
O O11 0.500000 0.239030 0.718893
O O12 0.633528 0.500000 0.704134
O O13 0.683471 0.227801 0.593213
O O14 0.000000 0.817476 0.788996
O O15 0.000000 0.000000 0.972359
O O16 0.892288 0.705571 0.613651
O O17 0.832554 0.000000 0.537680
O O18 0.000000 0.500000 0.743977
#
# Coordination Sequence:
#
# PCOD9337797 Si02
#       8
#     4   4   4   4   1   2   4   2
#     4  11  26  47  74 104 136 182 234 287 346 410
#     4  10  22  44  70  98 140 181 223 290 355 412
#     4  10  23  42  65  95 131 174 220 273 337 404
#     4  10  22  41  63  90 130 175 219 271 326 388
#     4  12  26  52  74  98 138 180 238 286 336 404
#     4  12  24  36  61  96 135 174 215 272 344 412
#     4  11  22  40  64  94 129 171 221 270 331 396
#     4  12  22  36  59  90 129 172 219 270 324 398
#
# _framework density 22.112137000000001
#
# number of rings (size 3 to 8) (size 9 to 14) (size 15 to 20)
#    0.000    1.280    3.200    2.160    3.360    1.920 
#    1.440    0.000    0.000    0.000    0.000    0.000 
#    0.000    0.000    0.000    0.000    0.000    0.000 
#
# Total GULP energy -139434.406394 kJ/mol
# GULP energy per Si atom -5577.376256 kJ/mol
# Density = 2.206181 g / cm^3
# Si number density = 22.112137 Si / 1000 Ang^3
#
#
#
# Elastic Constant Matrix: (Units=GPa)
#
#
# Indices 1 2 3 4 5 6 
#
# 1 109.4858 10.7051 26.6140 0.0000 0.0000 0.0000
# 2 10.7051 76.6454 8.5590 0.0000 0.0000 0.0000
# 3 26.6140 8.5590 60.0388 0.0000 0.0000 0.0000
# 4 0.0000 0.0000 0.0000 19.7740 0.0000 0.0000
# 5 0.0000 0.0000 0.0000 0.0000 -63.8841 0.0000
# 6 0.0000 0.0000 0.0000 0.0000 0.0000 24.3447
#
#
#
# Elastic Compliance Matrix: (Units=1/GPa)
#
#
# Indices 1 2 3 4 5 6 
#
# 1 0.010303 -0.000944 -0.004433 0.000000 0.000000 0.000000
# 2 -0.000944 0.013345 -0.001484 0.000000 0.000000 0.000000
# 3 -0.004433 -0.001484 0.018832 0.000000 0.000000 0.000000
# 4 0.000000 0.000000 0.000000 0.050571 0.000000 0.000000
# 5 0.000000 0.000000 0.000000 0.000000 -0.015653 0.000000
# 6 0.000000 0.000000 0.000000 0.000000 0.000000 0.041077
#
#
# Mechanical properties :
#
#
# Convention : Reuss Voigt Hill
#
# Bulk Modulus (GPa) = 34.77161 37.54734 36.15948
# Shear Modulus (GPa) = 35.26516 9.39971 22.33244
#
# Velocity S-wave (km/s) = 3.99787 2.06401 3.18144
# Velocity P-wave (km/s) = 6.08850 4.76419 5.46660
#
# Compressibility (1/GPa) = 0.02875909
#
# Stress axis : x y z
#
# Youngs Moduli (GPa) = 97.05511 74.93630 53.10008
#
# Poissons Ratio (x) = 0.07075 0.23538
# Poissons Ratio (y) = 0.09163 0.07879
# Poissons Ratio (z) = 0.43022 0.11120
#
# Static dielectric constant tensor:
#      x y z
#    x 1.836460 0.000000 0.000000 
#    y 0.000000 1.766640 0.000000 
#    z 0.000000 0.000000 1.807830 
# 
# From -- ./inp_files/4578.got.cif
#   From: 2010.05.17/outbox.cif.g08.bks.cpg/sg25_3_cif.got.tgz:4578.got - 2010.06.04 01:04:00.
