data_PCOD9337747
_publ_section_title
;
Structure prediction by ZEFSAII (Michael W. Deem and Ramdas Pophale) SiO2 
 PCOD9337747
Probable space group: P M M 2
;
_chemical_formula_sum "Si O2"
_cell_formula_units_Z 24
_cell_length_a 15.370470
_cell_length_b 8.876699
_cell_length_c 9.796901
_cell_angle_alpha 90.000000
_cell_angle_beta 90.000000
_cell_angle_gamma 90.000000
_cell_volume 1336.679725
_symmetry_space_group_name_H-M "P M M 2"
_symmetry_group_IT_number 25
_symmetry_cell_setting 'orthorhombic'
loop_
_space_group_symop_operation_xyz
x,y,z
-x,-y,z
-x,y,z
x,-y,z
loop_
_atom_site_type_symbol
_atom_site_label
_atom_site_fract_x
_atom_site_fract_y
_atom_site_fract_z
Si Si1 0.248392 0.819230 0.104410
Si Si2 0.898109 0.320174 0.292370
Si Si3 0.747571 0.818425 0.789277
Si Si4 0.601812 0.681146 0.286930
Si Si5 0.399351 0.681330 0.601014
Si Si6 0.899474 0.818857 0.585998
O O1 0.164830 0.753743 0.182253
O O2 0.333339 0.760852 0.183771
O O3 0.245573 0.000000 0.109092
O O4 0.250127 0.769976 0.946523
O O5 0.887812 0.500000 0.290685
O O6 0.875670 0.258332 0.442917
O O7 0.000000 0.284033 0.268070
O O8 0.665624 0.754193 0.707700
O O9 0.833908 0.773610 0.705520
O O10 0.743198 0.000000 0.787642
O O11 0.500000 0.715823 0.262044
O O12 0.611778 0.500000 0.276409
O O13 0.622112 0.723845 0.444189
O O14 0.500000 0.723045 0.626131
O O15 0.393554 0.500000 0.608810
O O16 0.000000 0.781075 0.617118
O O17 0.894085 0.000000 0.568756
#
# Coordination Sequence:
#
# PCOD9337747 Si02
#       6
#     4   4   4   4   4   4
#     4  11  23  36  52  78 112 146 178 215 261 314
#     4  10  21  37  57  81 107 136 175 222 267 313
#     4  10  22  36  51  77 110 142 175 213 259 310
#     4   9  19  37  59  81 106 138 178 223 267 312
#     4   9  19  36  57  79 102 133 175 220 265 312
#     4   9  18  35  58  80 103 135 175 217 263 315
#
# _framework density 17.954937000000001
#
# number of rings (size 3 to 8) (size 9 to 14) (size 15 to 20)
#    0.000    2.333    0.000    3.000    0.000    8.333 
#    0.000    6.667    0.000    2.000    0.000    0.000 
#    0.000    0.000    0.000    0.000    0.000    0.000 
#
# Total GULP energy -133998.586356 kJ/mol
# GULP energy per Si atom -5583.274431 kJ/mol
# Density = 1.791407 g / cm^3
# Si number density = 17.954937 Si / 1000 Ang^3
#
#
#
# Elastic Constant Matrix: (Units=GPa)
#
#
# Indices 1 2 3 4 5 6 
#
# 1 122.1279 45.6767 127.2743 0.0000 0.0000 0.0000
# 2 45.6767 27.8947 55.2953 0.0000 0.0000 0.0000
# 3 127.2743 55.2953 196.4390 0.0000 0.0000 0.0000
# 4 0.0000 0.0000 0.0000 13.7613 0.0000 0.0000
# 5 0.0000 0.0000 0.0000 0.0000 -16.7571 0.0000
# 6 0.0000 0.0000 0.0000 0.0000 0.0000 31.4076
#
#
#
# Elastic Compliance Matrix: (Units=1/GPa)
#
#
# Indices 1 2 3 4 5 6 
#
# 1 0.031450 -0.025126 -0.013304 0.000000 0.000000 0.000000
# 2 -0.025126 0.101179 -0.012201 0.000000 0.000000 0.000000
# 3 -0.013304 -0.012201 0.017145 0.000000 0.000000 0.000000
# 4 0.000000 0.000000 0.000000 0.072667 0.000000 0.000000
# 5 0.000000 0.000000 0.000000 0.000000 -0.059676 0.000000
# 6 0.000000 0.000000 0.000000 0.000000 0.000000 0.031839
#
#
# Mechanical properties :
#
#
# Convention : Reuss Voigt Hill
#
# Bulk Modulus (GPa) = 20.61391 89.21716 54.91554
# Shear Modulus (GPa) = 16.02367 13.56338 14.79353
#
# Velocity S-wave (km/s) = 2.99061 2.75146 2.87352
# Velocity P-wave (km/s) = 4.84054 7.73895 6.45454
#
# Compressibility (1/GPa) = 0.04851092
#
# Stress axis : x y z
#
# Youngs Moduli (GPa) = 31.79621 9.88349 58.32620
#
# Poissons Ratio (x) = 0.24834 0.77598
# Poissons Ratio (y) = 0.79892 0.71165
# Poissons Ratio (z) = 0.42302 0.12059
#
# Static dielectric constant tensor:
#      x y z
#    x 1.606480 0.000000 0.000000 
#    y 0.000000 1.601730 0.000000 
#    z 0.000000 0.000000 1.586940 
# 
# From -- ./inp_files/1980.got.cif
#   From: 2010.05.17/outbox.cif.g08.bks.cpg/sg25_1_cif.got.tgz:1980.got - 2010.06.04 01:04:00.
