data_PCOD9337951
_publ_section_title
;
Structure prediction by ZEFSAII (Michael W. Deem and Ramdas Pophale) SiO2 
 PCOD9337951
Probable space group: P M C 21
;
_chemical_formula_sum "Si O2"
_cell_formula_units_Z 32
_cell_length_a 8.927420
_cell_length_b 21.383572
_cell_length_c 9.870588
_cell_angle_alpha 90.000000
_cell_angle_beta 90.000000
_cell_angle_gamma 90.000000
_cell_volume 1884.296516
_symmetry_space_group_name_H-M "P M C 21"
_symmetry_group_IT_number 26
_symmetry_cell_setting 'orthorhombic'
loop_
_space_group_symop_operation_xyz
x,y,z
-x,-y,1/2+z
-x,y,z
x,-y,1/2+z
loop_
_atom_site_type_symbol
_atom_site_label
_atom_site_fract_x
_atom_site_fract_y
_atom_site_fract_z
Si Si1 0.821492 0.762685 0.743640
Si Si2 0.324045 0.629810 0.704506
Si Si3 0.677883 0.858642 0.536958
Si Si4 0.675115 0.448127 0.954937
Si Si5 0.677330 0.965223 0.755695
Si Si6 0.821395 0.868277 0.957321
Si Si7 0.822605 0.496972 0.209343
Si Si8 0.178462 0.101139 0.760271
O O1 0.742079 0.695907 0.744430
O O2 0.760162 0.803816 0.618799
O O3 0.000000 0.754992 0.732631
O O4 0.788736 0.804383 0.876879
O O5 0.500000 0.624522 0.736845
O O6 0.309338 0.615742 0.542179
O O7 0.233188 0.570925 0.764671
O O8 0.500000 0.847409 0.537075
O O9 0.704481 0.922459 0.622892
O O10 0.740100 0.867371 0.386975
O O11 0.500000 0.459921 0.931896
O O12 0.743141 0.497911 0.062702
O O13 0.763457 0.452576 0.815623
O O14 0.500000 0.977546 0.766623
O O15 0.766220 0.029639 0.750522
O O16 0.732353 0.923329 0.881725
O O17 0.786650 0.867139 0.115923
O O18 0.000000 0.880627 0.942311
O O19 0.000000 0.498472 0.195014
O O20 0.000000 0.102720 0.781203
#
# Coordination Sequence:
#
# PCOD9337951 Si02
#       8
#     4   4   4   4   4   4   4   4
#     4  10  19  35  57  76  98 130 175 217 251 299
#     4   9  19  33  54  78 106 140 174 210 255 307
#     4  10  21  35  52  74 101 132 168 209 255 307
#     4   9  18  32  51  77 111 143 170 208 258 307
#     4  10  20  33  50  74  99 128 166 206 251 309
#     4   9  20  35  52  74  99 131 166 208 257 303
#     4  10  18  30  52  81 109 138 175 213 253 300
#     4  11  21  33  50  72 101 130 162 207 260 310
#
# _framework density 16.982464
#
# number of rings (size 3 to 8) (size 9 to 14) (size 15 to 20)
#    0.750    1.500    0.000    3.750    0.000    5.000 
#    0.000    0.000    2.750    0.000    0.000    0.000 
#    0.000    0.000    0.000    0.000    0.000    0.000 
#
# Total GULP energy -178331.751175 kJ/mol
# GULP energy per Si atom -5572.867224 kJ/mol
# Density = 1.694381 g / cm^3
# Si number density = 16.982464 Si / 1000 Ang^3
#
#
#
# Elastic Constant Matrix: (Units=GPa)
#
#
# Indices 1 2 3 4 5 6 
#
# 1 58.8508 8.5994 17.2109 0.0000 0.0000 0.0000
# 2 8.5994 33.9179 -3.6071 0.0000 0.0000 0.0000
# 3 17.2109 -3.6071 76.3170 0.0000 0.0000 0.0000
# 4 0.0000 0.0000 0.0000 4.5242 0.0000 0.0000
# 5 0.0000 0.0000 0.0000 0.0000 23.2201 0.0000
# 6 0.0000 0.0000 0.0000 0.0000 0.0000 27.4923
#
#
#
# Elastic Compliance Matrix: (Units=1/GPa)
#
#
# Indices 1 2 3 4 5 6 
#
# 1 0.019104 -0.005329 -0.004560 0.000000 0.000000 0.000000
# 2 -0.005329 0.031118 0.002673 0.000000 0.000000 0.000000
# 3 -0.004560 0.002673 0.014258 0.000000 0.000000 0.000000
# 4 0.000000 0.000000 0.000000 0.221033 0.000000 0.000000
# 5 0.000000 0.000000 0.000000 0.000000 0.043066 0.000000
# 6 0.000000 0.000000 0.000000 0.000000 0.000000 0.036374
#
#
# Mechanical properties :
#
#
# Convention : Reuss Voigt Hill
#
# Bulk Modulus (GPa) = 19.98089 23.72134 21.85111
# Shear Modulus (GPa) = 12.62408 20.83950 16.73179
#
# Velocity S-wave (km/s) = 2.72942 3.50683 3.14226
# Velocity P-wave (km/s) = 4.66091 5.51322 5.10488
#
# Compressibility (1/GPa) = 0.05004783
#
# Stress axis : x y z
#
# Youngs Moduli (GPa) = 52.34397 32.13551 70.13618
#
# Poissons Ratio (x) = 0.17124 0.31984
# Poissons Ratio (y) = 0.27892 -0.18744
# Poissons Ratio (z) = 0.23870 -0.08588
#
# Static dielectric constant tensor:
#      x y z
#    x 1.561430 0.000000 0.000000 
#    y 0.000000 1.557540 0.000000 
#    z 0.000000 0.000000 1.576540 
# 
# From -- ./inp_files/1609.got.cif
#   From: 2010.05.17/outbox.cif.g08.bks.cpg/sg26_1_cif.got.tgz:1609.got - 2010.06.04 01:07:29.
