data_PCOD9337893
_publ_section_title
;
Structure prediction by ZEFSAII (Michael W. Deem and Ramdas Pophale) SiO2 
 PCOD9337893
Probable space group: P M C 21
;
_chemical_formula_sum "Si O2"
_cell_formula_units_Z 32
_cell_length_a 31.592821
_cell_length_b 9.070391
_cell_length_c 5.554685
_cell_angle_alpha 90.000000
_cell_angle_beta 90.000000
_cell_angle_gamma 90.000000
_cell_volume 1591.746308
_symmetry_space_group_name_H-M "P M C 21"
_symmetry_group_IT_number 26
_symmetry_cell_setting 'orthorhombic'
loop_
_space_group_symop_operation_xyz
x,y,z
-x,-y,1/2+z
-x,y,z
x,-y,1/2+z
loop_
_atom_site_type_symbol
_atom_site_label
_atom_site_fract_x
_atom_site_fract_y
_atom_site_fract_z
Si Si1 0.665702 0.671432 0.850100
Si Si2 0.364797 0.255703 0.850101
Si Si3 0.239910 0.579168 0.850120
Si Si4 0.142428 0.164789 0.849986
Si Si5 0.706029 0.006452 0.350096
Si Si6 0.823042 0.824065 0.849986
Si Si7 0.546831 0.092466 0.850120
Si Si8 0.045732 0.907481 0.350069
O O1 0.641862 0.657433 0.597856
O O2 0.709262 0.582690 0.850115
O O3 0.679658 0.844041 0.850095
O O4 0.641859 0.657442 0.102335
O O5 0.328387 0.126744 0.850097
O O6 0.411592 0.190836 0.850117
O O7 0.226963 0.499978 0.600137
O O8 0.222970 0.747517 0.850071
O O9 0.157172 0.233004 0.599421
O O10 0.163966 0.998635 0.849965
O O11 0.157193 0.233012 0.100502
O O12 0.091691 0.165159 0.850064
O O13 0.731063 0.000001 0.600096
O O14 0.500000 0.164489 0.850119
O O15 0.548990 0.999999 0.600121
O O16 0.000000 0.826059 0.350068
O O17 0.045832 0.000000 0.100069
#
# Coordination Sequence:
#
# PCOD9337893 Si02
#       8
#     4   4   4   4   4   4   4   4
#     4  10  20  34  52  71  92 133 170 224 266 305
#     4  10  17  31  50  75 107 133 166 208 259 320
#     4  12  26  44  57  75 105 139 192 240 277 329
#     4  10  17  35  54  85 117 140 179 223 272 337
#     4   8  14  25  42  66  93 121 149 191 243 299
#     4  10  20  35  56  76 106 148 173 232 274 325
#     4  10  18  27  44  71 110 154 179 193 234 312
#     4  10  16  25  46  79 122 154 172 205 266 335
#
# _framework density 20.103705000000001
#
# number of rings (size 3 to 8) (size 9 to 14) (size 15 to 20)
#    0.000    2.000    2.500    4.500    0.000    0.000 
#   13.500    0.000    0.000    0.000    0.000    0.000 
#    0.000   27.000    0.000    0.000    0.000    0.000 
#
# Total GULP energy -178142.370070 kJ/mol
# GULP energy per Si atom -5566.949065 kJ/mol
# Density = 2.005795 g / cm^3
# Si number density = 20.103705 Si / 1000 Ang^3
#
#
#
# Elastic Constant Matrix: (Units=GPa)
#
#
# Indices 1 2 3 4 5 6 
#
# 1 125.8345 16.9155 46.4926 0.0000 0.0000 0.0000
# 2 16.9155 55.8409 24.8098 0.0000 0.0000 0.0000
# 3 46.4926 24.8098 230.1711 0.0000 0.0000 0.0000
# 4 0.0000 0.0000 0.0000 -21.7894 0.0000 0.0000
# 5 0.0000 0.0000 0.0000 0.0000 33.9254 0.0000
# 6 0.0000 0.0000 0.0000 0.0000 0.0000 23.1111
#
#
#
# Elastic Compliance Matrix: (Units=1/GPa)
#
#
# Indices 1 2 3 4 5 6 
#
# 1 0.008789 -0.001968 -0.001563 0.000000 0.000000 0.000000
# 2 -0.001968 0.019249 -0.001677 0.000000 0.000000 0.000000
# 3 -0.001563 -0.001677 0.004841 0.000000 0.000000 0.000000
# 4 0.000000 0.000000 0.000000 -0.045894 0.000000 0.000000
# 5 0.000000 0.000000 0.000000 0.000000 0.029476 0.000000
# 6 0.000000 0.000000 0.000000 0.000000 0.000000 0.043269
#
#
# Mechanical properties :
#
#
# Convention : Reuss Voigt Hill
#
# Bulk Modulus (GPa) = 44.51831 65.36472 54.94152
# Shear Modulus (GPa) = 64.40323 28.62465 46.51394
#
# Velocity S-wave (km/s) = 5.66613 3.77749 4.81531
# Velocity P-wave (km/s) = 8.06220 7.18403 7.63575
#
# Compressibility (1/GPa) = 0.02246267
#
# Stress axis : x y z
#
# Youngs Moduli (GPa) = 113.77802 51.94974 206.56259
#
# Poissons Ratio (x) = 0.10223 0.32290
# Poissons Ratio (y) = 0.22390 0.34648
# Poissons Ratio (z) = 0.17786 0.08714
#
# Static dielectric constant tensor:
#      x y z
#    x 1.706910 0.000000 0.000000 
#    y 0.000000 1.729740 0.000000 
#    z 0.000000 0.000000 1.797550 
# 
# From -- ./inp_files/1119.got.cif
#   From: 2010.05.17/outbox.cif.g08.bks.cpg/sg26_1_cif.got.tgz:1119.got - 2010.06.04 01:07:29.
