data_PCOD9337150
_publ_section_title
;
Structure prediction by ZEFSAII (Michael W. Deem and Ramdas Pophale) SiO2 
 PCOD9337150
Probable space group: P M M 2
;
_chemical_formula_sum "Si O2"
_cell_formula_units_Z 32
_cell_length_a 9.076517
_cell_length_b 14.626580
_cell_length_c 15.883960
_cell_angle_alpha 90.000000
_cell_angle_beta 90.000000
_cell_angle_gamma 90.000000
_cell_volume 2108.729147
_symmetry_space_group_name_H-M "P M M 2"
_symmetry_group_IT_number 25
_symmetry_cell_setting 'orthorhombic'
loop_
_space_group_symop_operation_xyz
x,y,z
-x,-y,z
-x,y,z
x,-y,z
loop_
_atom_site_type_symbol
_atom_site_label
_atom_site_fract_x
_atom_site_fract_y
_atom_site_fract_z
Si Si1 0.676499 0.283734 0.076500
Si Si2 0.822240 0.292294 0.747745
Si Si3 0.824032 0.392076 0.923438
Si Si4 0.324367 0.608447 0.590667
Si Si5 0.176794 0.104957 0.017449
Si Si6 0.821140 0.101653 0.820379
Si Si7 0.323280 0.392723 0.244557
Si Si8 0.169571 0.611048 0.417406
O O1 0.500000 0.281794 0.071562
O O2 0.741597 0.182110 0.069917
O O3 0.718853 0.334214 0.163100
O O4 0.740506 0.340481 0.997861
O O5 0.787588 0.348987 0.832666
O O6 0.746321 0.336857 0.667523
O O7 0.774182 0.187804 0.765253
O O8 0.000000 0.294619 0.737248
O O9 0.792162 0.500000 0.924261
O O10 0.000000 0.379355 0.935629
O O11 0.500000 0.618919 0.589222
O O12 0.291465 0.500000 0.601332
O O13 0.256172 0.638666 0.501378
O O14 0.000000 0.117141 0.023202
O O15 0.210546 0.000000 0.040696
O O16 0.217533 0.116560 0.918579
O O17 0.000000 0.100817 0.818390
O O18 0.770383 0.000000 0.795123
O O19 0.500000 0.387472 0.255322
O O20 0.286542 0.500000 0.230327
O O21 0.245763 0.360817 0.330261
O O22 0.172343 0.500000 0.416717
O O23 0.000000 0.640417 0.421128
#
# Coordination Sequence:
#
# PCOD9337150 Si02
#       8
#     4   4   4   4   4   4   4   4
#     4  11  21  31  46  69  98 129 160 195 237 287
#     4  10  18  30  48  68  91 121 160 200 233 271
#     4  10  20  32  45  63  92 130 168 201 232 271
#     4  10  20  32  46  66  95 128 157 188 231 283
#     4   9  17  32  52  69  89 121 161 203 244 284
#     4   8  14  27  48  69  88 115 153 197 241 279
#     4   9  18  32  47  65  94 130 161 189 229 280
#     4   9  17  30  49  71  91 115 153 199 238 271
#
# _framework density 15.175015999999999
#
# number of rings (size 3 to 8) (size 9 to 14) (size 15 to 20)
#    0.000    2.500    1.250    2.625    0.000    5.250 
#    0.000    1.250    0.000    0.375    0.000    0.875 
#    0.000    5.000    0.000    0.000    0.000    0.000 
#
# Total GULP energy -178407.147260 kJ/mol
# GULP energy per Si atom -5575.223352 kJ/mol
# Density = 1.514048 g / cm^3
# Si number density = 15.175016 Si / 1000 Ang^3
#
#
#
# Elastic Constant Matrix: (Units=GPa)
#
#
# Indices 1 2 3 4 5 6 
#
# 1 39.7044 47.1071 57.5184 0.0000 0.0000 0.0000
# 2 47.1071 104.8088 77.1745 0.0000 0.0000 0.0000
# 3 57.5184 77.1745 143.7298 0.0000 0.0000 0.0000
# 4 0.0000 0.0000 0.0000 7.9770 0.0000 0.0000
# 5 0.0000 0.0000 0.0000 0.0000 29.9090 0.0000
# 6 0.0000 0.0000 0.0000 0.0000 0.0000 17.4162
#
#
#
# Elastic Compliance Matrix: (Units=1/GPa)
#
#
# Indices 1 2 3 4 5 6 
#
# 1 0.079787 -0.020426 -0.020962 0.000000 0.000000 0.000000
# 2 -0.020426 0.021009 -0.003107 0.000000 0.000000 0.000000
# 3 -0.020962 -0.003107 0.017014 0.000000 0.000000 0.000000
# 4 0.000000 0.000000 0.000000 0.125360 0.000000 0.000000
# 5 0.000000 0.000000 0.000000 0.000000 0.033435 0.000000
# 6 0.000000 0.000000 0.000000 0.000000 0.000000 0.057418
#
#
# Mechanical properties :
#
#
# Convention : Reuss Voigt Hill
#
# Bulk Modulus (GPa) = 34.69619 72.42699 53.56159
# Shear Modulus (GPa) = 11.55750 18.15664 14.85707
#
# Velocity S-wave (km/s) = 2.76273 3.46277 3.13237
# Velocity P-wave (km/s) = 5.75244 7.98869 6.96095
#
# Compressibility (1/GPa) = 0.02882161
#
# Stress axis : x y z
#
# Youngs Moduli (GPa) = 12.53336 47.59813 58.77412
#
# Poissons Ratio (x) = 0.97223 1.23203
# Poissons Ratio (y) = 0.25600 0.18259
# Poissons Ratio (z) = 0.26273 0.14787
#
# Static dielectric constant tensor:
#      x y z
#    x 1.506470 0.000000 0.000000 
#    y 0.000000 1.504860 0.000000 
#    z 0.000000 0.000000 1.478600 
# 
# From -- ./inp_files/5668.got.cif
#   From: 2010.05.17/outbox.cif.g08.bks.cpg/sg25_3_cif.got.tgz:5668.got - 2010.06.04 01:04:00.
