data_PCOD9337709
_publ_section_title
;
Structure prediction by ZEFSAII (Michael W. Deem and Ramdas Pophale) SiO2 
 PCOD9337709
Probable space group: P M M 2
;
_chemical_formula_sum "Si O2"
_cell_formula_units_Z 28
_cell_length_a 9.512947
_cell_length_b 8.268228
_cell_length_c 18.878363
_cell_angle_alpha 90.000000
_cell_angle_beta 90.000000
_cell_angle_gamma 90.000000
_cell_volume 1484.881696
_symmetry_space_group_name_H-M "P M M 2"
_symmetry_group_IT_number 25
_symmetry_cell_setting 'orthorhombic'
loop_
_space_group_symop_operation_xyz
x,y,z
-x,-y,z
-x,y,z
x,-y,z
loop_
_atom_site_type_symbol
_atom_site_label
_atom_site_fract_x
_atom_site_fract_y
_atom_site_fract_z
Si Si1 0.338662 0.693307 0.767800
Si Si2 0.171150 0.187726 0.055318
Si Si3 0.662078 0.806993 0.613740
Si Si4 0.839379 0.305099 0.480098
Si Si5 0.338820 0.695438 0.344733
Si Si6 0.837746 0.804139 0.901849
Si Si7 0.837242 0.196145 0.210197
O O1 0.500000 0.750366 0.775343
O O2 0.337769 0.500000 0.764975
O O3 0.286892 0.757684 0.691977
O O4 0.250966 0.749466 0.835072
O O5 0.209447 0.257367 0.132069
O O6 0.000000 0.187095 0.054232
O O7 0.216974 0.000000 0.055926
O O8 0.214707 0.257161 0.979091
O O9 0.500000 0.747168 0.605986
O O10 0.759362 0.740600 0.551754
O O11 0.659836 0.000000 0.609237
O O12 0.844016 0.500000 0.475979
O O13 0.750542 0.246242 0.412389
O O14 0.000000 0.245099 0.478842
O O15 0.500000 0.752653 0.347623
O O16 0.340961 0.500000 0.347158
O O17 0.261563 0.747043 0.273049
O O18 0.000000 0.753130 0.893255
O O19 0.836462 0.000000 0.904988
O O20 0.000000 0.246192 0.222329
O O21 0.836855 0.000000 0.207705
#
# Coordination Sequence:
#
# PCOD9337709 Si02
#       7
#     4   4   4   4   4   4   4
#     4  10  21  36  53  74 103 139 174 207 248 299
#     4   7  12  26  48  73 100 130 166 209 256 303
#     4  10  21  37  57  79 102 131 168 208 251 300
#     4  10  21  37  57  79 102 131 168 208 251 300
#     4  10  21  36  53  74 103 139 174 207 248 299
#     4   9  17  31  53  78 102 131 170 215 259 302
#     4   9  17  31  53  78 102 131 170 215 259 302
#
# _framework density 18.856721
#
# number of rings (size 3 to 8) (size 9 to 14) (size 15 to 20)
#    0.000    2.714    0.000    3.429    0.000    5.143 
#    0.000    1.429    0.000    6.857    0.000    0.000 
#    0.000    0.000    0.000    0.000    0.000    0.000 
#
# Total GULP energy -156115.701104 kJ/mol
# GULP energy per Si atom -5575.560754 kJ/mol
# Density = 1.881380 g / cm^3
# Si number density = 18.856721 Si / 1000 Ang^3
#
#
#
# Elastic Constant Matrix: (Units=GPa)
#
#
# Indices 1 2 3 4 5 6 
#
# 1 104.1142 14.8763 106.3888 0.0000 0.0000 0.0000
# 2 14.8763 8.1907 13.8470 0.0000 0.0000 0.0000
# 3 106.3888 13.8470 221.6753 0.0000 0.0000 0.0000
# 4 0.0000 0.0000 0.0000 38.9151 0.0000 0.0000
# 5 0.0000 0.0000 0.0000 0.0000 100.9856 0.0000
# 6 0.0000 0.0000 0.0000 0.0000 0.0000 22.4141
#
#
#
# Elastic Compliance Matrix: (Units=1/GPa)
#
#
# Indices 1 2 3 4 5 6 
#
# 1 0.022827 -0.025647 -0.009353 0.000000 0.000000 0.000000
# 2 -0.025647 0.165319 0.001982 0.000000 0.000000 0.000000
# 3 -0.009353 0.001982 0.008876 0.000000 0.000000 0.000000
# 4 0.000000 0.000000 0.000000 0.025697 0.000000 0.000000
# 5 0.000000 0.000000 0.000000 0.000000 0.009902 0.000000
# 6 0.000000 0.000000 0.000000 0.000000 0.000000 0.044615
#
#
# Mechanical properties :
#
#
# Convention : Reuss Voigt Hill
#
# Bulk Modulus (GPa) = 7.63439 67.13384 37.38411
# Shear Modulus (GPa) = 12.92205 45.72083 29.32144
#
# Velocity S-wave (km/s) = 2.62062 4.92941 3.94758
# Velocity P-wave (km/s) = 3.63514 8.25095 6.37544
#
# Compressibility (1/GPa) = 0.13098630
#
# Stress axis : x y z
#
# Youngs Moduli (GPa) = 43.80757 6.04890 112.65978
#
# Poissons Ratio (x) = 0.15513 1.05375
# Poissons Ratio (y) = 1.12352 -0.22329
# Poissons Ratio (z) = 0.40975 -0.01199
#
# Static dielectric constant tensor:
#      x y z
#    x 1.640580 0.000000 0.000000 
#    y 0.000000 1.664830 0.000000 
#    z 0.000000 0.000000 1.658290 
# 
# From -- ./inp_files/6152.got.cif
#   From: 2010.05.17/outbox.cif.g08.bks.cpg/sg25_4_cif.got.tgz:6152.got - 2010.06.04 01:04:00.
