data_PCOD9337972
_publ_section_title
;
Structure prediction by ZEFSAII (Michael W. Deem and Ramdas Pophale) SiO2 
 PCOD9337972
Probable space group: P M C 21
;
_chemical_formula_sum "Si O2"
_cell_formula_units_Z 32
_cell_length_a 7.558788
_cell_length_b 10.876696
_cell_length_c 14.576145
_cell_angle_alpha 90.000000
_cell_angle_beta 90.000000
_cell_angle_gamma 90.000000
_cell_volume 1198.372502
_symmetry_space_group_name_H-M "P M C 21"
_symmetry_group_IT_number 26
_symmetry_cell_setting 'orthorhombic'
loop_
_space_group_symop_operation_xyz
x,y,z
-x,-y,1/2+z
-x,y,z
x,-y,1/2+z
loop_
_atom_site_type_symbol
_atom_site_label
_atom_site_fract_x
_atom_site_fract_y
_atom_site_fract_z
Si Si1 0.714947 0.972862 0.026190
Si Si2 0.706104 0.443960 0.364425
Si Si3 0.200679 0.210144 0.908134
Si Si4 0.785432 0.346666 0.078477
Si Si5 0.787895 0.199182 0.253476
Si Si6 0.705059 0.415100 0.697495
Si Si7 0.699910 0.067795 0.730556
Si Si8 0.716779 0.704290 0.025085
O O1 0.500000 0.986737 0.023673
O O2 0.784596 0.960006 0.131188
O O3 0.761802 0.837968 0.987307
O O4 0.788667 0.085269 0.968448
O O5 0.500000 0.473599 0.377017
O O6 0.714804 0.313342 0.311068
O O7 0.786151 0.542703 0.293994
O O8 0.786153 0.405937 0.461575
O O9 0.283170 0.312323 0.976788
O O10 0.257313 0.170465 0.806432
O O11 0.000000 0.247520 0.899260
O O12 0.000000 0.357354 0.077744
O O13 0.742023 0.234344 0.147942
O O14 0.711623 0.465103 0.130953
O O15 0.000000 0.198249 0.262326
O O16 0.715499 0.065708 0.278441
O O17 0.500000 0.387461 0.715400
O O18 0.779367 0.312260 0.629765
O O19 0.500000 0.094810 0.704929
O O20 0.500000 0.697392 0.026331
#
# Coordination Sequence:
#
# PCOD9337972 Si02
#       8
#     4   4   4   4   4   4   4   4
#     4  10  21  37  57  81 115 151 185 233 283 333
#     4   9  17  31  54  81 106 139 183 230 275 325
#     4  11  22  37  57  81 112 149 185 226 278 339
#     4   9  19  35  54  76 105 138 175 224 275 320
#     4  10  18  32  54  78 106 141 180 227 273 325
#     4   9  18  33  55  80 104 137 180 225 273 326
#     4  11  22  34  51  81 114 148 184 225 278 336
#     4   9  18  35  54  78 110 143 180 226 277 326
#
# _framework density 26.702881000000001
#
# number of rings (size 3 to 8) (size 9 to 14) (size 15 to 20)
#    0.000    2.250    1.250    1.875    0.000    3.000 
#    2.250    1.250    0.000    0.000    0.000    0.000 
#    0.000    0.000    0.000    0.000    0.000    0.000 
#
# Total GULP energy -178912.484039 kJ/mol
# GULP energy per Si atom -5591.015126 kJ/mol
# Density = 2.664210 g / cm^3
# Si number density = 26.702881 Si / 1000 Ang^3
#
#
#
# Elastic Constant Matrix: (Units=GPa)
#
#
# Indices 1 2 3 4 5 6 
#
# 1 81.0441 4.4245 10.5380 0.0000 0.0000 0.0000
# 2 4.4245 113.6660 20.3392 0.0000 0.0000 0.0000
# 3 10.5380 20.3392 166.1918 0.0000 0.0000 0.0000
# 4 0.0000 0.0000 0.0000 60.2775 0.0000 0.0000
# 5 0.0000 0.0000 0.0000 0.0000 11.1023 0.0000
# 6 0.0000 0.0000 0.0000 0.0000 0.0000 33.1792
#
#
#
# Elastic Compliance Matrix: (Units=1/GPa)
#
#
# Indices 1 2 3 4 5 6 
#
# 1 0.012455 -0.000351 -0.000747 0.000000 0.000000 0.000000
# 2 -0.000351 0.009005 -0.001080 0.000000 0.000000 0.000000
# 3 -0.000747 -0.001080 0.006197 0.000000 0.000000 0.000000
# 4 0.000000 0.000000 0.000000 0.016590 0.000000 0.000000
# 5 0.000000 0.000000 0.000000 0.000000 0.090072 0.000000
# 6 0.000000 0.000000 0.000000 0.000000 0.000000 0.030139
#
#
# Mechanical properties :
#
#
# Convention : Reuss Voigt Hill
#
# Bulk Modulus (GPa) = 42.91661 47.94503 45.43082
# Shear Modulus (GPa) = 28.31578 42.61848 35.46713
#
# Velocity S-wave (km/s) = 3.25991 3.99936 3.64842
# Velocity P-wave (km/s) = 5.50238 6.27061 5.89901
#
# Compressibility (1/GPa) = 0.02330100
#
# Stress axis : x y z
#
# Youngs Moduli (GPa) = 80.28753 111.05451 161.37778
#
# Poissons Ratio (x) = 0.03900 0.12052
# Poissons Ratio (y) = 0.02820 0.17425
# Poissons Ratio (z) = 0.05996 0.11991
#
# Static dielectric constant tensor:
#      x y z
#    x 1.982450 0.000000 0.000000 
#    y 0.000000 2.118510 0.000000 
#    z 0.000000 0.000000 2.188350 
# 
# From -- ./inp_files/4148.got.cif
#   From: 2010.05.17/outbox.cif.g08.bks.cpg/sg26_3_cif.got.tgz:4148.got - 2010.06.04 01:07:29.
