data_PCOD9337105
_publ_section_title
;
Structure prediction by ZEFSAII (Michael W. Deem and Ramdas Pophale) SiO2 
 PCOD9337105
Probable space group: P M M 2
;
_chemical_formula_sum "Si O2"
_cell_formula_units_Z 32
_cell_length_a 7.532638
_cell_length_b 16.179786
_cell_length_c 12.175982
_cell_angle_alpha 90.000000
_cell_angle_beta 90.000000
_cell_angle_gamma 90.000000
_cell_volume 1483.965715
_symmetry_space_group_name_H-M "P M M 2"
_symmetry_group_IT_number 25
_symmetry_cell_setting 'orthorhombic'
loop_
_space_group_symop_operation_xyz
x,y,z
-x,-y,z
-x,y,z
x,-y,z
loop_
_atom_site_type_symbol
_atom_site_label
_atom_site_fract_x
_atom_site_fract_y
_atom_site_fract_z
Si Si1 0.282643 0.908633 0.660090
Si Si2 0.210458 0.909075 0.181190
Si Si3 0.283485 0.344357 0.420997
Si Si4 0.292728 0.250220 0.789987
Si Si5 0.286012 0.153280 0.422175
Si Si6 0.714024 0.591324 0.185627
Si Si7 0.209788 0.752949 0.043426
Si Si8 0.282709 0.408349 0.658845
O O1 0.500000 0.909260 0.661980
O O2 0.219358 0.833681 0.736530
O O3 0.228356 0.889885 0.534668
O O4 0.224192 0.000000 0.694127
O O5 0.232501 0.891155 0.310346
O O6 0.282830 0.830797 0.113206
O O7 0.000000 0.911840 0.159906
O O8 0.284251 0.000000 0.154169
O O9 0.500000 0.344661 0.420209
O O10 0.226271 0.248718 0.420636
O O11 0.224418 0.388180 0.309341
O O12 0.229982 0.387989 0.533701
O O13 0.500000 0.250243 0.758463
O O14 0.219262 0.334012 0.736324
O O15 0.281402 0.250228 0.920498
O O16 0.500000 0.154277 0.424052
O O17 0.500000 0.588947 0.188653
O O18 0.776276 0.500000 0.151290
O O19 0.760706 0.667409 0.107497
O O20 0.000000 0.764166 0.033494
O O21 0.500000 0.409232 0.661264
O O22 0.223829 0.500000 0.691151
#
# Coordination Sequence:
#
# PCOD9337105 Si02
#       8
#     4   4   4   4   4   4   4   4
#     4   9  17  30  51  81 112 138 168 215 274 325
#     4  10  22  39  56  76 106 144 184 225 272 326
#     4   9  15  27  51  83 114 138 165 209 262 315
#     4  10  20  35  54  76 103 138 181 225 263 312
#     4  10  17  30  56  86 113 139 170 215 271 327
#     4  10  20  35  58  86 113 141 176 219 265 320
#     4  11  24  40  56  75 104 145 187 231 276 317
#     4   9  16  28  50  80 110 137 166 206 259 313
#
# _framework density 21.563839999999999
#
# number of rings (size 3 to 8) (size 9 to 14) (size 15 to 20)
#    0.000    2.250    2.500    1.125    0.000    4.000 
#    0.000    1.875    0.000    1.500    0.000    0.000 
#    0.000    0.000    0.000    0.000    0.000    0.000 
#
# Total GULP energy -178750.594051 kJ/mol
# GULP energy per Si atom -5585.956064 kJ/mol
# Density = 2.151476 g / cm^3
# Si number density = 21.563840 Si / 1000 Ang^3
#
#
#
# Elastic Constant Matrix: (Units=GPa)
#
#
# Indices 1 2 3 4 5 6 
#
# 1 51.1577 4.5317 -12.3033 0.0000 0.0000 0.0000
# 2 4.5317 231.9765 94.2861 0.0000 0.0000 0.0000
# 3 -12.3033 94.2861 134.4609 0.0000 0.0000 0.0000
# 4 0.0000 0.0000 0.0000 1.2958 0.0000 0.0000
# 5 0.0000 0.0000 0.0000 0.0000 79.8592 0.0000
# 6 0.0000 0.0000 0.0000 0.0000 0.0000 6.6132
#
#
#
# Elastic Compliance Matrix: (Units=1/GPa)
#
#
# Indices 1 2 3 4 5 6 
#
# 1 0.020413 -0.001620 0.003003 0.000000 0.000000 0.000000
# 2 -0.001620 0.006158 -0.004466 0.000000 0.000000 0.000000
# 3 0.003003 -0.004466 0.010844 0.000000 0.000000 0.000000
# 4 0.000000 0.000000 0.000000 0.771731 0.000000 0.000000
# 5 0.000000 0.000000 0.000000 0.000000 0.012522 0.000000
# 6 0.000000 0.000000 0.000000 0.000000 0.000000 0.151212
#
#
# Mechanical properties :
#
#
# Convention : Reuss Voigt Hill
#
# Bulk Modulus (GPa) = 31.99977 65.62489 48.81233
# Shear Modulus (GPa) = 5.05326 39.62568 22.33947
#
# Velocity S-wave (km/s) = 1.53248 4.29137 3.22214
# Velocity P-wave (km/s) = 4.24300 7.41980 6.04386
#
# Compressibility (1/GPa) = 0.03125022
#
# Stress axis : x y z
#
# Youngs Moduli (GPa) = 48.98795 162.40067 92.22069
#
# Poissons Ratio (x) = 0.26301 -0.27698
# Poissons Ratio (y) = 0.07934 0.41186
# Poissons Ratio (z) = -0.14713 0.72528
#
# Static dielectric constant tensor:
#      x y z
#    x 1.826050 0.000000 0.000000 
#    y 0.000000 1.792150 0.000000 
#    z 0.000000 0.000000 1.724190 
# 
# From -- ./inp_files/4221.got.cif
#   From: 2010.05.17/outbox.cif.g08.bks.cpg/sg25_3_cif.got.tgz:4221.got - 2010.06.04 01:04:00.
