data_PCOD9337346
_publ_section_title
;
Structure prediction by ZEFSAII (Michael W. Deem and Ramdas Pophale) SiO2 
 PCOD9337346
Probable space group: P M M 2
;
_chemical_formula_sum "Si O2"
_cell_formula_units_Z 22
_cell_length_a 9.507565
_cell_length_b 7.768612
_cell_length_c 16.499060
_cell_angle_alpha 90.000000
_cell_angle_beta 90.000000
_cell_angle_gamma 90.000000
_cell_volume 1218.630200
_symmetry_space_group_name_H-M "P M M 2"
_symmetry_group_IT_number 25
_symmetry_cell_setting 'orthorhombic'
loop_
_space_group_symop_operation_xyz
x,y,z
-x,-y,z
-x,y,z
x,-y,z
loop_
_atom_site_type_symbol
_atom_site_label
_atom_site_fract_x
_atom_site_fract_y
_atom_site_fract_z
Si Si1 0.836751 0.000000 0.424850
Si Si2 0.168741 0.692035 0.533418
Si Si3 0.000000 0.000000 0.269378
Si Si4 0.000000 0.294647 0.137166
Si Si5 0.500000 0.500000 0.039565
Si Si6 0.838726 0.705449 0.851200
Si Si7 0.337625 0.206296 0.692325
Si Si8 0.734129 0.197068 0.026256
O O1 0.778794 0.169861 0.467368
O O2 0.862327 0.000000 0.328698
O O3 0.000000 0.000000 0.452161
O O4 0.192773 0.500000 0.502616
O O5 0.250339 0.719275 0.617164
O O6 0.000000 0.708109 0.548273
O O7 0.000000 0.171651 0.215761
O O8 0.000000 0.500000 0.153992
O O9 0.135076 0.243281 0.083949
O O10 0.620868 0.346751 0.037682
O O11 0.836309 0.500000 0.864962
O O12 0.738736 0.746346 0.775850
O O13 0.785898 0.792915 0.933125
O O14 0.000000 0.756056 0.833233
O O15 0.500000 0.264700 0.692108
O O16 0.336378 0.000000 0.684236
O O17 0.687513 0.000000 0.042751
#
# Coordination Sequence:
#
# PCOD9337346 Si02
#       8
#     2   4   1   2   1   4   4   4
#     4   8  18  36  59  94 127 144 187 248 315 376
#     4  10  19  35  61  87 118 158 199 246 305 372
#     4  10  22  38  70 106 126 154 196 268 338 372
#     4  12  22  42  70 101 135 164 217 276 322 387
#     4  12  26  42  64  94 132 182 220 264 328 388
#     4  11  23  39  58  84 125 167 221 273 320 362
#     4  11  24  37  53  84 122 168 218 266 307 362
#     4  12  24  42  66  95 128 179 224 271 327 383
#
# _framework density 18.053055000000001
#
# number of rings (size 3 to 8) (size 9 to 14) (size 15 to 20)
#    0.273    0.909    4.545    1.909    1.273    5.455 
#    0.000    0.000    0.000    0.000    4.727    0.000 
#    0.000    0.000    0.000    0.000    0.000    0.000 
#
# Total GULP energy -122473.131002 kJ/mol
# GULP energy per Si atom -5566.960500 kJ/mol
# Density = 1.801197 g / cm^3
# Si number density = 18.053055 Si / 1000 Ang^3
#
#
#
# Elastic Constant Matrix: (Units=GPa)
#
#
# Indices 1 2 3 4 5 6 
#
# 1 104.2025 62.4684 42.4721 0.0000 0.0000 0.0000
# 2 62.4684 166.3831 57.0210 0.0000 0.0000 0.0000
# 3 42.4721 57.0210 121.7595 0.0000 0.0000 0.0000
# 4 0.0000 0.0000 0.0000 1.5085 0.0000 0.0000
# 5 0.0000 0.0000 0.0000 0.0000 -5.6265 0.0000
# 6 0.0000 0.0000 0.0000 0.0000 0.0000 -0.8042
#
#
#
# Elastic Compliance Matrix: (Units=1/GPa)
#
#
# Indices 1 2 3 4 5 6 
#
# 1 0.013088 -0.003989 -0.002697 0.000000 0.000000 0.000000
# 2 -0.003989 0.008375 -0.002531 0.000000 0.000000 0.000000
# 3 -0.002697 -0.002531 0.010339 0.000000 0.000000 0.000000
# 4 0.000000 0.000000 0.000000 0.662926 0.000000 0.000000
# 5 0.000000 0.000000 0.000000 0.000000 -0.177730 0.000000
# 6 0.000000 0.000000 0.000000 0.000000 0.000000 -1.243488
#
#
# Mechanical properties :
#
#
# Convention : Reuss Voigt Hill
#
# Bulk Modulus (GPa) = 74.80736 79.58533 77.19634
# Shear Modulus (GPa) = -7.10631 14.37446 3.63408
#
# Velocity S-wave (km/s) = -1.98618 2.82482 1.42034
# Velocity P-wave (km/s) = 6.02226 7.40401 6.74859
#
# Compressibility (1/GPa) = 0.01336767
#
# Stress axis : x y z
#
# Youngs Moduli (GPa) = 76.40829 119.39816 96.72341
#
# Poissons Ratio (x) = 0.47634 0.26085
# Poissons Ratio (y) = 0.30483 0.24477
# Poissons Ratio (z) = 0.20607 0.30215
#
# Static dielectric constant tensor:
#      x y z
#    x 1.602700 0.000000 0.000000 
#    y 0.000000 1.658400 0.000000 
#    z 0.000000 0.000000 1.590820 
# 
# From -- ./inp_files/5427.got.cif
#   From: 2010.05.17/outbox.cif.g08.bks.cpg/sg25_3_cif.got.tgz:5427.got - 2010.06.04 01:04:00.
