data_PCOD9337445
_publ_section_title
;
Structure prediction by ZEFSAII (Michael W. Deem and Ramdas Pophale) SiO2 
 PCOD9337445
Probable space group: P M M 2
;
_chemical_formula_sum "Si O2"
_cell_formula_units_Z 24
_cell_length_a 9.439836
_cell_length_b 7.522648
_cell_length_c 16.175622
_cell_angle_alpha 90.000000
_cell_angle_beta 90.000000
_cell_angle_gamma 90.000000
_cell_volume 1148.672383
_symmetry_space_group_name_H-M "P M M 2"
_symmetry_group_IT_number 25
_symmetry_cell_setting 'orthorhombic'
loop_
_space_group_symop_operation_xyz
x,y,z
-x,-y,z
-x,y,z
x,-y,z
loop_
_atom_site_type_symbol
_atom_site_label
_atom_site_fract_x
_atom_site_fract_y
_atom_site_fract_z
Si Si1 0.827549 0.705909 0.185670
Si Si2 0.161991 0.285595 0.006168
Si Si3 0.160372 0.787104 0.688439
Si Si4 0.660586 0.286404 0.524555
Si Si5 0.835684 0.717974 0.366208
Si Si6 0.660004 0.212241 0.843562
O O1 0.780670 0.500000 0.186069
O O2 0.787175 0.781008 0.275136
O O3 0.000000 0.706321 0.185487
O O4 0.787542 0.782470 0.096294
O O5 0.155966 0.500000 0.012703
O O6 0.262397 0.241849 0.930344
O O7 0.000000 0.223970 0.990983
O O8 0.247154 0.753496 0.605156
O O9 0.245588 0.717073 0.767906
O O10 0.000000 0.717386 0.683739
O O11 0.150643 0.000000 0.697795
O O12 0.500000 0.219258 0.532428
O O13 0.653761 0.500000 0.517829
O O14 0.738977 0.222146 0.441770
O O15 0.834310 0.500000 0.364119
O O16 0.000000 0.769133 0.379128
O O17 0.500000 0.283248 0.842912
O O18 0.650621 0.000000 0.832091
#
# Coordination Sequence:
#
# PCOD9337445 Si02
#       6
#     4   4   4   4   4   4
#     4   7  11  22  42  68  96 125 158 196 236 276
#     4   9  17  30  50  76 102 127 159 200 242 282
#     4  10  21  37  56  74  91 119 162 205 243 287
#     4  10  20  32  48  74 105 132 158 192 237 287
#     4   8  13  24  44  68  95 128 163 198 235 275
#     4  10  21  36  52  70  95 128 162 196 239 291
#
# _framework density 20.893685999999999
#
# number of rings (size 3 to 8) (size 9 to 14) (size 15 to 20)
#    0.000    3.000    0.000    3.500    0.000    4.000 
#    0.000    0.833    0.000    4.000    0.000    2.333 
#    0.000    0.000    0.000    0.000    0.000    0.000 
#
# Total GULP energy -133870.172894 kJ/mol
# GULP energy per Si atom -5577.923871 kJ/mol
# Density = 2.084613 g / cm^3
# Si number density = 20.893686 Si / 1000 Ang^3
#
#
#
# Elastic Constant Matrix: (Units=GPa)
#
#
# Indices 1 2 3 4 5 6 
#
# 1 164.6978 7.6460 131.1373 0.0000 0.0000 0.0000
# 2 7.6460 54.0386 1.7244 0.0000 0.0000 0.0000
# 3 131.1373 1.7244 244.5944 0.0000 0.0000 0.0000
# 4 0.0000 0.0000 0.0000 35.8067 0.0000 0.0000
# 5 0.0000 0.0000 0.0000 0.0000 -52.4655 0.0000
# 6 0.0000 0.0000 0.0000 0.0000 0.0000 11.6158
#
#
#
# Elastic Compliance Matrix: (Units=1/GPa)
#
#
# Indices 1 2 3 4 5 6 
#
# 1 0.010689 -0.001330 -0.005721 0.000000 0.000000 0.000000
# 2 -0.001330 0.018675 0.000581 0.000000 0.000000 0.000000
# 3 -0.005721 0.000581 0.007152 0.000000 0.000000 0.000000
# 4 0.000000 0.000000 0.000000 0.027928 0.000000 0.000000
# 5 0.000000 0.000000 0.000000 0.000000 -0.019060 0.000000
# 6 0.000000 0.000000 0.000000 0.000000 0.000000 0.086090
#
#
# Mechanical properties :
#
#
# Convention : Reuss Voigt Hill
#
# Bulk Modulus (GPa) = 42.41633 82.70513 62.56073
# Shear Modulus (GPa) = 32.83606 20.51293 26.67450
#
# Velocity S-wave (km/s) = 3.96861 3.13673 3.57694
# Velocity P-wave (km/s) = 6.43001 7.26557 6.86052
#
# Compressibility (1/GPa) = 0.02357583
#
# Stress axis : x y z
#
# Youngs Moduli (GPa) = 93.55339 53.54776 139.82426
#
# Poissons Ratio (x) = 0.07121 0.80000
# Poissons Ratio (y) = 0.12441 -0.08128
# Poissons Ratio (z) = 0.53526 -0.03113
#
# Static dielectric constant tensor:
#      x y z
#    x 1.719770 0.000000 0.000000 
#    y 0.000000 1.812380 0.000000 
#    z 0.000000 0.000000 1.749460 
# 
# From -- ./inp_files/5257.got.cif
#   From: 2010.05.17/outbox.cif.g08.bks.cpg/sg25_3_cif.got.tgz:5257.got - 2010.06.04 01:04:00.
