data_PCOD9337476
_publ_section_title
;
Structure prediction by ZEFSAII (Michael W. Deem and Ramdas Pophale) SiO2 
 PCOD9337476
Probable space group: P M M 2
;
_chemical_formula_sum "Si O2"
_cell_formula_units_Z 32
_cell_length_a 8.992797
_cell_length_b 14.453987
_cell_length_c 15.874835
_cell_angle_alpha 90.000000
_cell_angle_beta 90.000000
_cell_angle_gamma 90.000000
_cell_volume 2063.439167
_symmetry_space_group_name_H-M "P M M 2"
_symmetry_group_IT_number 25
_symmetry_cell_setting 'orthorhombic'
loop_
_space_group_symop_operation_xyz
x,y,z
-x,-y,z
-x,y,z
x,-y,z
loop_
_atom_site_type_symbol
_atom_site_label
_atom_site_fract_x
_atom_site_fract_y
_atom_site_fract_z
Si Si1 0.178273 0.717444 0.703520
Si Si2 0.676748 0.893293 0.633385
Si Si3 0.821601 0.391613 0.872567
Si Si4 0.671122 0.387650 0.046459
Si Si5 0.177047 0.389983 0.220982
Si Si6 0.677960 0.608858 0.548340
Si Si7 0.822877 0.106803 0.449136
Si Si8 0.321945 0.282642 0.375740
O O1 0.250316 0.818312 0.694122
O O2 0.219574 0.667217 0.790638
O O3 0.238000 0.657440 0.625087
O O4 0.000000 0.723555 0.698987
O O5 0.500000 0.877702 0.626389
O O6 0.750055 0.880690 0.541359
O O7 0.701712 0.000000 0.658697
O O8 0.783224 0.500000 0.858608
O O9 0.000000 0.387029 0.883277
O O10 0.744346 0.358660 0.958382
O O11 0.500000 0.358181 0.052279
O O12 0.674096 0.500000 0.045210
O O13 0.761220 0.360251 0.129700
O O14 0.208292 0.500000 0.230780
O O15 0.256174 0.334502 0.295225
O O16 0.000000 0.377456 0.224544
O O17 0.500000 0.618652 0.561343
O O18 0.712913 0.500000 0.544114
O O19 0.714501 0.658703 0.460232
O O20 0.749421 0.181929 0.388611
O O21 0.000000 0.121365 0.455012
O O22 0.796484 0.000000 0.423964
O O23 0.500000 0.276397 0.369750
#
# Coordination Sequence:
#
# PCOD9337476 Si02
#       8
#     4   4   4   4   4   4   4   4
#     4  11  21  32  49  72  98 130 167 205 246 292
#     4  10  20  34  51  70  94 126 164 206 251 295
#     4   9  18  32  48  69  99 132 164 199 241 290
#     4   9  17  30  49  72  96 125 163 206 247 287
#     4  10  20  33  50  72 100 134 168 204 246 292
#     4  10  21  34  46  64  96 136 171 201 237 283
#     4  10  20  34  52  73  96 124 162 207 251 294
#     4  11  21  33  50  72  99 132 168 204 244 291
#
# _framework density 15.508089
#
# number of rings (size 3 to 8) (size 9 to 14) (size 15 to 20)
#    0.000    2.000    1.250    3.000    0.000    6.500 
#    0.000    1.250    0.000    0.000    0.000    0.875 
#    0.000    3.000    0.000    0.000    0.000    0.000 
#
# Total GULP energy -178595.522265 kJ/mol
# GULP energy per Si atom -5581.110071 kJ/mol
# Density = 1.547279 g / cm^3
# Si number density = 15.508089 Si / 1000 Ang^3
#
#
#
# Elastic Constant Matrix: (Units=GPa)
#
#
# Indices 1 2 3 4 5 6 
#
# 1 74.0552 58.0858 69.5272 0.0000 0.0000 0.0000
# 2 58.0858 95.2721 68.3680 0.0000 0.0000 0.0000
# 3 69.5272 68.3680 139.3151 0.0000 0.0000 0.0000
# 4 0.0000 0.0000 0.0000 8.2705 0.0000 0.0000
# 5 0.0000 0.0000 0.0000 0.0000 65.7342 0.0000
# 6 0.0000 0.0000 0.0000 0.0000 0.0000 25.4222
#
#
#
# Elastic Compliance Matrix: (Units=1/GPa)
#
#
# Indices 1 2 3 4 5 6 
#
# 1 0.033277 -0.012921 -0.010266 0.000000 0.000000 0.000000
# 2 -0.012921 0.021219 -0.003965 0.000000 0.000000 0.000000
# 3 -0.010266 -0.003965 0.014247 0.000000 0.000000 0.000000
# 4 0.000000 0.000000 0.000000 0.120911 0.000000 0.000000
# 5 0.000000 0.000000 0.000000 0.000000 0.015213 0.000000
# 6 0.000000 0.000000 0.000000 0.000000 0.000000 0.039336
#
#
# Mechanical properties :
#
#
# Convention : Reuss Voigt Hill
#
# Bulk Modulus (GPa) = 69.25747 77.84495 73.55121
# Shear Modulus (GPa) = 16.48423 27.39614 21.94018
#
# Velocity S-wave (km/s) = 3.26382 4.20762 3.76541
# Velocity P-wave (km/s) = 7.67849 8.59714 8.15077
#
# Compressibility (1/GPa) = 0.01443888
#
# Stress axis : x y z
#
# Youngs Moduli (GPa) = 30.05084 47.12721 70.18931
#
# Poissons Ratio (x) = 0.60894 0.72059
# Poissons Ratio (y) = 0.38829 0.27828
# Poissons Ratio (z) = 0.30851 0.18684
#
# Static dielectric constant tensor:
#      x y z
#    x 1.515020 0.000000 0.000000 
#    y 0.000000 1.512710 0.000000 
#    z 0.000000 0.000000 1.489520 
# 
# From -- ./inp_files/4901.got.cif
#   From: 2010.05.17/outbox.cif.g08.bks.cpg/sg25_3_cif.got.tgz:4901.got - 2010.06.04 01:04:00.
