data_PCOD9337933
_publ_section_title
;
Structure prediction by ZEFSAII (Michael W. Deem and Ramdas Pophale) SiO2 
 PCOD9337933
Probable space group: P M C 21
;
_chemical_formula_sum "Si O2"
_cell_formula_units_Z 24
_cell_length_a 10.737217
_cell_length_b 13.807232
_cell_length_c 7.441942
_cell_angle_alpha 90.000000
_cell_angle_beta 90.000000
_cell_angle_gamma 90.000000
_cell_volume 1103.277175
_symmetry_space_group_name_H-M "P M C 21"
_symmetry_group_IT_number 26
_symmetry_cell_setting 'orthorhombic'
loop_
_space_group_symop_operation_xyz
x,y,z
-x,-y,1/2+z
-x,y,z
x,-y,1/2+z
loop_
_atom_site_type_symbol
_atom_site_label
_atom_site_fract_x
_atom_site_fract_y
_atom_site_fract_z
Si Si1 0.000000 0.064578 0.065781
Si Si2 0.500000 0.068440 0.080274
Si Si3 0.143263 0.563988 0.368339
Si Si4 0.750810 0.167264 0.146587
Si Si5 0.749362 0.249500 0.735639
Si Si6 0.142506 0.645223 0.773542
Si Si7 0.000000 0.851323 0.161765
Si Si8 0.500000 0.148509 0.671895
O O1 0.874007 0.101357 0.160418
O O2 0.000000 0.112298 0.869264
O O3 0.000000 0.949532 0.050182
O O4 0.625417 0.107068 0.174695
O O5 0.500000 0.952797 0.067994
O O6 0.500000 0.113072 0.880396
O O7 0.231267 0.635673 0.257230
O O8 0.138676 0.608025 0.567150
O O9 0.180962 0.451989 0.376101
O O10 0.000000 0.566893 0.296935
O O11 0.770017 0.261568 0.269787
O O12 0.747934 0.206160 0.939781
O O13 0.873784 0.208729 0.643034
O O14 0.623883 0.211486 0.645909
O O15 0.000000 0.671906 0.821357
#
# Coordination Sequence:
#
# PCOD9337933 Si02
#       8
#     2   2   4   4   4   4   2   2
#     4  10  18  30  47  68  92 120 155 196 235 274
#     4  10  20  34  51  70  94 128 163 194 233 282
#     4   9  16  29  49  71  94 122 155 192 233 279
#     4   9  17  31  50  69  93 126 159 189 232 286
#     4   9  17  31  50  69  93 126 159 189 232 286
#     4   9  16  29  49  71  94 122 155 192 233 279
#     4  10  18  30  47  68  92 120 155 196 235 274
#     4  10  20  34  51  70  94 128 163 194 233 282
#
# _framework density 21.753371999999999
#
# number of rings (size 3 to 8) (size 9 to 14) (size 15 to 20)
#    0.000    2.667    1.667    1.000    0.000    0.000 
#    0.000    4.167    0.000    0.000    0.000    0.000 
#    0.000    0.000    0.000    0.000    0.000    0.000 
#
# Total GULP energy -134126.263195 kJ/mol
# GULP energy per Si atom -5588.594300 kJ/mol
# Density = 2.170386 g / cm^3
# Si number density = 21.753372 Si / 1000 Ang^3
#
#
#
# Elastic Constant Matrix: (Units=GPa)
#
#
# Indices 1 2 3 4 5 6 
#
# 1 131.4357 6.7581 66.1557 0.0000 0.0000 0.0000
# 2 6.7581 -31.8051 93.2690 0.0000 0.0000 0.0000
# 3 66.1557 93.2690 24.9966 0.0000 0.0000 0.0000
# 4 0.0000 0.0000 0.0000 27.6563 0.0000 0.0000
# 5 0.0000 0.0000 0.0000 0.0000 12.8044 0.0000
# 6 0.0000 0.0000 0.0000 0.0000 0.0000 36.0568
#
#
#
# Elastic Compliance Matrix: (Units=1/GPa)
#
#
# Indices 1 2 3 4 5 6 
#
# 1 0.009250 -0.005847 -0.002664 0.000000 0.000000 0.000000
# 2 -0.005847 0.001063 0.011508 0.000000 0.000000 0.000000
# 3 -0.002664 0.011508 0.004117 0.000000 0.000000 0.000000
# 4 0.000000 0.000000 0.000000 0.036158 0.000000 0.000000
# 5 0.000000 0.000000 0.000000 0.000000 0.078098 0.000000
# 6 0.000000 0.000000 0.000000 0.000000 0.000000 0.027734
#
#
# Mechanical properties :
#
#
# Convention : Reuss Voigt Hill
#
# Bulk Modulus (GPa) = 48.96232 50.77698 49.86965
# Shear Modulus (GPa) = 31.79965 12.53312 22.16639
#
# Velocity S-wave (km/s) = 3.82753 2.40291 3.19562
# Velocity P-wave (km/s) = 6.48769 5.57597 6.04903
#
# Compressibility (1/GPa) = 0.02042387
#
# Stress axis : x y z
#
# Youngs Moduli (GPa) = 108.11033 940.69118 242.88056
#
# Poissons Ratio (x) = 5.50013 0.64704
# Poissons Ratio (y) = 0.63211 -2.79503
# Poissons Ratio (z) = 0.28801 -10.82532
#
# Static dielectric constant tensor:
#      x y z
#    x 1.738420 0.000000 0.000000 
#    y 0.000000 1.791460 0.000000 
#    z 0.000000 0.000000 1.887620 
# 
# From -- ./inp_files/1874.got.cif
#   From: 2010.05.17/outbox.cif.g08.bks.cpg/sg26_1_cif.got.tgz:1874.got - 2010.06.04 01:07:29.
