data_PCOD9337232
_publ_section_title
;
Structure prediction by ZEFSAII (Michael W. Deem and Ramdas Pophale) SiO2 
 PCOD9337232
Probable space group: P M M 2
;
_chemical_formula_sum "Si O2"
_cell_formula_units_Z 20
_cell_length_a 9.261910
_cell_length_b 7.553871
_cell_length_c 15.151824
_cell_angle_alpha 90.000000
_cell_angle_beta 90.000000
_cell_angle_gamma 90.000000
_cell_volume 1060.071204
_symmetry_space_group_name_H-M "P M M 2"
_symmetry_group_IT_number 25
_symmetry_cell_setting 'orthorhombic'
loop_
_space_group_symop_operation_xyz
x,y,z
-x,-y,z
-x,y,z
x,-y,z
loop_
_atom_site_type_symbol
_atom_site_label
_atom_site_fract_x
_atom_site_fract_y
_atom_site_fract_z
Si Si1 0.672770 0.791161 0.913020
Si Si2 0.161091 0.705992 0.392996
Si Si3 0.674797 0.500000 0.052605
Si Si4 0.326017 0.500000 0.255920
Si Si5 0.164401 0.786792 0.735618
Si Si6 0.662706 0.711516 0.557735
O O1 0.500000 0.770329 0.900063
O O2 0.753967 0.730352 0.824567
O O3 0.700721 0.000000 0.927453
O O4 0.717662 0.671879 0.995990
O O5 0.140023 0.500000 0.420062
O O6 0.258841 0.671923 0.306189
O O7 0.249167 0.786793 0.474135
O O8 0.000000 0.779475 0.378095
O O9 0.500000 0.500000 0.055656
O O10 0.720563 0.500000 0.154153
O O11 0.500000 0.500000 0.264418
O O12 0.251571 0.738948 0.648070
O O13 0.000000 0.721079 0.732012
O O14 0.160039 0.000000 0.738982
O O15 0.500000 0.782908 0.563078
O O16 0.649555 0.500000 0.544998
#
# Coordination Sequence:
#
# PCOD9337232 Si02
#       6
#     4   4   2   2   4   4
#     4   9  18  34  53  73 102 137 173 217 264 307
#     4   8  15  27  44  68  98 127 158 201 248 298
#     4   9  18  31  52  79 100 127 173 220 262 313
#     4   9  15  27  46  69  96 125 163 210 254 303
#     4  10  21  35  49  69 102 139 171 208 256 309
#     4  10  19  30  49  75  99 128 167 208 247 297
#
# _framework density 18.866655999999999
#
# number of rings (size 3 to 8) (size 9 to 14) (size 15 to 20)
#    0.600    2.200    0.000    1.800    1.400    2.400 
#    0.000    2.000    0.000    1.200    0.000    2.800 
#    0.000    0.000    0.000    0.000    0.000    0.000 
#
# Total GULP energy -111337.195044 kJ/mol
# GULP energy per Si atom -5566.859752 kJ/mol
# Density = 1.882371 g / cm^3
# Si number density = 18.866656 Si / 1000 Ang^3
#
#
#
# Elastic Constant Matrix: (Units=GPa)
#
#
# Indices 1 2 3 4 5 6 
#
# 1 130.6854 25.7525 91.1233 0.0000 0.0000 0.0000
# 2 25.7525 50.5822 31.1867 0.0000 0.0000 0.0000
# 3 91.1233 31.1867 198.5601 0.0000 0.0000 0.0000
# 4 0.0000 0.0000 0.0000 -212.2893 0.0000 0.0000
# 5 0.0000 0.0000 0.0000 0.0000 -261.0654 0.0000
# 6 0.0000 0.0000 0.0000 0.0000 0.0000 6.7116
#
#
#
# Elastic Compliance Matrix: (Units=1/GPa)
#
#
# Indices 1 2 3 4 5 6 
#
# 1 0.011628 -0.002912 -0.004879 0.000000 0.000000 0.000000
# 2 -0.002912 0.022619 -0.002216 0.000000 0.000000 0.000000
# 3 -0.004879 -0.002216 0.007623 0.000000 0.000000 0.000000
# 4 0.000000 0.000000 0.000000 -0.004711 0.000000 0.000000
# 5 0.000000 0.000000 0.000000 0.000000 -0.003830 0.000000
# 6 0.000000 0.000000 0.000000 0.000000 0.000000 0.148996
#
#
# Mechanical properties :
#
#
# Convention : Reuss Voigt Hill
#
# Bulk Modulus (GPa) = 45.75435 75.10586 60.43010
# Shear Modulus (GPa) = 23.85220 -77.87761 -27.01271
#
# Velocity S-wave (km/s) = 3.55949 -6.43176 -3.78798
# Velocity P-wave (km/s) = 6.41852 3.90660 3.60110
#
# Compressibility (1/GPa) = 0.02185585
#
# Stress axis : x y z
#
# Youngs Moduli (GPa) = 86.00215 44.21111 131.17599
#
# Poissons Ratio (x) = 0.12873 0.63998
# Poissons Ratio (y) = 0.25042 0.29073
# Poissons Ratio (z) = 0.41959 0.09799
#
# Static dielectric constant tensor:
#      x y z
#    x 1.698190 0.000000 0.000000 
#    y 0.000000 1.737430 0.000000 
#    z 0.000000 0.000000 1.632930 
# 
# From -- ./inp_files/5158.got.cif
#   From: 2010.05.17/outbox.cif.g08.bks.cpg/sg25_3_cif.got.tgz:5158.got - 2010.06.04 01:04:00.
