data_PCOD9337945
_publ_section_title
;
Structure prediction by ZEFSAII (Michael W. Deem and Ramdas Pophale) SiO2 
 PCOD9337945
Probable space group: P M C 21
;
_chemical_formula_sum "Si O2"
_cell_formula_units_Z 16
_cell_length_a 10.992215
_cell_length_b 7.899277
_cell_length_c 7.643489
_cell_angle_alpha 90.000000
_cell_angle_beta 90.000000
_cell_angle_gamma 90.000000
_cell_volume 663.688362
_symmetry_space_group_name_H-M "P M C 21"
_symmetry_group_IT_number 26
_symmetry_cell_setting 'orthorhombic'
loop_
_space_group_symop_operation_xyz
x,y,z
-x,-y,1/2+z
-x,y,z
x,-y,1/2+z
loop_
_atom_site_type_symbol
_atom_site_label
_atom_site_fract_x
_atom_site_fract_y
_atom_site_fract_z
Si Si1 0.500000 0.101764 0.415401
Si Si2 0.248781 0.082101 0.222991
Si Si3 0.500000 0.273483 0.795483
Si Si4 0.755562 0.726355 0.353020
Si Si5 0.000000 0.432666 0.957922
Si Si6 0.000000 0.228979 0.324055
O O1 0.373694 0.138322 0.316082
O O2 0.500000 0.194430 0.600947
O O3 0.500000 0.894577 0.420779
O O4 0.123903 0.124840 0.323034
O O5 0.247755 0.878182 0.212515
O O6 0.244459 0.174338 0.037540
O O7 0.373340 0.368260 0.830300
O O8 0.876376 0.616629 0.356418
O O9 0.000000 0.633493 0.975710
O O10 0.000000 0.332906 0.140435
#
# Coordination Sequence:
#
# PCOD9337945 Si02
#       6
#     2   4   2   4   2   2
#     4  10  18  30  51  80 107 136 170 212 260 308
#     4  10  19  34  55  81 107 136 172 215 260 309
#     4  10  18  30  51  80 107 136 170 212 260 308
#     4  10  19  34  55  81 107 136 172 215 260 309
#     4  10  23  38  54  76 106 140 177 216 260 308
#     4  10  23  38  54  76 106 140 177 216 260 308
#
# _framework density 24.107700000000001
#
# number of rings (size 3 to 8) (size 9 to 14) (size 15 to 20)
#    0.000    2.000    0.000    7.500    0.000    4.000 
#    0.000    1.250    0.000    0.000    0.000    0.000 
#    0.000    0.000    0.000    0.000    0.000    0.000 
#
# Total GULP energy -89471.637867 kJ/mol
# GULP energy per Si atom -5591.977367 kJ/mol
# Density = 2.405283 g / cm^3
# Si number density = 24.107700 Si / 1000 Ang^3
#
#
#
# Elastic Constant Matrix: (Units=GPa)
#
#
# Indices 1 2 3 4 5 6 
#
# 1 234.5553 30.4283 31.1018 0.0000 0.0000 0.0000
# 2 30.4283 19.4230 -10.2451 0.0000 0.0000 0.0000
# 3 31.1018 -10.2451 65.2747 0.0000 0.0000 0.0000
# 4 0.0000 0.0000 0.0000 20.4702 0.0000 0.0000
# 5 0.0000 0.0000 0.0000 0.0000 38.6304 0.0000
# 6 0.0000 0.0000 0.0000 0.0000 0.0000 -13.3300
#
#
#
# Elastic Compliance Matrix: (Units=1/GPa)
#
#
# Indices 1 2 3 4 5 6 
#
# 1 0.006678 -0.013235 -0.005259 0.000000 0.000000 0.000000
# 2 -0.013235 0.082365 0.019234 0.000000 0.000000 0.000000
# 3 -0.005259 0.019234 0.020845 0.000000 0.000000 0.000000
# 4 0.000000 0.000000 0.000000 0.048851 0.000000 0.000000
# 5 0.000000 0.000000 0.000000 0.000000 0.025886 0.000000
# 6 0.000000 0.000000 0.000000 0.000000 0.000000 -0.075018
#
#
# Mechanical properties :
#
#
# Convention : Reuss Voigt Hill
#
# Bulk Modulus (GPa) = 8.97937 46.86924 27.92431
# Shear Modulus (GPa) = 34.42327 27.01865 30.72096
#
# Velocity S-wave (km/s) = 3.78285 3.35139 3.57364
# Velocity P-wave (km/s) = 4.77627 5.87023 5.35127
#
# Compressibility (1/GPa) = 0.11136634
#
# Stress axis : x y z
#
# Youngs Moduli (GPa) = 149.75098 12.14101 47.97421
#
# Poissons Ratio (x) = 0.16069 0.25230
# Poissons Ratio (y) = 1.98203 -0.92273
# Poissons Ratio (z) = 0.78756 -0.23352
#
# Static dielectric constant tensor:
#      x y z
#    x 1.968900 0.000000 0.000000 
#    y 0.000000 1.873010 0.000000 
#    z 0.000000 0.000000 1.964450 
# 
# From -- ./inp_files/1679.got.cif
#   From: 2010.05.17/outbox.cif.g08.bks.cpg/sg26_1_cif.got.tgz:1679.got - 2010.06.04 01:07:29.
