data_PCOD9337369
_publ_section_title
;
Structure prediction by ZEFSAII (Michael W. Deem and Ramdas Pophale) SiO2 
 PCOD9337369
Probable space group: P M M 2
;
_chemical_formula_sum "Si O2"
_cell_formula_units_Z 28
_cell_length_a 9.749973
_cell_length_b 7.492306
_cell_length_c 18.725284
_cell_angle_alpha 90.000000
_cell_angle_beta 90.000000
_cell_angle_gamma 90.000000
_cell_volume 1367.877899
_symmetry_space_group_name_H-M "P M M 2"
_symmetry_group_IT_number 25
_symmetry_cell_setting 'orthorhombic'
loop_
_space_group_symop_operation_xyz
x,y,z
-x,-y,z
-x,y,z
x,-y,z
loop_
_atom_site_type_symbol
_atom_site_label
_atom_site_fract_x
_atom_site_fract_y
_atom_site_fract_z
Si Si1 0.156458 0.715016 0.491390
Si Si2 0.158645 0.719104 0.802844
Si Si3 0.345652 0.288147 0.932555
Si Si4 0.156981 0.217858 0.227504
Si Si5 0.654751 0.213180 0.356021
Si Si6 0.155053 0.214749 0.065803
Si Si7 0.166819 0.706067 0.646602
O O1 0.149529 0.500000 0.497457
O O2 0.257746 0.756754 0.427320
O O3 0.204348 0.783758 0.569384
O O4 0.000000 0.777513 0.477207
O O5 0.158901 0.500000 0.801240
O O6 0.255232 0.781611 0.866640
O O7 0.205078 0.781525 0.723939
O O8 0.000000 0.771352 0.814647
O O9 0.500000 0.215573 0.935795
O O10 0.355974 0.500000 0.920739
O O11 0.263397 0.264551 0.005948
O O12 0.261132 0.282226 0.287649
O O13 0.189327 0.274436 0.146414
O O14 0.000000 0.270641 0.243710
O O15 0.158924 0.000000 0.228001
O O16 0.500000 0.283498 0.360996
O O17 0.645584 0.000000 0.346844
O O18 0.000000 0.277301 0.048304
O O19 0.150407 0.000000 0.067741
O O20 0.213798 0.500000 0.646873
O O21 0.000000 0.705032 0.646530
#
# Coordination Sequence:
#
# PCOD9337369 Si02
#       7
#     4   4   4   4   4   4   4
#     4   9  17  30  49  72  96 121 152 192 235 276
#     4   8  13  24  44  66  88 118 155 193 231 268
#     4  10  20  31  44  68 101 130 155 185 224 273
#     4   8  15  30  51  71  89 113 151 196 234 270
#     4  10  20  32  47  69  96 125 156 188 225 273
#     4   9  18  33  53  74  92 114 151 196 236 275
#     4   7  11  22  42  67  90 113 148 193 233 268
#
# _framework density 20.469663000000001
#
# number of rings (size 3 to 8) (size 9 to 14) (size 15 to 20)
#    0.000    3.286    0.000    3.429    0.000    2.857 
#    0.000    2.857    0.000    4.286    0.000    2.000 
#    0.000    0.000    0.000    0.000    0.000    0.000 
#
# Total GULP energy -156104.618240 kJ/mol
# GULP energy per Si atom -5575.164937 kJ/mol
# Density = 2.042307 g / cm^3
# Si number density = 20.469663 Si / 1000 Ang^3
#
#
#
# Elastic Constant Matrix: (Units=GPa)
#
#
# Indices 1 2 3 4 5 6 
#
# 1 151.3317 6.0305 141.3837 0.0000 0.0000 0.0000
# 2 6.0305 55.5369 2.8999 0.0000 0.0000 0.0000
# 3 141.3837 2.8999 212.0353 0.0000 0.0000 0.0000
# 4 0.0000 0.0000 0.0000 22.0709 0.0000 0.0000
# 5 0.0000 0.0000 0.0000 0.0000 -8.2390 0.0000
# 6 0.0000 0.0000 0.0000 0.0000 0.0000 10.8893
#
#
#
# Elastic Compliance Matrix: (Units=1/GPa)
#
#
# Indices 1 2 3 4 5 6 
#
# 1 0.017619 -0.001301 -0.011731 0.000000 0.000000 0.000000
# 2 -0.001301 0.018115 0.000620 0.000000 0.000000 0.000000
# 3 -0.011731 0.000620 0.012530 0.000000 0.000000 0.000000
# 4 0.000000 0.000000 0.000000 0.045309 0.000000 0.000000
# 5 0.000000 0.000000 0.000000 0.000000 -0.121373 0.000000
# 6 0.000000 0.000000 0.000000 0.000000 0.000000 0.091833
#
#
# Mechanical properties :
#
#
# Convention : Reuss Voigt Hill
#
# Bulk Modulus (GPa) = 42.66154 79.94799 61.30477
# Shear Modulus (GPa) = 51.72270 22.85023 37.28646
#
# Velocity S-wave (km/s) = 5.03218 3.34473 4.27259
# Velocity P-wave (km/s) = 7.39259 7.35241 7.37253
#
# Compressibility (1/GPa) = 0.02344032
#
# Stress axis : x y z
#
# Youngs Moduli (GPa) = 56.75558 55.20304 79.81047
#
# Poissons Ratio (x) = 0.07180 0.93623
# Poissons Ratio (y) = 0.07382 -0.04945
# Poissons Ratio (z) = 0.66578 -0.03420
#
# Static dielectric constant tensor:
#      x y z
#    x 1.695820 0.000000 0.000000 
#    y 0.000000 1.810210 0.000000 
#    z 0.000000 0.000000 1.737010 
# 
# From -- ./inp_files/6225.got.cif
#   From: 2010.05.17/outbox.cif.g08.bks.cpg/sg25_4_cif.got.tgz:6225.got - 2010.06.04 01:04:00.
