data_PCOD9337871
_publ_section_title
;
Structure prediction by ZEFSAII (Michael W. Deem and Ramdas Pophale) SiO2 
 PCOD9337871
Probable space group: P M M 2
;
_chemical_formula_sum "Si O2"
_cell_formula_units_Z 28
_cell_length_a 9.000000
_cell_length_b 9.000000
_cell_length_c 18.000000
_cell_angle_alpha 90.000000
_cell_angle_beta 90.000000
_cell_angle_gamma 90.000000
_cell_volume 1458.000000
_symmetry_space_group_name_H-M "P M M 2"
_symmetry_group_IT_number 25
_symmetry_cell_setting 'orthorhombic'
loop_
_space_group_symop_operation_xyz
x,y,z
-x,-y,z
-x,y,z
x,-y,z
loop_
_atom_site_type_symbol
_atom_site_label
_atom_site_fract_x
_atom_site_fract_y
_atom_site_fract_z
Si Si1 0.162477 0.175579 0.166380
Si Si2 0.177909 0.328469 0.901910
Si Si3 0.669029 0.680584 0.464712
Si Si4 0.181839 0.831440 0.755148
Si Si5 0.672061 0.670270 0.044917
Si Si6 0.177808 0.329351 0.609157
Si Si7 0.831311 0.672461 0.323101
O O1 0.292720 0.242552 0.118568
O O2 0.173726 0.233279 0.249428
O O3 0.000000 0.227183 0.136978
O O4 0.165429 0.000000 0.164137
O O5 0.224642 0.500000 0.900662
O O6 0.233161 0.252390 0.827929
O O7 0.000000 0.323399 0.902758
O O8 0.239299 0.259565 0.976842
O O9 0.500000 0.715922 0.479397
O O10 0.685369 0.500000 0.461364
O O11 0.768151 0.735588 0.531926
O O12 0.723152 0.733316 0.385345
O O13 0.234527 0.756808 0.680087
O O14 0.000000 0.825200 0.754785
O O15 0.226928 0.000000 0.758360
O O16 0.500000 0.669187 0.026689
O O17 0.722715 0.500000 0.056093
O O18 0.227792 0.500000 0.614452
O O19 0.000000 0.329279 0.610326
O O20 0.796542 0.500000 0.305222
O O21 0.000000 0.674215 0.353217
#
# Coordination Sequence:
#
# PCOD9337871 Si02
#       7
#     4   4   4   4   4   4   4
#     4  10  21  36  54  77 104 134 169 208 251 300
#     4   9  17  31  52  75  98 126 162 204 248 293
#     4   9  17  29  47  72  98 124 159 202 244 287
#     4   9  17  29  47  72  98 124 159 202 244 287
#     4  10  21  36  54  77 104 134 169 208 251 300
#     4   9  16  28  48  71  94 122 158 199 242 288
#     4   9  17  31  52  75  98 126 162 204 248 293
#
# _framework density 19.20439
#
# number of rings (size 3 to 8) (size 9 to 14) (size 15 to 20)
#    0.000    2.714    0.000    1.714    0.000    6.286 
#    0.000    4.286    0.000    9.000    0.000    0.000 
#    0.000    0.000    0.000    0.000    0.000    0.000 
#
# Total GULP energy -155895.541040 kJ/mol
# GULP energy per Si atom -5567.697894 kJ/mol
# Density = 1.916068 g / cm^3
# Si number density = 19.204390 Si / 1000 Ang^3
#
#
#
# Elastic Constant Matrix: (Units=GPa)
#
#
# Indices 1 2 3 4 5 6 
#
# 1 -8.1295 20.4481 26.9569 0.0000 0.0000 0.0000
# 2 20.4481 24.9279 30.4857 0.0000 0.0000 0.0000
# 3 26.9569 30.4857 72.3398 0.0000 0.0000 0.0000
# 4 0.0000 0.0000 0.0000 86.6225 0.0000 0.0000
# 5 0.0000 0.0000 0.0000 0.0000 1200.1442 0.0000
# 6 0.0000 0.0000 0.0000 0.0000 0.0000 13.3724
#
#
#
# Elastic Compliance Matrix: (Units=1/GPa)
#
#
# Indices 1 2 3 4 5 6 
#
# 1 -0.039982 0.030077 0.002224 0.000000 0.000000 0.000000
# 2 0.030077 0.060152 -0.036558 0.000000 0.000000 0.000000
# 3 0.002224 -0.036558 0.028401 0.000000 0.000000 0.000000
# 4 0.000000 0.000000 0.000000 0.011544 0.000000 0.000000
# 5 0.000000 0.000000 0.000000 0.000000 0.000833 0.000000
# 6 0.000000 0.000000 0.000000 0.000000 0.000000 0.074781
#
#
# Mechanical properties :
#
#
# Convention : Reuss Voigt Hill
#
# Bulk Modulus (GPa) = 24.96373 27.21328 26.08851
# Shear Modulus (GPa) = 31.72678 260.77764 146.25221
#
# Velocity S-wave (km/s) = 4.06896 11.66557 8.73619
# Velocity P-wave (km/s) = 5.92473 13.98744 10.74129
#
# Compressibility (1/GPa) = 0.04005811
#
# Stress axis : x y z
#
# Youngs Moduli (GPa) = -25.01137 16.62462 35.20969
#
# Poissons Ratio (x) = -0.50002 -0.07829
# Poissons Ratio (y) = 0.75228 1.28718
# Poissons Ratio (z) = 0.05561 0.60775
#
# Static dielectric constant tensor:
#      x y z
#    x 1.622470 0.000000 0.000000 
#    y 0.000000 1.653200 0.000000 
#    z 0.000000 0.000000 1.690530 
# 
# From -- ./inp_files/6096.got.cif
#   From: 2010.05.17/outbox.ucp.g08.bks.cvg/sg25_4_cif.got.tgz:6096.got - 2010.06.11 15:23:09.
