data_PCOD9337104
_publ_section_title
;
Structure prediction by ZEFSAII (Michael W. Deem and Ramdas Pophale) SiO2 
 PCOD9337104
Probable space group: P M M 2
;
_chemical_formula_sum "Si O2"
_cell_formula_units_Z 32
_cell_length_a 16.030112
_cell_length_b 7.478222
_cell_length_c 12.333639
_cell_angle_alpha 90.000000
_cell_angle_beta 90.000000
_cell_angle_gamma 90.000000
_cell_volume 1478.516389
_symmetry_space_group_name_H-M "P M M 2"
_symmetry_group_IT_number 25
_symmetry_cell_setting 'orthorhombic'
loop_
_space_group_symop_operation_xyz
x,y,z
-x,-y,z
-x,y,z
x,-y,z
loop_
_atom_site_type_symbol
_atom_site_label
_atom_site_fract_x
_atom_site_fract_y
_atom_site_fract_z
Si Si1 0.093044 0.281733 0.440950
Si Si2 0.093569 0.718735 0.975296
Si Si3 0.592300 0.215828 0.973222
Si Si4 0.160289 0.716479 0.208197
Si Si5 0.749693 0.280336 0.582338
Si Si6 0.753589 0.711663 0.828696
Si Si7 0.591102 0.292417 0.448772
Si Si8 0.356272 0.792240 0.209687
O O1 0.093293 0.500000 0.440874
O O2 0.116157 0.225234 0.318785
O O3 0.165774 0.224456 0.522008
O O4 0.000000 0.223828 0.470456
O O5 0.094754 0.500000 0.974832
O O6 0.167483 0.782172 0.896706
O O7 0.000000 0.773854 0.944846
O O8 0.115203 0.774235 0.098128
O O9 0.500000 0.274538 0.937448
O O10 0.668417 0.265576 0.895630
O O11 0.592270 0.000000 0.977426
O O12 0.609664 0.281099 0.095883
O O13 0.160476 0.500000 0.208595
O O14 0.256337 0.774919 0.207559
O O15 0.749240 0.500000 0.580273
O O16 0.746793 0.219444 0.706465
O O17 0.669561 0.216950 0.514163
O O18 0.767975 0.500000 0.818622
O O19 0.500000 0.211698 0.469474
O O20 0.586754 0.500000 0.481071
O O21 0.609987 0.288840 0.320628
O O22 0.379736 0.000000 0.214427
#
# Coordination Sequence:
#
# PCOD9337104 Si02
#       8
#     4   4   4   4   4   4   4   4
#     4   9  16  27  49  79 107 136 170 211 260 312
#     4   9  17  29  49  80 113 139 169 216 266 308
#     4  10  22  39  56  75 104 140 174 215 269 321
#     4  10  17  30  53  78 106 138 175 215 260 315
#     4   9  18  32  50  77 109 137 172 218 259 299
#     4  10  20  34  55  81 107 139 180 222 259 302
#     4  10  20  35  55  77 104 139 174 212 261 313
#     4  11  21  34  55  80 107 136 169 214 267 318
#
# _framework density 21.643318000000001
#
# number of rings (size 3 to 8) (size 9 to 14) (size 15 to 20)
#    0.000    2.250    2.500    1.125    0.000    4.000 
#    0.000    4.375    0.000    2.625    0.000    0.000 
#    0.000    0.000    0.000    0.000    0.000    0.000 
#
# Total GULP energy -178783.007416 kJ/mol
# GULP energy per Si atom -5586.968982 kJ/mol
# Density = 2.159406 g / cm^3
# Si number density = 21.643318 Si / 1000 Ang^3
#
#
#
# Elastic Constant Matrix: (Units=GPa)
#
#
# Indices 1 2 3 4 5 6 
#
# 1 222.6443 -3.2185 108.5223 0.0000 0.0000 0.0000
# 2 -3.2185 59.5246 1.9300 0.0000 0.0000 0.0000
# 3 108.5223 1.9300 178.6707 0.0000 0.0000 0.0000
# 4 0.0000 0.0000 0.0000 -32.4887 0.0000 0.0000
# 5 0.0000 0.0000 0.0000 0.0000 1.9031 0.0000
# 6 0.0000 0.0000 0.0000 0.0000 0.0000 32.1948
#
#
#
# Elastic Compliance Matrix: (Units=1/GPa)
#
#
# Indices 1 2 3 4 5 6 
#
# 1 0.006394 0.000472 -0.003889 0.000000 0.000000 0.000000
# 2 0.000472 0.016840 -0.000468 0.000000 0.000000 0.000000
# 3 -0.003889 -0.000468 0.007964 0.000000 0.000000 0.000000
# 4 0.000000 0.000000 0.000000 -0.030780 0.000000 0.000000
# 5 0.000000 0.000000 0.000000 0.000000 0.525461 0.000000
# 6 0.000000 0.000000 0.000000 0.000000 0.000000 0.031061
#
#
# Mechanical properties :
#
#
# Convention : Reuss Voigt Hill
#
# Bulk Modulus (GPa) = 42.68484 75.03412 58.85948
# Shear Modulus (GPa) = 8.73333 23.89557 16.31445
#
# Velocity S-wave (km/s) = 2.01094 3.32635 2.74850
# Velocity P-wave (km/s) = 5.01564 7.03538 6.10955
#
# Compressibility (1/GPa) = 0.02342752
#
# Stress axis : x y z
#
# Youngs Moduli (GPa) = 156.40528 59.38073 125.56848
#
# Poissons Ratio (x) = -0.02801 0.48827
# Poissons Ratio (y) = -0.07379 0.05882
# Poissons Ratio (z) = 0.60818 0.02782
#
# Static dielectric constant tensor:
#      x y z
#    x 1.759850 0.000000 0.000000 
#    y 0.000000 1.833290 0.000000 
#    z 0.000000 0.000000 1.742780 
# 
# From -- ./inp_files/4228.got.cif
#   From: 2010.05.17/outbox.cif.g08.bks.cpg/sg25_3_cif.got.tgz:4228.got - 2010.06.04 01:04:00.
