data_PCOD9337049
_publ_section_title
;
Structure prediction by ZEFSAII (Michael W. Deem and Ramdas Pophale) SiO2 
 PCOD9337049
Probable space group: I 21 21 21
;
_chemical_formula_sum "Si O2"
_cell_formula_units_Z 28
_cell_length_a 15.000000
_cell_length_b 12.000000
_cell_length_c 15.000000
_cell_angle_alpha 90.000000
_cell_angle_beta 90.000000
_cell_angle_gamma 90.000000
_cell_volume 2700.000000
_symmetry_space_group_name_H-M "I 21 21 21"
_symmetry_group_IT_number 24
_symmetry_cell_setting 'orthorhombic'
loop_
_space_group_symop_operation_xyz
x,y,z
-x,1/2-y,z
x,-y,1/2-z
1/2-x,y,-z
1/2+x,1/2+y,1/2+z
1/2-x,-y,1/2+z
1/2+x,1/2-y,-z
-x,1/2+y,1/2-z
loop_
_atom_site_type_symbol
_atom_site_label
_atom_site_fract_x
_atom_site_fract_y
_atom_site_fract_z
Si Si1 0.768116 0.500000 0.750000
Si Si2 0.574459 0.906843 0.815341
Si Si3 0.878541 0.674412 0.247924
Si Si4 0.850942 0.722487 0.458829
Si Si5 0.576969 0.956605 0.164779
Si Si6 0.407605 0.894966 0.377953
Si Si7 0.000000 0.250000 0.757993
Si Si8 0.855488 0.976250 0.488386
O O1 0.702995 0.597851 0.779349
O O2 0.828903 0.462887 0.832417
O O3 0.624819 0.792019 0.800444
O O4 0.472682 0.880531 0.782742
O O5 0.593878 0.957117 0.911269
O O6 0.611485 0.000000 0.750000
O O7 0.866929 0.695458 0.354739
O O8 0.750000 0.716978 0.500000
O O9 0.899490 0.631262 0.519345
O O10 0.885962 0.847014 0.479191
O O11 0.527889 0.847199 0.193601
O O12 0.631143 0.000000 0.250000
O O13 0.499148 0.044889 0.144807
O O14 0.627998 0.951001 0.075445
O O15 0.417323 0.781042 0.321735
O O16 0.750000 0.962576 0.500000
#
# Coordination Sequence:
#
# PCOD9337049 Si02
#       8
#     4   8   8   8   8   8   4   8
#     4  12  22  42  66 108 138 180 240 294 360 444
#     4  11  24  45  69 101 145 191 240 303 372 441
#     4  11  25  42  72 102 144 196 241 298 374 437
#     4  11  22  39  67 103 132 177 237 303 345 417
#     4  10  22  41  65  94 128 177 224 282 356 427
#     4  11  22  39  66 101 136 173 229 292 353 430
#     4  10  20  38  62  90 130 180 212 272 362 418
#     4  11  26  45  67 101 136 179 248 301 362 435
#
# _framework density 10.370369999999999
#
# number of rings (size 3 to 8) (size 9 to 14) (size 15 to 20)
#    0.000    1.143    5.714    1.714    2.000    4.000 
#    0.000    0.000    3.143    0.000    0.000    0.000 
#    0.000    0.000    0.000    0.000    0.000    0.000 
#
# Total GULP energy -155942.386282 kJ/mol
# GULP energy per Si atom -5569.370939 kJ/mol
# Density = 1.034677 g / cm^3
# Si number density = 10.370370 Si / 1000 Ang^3
#
#
#
# Elastic Constant Matrix: (Units=GPa)
#
#
# Indices 1 2 3 4 5 6 
#
# 1 -1.7844 -27.5955 -35.7636 0.0000 0.0000 0.0000
# 2 -27.5955 54.5082 -9.4419 0.0000 0.0000 0.0000
# 3 -35.7636 -9.4419 74.9013 0.0000 0.0000 0.0000
# 4 0.0000 0.0000 0.0000 21.6706 0.0000 0.0000
# 5 0.0000 0.0000 0.0000 0.0000 52.5804 0.0000
# 6 0.0000 0.0000 0.0000 0.0000 0.0000 13.0963
#
#
#
# Elastic Compliance Matrix: (Units=1/GPa)
#
#
# Indices 1 2 3 4 5 6 
#
# 1 -0.026184 -0.015766 -0.014490 0.000000 0.000000 0.000000
# 2 -0.015766 0.009262 -0.006360 0.000000 0.000000 0.000000
# 3 -0.014490 -0.006360 0.005631 0.000000 0.000000 0.000000
# 4 0.000000 0.000000 0.000000 0.046145 0.000000 0.000000
# 5 0.000000 0.000000 0.000000 0.000000 0.019019 0.000000
# 6 0.000000 0.000000 0.000000 0.000000 0.000000 0.076357
#
#
# Mechanical properties :
#
#
# Convention : Reuss Voigt Hill
#
# Bulk Modulus (GPa) = -11.83108 -1.99744 -6.91426
# Shear Modulus (GPa) = 28.52450 30.83120 29.67785
#
# Velocity S-wave (km/s) = 3.71251 3.85970 3.78682
# Velocity P-wave (km/s) = 3.55814 4.34718 3.97230
#
# Compressibility (1/GPa) = -0.08452315
#
# Stress axis : x y z
#
# Youngs Moduli (GPa) = -38.19105 107.96345 177.60014
#
# Poissons Ratio (x) = 1.70215 2.57338
# Poissons Ratio (y) = -0.60212 1.12959
# Poissons Ratio (z) = -0.55338 0.68668
#
# Static dielectric constant tensor:
#      x y z
#    x 1.820750 0.000000 0.000000 
#    y 0.000000 1.744160 0.000000 
#    z 0.000000 0.000000 1.847250 
# 
# From -- ./inp_files/26554.got.cif
#   From: 2010.05.17/outbox.ucp.g08.bks.cvg/sg24_14_cif.got.tgz:26554.got - 2010.06.11 15:20:44.
