data_PCOD9337112
_publ_section_title
;
Structure prediction by ZEFSAII (Michael W. Deem and Ramdas Pophale) SiO2 
 PCOD9337112
Probable space group: P M M 2
;
_chemical_formula_sum "Si O2"
_cell_formula_units_Z 32
_cell_length_a 14.764529
_cell_length_b 7.535880
_cell_length_c 16.284538
_cell_angle_alpha 90.000000
_cell_angle_beta 90.000000
_cell_angle_gamma 90.000000
_cell_volume 1811.878257
_symmetry_space_group_name_H-M "P M M 2"
_symmetry_group_IT_number 25
_symmetry_cell_setting 'orthorhombic'
loop_
_space_group_symop_operation_xyz
x,y,z
-x,-y,z
-x,y,z
x,-y,z
loop_
_atom_site_type_symbol
_atom_site_label
_atom_site_fract_x
_atom_site_fract_y
_atom_site_fract_z
Si Si1 0.604764 0.715012 0.668550
Si Si2 0.898678 0.783174 0.754200
Si Si3 0.899332 0.213742 0.564535
Si Si4 0.603331 0.789348 0.984129
Si Si5 0.283245 0.790705 0.832121
Si Si6 0.606082 0.716705 0.342994
Si Si7 0.604930 0.713270 0.163836
Si Si8 0.294360 0.709580 0.504798
O O1 0.500000 0.771428 0.666646
O O2 0.606133 0.500000 0.668178
O O3 0.654373 0.772723 0.751550
O O4 0.658412 0.780188 0.587818
O O5 0.884880 0.728276 0.659200
O O6 0.815592 0.717881 0.808826
O O7 0.000000 0.729536 0.779360
O O8 0.897023 0.000000 0.753963
O O9 0.813239 0.268885 0.511902
O O10 0.000000 0.274014 0.538788
O O11 0.900586 0.000000 0.565179
O O12 0.500000 0.716759 0.981818
O O13 0.665206 0.715474 0.911251
O O14 0.595629 0.000000 0.970500
O O15 0.643302 0.765852 0.075547
O O16 0.269998 0.000000 0.847614
O O17 0.500000 0.765352 0.351287
O O18 0.608405 0.500000 0.342927
O O19 0.640662 0.773743 0.252633
O O20 0.662702 0.781325 0.420896
O O21 0.500000 0.773782 0.161965
O O22 0.605009 0.500000 0.165123
O O23 0.314262 0.500000 0.504698
#
# Coordination Sequence:
#
# PCOD9337112 Si02
#       8
#     4   4   4   4   4   4   4   4
#     4  10  20  30  39  57  88 120 144 168 204 247
#     4   8  14  26  44  62  79 104 140 179 213 245
#     4   9  17  30  46  62  83 112 144 179 218 254
#     4   9  17  27  39  59  86 111 136 172 216 251
#     4  10  18  29  45  62  82 112 148 178 206 249
#     4   8  14  26  44  64  86 113 145 177 209 250
#     4   8  14  26  44  62  79 106 143 176 206 246
#     4  10  18  28  44  65  87 112 143 178 213 248
#
# _framework density 17.661231000000001
#
# number of rings (size 3 to 8) (size 9 to 14) (size 15 to 20)
#    0.000    3.000    1.250    2.250    0.000    3.000 
#    0.000    1.875    0.000    2.250    0.000    0.875 
#    0.000    3.000    0.000    0.000    0.000    0.000 
#
# Total GULP energy -178309.824254 kJ/mol
# GULP energy per Si atom -5572.182008 kJ/mol
# Density = 1.762103 g / cm^3
# Si number density = 17.661231 Si / 1000 Ang^3
#
#
#
# Elastic Constant Matrix: (Units=GPa)
#
#
# Indices 1 2 3 4 5 6 
#
# 1 113.3533 -3.8676 79.0943 0.0000 0.0000 0.0000
# 2 -3.8676 39.3991 -0.7018 0.0000 0.0000 0.0000
# 3 79.0943 -0.7018 161.4606 0.0000 0.0000 0.0000
# 4 0.0000 0.0000 0.0000 16.5433 0.0000 0.0000
# 5 0.0000 0.0000 0.0000 0.0000 9.9536 0.0000
# 6 0.0000 0.0000 0.0000 0.0000 0.0000 -0.8771
#
#
#
# Elastic Compliance Matrix: (Units=1/GPa)
#
#
# Indices 1 2 3 4 5 6 
#
# 1 0.013460 0.001204 -0.006589 0.000000 0.000000 0.000000
# 2 0.001204 0.025491 -0.000479 0.000000 0.000000 0.000000
# 3 -0.006589 -0.000479 0.009419 0.000000 0.000000 0.000000
# 4 0.000000 0.000000 0.000000 0.060448 0.000000 0.000000
# 5 0.000000 0.000000 0.000000 0.000000 0.100466 0.000000
# 6 0.000000 0.000000 0.000000 0.000000 0.000000 -1.140074
#
#
# Mechanical properties :
#
#
# Convention : Reuss Voigt Hill
#
# Bulk Modulus (GPa) = 27.29031 51.47366 39.38198
# Shear Modulus (GPa) = -5.51360 21.10315 7.79478
#
# Velocity S-wave (km/s) = -1.76880 3.46046 2.10311
# Velocity P-wave (km/s) = 3.36365 6.72121 5.31455
#
# Compressibility (1/GPa) = 0.03664305
#
# Stress axis : x y z
#
# Youngs Moduli (GPa) = 74.29237 39.22959 106.16961
#
# Poissons Ratio (x) = -0.04723 0.69950
# Poissons Ratio (y) = -0.08945 0.05085
# Poissons Ratio (z) = 0.48948 0.01879
#
# Static dielectric constant tensor:
#      x y z
#    x 1.597700 0.000000 0.000000 
#    y 0.000000 1.673280 0.000000 
#    z 0.000000 0.000000 1.617930 
# 
# From -- ./inp_files/5665.got.cif
#   From: 2010.05.17/outbox.cif.g08.bks.cpg/sg25_3_cif.got.tgz:5665.got - 2010.06.04 01:04:00.
