data_PCOD9337376
_publ_section_title
;
Structure prediction by ZEFSAII (Michael W. Deem and Ramdas Pophale) SiO2 
 PCOD9337376
Probable space group: P M M 2
;
_chemical_formula_sum "Si O2"
_cell_formula_units_Z 32
_cell_length_a 9.563049
_cell_length_b 7.439478
_cell_length_c 21.831551
_cell_angle_alpha 90.000000
_cell_angle_beta 90.000000
_cell_angle_gamma 90.000000
_cell_volume 1553.185887
_symmetry_space_group_name_H-M "P M M 2"
_symmetry_group_IT_number 25
_symmetry_cell_setting 'orthorhombic'
loop_
_space_group_symop_operation_xyz
x,y,z
-x,-y,z
-x,y,z
x,-y,z
loop_
_atom_site_type_symbol
_atom_site_label
_atom_site_fract_x
_atom_site_fract_y
_atom_site_fract_z
Si Si1 0.160817 0.279911 0.092490
Si Si2 0.159824 0.216557 0.326741
Si Si3 0.829464 0.789982 0.460312
Si Si4 0.661755 0.718935 0.975745
Si Si5 0.341965 0.713824 0.207693
Si Si6 0.160754 0.215912 0.591355
Si Si7 0.841095 0.285575 0.724863
Si Si8 0.661393 0.719285 0.838872
O O1 0.160426 0.500000 0.092763
O O2 0.248428 0.217887 0.151436
O O3 0.000000 0.222578 0.095215
O O4 0.238487 0.222331 0.030443
O O5 0.208277 0.285541 0.393695
O O6 0.262006 0.259314 0.271437
O O7 0.000000 0.278971 0.314930
O O8 0.153054 0.000000 0.331383
O O9 0.780476 0.716322 0.526202
O O10 0.000000 0.783379 0.461985
O O11 0.788547 0.000000 0.459325
O O12 0.500000 0.773211 0.985557
O O13 0.662034 0.500000 0.976231
O O14 0.706090 0.774807 0.907299
O O15 0.500000 0.785896 0.208441
O O16 0.352341 0.500000 0.198364
O O17 0.224727 0.255281 0.657585
O O18 0.000000 0.282969 0.595213
O O19 0.155327 0.000000 0.586223
O O20 0.849908 0.500000 0.731993
O O21 0.754040 0.216344 0.782411
O O22 0.000000 0.213414 0.724951
O O23 0.500000 0.771945 0.830980
O O24 0.664529 0.500000 0.838433
#
# Coordination Sequence:
#
# PCOD9337376 Si02
#       8
#     4   4   4   4   4   4   4   4
#     4   9  16  25  39  60  85 112 142 178 219 258
#     4   9  17  30  49  71  91 112 144 187 229 267
#     4   7  11  22  41  63  84 106 135 172 212 253
#     4   8  13  22  36  54  77 106 140 174 207 249
#     4  10  20  32  45  63  91 125 154 180 215 262
#     4   8  13  23  40  60  82 109 138 167 205 254
#     4   9  16  24  36  58  85 107 132 172 212 241
#     4   8  14  24  37  53  77 111 143 167 201 253
#
# _framework density 20.602813000000001
#
# number of rings (size 3 to 8) (size 9 to 14) (size 15 to 20)
#    0.000    3.500    0.000    3.000    0.000    3.000 
#    0.000    3.125    0.000    3.375    0.000    4.375 
#    0.000    3.000    0.000    0.000    0.000    0.000 
#
# Total GULP energy -178286.478576 kJ/mol
# GULP energy per Si atom -5571.452456 kJ/mol
# Density = 2.055592 g / cm^3
# Si number density = 20.602813 Si / 1000 Ang^3
#
#
#
# Elastic Constant Matrix: (Units=GPa)
#
#
# Indices 1 2 3 4 5 6 
#
# 1 100.0727 4.8243 116.1893 0.0000 0.0000 0.0000
# 2 4.8243 63.4580 4.0089 0.0000 0.0000 0.0000
# 3 116.1893 4.0089 259.8612 0.0000 0.0000 0.0000
# 4 0.0000 0.0000 0.0000 19.4196 0.0000 0.0000
# 5 0.0000 0.0000 0.0000 0.0000 -31.6653 0.0000
# 6 0.0000 0.0000 0.0000 0.0000 0.0000 -1.5423
#
#
#
# Elastic Compliance Matrix: (Units=1/GPa)
#
#
# Indices 1 2 3 4 5 6 
#
# 1 0.020843 -0.000997 -0.009304 0.000000 0.000000 0.000000
# 2 -0.000997 0.015821 0.000202 0.000000 0.000000 0.000000
# 3 -0.009304 0.000202 0.008005 0.000000 0.000000 0.000000
# 4 0.000000 0.000000 0.000000 0.051494 0.000000 0.000000
# 5 0.000000 0.000000 0.000000 0.000000 -0.031580 0.000000
# 6 0.000000 0.000000 0.000000 0.000000 0.000000 -0.648388
#
#
# Mechanical properties :
#
#
# Convention : Reuss Voigt Hill
#
# Bulk Modulus (GPa) = 40.86409 74.82634 57.84521
# Shear Modulus (GPa) = -9.00174 17.13371 4.06599
#
# Velocity S-wave (km/s) = -2.09253 2.88691 1.40634
# Velocity P-wave (km/s) = 3.74687 6.89273 5.54747
#
# Compressibility (1/GPa) = 0.02447136
#
# Stress axis : x y z
#
# Youngs Moduli (GPa) = 47.97713 63.20518 124.91972
#
# Poissons Ratio (x) = 0.06300 1.16226
# Poissons Ratio (y) = 0.04782 -0.02518
# Poissons Ratio (z) = 0.44638 -0.01274
#
# Static dielectric constant tensor:
#      x y z
#    x 1.693400 0.000000 0.000000 
#    y 0.000000 1.814880 0.000000 
#    z 0.000000 0.000000 1.767580 
# 
# From -- ./inp_files/6296.got.cif
#   From: 2010.05.17/outbox.cif.g08.bks.cpg/sg25_4_cif.got.tgz:6296.got - 2010.06.04 01:04:00.
