data_PCOD9337581
_publ_section_title
;
Structure prediction by ZEFSAII (Michael W. Deem and Ramdas Pophale) SiO2 
 PCOD9337581
Probable space group: P M M 2
;
_chemical_formula_sum "Si O2"
_cell_formula_units_Z 29
_cell_length_a 7.610773
_cell_length_b 21.987128
_cell_length_c 8.106311
_cell_angle_alpha 90.000000
_cell_angle_beta 90.000000
_cell_angle_gamma 90.000000
_cell_volume 1356.502302
_symmetry_space_group_name_H-M "P M M 2"
_symmetry_group_IT_number 25
_symmetry_cell_setting 'orthorhombic'
loop_
_space_group_symop_operation_xyz
x,y,z
-x,-y,z
-x,y,z
x,-y,z
loop_
_atom_site_type_symbol
_atom_site_label
_atom_site_fract_x
_atom_site_fract_y
_atom_site_fract_z
Si Si1 0.701948 0.325698 0.048170
Si Si2 0.805107 0.397242 0.369616
Si Si3 0.792671 0.934083 0.064476
Si Si4 0.500000 0.500000 0.361408
Si Si5 0.713020 0.806869 0.534169
Si Si6 0.286459 0.317006 0.687144
Si Si7 0.204202 0.196891 0.160298
Si Si8 0.712740 0.065918 0.676985
O O1 0.500000 0.346232 0.054514
O O2 0.793328 0.355752 0.204939
O O3 0.706579 0.252654 0.067541
O O4 0.773941 0.340036 0.866159
O O5 0.653678 0.446991 0.362895
O O6 0.776585 0.355804 0.531906
O O7 0.000000 0.423818 0.377416
O O8 0.771236 0.931477 0.867027
O O9 0.000000 0.934694 0.104978
O O10 0.718770 0.000000 0.118961
O O11 0.719123 0.870648 0.131759
O O12 0.500000 0.807697 0.527851
O O13 0.765322 0.753248 0.658131
O O14 0.780754 0.790623 0.353978
O O15 0.775220 0.873829 0.585339
O O16 0.500000 0.319063 0.687934
O O17 0.000000 0.196441 0.109729
O O18 0.500000 0.067027 0.675752
O O19 0.769365 0.000000 0.608646
#
# Coordination Sequence:
#
# PCOD9337581 Si02
#       8
#     4   4   4   1   4   4   4   4
#     4  11  22  41  69  99 137 179 223 279 339 397
#     4  12  25  46  75 108 143 182 227 274 325 390
#     4   9  19  35  51  71 108 156 206 264 329 397
#     4  12  26  52  78 106 152 186 224 264 326 390
#     4  10  20  34  54  82 118 160 209 265 331 394
#     4  10  21  40  67  97 134 180 225 275 336 396
#     4  11  22  34  53  85 120 160 216 275 332 398
#     4   9  18  33  52  76 107 148 206 268 326 395
#
# _framework density 21.378509999999999
#
# number of rings (size 3 to 8) (size 9 to 14) (size 15 to 20)
#    0.000    1.655    2.759    1.862    0.000    4.414 
#    0.000    1.379    0.000    1.655    0.000    0.000 
#    0.000    0.000    0.000    0.000    0.000    0.000 
#
# Total GULP energy -161733.401276 kJ/mol
# GULP energy per Si atom -5577.013837 kJ/mol
# Density = 2.132985 g / cm^3
# Si number density = 21.378510 Si / 1000 Ang^3
#
#
#
# Elastic Constant Matrix: (Units=GPa)
#
#
# Indices 1 2 3 4 5 6 
#
# 1 93.7880 35.5011 12.5933 0.0000 0.0000 0.0000
# 2 35.5011 130.2493 44.4842 0.0000 0.0000 0.0000
# 3 12.5933 44.4842 121.8742 0.0000 0.0000 0.0000
# 4 0.0000 0.0000 0.0000 -11.6912 0.0000 0.0000
# 5 0.0000 0.0000 0.0000 0.0000 11.8344 0.0000
# 6 0.0000 0.0000 0.0000 0.0000 0.0000 -0.4079
#
#
#
# Elastic Compliance Matrix: (Units=1/GPa)
#
#
# Indices 1 2 3 4 5 6 
#
# 1 0.011889 -0.003223 -0.000052 0.000000 0.000000 0.000000
# 2 -0.003223 0.009645 -0.003187 0.000000 0.000000 0.000000
# 3 -0.000052 -0.003187 0.009374 0.000000 0.000000 0.000000
# 4 0.000000 0.000000 0.000000 -0.085534 0.000000 0.000000
# 5 0.000000 0.000000 0.000000 0.000000 0.084500 0.000000
# 6 0.000000 0.000000 0.000000 0.000000 0.000000 -2.451871
#
#
# Mechanical properties :
#
#
# Convention : Reuss Voigt Hill
#
# Bulk Modulus (GPa) = 55.60719 59.00763 57.30741
# Shear Modulus (GPa) = -2.08066 16.83592 7.37763
#
# Velocity S-wave (km/s) = -0.98760 2.80932 1.85969
# Velocity P-wave (km/s) = 4.97662 6.17934 5.61031
#
# Compressibility (1/GPa) = 0.01798329
#
# Stress axis : x y z
#
# Youngs Moduli (GPa) = 84.10960 103.68573 106.67888
#
# Poissons Ratio (x) = 0.33415 0.00557
# Poissons Ratio (y) = 0.27106 0.34001
# Poissons Ratio (z) = 0.00439 0.33047
#
# Static dielectric constant tensor:
#      x y z
#    x 1.769540 0.000000 0.000000 
#    y 0.000000 1.772230 0.000000 
#    z 0.000000 0.000000 1.747500 
# 
# From -- ./inp_files/2352.got.cif
#   From: 2010.05.17/outbox.cif.g08.bks.cpg/sg25_2_cif.got.tgz:2352.got - 2010.06.04 01:04:00.
