data_PCOD9337456
_publ_section_title
;
Structure prediction by ZEFSAII (Michael W. Deem and Ramdas Pophale) SiO2 
 PCOD9337456
Probable space group: P M M 2
;
_chemical_formula_sum "Si O2"
_cell_formula_units_Z 32
_cell_length_a 14.843566
_cell_length_b 8.075527
_cell_length_c 16.180280
_cell_angle_alpha 90.000000
_cell_angle_beta 90.000000
_cell_angle_gamma 90.000000
_cell_volume 1939.523983
_symmetry_space_group_name_H-M "P M M 2"
_symmetry_group_IT_number 25
_symmetry_cell_setting 'orthorhombic'
loop_
_space_group_symop_operation_xyz
x,y,z
-x,-y,z
-x,y,z
x,-y,z
loop_
_atom_site_type_symbol
_atom_site_label
_atom_site_fract_x
_atom_site_fract_y
_atom_site_fract_z
Si Si1 0.600045 0.698028 0.233320
Si Si2 0.897404 0.697280 0.457105
Si Si3 0.398956 0.802333 0.044975
Si Si4 0.785186 0.302473 0.975353
Si Si5 0.109234 0.807767 0.636327
Si Si6 0.896091 0.297736 0.135831
Si Si7 0.896618 0.199879 0.816390
Si Si8 0.212847 0.703167 0.299745
O O1 0.500000 0.765692 0.251883
O O2 0.596690 0.500000 0.244632
O O3 0.618443 0.729759 0.136371
O O4 0.684852 0.760979 0.285291
O O5 0.903504 0.500000 0.445863
O O6 0.863068 0.727329 0.550069
O O7 0.833798 0.760855 0.384106
O O8 0.000000 0.764398 0.450265
O O9 0.500000 0.748569 0.019743
O O10 0.317915 0.751877 0.985694
O O11 0.399245 0.000000 0.052467
O O12 0.787826 0.500000 0.978214
O O13 0.841350 0.240124 0.055261
O O14 0.833192 0.246442 0.891768
O O15 0.136423 0.738876 0.726117
O O16 0.000000 0.799407 0.638475
O O17 0.135312 0.000000 0.631906
O O18 0.895930 0.500000 0.134830
O O19 0.846408 0.247717 0.220150
O O20 0.000000 0.244245 0.133680
O O21 0.000000 0.257537 0.830843
O O22 0.900088 0.000000 0.810585
O O23 0.214284 0.500000 0.300368
#
# Coordination Sequence:
#
# PCOD9337456 Si02
#       8
#     4   4   4   4   4   4   4   4
#     4   9  16  28  46  65  85 112 150 193 232 270
#     4   9  16  25  41  64  87 113 147 186 222 260
#     4  10  20  33  48  65  87 117 153 193 235 276
#     4  11  20  30  46  69  93 120 154 191 228 268
#     4   8  15  29  46  62  85 118 150 182 225 270
#     4   9  16  25  38  59  89 122 151 176 209 258
#     4   9  18  32  48  66  92 125 155 186 228 276
#     4   9  15  25  40  62  89 117 147 181 224 270
#
# _framework density 16.498892999999999
#
# number of rings (size 3 to 8) (size 9 to 14) (size 15 to 20)
#    0.000    2.750    1.250    2.250    0.000    3.500 
#    0.000    1.875    0.000    0.000    0.000    0.875 
#    0.000    3.000    0.000    0.000    0.000    0.000 
#
# Total GULP energy -178292.719567 kJ/mol
# GULP energy per Si atom -5571.647486 kJ/mol
# Density = 1.646134 g / cm^3
# Si number density = 16.498893 Si / 1000 Ang^3
#
#
#
# Elastic Constant Matrix: (Units=GPa)
#
#
# Indices 1 2 3 4 5 6 
#
# 1 121.4518 8.1521 81.0553 0.0000 0.0000 0.0000
# 2 8.1521 8.7973 6.2947 0.0000 0.0000 0.0000
# 3 81.0553 6.2947 141.4642 0.0000 0.0000 0.0000
# 4 0.0000 0.0000 0.0000 34.8143 0.0000 0.0000
# 5 0.0000 0.0000 0.0000 0.0000 15.7387 0.0000
# 6 0.0000 0.0000 0.0000 0.0000 0.0000 12.0537
#
#
#
# Elastic Compliance Matrix: (Units=1/GPa)
#
#
# Indices 1 2 3 4 5 6 
#
# 1 0.013777 -0.007352 -0.007567 0.000000 0.000000 0.000000
# 2 -0.007352 0.121333 -0.001186 0.000000 0.000000 0.000000
# 3 -0.007567 -0.001186 0.011457 0.000000 0.000000 0.000000
# 4 0.000000 0.000000 0.000000 0.028724 0.000000 0.000000
# 5 0.000000 0.000000 0.000000 0.000000 0.063538 0.000000
# 6 0.000000 0.000000 0.000000 0.000000 0.000000 0.082962
#
#
# Mechanical properties :
#
#
# Convention : Reuss Voigt Hill
#
# Bulk Modulus (GPa) = 8.74457 51.41306 30.07881
# Shear Modulus (GPa) = 12.75117 24.26875 18.50996
#
# Velocity S-wave (km/s) = 2.78303 3.83943 3.35310
# Velocity P-wave (km/s) = 3.95457 7.13331 5.76727
#
# Compressibility (1/GPa) = 0.11435674
#
# Stress axis : x y z
#
# Youngs Moduli (GPa) = 72.58341 8.24177 87.28046
#
# Poissons Ratio (x) = 0.06060 0.66044
# Poissons Ratio (y) = 0.53367 0.10353
# Poissons Ratio (z) = 0.54923 0.00978
#
# Static dielectric constant tensor:
#      x y z
#    x 1.519600 0.000000 0.000000 
#    y 0.000000 1.590400 0.000000 
#    z 0.000000 0.000000 1.554770 
# 
# From -- ./inp_files/5695.got.cif
#   From: 2010.05.17/outbox.cif.g08.bks.cpg/sg25_3_cif.got.tgz:5695.got - 2010.06.04 01:04:00.
