data_PCOD9337152
_publ_section_title
;
Structure prediction by ZEFSAII (Michael W. Deem and Ramdas Pophale) SiO2 
 PCOD9337152
Probable space group: P M M 2
;
_chemical_formula_sum "Si O2"
_cell_formula_units_Z 32
_cell_length_a 14.601892
_cell_length_b 9.051658
_cell_length_c 15.890515
_cell_angle_alpha 90.000000
_cell_angle_beta 90.000000
_cell_angle_gamma 90.000000
_cell_volume 2100.270542
_symmetry_space_group_name_H-M "P M M 2"
_symmetry_group_IT_number 25
_symmetry_cell_setting 'orthorhombic'
loop_
_space_group_symop_operation_xyz
x,y,z
-x,-y,z
-x,y,z
x,-y,z
loop_
_atom_site_type_symbol
_atom_site_label
_atom_site_fract_x
_atom_site_fract_y
_atom_site_fract_z
Si Si1 0.715109 0.176062 0.858050
Si Si2 0.391300 0.324086 0.703792
Si Si3 0.392130 0.824102 0.371253
Si Si4 0.391812 0.321730 0.011265
Si Si5 0.101617 0.320695 0.600433
Si Si6 0.611106 0.670096 0.199892
Si Si7 0.707639 0.321994 0.527943
Si Si8 0.894459 0.676928 0.797919
O O1 0.660226 0.236128 0.776628
O O2 0.665999 0.242606 0.939903
O O3 0.818128 0.237296 0.849425
O O4 0.713774 0.000000 0.859660
O O5 0.500000 0.297534 0.706145
O O6 0.375605 0.500000 0.717545
O O7 0.350591 0.287650 0.612103
O O8 0.500000 0.784311 0.380741
O O9 0.360943 0.765890 0.279843
O O10 0.336178 0.750995 0.446511
O O11 0.384781 0.000000 0.374691
O O12 0.500000 0.286894 0.001346
O O13 0.383567 0.500000 0.004152
O O14 0.361580 0.280319 0.106204
O O15 0.100754 0.500000 0.597422
O O16 0.188213 0.272071 0.546191
O O17 0.116114 0.283904 0.698829
O O18 0.000000 0.269147 0.575043
O O19 0.500000 0.670535 0.197863
O O20 0.639970 0.500000 0.212021
O O21 0.706479 0.500000 0.518318
O O22 0.879907 0.500000 0.804946
O O23 0.000000 0.707629 0.821182
#
# Coordination Sequence:
#
# PCOD9337152 Si02
#       8
#     4   4   4   4   4   4   4   4
#     4  12  23  31  44  69 101 131 157 191 238 292
#     4  10  20  33  47  63  89 128 171 205 230 267
#     4  10  20  31  44  66  98 130 156 188 233 285
#     4   9  18  33  52  71  93 124 163 203 236 275
#     4   8  14  27  49  72  89 110 149 201 245 276
#     4   8  15  30  51  71  89 115 156 202 240 272
#     4  10  18  30  49  69  90 120 160 200 234 273
#     4   9  17  33  55  71  87 118 161 205 243 280
#
# _framework density 15.236132
#
# number of rings (size 3 to 8) (size 9 to 14) (size 15 to 20)
#    0.000    2.500    1.250    3.750    0.000    4.500 
#    0.000    1.250    0.000    0.375    0.000    0.875 
#    0.000    3.000    0.000    0.000    0.000    0.000 
#
# Total GULP energy -178402.625559 kJ/mol
# GULP energy per Si atom -5575.082049 kJ/mol
# Density = 1.520145 g / cm^3
# Si number density = 15.236132 Si / 1000 Ang^3
#
#
#
# Elastic Constant Matrix: (Units=GPa)
#
#
# Indices 1 2 3 4 5 6 
#
# 1 103.3593 50.1515 73.9609 0.0000 0.0000 0.0000
# 2 50.1515 43.2880 58.4374 0.0000 0.0000 0.0000
# 3 73.9609 58.4374 135.7797 0.0000 0.0000 0.0000
# 4 0.0000 0.0000 0.0000 -11.5937 0.0000 0.0000
# 5 0.0000 0.0000 0.0000 0.0000 6.3347 0.0000
# 6 0.0000 0.0000 0.0000 0.0000 0.0000 12.1252
#
#
#
# Elastic Compliance Matrix: (Units=1/GPa)
#
#
# Indices 1 2 3 4 5 6 
#
# 1 0.022438 -0.022663 -0.002468 0.000000 0.000000 0.000000
# 2 -0.022663 0.078026 -0.021236 0.000000 0.000000 0.000000
# 3 -0.002468 -0.021236 0.017849 0.000000 0.000000 0.000000
# 4 0.000000 0.000000 0.000000 -0.086254 0.000000 0.000000
# 5 0.000000 0.000000 0.000000 0.000000 0.157862 0.000000
# 6 0.000000 0.000000 0.000000 0.000000 0.000000 0.082473
#
#
# Mechanical properties :
#
#
# Convention : Reuss Voigt Hill
#
# Bulk Modulus (GPa) = 39.09717 71.94741 55.52229
# Shear Modulus (GPa) = 13.38135 8.03171 10.70653
#
# Velocity S-wave (km/s) = 2.96677 2.29846 2.65374
# Velocity P-wave (km/s) = 6.11982 7.37347 6.77570
#
# Compressibility (1/GPa) = 0.02557730
#
# Stress axis : x y z
#
# Youngs Moduli (GPa) = 44.56765 12.81629 56.02582
#
# Poissons Ratio (x) = 0.29046 0.13828
# Poissons Ratio (y) = 1.01006 1.18976
# Poissons Ratio (z) = 0.11000 0.27217
#
# Static dielectric constant tensor:
#      x y z
#    x 1.507250 0.000000 0.000000 
#    y 0.000000 1.501820 0.000000 
#    z 0.000000 0.000000 1.491450 
# 
# From -- ./inp_files/5722.got.cif
#   From: 2010.05.17/outbox.cif.g08.bks.cpg/sg25_3_cif.got.tgz:5722.got - 2010.06.04 01:04:00.
