data_PCOD9337566
_publ_section_title
;
Structure prediction by ZEFSAII (Michael W. Deem and Ramdas Pophale) SiO2 
 PCOD9337566
Probable space group: P M M 2
;
_chemical_formula_sum "Si O2"
_cell_formula_units_Z 32
_cell_length_a 7.890406
_cell_length_b 9.332710
_cell_length_c 21.497720
_cell_angle_alpha 90.000000
_cell_angle_beta 90.000000
_cell_angle_gamma 90.000000
_cell_volume 1583.067829
_symmetry_space_group_name_H-M "P M M 2"
_symmetry_group_IT_number 25
_symmetry_cell_setting 'orthorhombic'
loop_
_space_group_symop_operation_xyz
x,y,z
-x,-y,z
-x,y,z
x,-y,z
loop_
_atom_site_type_symbol
_atom_site_label
_atom_site_fract_x
_atom_site_fract_y
_atom_site_fract_z
Si Si1 0.702485 0.661999 0.067290
Si Si2 0.202526 0.664021 0.581641
Si Si3 0.207745 0.835155 0.702317
Si Si4 0.295034 0.666523 0.311281
Si Si5 0.201219 0.162221 0.188557
Si Si6 0.296467 0.332012 0.447236
Si Si7 0.204508 0.663631 0.824511
Si Si8 0.704377 0.836780 0.948049
O O1 0.500000 0.651821 0.059004
O O2 0.771058 0.500000 0.068546
O O3 0.731878 0.743058 0.131797
O O4 0.769210 0.753415 0.009008
O O5 0.270026 0.500000 0.584409
O O6 0.265531 0.758524 0.638929
O O7 0.236702 0.727758 0.513160
O O8 0.000000 0.654639 0.588218
O O9 0.263207 0.746050 0.762663
O O10 0.000000 0.834831 0.702129
O O11 0.261857 0.000000 0.705719
O O12 0.500000 0.664605 0.311706
O O13 0.240188 0.500000 0.303804
O O14 0.238941 0.762301 0.254020
O O15 0.238481 0.722044 0.379571
O O16 0.000000 0.155107 0.181314
O O17 0.270270 0.000000 0.186653
O O18 0.500000 0.325770 0.447743
O O19 0.245840 0.500000 0.447826
O O20 0.266973 0.500000 0.826743
O O21 0.252354 0.750149 0.886055
O O22 0.000000 0.658755 0.821528
O O23 0.500000 0.843275 0.952443
O O24 0.768158 0.000000 0.945471
#
# Coordination Sequence:
#
# PCOD9337566 Si02
#       8
#     4   4   4   4   4   4   4   4
#     4  10  21  38  60  82 103 133 174 214 253 303
#     4   9  16  27  46  71  96 125 165 209 250 298
#     4   9  17  30  48  70  98 133 171 211 257 307
#     4   9  18  34  56  79 102 133 174 215 256 307
#     4  11  24  38  52  76 109 140 171 211 258 305
#     4   8  15  29  49  73 100 128 161 204 252 302
#     4  10  20  34  54  79 105 136 176 219 260 304
#     4  10  21  37  57  81 109 140 172 208 254 307
#
# _framework density 20.213916000000001
#
# number of rings (size 3 to 8) (size 9 to 14) (size 15 to 20)
#    0.000    2.500    0.000    3.000    0.000    7.500 
#    0.000    2.500    0.000    4.875    0.000    0.000 
#    0.000    0.000    0.000    0.000    0.000    0.000 
#
# Total GULP energy -178575.257300 kJ/mol
# GULP energy per Si atom -5580.476791 kJ/mol
# Density = 2.016791 g / cm^3
# Si number density = 20.213916 Si / 1000 Ang^3
#
#
#
# Elastic Constant Matrix: (Units=GPa)
#
#
# Indices 1 2 3 4 5 6 
#
# 1 15.5828 7.6937 -0.2936 0.0000 0.0000 0.0000
# 2 7.6937 168.0691 115.7350 0.0000 0.0000 0.0000
# 3 -0.2936 115.7350 218.5020 0.0000 0.0000 0.0000
# 4 0.0000 0.0000 0.0000 -80.6316 0.0000 0.0000
# 5 0.0000 0.0000 0.0000 0.0000 29.4089 0.0000
# 6 0.0000 0.0000 0.0000 0.0000 0.0000 1.2882
#
#
#
# Elastic Compliance Matrix: (Units=1/GPa)
#
#
# Indices 1 2 3 4 5 6 
#
# 1 0.066643 -0.004899 0.002685 0.000000 0.000000 0.000000
# 2 -0.004899 0.009726 -0.005158 0.000000 0.000000 0.000000
# 3 0.002685 -0.005158 0.007312 0.000000 0.000000 0.000000
# 4 0.000000 0.000000 0.000000 -0.012402 0.000000 0.000000
# 5 0.000000 0.000000 0.000000 0.000000 0.034003 0.000000
# 6 0.000000 0.000000 0.000000 0.000000 0.000000 0.776248
#
#
# Mechanical properties :
#
#
# Convention : Reuss Voigt Hill
#
# Bulk Modulus (GPa) = 14.50635 72.04712 43.27673
# Shear Modulus (GPa) = 5.43918 8.61437 7.02678
#
# Velocity S-wave (km/s) = 1.64215 2.06661 1.86648
# Velocity P-wave (km/s) = 3.28444 6.43539 5.10890
#
# Compressibility (1/GPa) = 0.06893533
#
# Stress axis : x y z
#
# Youngs Moduli (GPa) = 15.00538 102.81337 136.75225
#
# Poissons Ratio (x) = 0.50372 -0.36713
# Poissons Ratio (y) = 0.07352 0.70542
# Poissons Ratio (z) = -0.04028 0.53035
#
# Static dielectric constant tensor:
#      x y z
#    x 1.741810 0.000000 0.000000 
#    y 0.000000 1.707470 0.000000 
#    z 0.000000 0.000000 1.702390 
# 
# From -- ./inp_files/6475.got.cif
#   From: 2010.05.17/outbox.cif.g08.bks.cpg/sg25_4_cif.got.tgz:6475.got - 2010.06.04 01:04:00.
