data_PCOD9337247
_publ_section_title
;
Structure prediction by ZEFSAII (Michael W. Deem and Ramdas Pophale) SiO2 
 PCOD9337247
Probable space group: P M M 2
;
_chemical_formula_sum "Si O2"
_cell_formula_units_Z 32
_cell_length_a 8.993306
_cell_length_b 14.434857
_cell_length_c 15.868824
_cell_angle_alpha 90.000000
_cell_angle_beta 90.000000
_cell_angle_gamma 90.000000
_cell_volume 2060.044491
_symmetry_space_group_name_H-M "P M M 2"
_symmetry_group_IT_number 25
_symmetry_cell_setting 'orthorhombic'
loop_
_space_group_symop_operation_xyz
x,y,z
-x,-y,z
-x,y,z
x,-y,z
loop_
_atom_site_type_symbol
_atom_site_label
_atom_site_fract_x
_atom_site_fract_y
_atom_site_fract_z
Si Si1 0.322694 0.215007 0.585020
Si Si2 0.176972 0.607148 0.517520
Si Si3 0.178630 0.108714 0.089913
Si Si4 0.323606 0.606544 0.333778
Si Si5 0.328948 0.887508 0.915732
Si Si6 0.823570 0.889263 0.741197
Si Si7 0.822418 0.109473 0.428197
Si Si8 0.178545 0.220321 0.257133
O O1 0.500000 0.217199 0.585921
O O2 0.256240 0.318003 0.575907
O O3 0.259725 0.164381 0.667325
O O4 0.264758 0.158929 0.503276
O O5 0.204125 0.500000 0.541388
O O6 0.241460 0.619898 0.423292
O O7 0.000000 0.623185 0.516022
O O8 0.221168 0.167804 0.171616
O O9 0.000000 0.113945 0.079915
O O10 0.215397 0.000000 0.103687
O O11 0.255587 0.141328 0.003862
O O12 0.500000 0.619409 0.345837
O O13 0.297881 0.500000 0.307357
O O14 0.259319 0.682304 0.270546
O O15 0.500000 0.857677 0.909629
O O16 0.237673 0.860322 0.832768
O O17 0.326754 0.000000 0.916850
O O18 0.000000 0.873822 0.735778
O O19 0.797566 0.000000 0.731701
O O20 0.787292 0.156901 0.338753
O O21 0.000000 0.121094 0.442982
O O22 0.791283 0.000000 0.425803
O O23 0.000000 0.233766 0.256200
#
# Coordination Sequence:
#
# PCOD9337247 Si02
#       8
#     4   4   4   4   4   4   4   4
#     4  12  23  33  48  72 101 131 163 202 247 294
#     4  10  20  35  54  72  92 123 164 207 248 292
#     4   9  17  30  48  71  99 131 166 201 239 287
#     4  10  20  33  49  70  96 125 159 204 255 298
#     4   9  17  30  48  71  98 127 161 204 249 289
#     4  10  20  34  52  72  97 132 170 206 243 288
#     4  10  20  33  47  65  95 135 173 204 236 280
#     4  10  19  31  49  71  96 130 169 205 241 286
#
# _framework density 15.533645999999999
#
# number of rings (size 3 to 8) (size 9 to 14) (size 15 to 20)
#    0.000    2.000    1.250    3.375    0.000    7.500 
#    0.000    0.000    0.000    2.250    0.000    0.875 
#    0.000    3.000    0.000    0.000    0.000    0.000 
#
# Total GULP energy -178594.865781 kJ/mol
# GULP energy per Si atom -5581.089556 kJ/mol
# Density = 1.549829 g / cm^3
# Si number density = 15.533646 Si / 1000 Ang^3
#
#
#
# Elastic Constant Matrix: (Units=GPa)
#
#
# Indices 1 2 3 4 5 6 
#
# 1 85.0539 62.5630 71.3526 0.0000 0.0000 0.0000
# 2 62.5630 91.3333 64.2104 0.0000 0.0000 0.0000
# 3 71.3526 64.2104 133.3114 0.0000 0.0000 0.0000
# 4 0.0000 0.0000 0.0000 8.1020 0.0000 0.0000
# 5 0.0000 0.0000 0.0000 0.0000 -19.9312 0.0000
# 6 0.0000 0.0000 0.0000 0.0000 0.0000 21.3815
#
#
#
# Elastic Compliance Matrix: (Units=1/GPa)
#
#
# Indices 1 2 3 4 5 6 
#
# 1 0.029671 -0.013850 -0.009210 0.000000 0.000000 0.000000
# 2 -0.013850 0.023019 -0.003675 0.000000 0.000000 0.000000
# 3 -0.009210 -0.003675 0.014201 0.000000 0.000000 0.000000
# 4 0.000000 0.000000 0.000000 0.123426 0.000000 0.000000
# 5 0.000000 0.000000 0.000000 0.000000 -0.050173 0.000000
# 6 0.000000 0.000000 0.000000 0.000000 0.000000 0.046769
#
#
# Mechanical properties :
#
#
# Convention : Reuss Voigt Hill
#
# Bulk Modulus (GPa) = 74.50295 78.43895 76.47095
# Shear Modulus (GPa) = 20.42010 9.34862 14.88436
#
# Velocity S-wave (km/s) = 3.62964 2.45588 3.09884
# Velocity P-wave (km/s) = 8.10136 7.65817 7.88288
#
# Compressibility (1/GPa) = 0.01342229
#
# Stress axis : x y z
#
# Youngs Moduli (GPa) = 33.70283 43.44202 70.41874
#
# Poissons Ratio (x) = 0.60165 0.64857
# Poissons Ratio (y) = 0.46677 0.25876
# Poissons Ratio (z) = 0.31041 0.15963
#
# Static dielectric constant tensor:
#      x y z
#    x 1.517440 0.000000 0.000000 
#    y 0.000000 1.512420 0.000000 
#    z 0.000000 0.000000 1.494400 
# 
# From -- ./inp_files/5679.got.cif
#   From: 2010.05.17/outbox.cif.g08.bks.cpg/sg25_3_cif.got.tgz:5679.got - 2010.06.04 01:04:00.
