data_PCOD9337587
_publ_section_title
;
Structure prediction by ZEFSAII (Michael W. Deem and Ramdas Pophale) SiO2 
 PCOD9337587
Probable space group: P M M 2
;
_chemical_formula_sum "Si O2"
_cell_formula_units_Z 32
_cell_length_a 9.629518
_cell_length_b 29.255033
_cell_length_c 5.150977
_cell_angle_alpha 90.000000
_cell_angle_beta 90.000000
_cell_angle_gamma 90.000000
_cell_volume 1451.091347
_symmetry_space_group_name_H-M "P M M 2"
_symmetry_group_IT_number 25
_symmetry_cell_setting 'orthorhombic'
loop_
_space_group_symop_operation_xyz
x,y,z
-x,-y,z
-x,y,z
x,-y,z
loop_
_atom_site_type_symbol
_atom_site_label
_atom_site_fract_x
_atom_site_fract_y
_atom_site_fract_z
Si Si1 0.336495 0.305847 0.113410
Si Si2 0.647738 0.049360 0.288366
Si Si3 0.349340 0.856234 0.965871
Si Si4 0.147049 0.808586 0.263757
Si Si5 0.836328 0.445487 0.487121
Si Si6 0.836913 0.275907 0.615762
Si Si7 0.147347 0.897791 0.566156
Si Si8 0.663613 0.413473 0.986817
O O1 0.500000 0.291242 0.128678
O O2 0.253162 0.299511 0.384773
O O3 0.338526 0.359364 0.040927
O O4 0.244252 0.282546 0.885296
O O5 0.500000 0.049241 0.434498
O O6 0.642244 0.095343 0.119903
O O7 0.774917 0.057182 0.478048
O O8 0.658878 0.000000 0.153119
O O9 0.500000 0.846413 0.856583
O O10 0.292168 0.812194 0.117174
O O11 0.241475 0.868242 0.749311
O O12 0.157802 0.776353 0.512635
O O13 0.131429 0.862111 0.331198
O O14 0.000000 0.794775 0.130026
O O15 0.838268 0.500000 0.528991
O O16 0.752613 0.435402 0.221626
O O17 0.000000 0.430402 0.477306
O O18 0.747694 0.423525 0.721919
O O19 0.000000 0.291223 0.630280
O O20 0.000000 0.907821 0.686769
O O21 0.500000 0.428609 0.975750
#
# Coordination Sequence:
#
# PCOD9337587 Si02
#       8
#     4   4   4   4   4   4   4   4
#     4  11  25  44  64  94 132 169 213 270 328 379
#     4   9  19  36  54  74 104 140 180 226 273 332
#     4  10  20  34  55  82 108 141 184 227 283 348
#     4   9  21  39  57  79 111 148 187 239 294 349
#     4  11  24  41  64  97 133 169 216 273 326 378
#     4  11  24  42  66  94 124 166 218 265 318 390
#     4  10  20  35  55  79 109 143 179 227 285 343
#     4  11  24  42  65  92 129 174 217 265 324 389
#
# _framework density 22.052368999999999
#
# number of rings (size 3 to 8) (size 9 to 14) (size 15 to 20)
#    0.000    1.750    0.000    3.375    1.750   10.250 
#    0.000    1.250    0.000    0.000    0.000    0.000 
#    0.000    0.000    0.000    0.000    0.000    0.000 
#
# Total GULP energy -178332.474806 kJ/mol
# GULP energy per Si atom -5572.889838 kJ/mol
# Density = 2.200218 g / cm^3
# Si number density = 22.052369 Si / 1000 Ang^3
#
#
#
# Elastic Constant Matrix: (Units=GPa)
#
#
# Indices 1 2 3 4 5 6 
#
# 1 206.8023 23.7539 44.6352 0.0000 0.0000 0.0000
# 2 23.7539 60.9088 -10.2649 0.0000 0.0000 0.0000
# 3 44.6352 -10.2649 60.9989 0.0000 0.0000 0.0000
# 4 0.0000 0.0000 0.0000 22.3135 0.0000 0.0000
# 5 0.0000 0.0000 0.0000 0.0000 31.0286 0.0000
# 6 0.0000 0.0000 0.0000 0.0000 0.0000 27.1117
#
#
#
# Elastic Compliance Matrix: (Units=1/GPa)
#
#
# Indices 1 2 3 4 5 6 
#
# 1 0.006344 -0.003352 -0.005206 0.000000 0.000000 0.000000
# 2 -0.003352 0.018668 0.005594 0.000000 0.000000 0.000000
# 3 -0.005206 0.005594 0.021145 0.000000 0.000000 0.000000
# 4 0.000000 0.000000 0.000000 0.044816 0.000000 0.000000
# 5 0.000000 0.000000 0.000000 0.000000 0.032228 0.000000
# 6 0.000000 0.000000 0.000000 0.000000 0.000000 0.036884
#
#
# Mechanical properties :
#
#
# Convention : Reuss Voigt Hill
#
# Bulk Modulus (GPa) = 24.85783 49.43983 37.14883
# Shear Modulus (GPa) = 27.86712 34.12983 30.99847
#
# Velocity S-wave (km/s) = 3.55868 3.93831 3.75330
# Velocity P-wave (km/s) = 5.30870 6.56874 5.97205
#
# Compressibility (1/GPa) = 0.04022877
#
# Stress axis : x y z
#
# Youngs Moduli (GPa) = 157.62389 53.56810 47.29310
#
# Poissons Ratio (x) = 0.17954 0.24622
# Poissons Ratio (y) = 0.52829 -0.26455
# Poissons Ratio (z) = 0.82064 -0.29966
#
# Static dielectric constant tensor:
#      x y z
#    x 1.936630 0.000000 0.000000 
#    y 0.000000 1.814200 0.000000 
#    z 0.000000 0.000000 1.865250 
# 
# From -- ./inp_files/361.got.cif
#   From: 2010.05.17/outbox.cif.g08.bks.cpg/sg25_1_cif.got.tgz:361.got - 2010.06.04 01:04:00.
