data_PCOD9337073
_publ_section_title
;
Structure prediction by ZEFSAII (Michael W. Deem and Ramdas Pophale) SiO2 
 PCOD9337073
Probable space group: I 21 21 21
;
_chemical_formula_sum "Si O2"
_cell_formula_units_Z 32
_cell_length_a 15.000000
_cell_length_b 9.000000
_cell_length_c 24.000000
_cell_angle_alpha 90.000000
_cell_angle_beta 90.000000
_cell_angle_gamma 90.000000
_cell_volume 3240.000000
_symmetry_space_group_name_H-M "I 21 21 21"
_symmetry_group_IT_number 24
_symmetry_cell_setting 'orthorhombic'
loop_
_space_group_symop_operation_xyz
x,y,z
-x,1/2-y,z
x,-y,1/2-z
1/2-x,y,-z
1/2+x,1/2+y,1/2+z
1/2-x,-y,1/2+z
1/2+x,1/2-y,-z
-x,1/2+y,1/2-z
loop_
_atom_site_type_symbol
_atom_site_label
_atom_site_fract_x
_atom_site_fract_y
_atom_site_fract_z
Si Si1 0.236680 0.510321 0.591717
Si Si2 0.234268 0.276565 0.193244
Si Si3 0.091975 0.835336 0.222727
Si Si4 0.824273 0.508656 0.119006
Si Si5 0.903854 0.671318 0.770479
Si Si6 0.922080 0.478954 0.004577
Si Si7 0.348000 0.822243 0.096618
Si Si8 0.123260 0.636915 0.500183
O O1 0.253922 0.578018 0.653651
O O2 0.200919 0.339322 0.589343
O O3 0.156672 0.596338 0.561693
O O4 0.317677 0.557803 0.549060
O O5 0.154715 0.267515 0.238475
O O6 0.323723 0.240044 0.230761
O O7 0.199961 0.147190 0.149930
O O8 0.143067 0.876896 0.166253
O O9 0.000000 0.750000 0.213561
O O10 0.077365 0.000000 0.250000
O O11 0.892148 0.520551 0.067344
O O12 0.730871 0.560430 0.095827
O O13 0.908271 0.500000 0.750000
O O14 0.885887 0.677527 0.838610
O O15 0.000000 0.750000 0.760886
O O16 0.873140 0.316721 0.999755
O O17 0.024966 0.430109 0.005107
O O18 0.905831 0.606964 0.956136
#
# Coordination Sequence:
#
# PCOD9337073 Si02
#       8
#     8   8   8   8   8   8   8   8
#     4  11  26  44  70 104 144 180 239 290 365 422
#     4  11  22  49  75  92 144 193 238 295 349 441
#     4  10  23  42  67 103 139 182 238 289 357 426
#     4  11  22  45  72  99 135 192 231 286 356 431
#     4  12  28  49  72 102 142 189 250 297 360 426
#     4  11  25  45  76 101 138 189 239 287 364 426
#     4  12  27  45  71 103 142 182 230 306 362 417
#     4  10  25  47  67 108 139 183 241 290 345 448
#
# _framework density 9.8765429999999999
#
# number of rings (size 3 to 8) (size 9 to 14) (size 15 to 20)
#    0.000    1.000    3.750    1.500    8.750    4.000 
#    0.000    0.000    0.000    0.000    0.000    0.000 
#    0.000    0.000    0.000    0.000    0.000    0.000 
#
# Total GULP energy -178264.472774 kJ/mol
# GULP energy per Si atom -5570.764774 kJ/mol
# Density = 0.985406 g / cm^3
# Si number density = 9.876543 Si / 1000 Ang^3
#
#
#
# Elastic Constant Matrix: (Units=GPa)
#
#
# Indices 1 2 3 4 5 6 
#
# 1 89.3219 14.9323 20.5628 0.0000 0.0000 0.0000
# 2 14.9323 94.8285 39.4272 0.0000 0.0000 0.0000
# 3 20.5628 39.4272 126.5621 0.0000 0.0000 0.0000
# 4 0.0000 0.0000 0.0000 35.8941 0.0000 0.0000
# 5 0.0000 0.0000 0.0000 0.0000 30.0486 0.0000
# 6 0.0000 0.0000 0.0000 0.0000 0.0000 38.7454
#
#
#
# Elastic Compliance Matrix: (Units=1/GPa)
#
#
# Indices 1 2 3 4 5 6 
#
# 1 0.011751 -0.001214 -0.001531 0.000000 0.000000 0.000000
# 2 -0.001214 0.012240 -0.003616 0.000000 0.000000 0.000000
# 3 -0.001531 -0.003616 0.009276 0.000000 0.000000 0.000000
# 4 0.000000 0.000000 0.000000 0.027860 0.000000 0.000000
# 5 0.000000 0.000000 0.000000 0.000000 0.033279 0.000000
# 6 0.000000 0.000000 0.000000 0.000000 0.000000 0.025810
#
#
# Mechanical properties :
#
#
# Convention : Reuss Voigt Hill
#
# Bulk Modulus (GPa) = 48.67173 51.17300 49.92237
# Shear Modulus (GPa) = 35.76904 36.65696 36.21300
#
# Velocity S-wave (km/s) = 4.25997 4.31253 4.28633
# Velocity P-wave (km/s) = 6.99214 7.12459 7.05868
#
# Compressibility (1/GPa) = 0.02054581
#
# Stress axis : x y z
#
# Youngs Moduli (GPa) = 85.10026 81.70043 107.80012
#
# Poissons Ratio (x) = 0.09917 0.16505
# Poissons Ratio (y) = 0.10329 0.38978
# Poissons Ratio (z) = 0.13029 0.29541
#
# Static dielectric constant tensor:
#      x y z
#    x 1.720660 0.000000 0.000000 
#    y 0.000000 1.731310 0.000000 
#    z 0.000000 0.000000 1.746540 
# 
# From -- ./inp_files/35869.got.cif
#   From: 2010.05.17/outbox.ucp.g08.bks.cvg/sg24_18_cif.got.tgz:35869.got - 2010.06.11 15:20:44.
