data_PCOD9337967
_publ_section_title
;
Structure prediction by ZEFSAII (Michael W. Deem and Ramdas Pophale) SiO2 
 PCOD9337967
Probable space group: P M C 21
;
_chemical_formula_sum "Si O2"
_cell_formula_units_Z 32
_cell_length_a 8.174456
_cell_length_b 11.831746
_cell_length_c 16.615627
_cell_angle_alpha 90.000000
_cell_angle_beta 90.000000
_cell_angle_gamma 90.000000
_cell_volume 1607.031659
_symmetry_space_group_name_H-M "P M C 21"
_symmetry_group_IT_number 26
_symmetry_cell_setting 'orthorhombic'
loop_
_space_group_symop_operation_xyz
x,y,z
-x,-y,1/2+z
-x,y,z
x,-y,1/2+z
loop_
_atom_site_type_symbol
_atom_site_label
_atom_site_fract_x
_atom_site_fract_y
_atom_site_fract_z
Si Si1 0.314376 0.742172 0.250000
Si Si2 0.195198 0.699883 0.678393
Si Si3 0.802711 0.809149 0.846312
Si Si4 0.302308 0.933820 0.364160
Si Si5 0.814756 0.600818 0.385594
Si Si6 0.307374 0.553148 0.136787
Si Si7 0.806927 0.626731 0.965630
Si Si8 0.304981 0.770411 0.508661
O O1 0.500000 0.769975 0.224814
O O2 0.240604 0.854459 0.290397
O O3 0.312000 0.656652 0.325554
O O4 0.235520 0.664162 0.181753
O O5 0.255826 0.750636 0.763386
O O6 0.236923 0.567439 0.664457
O O7 0.262937 0.771351 0.602560
O O8 0.000000 0.709630 0.677432
O O9 0.744128 0.740899 0.925079
O O10 0.000000 0.798843 0.846569
O O11 0.756488 0.939521 0.853462
O O12 0.500000 0.931260 0.361171
O O13 0.257068 0.874384 0.449527
O O14 0.794787 0.468629 0.396836
O O15 0.787391 0.662875 0.470471
O O16 0.000000 0.623970 0.357617
O O17 0.500000 0.548143 0.155394
O O18 0.283360 0.579249 0.043156
O O19 0.000000 0.636317 0.986263
O O20 0.500000 0.754470 0.500815
#
# Coordination Sequence:
#
# PCOD9337967 Si02
#       8
#     4   4   4   4   4   4   4   4
#     4   9  20  37  56  82 114 147 187 237 285 338
#     4  11  22  38  60  88 120 152 192 242 295 352
#     4  10  23  41  59  83 117 156 199 243 289 346
#     4   9  20  40  61  81 112 151 195 241 286 340
#     4  10  18  31  56  85 112 147 184 226 287 343
#     4  11  22  36  58  88 119 151 190 237 290 351
#     4  10  21  37  55  80 118 153 184 236 292 342
#     4  10  20  36  59  87 116 149 191 240 288 342
#
# _framework density 19.912489000000001
#
# number of rings (size 3 to 8) (size 9 to 14) (size 15 to 20)
#    0.000    2.000    1.250    3.000    0.000    6.500 
#    2.250    0.000    0.000    0.000    0.000    0.000 
#    0.000    0.000    0.000    0.000    0.000    0.000 
#
# Total GULP energy -178427.032038 kJ/mol
# GULP energy per Si atom -5575.844751 kJ/mol
# Density = 1.986717 g / cm^3
# Si number density = 19.912489 Si / 1000 Ang^3
#
#
#
# Elastic Constant Matrix: (Units=GPa)
#
#
# Indices 1 2 3 4 5 6 
#
# 1 28.9005 13.4609 0.7364 0.0000 0.0000 0.0000
# 2 13.4609 137.2636 51.2406 0.0000 0.0000 0.0000
# 3 0.7364 51.2406 68.2394 0.0000 0.0000 0.0000
# 4 0.0000 0.0000 0.0000 27.8711 0.0000 0.0000
# 5 0.0000 0.0000 0.0000 0.0000 20.3403 0.0000
# 6 0.0000 0.0000 0.0000 0.0000 0.0000 24.6857
#
#
#
# Elastic Compliance Matrix: (Units=1/GPa)
#
#
# Indices 1 2 3 4 5 6 
#
# 1 0.036757 -0.004803 0.003210 0.000000 0.000000 0.000000
# 2 -0.004803 0.010750 -0.008021 0.000000 0.000000 0.000000
# 3 0.003210 -0.008021 0.020642 0.000000 0.000000 0.000000
# 4 0.000000 0.000000 0.000000 0.035879 0.000000 0.000000
# 5 0.000000 0.000000 0.000000 0.000000 0.049164 0.000000
# 6 0.000000 0.000000 0.000000 0.000000 0.000000 0.040509
#
#
# Mechanical properties :
#
#
# Convention : Reuss Voigt Hill
#
# Bulk Modulus (GPa) = 20.44066 40.58660 30.51363
# Shear Modulus (GPa) = 21.81158 25.84379 23.82769
#
# Velocity S-wave (km/s) = 3.31323 3.60650 3.46297
# Velocity P-wave (km/s) = 4.99241 6.14567 5.59881
#
# Compressibility (1/GPa) = 0.04892210
#
# Stress axis : x y z
#
# Youngs Moduli (GPa) = 27.20593 93.02056 48.44438
#
# Poissons Ratio (x) = 0.44676 -0.15549
# Poissons Ratio (y) = 0.13066 0.38855
# Poissons Ratio (z) = -0.08732 0.74607
#
# Static dielectric constant tensor:
#      x y z
#    x 1.719110 0.000000 0.000000 
#    y 0.000000 1.695420 0.000000 
#    z 0.000000 0.000000 1.763890 
# 
# From -- ./inp_files/4132.got.cif
#   From: 2010.05.17/outbox.cif.g08.bks.cpg/sg26_3_cif.got.tgz:4132.got - 2010.06.04 01:07:29.
