data_PCOD9337060
_publ_section_title
;
Structure prediction by ZEFSAII (Michael W. Deem and Ramdas Pophale) SiO2 
 PCOD9337060
Probable space group: I 21 21 21
;
_chemical_formula_sum "Si O2"
_cell_formula_units_Z 32
_cell_length_a 12.000000
_cell_length_b 9.000000
_cell_length_c 30.000000
_cell_angle_alpha 90.000000
_cell_angle_beta 90.000000
_cell_angle_gamma 90.000000
_cell_volume 3240.000000
_symmetry_space_group_name_H-M "I 21 21 21"
_symmetry_group_IT_number 24
_symmetry_cell_setting 'orthorhombic'
loop_
_space_group_symop_operation_xyz
x,y,z
-x,1/2-y,z
x,-y,1/2-z
1/2-x,y,-z
1/2+x,1/2+y,1/2+z
1/2-x,-y,1/2+z
1/2+x,1/2-y,-z
-x,1/2+y,1/2-z
loop_
_atom_site_type_symbol
_atom_site_label
_atom_site_fract_x
_atom_site_fract_y
_atom_site_fract_z
Si Si1 0.114368 0.059536 0.878492
Si Si2 0.753511 0.578857 0.796237
Si Si3 0.011042 0.075907 0.078657
Si Si4 0.734822 0.586429 0.947265
Si Si5 0.760198 0.071829 0.295409
Si Si6 0.852123 0.090429 0.878323
Si Si7 0.996587 0.578496 0.171095
Si Si8 0.292198 0.423023 0.550087
O O1 0.150619 0.231605 0.879596
O O2 0.981791 0.048313 0.876185
O O3 0.175081 0.987898 0.836274
O O4 0.158231 0.975982 0.922126
O O5 0.783081 0.500000 0.750000
O O6 0.771004 0.755420 0.795936
O O7 0.621814 0.553935 0.805608
O O8 0.000000 0.250000 0.071325
O O9 0.915679 0.988193 0.052400
O O10 0.131526 0.016366 0.065601
O O11 0.992988 0.033570 0.130168
O O12 0.710328 0.754616 0.931851
O O13 0.750000 0.585733 0.000000
O O14 0.894463 0.062554 0.298772
O O15 0.720169 0.000000 0.250000
O O16 0.709853 0.980885 0.336286
O O17 0.789384 0.023958 0.920811
O O18 0.000000 0.750000 0.154285
O O19 0.250000 0.419881 0.500000
#
# Coordination Sequence:
#
# PCOD9337060 Si02
#       8
#     8   8   8   8   8   8   8   8
#     4  11  25  44  65  93 128 166 213 267 320 379
#     4  11  23  40  65  94 128 168 212 262 317 381
#     4  12  24  39  67  98 131 169 208 263 320 373
#     4  11  25  44  67  95 129 170 215 261 315 382
#     4  11  23  40  65  94 128 168 212 262 317 381
#     4  11  25  44  65  93 128 166 213 267 320 379
#     4  10  21  39  63  94 130 167 207 257 315 379
#     4  11  25  44  67  95 129 170 215 261 315 382
#
# _framework density 9.8765429999999999
#
# number of rings (size 3 to 8) (size 9 to 14) (size 15 to 20)
#    0.000    1.000    2.500    3.750    1.750    5.500 
#    0.000    0.000    0.000    0.000    0.000    0.000 
#    0.000    0.000    0.000    0.000    0.000    0.000 
#
# Total GULP energy -178949.841673 kJ/mol
# GULP energy per Si atom -5592.182552 kJ/mol
# Density = 0.985406 g / cm^3
# Si number density = 9.876543 Si / 1000 Ang^3
#
#
#
# Elastic Constant Matrix: (Units=GPa)
#
#
# Indices 1 2 3 4 5 6 
#
# 1 35.6064 -1.8486 -10.7495 0.0000 0.0000 0.0000
# 2 -1.8486 -1.1702 -27.6998 0.0000 0.0000 0.0000
# 3 -10.7495 -27.6998 51.5099 0.0000 0.0000 0.0000
# 4 0.0000 0.0000 0.0000 38.1893 0.0000 0.0000
# 5 0.0000 0.0000 0.0000 0.0000 18.9203 0.0000
# 6 0.0000 0.0000 0.0000 0.0000 0.0000 58.5318
#
#
#
# Elastic Compliance Matrix: (Units=1/GPa)
#
#
# Indices 1 2 3 4 5 6 
#
# 1 0.027037 -0.012839 -0.001262 0.000000 0.000000 0.000000
# 2 -0.012839 -0.056147 -0.032873 0.000000 0.000000 0.000000
# 3 -0.001262 -0.032873 0.001473 0.000000 0.000000 0.000000
# 4 0.000000 0.000000 0.000000 0.026185 0.000000 0.000000
# 5 0.000000 0.000000 0.000000 0.000000 0.052853 0.000000
# 6 0.000000 0.000000 0.000000 0.000000 0.000000 0.017085
#
#
# Mechanical properties :
#
#
# Convention : Reuss Voigt Hill
#
# Bulk Modulus (GPa) = -8.22477 0.59450 -3.81514
# Shear Modulus (GPa) = 41.01507 31.54454 36.27980
#
# Velocity S-wave (km/s) = 4.56168 4.00051 4.29028
# Velocity P-wave (km/s) = 4.85515 4.65192 4.75462
#
# Compressibility (1/GPa) = -0.12158394
#
# Stress axis : x y z
#
# Youngs Moduli (GPa) = 36.98594 -17.81048 678.93535
#
# Poissons Ratio (x) = -0.22867 0.85680
# Poissons Ratio (y) = 0.47487 22.31840
# Poissons Ratio (z) = 0.04668 -0.58548
#
# Static dielectric constant tensor:
#      x y z
#    x 1.692150 0.000000 0.000000 
#    y 0.000000 1.632780 0.000000 
#    z 0.000000 0.000000 1.663970 
# 
# From -- ./inp_files/38613.got.cif
#   From: 2010.05.17/outbox.ucp.g08.bks.cvg/sg24_20_cif.got.tgz:38613.got - 2010.06.11 15:20:44.
