data_PCOD9337735
_publ_section_title
;
Structure prediction by ZEFSAII (Michael W. Deem and Ramdas Pophale) SiO2 
 PCOD9337735
Probable space group: P M M 2
;
_chemical_formula_sum "Si O2"
_cell_formula_units_Z 32
_cell_length_a 15.055705
_cell_length_b 8.694057
_cell_length_c 12.735696
_cell_angle_alpha 90.000000
_cell_angle_beta 90.000000
_cell_angle_gamma 90.000000
_cell_volume 1667.040933
_symmetry_space_group_name_H-M "P M M 2"
_symmetry_group_IT_number 25
_symmetry_cell_setting 'orthorhombic'
loop_
_space_group_symop_operation_xyz
x,y,z
-x,-y,z
-x,y,z
x,-y,z
loop_
_atom_site_type_symbol
_atom_site_label
_atom_site_fract_x
_atom_site_fract_y
_atom_site_fract_z
Si Si1 0.637651 0.322977 0.936170
Si Si2 0.600254 0.183472 0.709010
Si Si3 0.775057 0.315188 0.621724
Si Si4 0.839607 0.323112 0.014022
Si Si5 0.597400 0.314013 0.170313
Si Si6 0.904986 0.687228 0.801145
Si Si7 0.103812 0.813710 0.434816
Si Si8 0.785255 0.182859 0.230035
O O1 0.608432 0.500000 0.921330
O O2 0.615828 0.233465 0.830351
O O3 0.742666 0.325944 0.959305
O O4 0.600144 0.263837 0.047463
O O5 0.500000 0.230228 0.680254
O O6 0.674918 0.256936 0.634676
O O7 0.607212 0.000000 0.702658
O O8 0.775320 0.500000 0.618019
O O9 0.825519 0.262005 0.727696
O O10 0.834273 0.251562 0.527064
O O11 0.864211 0.500000 0.038314
O O12 0.831134 0.231682 0.121047
O O13 0.899301 0.258341 0.920752
O O14 0.500000 0.271998 0.213829
O O15 0.604212 0.500000 0.168600
O O16 0.685438 0.252191 0.227078
O O17 0.900386 0.500000 0.806514
O O18 0.000000 0.729179 0.753542
O O19 0.152670 0.767170 0.326503
O O20 0.000000 0.764400 0.440254
O O21 0.104197 0.000000 0.440122
O O22 0.776530 0.000000 0.234398
#
# Coordination Sequence:
#
# PCOD9337735 Si02
#       8
#     4   4   4   4   4   4   4   4
#     4   9  16  30  51  77 111 153 196 234 278 332
#     4  11  23  36  53  81 117 156 195 234 283 346
#     4  11  22  39  62  87 114 145 191 246 292 341
#     4   9  17  32  52  78 116 155 187 227 282 337
#     4   9  18  33  54  81 115 154 193 234 283 338
#     4   9  17  31  53  82 114 145 178 224 283 340
#     4  10  23  44  65  84 112 151 192 238 294 349
#     4  10  21  36  56  83 114 149 191 237 283 335
#
# _framework density 19.195688000000001
#
# number of rings (size 3 to 8) (size 9 to 14) (size 15 to 20)
#    0.000    2.250    1.250    2.625    0.000    6.000 
#    0.000    0.625    0.000    2.250    0.000    0.000 
#    0.000    0.000    0.000    0.000    0.000    0.000 
#
# Total GULP energy -178444.328698 kJ/mol
# GULP energy per Si atom -5576.385272 kJ/mol
# Density = 1.915200 g / cm^3
# Si number density = 19.195688 Si / 1000 Ang^3
#
#
#
# Elastic Constant Matrix: (Units=GPa)
#
#
# Indices 1 2 3 4 5 6 
#
# 1 154.4774 35.6763 78.0772 0.0000 0.0000 0.0000
# 2 35.6763 27.0117 29.4301 0.0000 0.0000 0.0000
# 3 78.0772 29.4301 110.2078 0.0000 0.0000 0.0000
# 4 0.0000 0.0000 0.0000 29.0535 0.0000 0.0000
# 5 0.0000 0.0000 0.0000 0.0000 18.5128 0.0000
# 6 0.0000 0.0000 0.0000 0.0000 0.0000 9.5776
#
#
#
# Elastic Compliance Matrix: (Units=1/GPa)
#
#
# Indices 1 2 3 4 5 6 
#
# 1 0.011404 -0.008828 -0.005722 0.000000 0.000000 0.000000
# 2 -0.008828 0.059046 -0.009513 0.000000 0.000000 0.000000
# 3 -0.005722 -0.009513 0.015668 0.000000 0.000000 0.000000
# 4 0.000000 0.000000 0.000000 0.034419 0.000000 0.000000
# 5 0.000000 0.000000 0.000000 0.000000 0.054017 0.000000
# 6 0.000000 0.000000 0.000000 0.000000 0.000000 0.104410
#
#
# Mechanical properties :
#
#
# Convention : Reuss Voigt Hill
#
# Bulk Modulus (GPa) = 26.32174 64.22934 45.27554
# Shear Modulus (GPa) = 14.71646 21.32966 18.02306
#
# Velocity S-wave (km/s) = 2.77186 3.33704 3.06749
# Velocity P-wave (km/s) = 4.89758 6.95562 6.01527
#
# Compressibility (1/GPa) = 0.03799141
#
# Stress axis : x y z
#
# Youngs Moduli (GPa) = 87.68581 16.93585 63.82454
#
# Poissons Ratio (x) = 0.14952 0.36520
# Poissons Ratio (y) = 0.77412 0.60718
# Poissons Ratio (z) = 0.50173 0.16112
#
# Static dielectric constant tensor:
#      x y z
#    x 1.726300 0.000000 0.000000 
#    y 0.000000 1.646270 0.000000 
#    z 0.000000 0.000000 1.661720 
# 
# From -- ./inp_files/4907.got.cif
#   From: 2010.05.17/outbox.cif.g08.bks.cpg/sg25_3_cif.got.tgz:4907.got - 2010.06.04 01:04:00.
