data_PCOD9337246
_publ_section_title
;
Structure prediction by ZEFSAII (Michael W. Deem and Ramdas Pophale) SiO2 
 PCOD9337246
Probable space group: P M M 2
;
_chemical_formula_sum "Si O2"
_cell_formula_units_Z 32
_cell_length_a 9.556093
_cell_length_b 21.399506
_cell_length_c 7.463663
_cell_angle_alpha 90.000000
_cell_angle_beta 90.000000
_cell_angle_gamma 90.000000
_cell_volume 1526.286762
_symmetry_space_group_name_H-M "P M M 2"
_symmetry_group_IT_number 25
_symmetry_cell_setting 'orthorhombic'
loop_
_space_group_symop_operation_xyz
x,y,z
-x,-y,z
-x,y,z
x,-y,z
loop_
_atom_site_type_symbol
_atom_site_label
_atom_site_fract_x
_atom_site_fract_y
_atom_site_fract_z
Si Si1 0.661826 0.429158 0.755640
Si Si2 0.658429 0.808201 0.706043
Si Si3 0.841700 0.314277 0.305301
Si Si4 0.346118 0.203379 0.286599
Si Si5 0.663522 0.067187 0.147316
Si Si6 0.166852 0.929961 0.783645
Si Si7 0.838461 0.691233 0.744384
Si Si8 0.661145 0.568773 0.319338
O O1 0.500000 0.417719 0.808831
O O2 0.700667 0.500000 0.812272
O O3 0.762706 0.372328 0.807621
O O4 0.662803 0.429810 0.537152
O O5 0.500000 0.816041 0.778539
O O6 0.643641 0.789175 0.499560
O O7 0.745488 0.872522 0.704946
O O8 0.747285 0.752335 0.794176
O O9 0.770109 0.252181 0.229280
O O10 0.841129 0.311283 0.524511
O O11 0.753244 0.374597 0.253288
O O12 0.000000 0.319638 0.246902
O O13 0.500000 0.217590 0.209775
O O14 0.313558 0.131058 0.251809
O O15 0.500000 0.068878 0.085427
O O16 0.679389 0.000000 0.243773
O O17 0.771853 0.067458 0.984658
O O18 0.000000 0.918516 0.778847
O O19 0.191752 0.000000 0.706543
O O20 0.000000 0.695851 0.801335
O O21 0.500000 0.576136 0.264884
O O22 0.710569 0.500000 0.264206
#
# Coordination Sequence:
#
# PCOD9337246 Si02
#       8
#     4   4   4   4   4   4   4   4
#     4   8  13  21  33  50  75 110 151 190 227 271
#     4  10  19  31  49  71  95 125 159 194 233 277
#     4   9  16  24  36  56  84 117 150 186 228 274
#     4   9  18  31  48  70  95 123 155 193 234 276
#     4   9  18  34  54  73  93 119 153 192 232 275
#     4  10  21  36  52  71  96 124 153 188 232 280
#     4   9  16  25  37  56  85 118 151 189 232 276
#     4   8  13  21  33  49  73 109 150 188 226 269
#
# _framework density 20.965917000000001
#
# number of rings (size 3 to 8) (size 9 to 14) (size 15 to 20)
#    0.000    3.000    0.000    2.250    0.000    5.750 
#    0.000    3.750    0.000    1.500    0.000    0.000 
#    0.000    1.000    0.000    8.750    0.000   14.625 
#
# Total GULP energy -178416.264750 kJ/mol
# GULP energy per Si atom -5575.508273 kJ/mol
# Density = 2.091820 g / cm^3
# Si number density = 20.965917 Si / 1000 Ang^3
#
#
#
# Elastic Constant Matrix: (Units=GPa)
#
#
# Indices 1 2 3 4 5 6 
#
# 1 150.4762 120.7637 5.1980 0.0000 0.0000 0.0000
# 2 120.7637 180.4061 -5.4194 0.0000 0.0000 0.0000
# 3 5.1980 -5.4194 38.9757 0.0000 0.0000 0.0000
# 4 0.0000 0.0000 0.0000 -617.0543 0.0000 0.0000
# 5 0.0000 0.0000 0.0000 0.0000 3.8778 0.0000
# 6 0.0000 0.0000 0.0000 0.0000 0.0000 -9.4863
#
#
#
# Elastic Compliance Matrix: (Units=1/GPa)
#
#
# Indices 1 2 3 4 5 6 
#
# 1 0.014786 -0.009999 -0.003362 0.000000 0.000000 0.000000
# 2 -0.009999 0.012328 0.003048 0.000000 0.000000 0.000000
# 3 -0.003362 0.003048 0.026529 0.000000 0.000000 0.000000
# 4 0.000000 0.000000 0.000000 -0.001621 0.000000 0.000000
# 5 0.000000 0.000000 0.000000 0.000000 0.257881 0.000000
# 6 0.000000 0.000000 0.000000 0.000000 0.000000 -0.105415
#
#
# Mechanical properties :
#
#
# Convention : Reuss Voigt Hill
#
# Bulk Modulus (GPa) = 30.28814 67.88250 49.08532
# Shear Modulus (GPa) = 21.17560 -107.91151 -43.36796
#
# Velocity S-wave (km/s) = 3.18150 -7.18204 -4.55301
# Velocity P-wave (km/s) = 5.28901 6.02725 2.04379
#
# Compressibility (1/GPa) = 0.03301622
#
# Stress axis : x y z
#
# Youngs Moduli (GPa) = 67.63020 81.11699 37.69433
#
# Poissons Ratio (x) = 0.81108 0.12674
# Poissons Ratio (y) = 0.67623 -0.11488
# Poissons Ratio (z) = 0.22739 -0.24721
#
# Static dielectric constant tensor:
#      x y z
#    x 1.721700 0.000000 0.000000 
#    y 0.000000 1.756170 0.000000 
#    z 0.000000 0.000000 1.808250 
# 
# From -- ./inp_files/4428.got.cif
#   From: 2010.05.17/outbox.cif.g08.bks.cpg/sg25_3_cif.got.tgz:4428.got - 2010.06.04 01:04:00.
