data_PCOD9337930
_publ_section_title
;
Structure prediction by ZEFSAII (Michael W. Deem and Ramdas Pophale) SiO2 
 PCOD9337930
Probable space group: P M C 21
;
_chemical_formula_sum "Si O2"
_cell_formula_units_Z 18
_cell_length_a 21.900499
_cell_length_b 6.612502
_cell_length_c 5.194313
_cell_angle_alpha 90.000000
_cell_angle_beta 90.000000
_cell_angle_gamma 90.000000
_cell_volume 752.225311
_symmetry_space_group_name_H-M "P M C 21"
_symmetry_group_IT_number 26
_symmetry_cell_setting 'orthorhombic'
loop_
_space_group_symop_operation_xyz
x,y,z
-x,-y,1/2+z
-x,y,z
x,-y,1/2+z
loop_
_atom_site_type_symbol
_atom_site_label
_atom_site_fract_x
_atom_site_fract_y
_atom_site_fract_z
Si Si1 0.695908 0.359383 0.423120
Si Si2 0.178590 0.791540 0.085262
Si Si3 0.565962 0.360138 0.517533
Si Si4 0.870469 0.246208 0.086901
Si Si5 0.000000 0.136575 0.917062
O O1 0.698284 0.533043 0.645267
O O2 0.753846 0.216276 0.470155
O O3 0.630303 0.251501 0.466257
O O4 0.134973 0.681315 0.879145
O O5 0.149495 0.010890 0.132595
O O6 0.177520 0.693137 0.367151
O O7 0.500000 0.254100 0.488056
O O8 0.566964 0.462687 0.799584
O O9 0.938054 0.256050 0.974500
O O10 0.000000 0.043384 0.631617
#
# Coordination Sequence:
#
# PCOD9337930 Si02
#       5
#     4   4   4   4   2
#     4  10  19  30  45  67  93 124 151 176 219 270
#     4  10  18  30  44  67  95 115 145 182 223 273
#     4   8  14  25  41  61  85 111 146 188 220 247
#     4  10  19  30  48  72  87 112 144 188 236 258
#     4  12  16  30  48  74  92 102 144 196 240 264
#
# _framework density 23.928999999999998
#
# number of rings (size 3 to 8) (size 9 to 14) (size 15 to 20)
#    0.000    2.222    4.444    1.333    0.000    0.000 
#    0.000    0.000    0.000    0.000    0.000   32.667 
#    0.000    0.000    0.000    0.000    0.000    0.000 
#
# Total GULP energy -100351.151987 kJ/mol
# GULP energy per Si atom -5575.063999 kJ/mol
# Density = 2.387454 g / cm^3
# Si number density = 23.929000 Si / 1000 Ang^3
#
#
#
# Elastic Constant Matrix: (Units=GPa)
#
#
# Indices 1 2 3 4 5 6 
#
# 1 185.7272 -10.0788 -18.3841 0.0000 0.0000 0.0000
# 2 -10.0788 46.6324 -24.0696 0.0000 0.0000 0.0000
# 3 -18.3841 -24.0696 144.6997 0.0000 0.0000 0.0000
# 4 0.0000 0.0000 0.0000 -21.4260 0.0000 0.0000
# 5 0.0000 0.0000 0.0000 0.0000 35.4755 0.0000
# 6 0.0000 0.0000 0.0000 0.0000 0.0000 14.2917
#
#
#
# Elastic Compliance Matrix: (Units=1/GPa)
#
#
# Indices 1 2 3 4 5 6 
#
# 1 0.005576 0.001718 0.000994 0.000000 0.000000 0.000000
# 2 0.001718 0.023988 0.004209 0.000000 0.000000 0.000000
# 3 0.000994 0.004209 0.007737 0.000000 0.000000 0.000000
# 4 0.000000 0.000000 0.000000 -0.046672 0.000000 0.000000
# 5 0.000000 0.000000 0.000000 0.000000 0.028188 0.000000
# 6 0.000000 0.000000 0.000000 0.000000 0.000000 0.069971
#
#
# Mechanical properties :
#
#
# Convention : Reuss Voigt Hill
#
# Bulk Modulus (GPa) = 19.55288 30.22156 24.88722
# Shear Modulus (GPa) = 54.35152 34.30769 44.32960
#
# Velocity S-wave (km/s) = 4.77106 3.79057 4.30879
# Velocity P-wave (km/s) = 6.20803 5.64048 5.93104
#
# Compressibility (1/GPa) = 0.05114335
#
# Stress axis : x y z
#
# Youngs Moduli (GPa) = 179.34307 41.68753 129.24506
#
# Poissons Ratio (x) = -0.07163 -0.12850
# Poissons Ratio (y) = -0.30817 -0.54393
# Poissons Ratio (z) = -0.17831 -0.17544
#
# Static dielectric constant tensor:
#      x y z
#    x 1.955120 0.000000 0.000000 
#    y 0.000000 2.569310 0.000000 
#    z 0.000000 0.000000 1.990810 
# 
# From -- ./inp_files/556.got.cif
#   From: 2010.05.17/outbox.cif.g08.bks.cpg/sg26_1_cif.got.tgz:556.got - 2010.06.04 01:07:29.
