data_PCOD9337364
_publ_section_title
;
Structure prediction by ZEFSAII (Michael W. Deem and Ramdas Pophale) SiO2 
 PCOD9337364
Probable space group: P M M 2
;
_chemical_formula_sum "Si O2"
_cell_formula_units_Z 32
_cell_length_a 9.857260
_cell_length_b 7.434308
_cell_length_c 21.520358
_cell_angle_alpha 90.000000
_cell_angle_beta 90.000000
_cell_angle_gamma 90.000000
_cell_volume 1577.052871
_symmetry_space_group_name_H-M "P M M 2"
_symmetry_group_IT_number 25
_symmetry_cell_setting 'orthorhombic'
loop_
_space_group_symop_operation_xyz
x,y,z
-x,-y,z
-x,y,z
x,-y,z
loop_
_atom_site_type_symbol
_atom_site_label
_atom_site_fract_x
_atom_site_fract_y
_atom_site_fract_z
Si Si1 0.654182 0.715246 0.927730
Si Si2 0.843075 0.779341 0.676881
Si Si3 0.346347 0.285713 0.289329
Si Si4 0.835033 0.792276 0.541323
Si Si5 0.156043 0.280531 0.178610
Si Si6 0.654496 0.215035 0.788652
Si Si7 0.155569 0.280605 0.038200
Si Si8 0.154879 0.783382 0.405809
O O1 0.500000 0.785453 0.930860
O O2 0.647544 0.500000 0.934539
O O3 0.707161 0.750119 0.858236
O O4 0.746918 0.783526 0.983571
O O5 0.795029 0.716682 0.608449
O O6 0.749625 0.718273 0.733414
O O7 0.000000 0.726900 0.685750
O O8 0.841864 0.000000 0.675337
O O9 0.500000 0.215040 0.293349
O O10 0.356418 0.500000 0.280487
O O11 0.259331 0.215858 0.230964
O O12 0.258949 0.258239 0.351428
O O13 0.799645 0.714261 0.473938
O O14 0.000000 0.792816 0.542055
O O15 0.788864 0.000000 0.541121
O O16 0.155947 0.500000 0.179637
O O17 0.193452 0.226227 0.108364
O O18 0.000000 0.225610 0.191006
O O19 0.500000 0.285213 0.785099
O O20 0.647701 0.000000 0.781679
O O21 0.157652 0.500000 0.037718
O O22 0.000000 0.226498 0.027344
O O23 0.000000 0.720960 0.392543
O O24 0.147559 0.000000 0.410871
#
# Coordination Sequence:
#
# PCOD9337364 Si02
#       8
#     4   4   4   4   4   4   4   4
#     4   9  17  28  42  60  82 109 139 169 204 249
#     4   8  13  23  41  63  84 106 135 173 213 249
#     4  10  20  31  44  66  95 123 150 182 220 262
#     4   7  11  22  41  64  86 106 134 175 217 253
#     4   8  14  26  44  64  85 110 142 180 219 256
#     4   9  17  28  41  59  84 111 138 169 204 244
#     4   8  14  25  42  64  86 106 134 176 218 249
#     4   9  17  30  49  70  90 116 150 185 223 268
#
# _framework density 20.291013
#
# number of rings (size 3 to 8) (size 9 to 14) (size 15 to 20)
#    0.000    3.500    0.000    2.625    0.000    2.000 
#    0.000    3.125    0.000    3.750    0.000    7.000 
#    0.000    0.000    0.000    0.000    0.000    0.000 
#
# Total GULP energy -178347.820562 kJ/mol
# GULP energy per Si atom -5573.369393 kJ/mol
# Density = 2.024483 g / cm^3
# Si number density = 20.291013 Si / 1000 Ang^3
#
#
#
# Elastic Constant Matrix: (Units=GPa)
#
#
# Indices 1 2 3 4 5 6 
#
# 1 108.7733 5.0424 129.3341 0.0000 0.0000 0.0000
# 2 5.0424 63.7210 3.5505 0.0000 0.0000 0.0000
# 3 129.3341 3.5505 240.7829 0.0000 0.0000 0.0000
# 4 0.0000 0.0000 0.0000 16.0207 0.0000 0.0000
# 5 0.0000 0.0000 0.0000 0.0000 -29.2787 0.0000
# 6 0.0000 0.0000 0.0000 0.0000 0.0000 2.6538
#
#
#
# Elastic Compliance Matrix: (Units=1/GPa)
#
#
# Indices 1 2 3 4 5 6 
#
# 1 0.025544 -0.001258 -0.013702 0.000000 0.000000 0.000000
# 2 -0.001258 0.015768 0.000443 0.000000 0.000000 0.000000
# 3 -0.013702 0.000443 0.011506 0.000000 0.000000 0.000000
# 4 0.000000 0.000000 0.000000 0.062419 0.000000 0.000000
# 5 0.000000 0.000000 0.000000 0.000000 -0.034155 0.000000
# 6 0.000000 0.000000 0.000000 0.000000 0.000000 0.376822
#
#
# Mechanical properties :
#
#
# Convention : Reuss Voigt Hill
#
# Bulk Modulus (GPa) = 42.04328 76.57011 59.30670
# Shear Modulus (GPa) = 10.10373 16.23584 13.16978
#
# Velocity S-wave (km/s) = 2.23388 2.83176 2.55040
# Velocity P-wave (km/s) = 5.23629 6.96489 6.16151
#
# Compressibility (1/GPa) = 0.02378501
#
# Stress axis : x y z
#
# Youngs Moduli (GPa) = 39.14846 63.41850 86.90746
#
# Poissons Ratio (x) = 0.07977 1.19081
# Poissons Ratio (y) = 0.04924 -0.03851
# Poissons Ratio (z) = 0.53641 -0.02810
#
# Static dielectric constant tensor:
#      x y z
#    x 1.688790 0.000000 0.000000 
#    y 0.000000 1.812360 0.000000 
#    z 0.000000 0.000000 1.726530 
# 
# From -- ./inp_files/6310.got.cif
#   From: 2010.05.17/outbox.cif.g08.bks.cpg/sg25_4_cif.got.tgz:6310.got - 2010.06.04 01:04:00.
