data_PCOD9337555
_publ_section_title
;
Structure prediction by ZEFSAII (Michael W. Deem and Ramdas Pophale) SiO2 
 PCOD9337555
Probable space group: P M M 2
;
_chemical_formula_sum "Si O2"
_cell_formula_units_Z 24
_cell_length_a 7.848345
_cell_length_b 14.628658
_cell_length_c 10.599882
_cell_angle_alpha 90.000000
_cell_angle_beta 90.000000
_cell_angle_gamma 90.000000
_cell_volume 1216.980454
_symmetry_space_group_name_H-M "P M M 2"
_symmetry_group_IT_number 25
_symmetry_cell_setting 'orthorhombic'
loop_
_space_group_symop_operation_xyz
x,y,z
-x,-y,z
-x,y,z
x,-y,z
loop_
_atom_site_type_symbol
_atom_site_label
_atom_site_fract_x
_atom_site_fract_y
_atom_site_fract_z
Si Si1 0.708265 0.102867 0.372660
Si Si2 0.206673 0.605891 0.236871
Si Si3 0.294761 0.897946 0.081537
Si Si4 0.202949 0.396477 0.737250
Si Si5 0.204030 0.292959 0.984224
Si Si6 0.299287 0.287236 0.489690
O O1 0.500000 0.104437 0.372837
O O2 0.761273 0.118886 0.226856
O O3 0.769419 0.185509 0.459920
O O4 0.760333 0.000000 0.408569
O O5 0.258193 0.500000 0.233052
O O6 0.269363 0.654520 0.363160
O O7 0.000000 0.608773 0.238647
O O8 0.268256 0.658601 0.112032
O O9 0.500000 0.899153 0.083294
O O10 0.236423 0.000000 0.045101
O O11 0.240024 0.814483 0.994789
O O12 0.271791 0.500000 0.727365
O O13 0.271668 0.342143 0.858906
O O14 0.227831 0.339642 0.609882
O O15 0.000000 0.404376 0.755345
O O16 0.000000 0.303988 0.984848
O O17 0.500000 0.278778 0.511117
#
# Coordination Sequence:
#
# PCOD9337555 Si02
#       6
#     4   4   4   4   4   4
#     4   8  15  30  52  77 106 139 171 208 260 319
#     4  10  20  34  53  77 105 137 176 222 271 324
#     4   9  17  32  55  81 110 143 175 211 266 328
#     4  10  22  40  57  73 104 150 187 217 264 323
#     4  10  20  35  56  80 105 138 183 227 265 310
#     4  11  21  34  55  82 108 137 178 225 268 314
#
# _framework density 19.720942000000001
#
# number of rings (size 3 to 8) (size 9 to 14) (size 15 to 20)
#    0.000    2.333    1.667    2.500    0.000    5.667 
#    0.000    0.833    0.000    8.000    0.000    0.000 
#    0.000    0.000    0.000    0.000    0.000    0.000 
#
# Total GULP energy -133945.143986 kJ/mol
# GULP energy per Si atom -5581.047666 kJ/mol
# Density = 1.967606 g / cm^3
# Si number density = 19.720942 Si / 1000 Ang^3
#
#
#
# Elastic Constant Matrix: (Units=GPa)
#
#
# Indices 1 2 3 4 5 6 
#
# 1 20.3471 3.1485 1.6236 0.0000 0.0000 0.0000
# 2 3.1485 189.6906 92.0464 0.0000 0.0000 0.0000
# 3 1.6236 92.0464 139.1006 0.0000 0.0000 0.0000
# 4 0.0000 0.0000 0.0000 30.0360 0.0000 0.0000
# 5 0.0000 0.0000 0.0000 0.0000 -17.8776 0.0000
# 6 0.0000 0.0000 0.0000 0.0000 0.0000 22.7362
#
#
#
# Elastic Compliance Matrix: (Units=1/GPa)
#
#
# Indices 1 2 3 4 5 6 
#
# 1 0.049274 -0.000794 -0.000050 0.000000 0.000000 0.000000
# 2 -0.000794 0.007778 -0.005138 0.000000 0.000000 0.000000
# 3 -0.000050 -0.005138 0.010589 0.000000 0.000000 0.000000
# 4 0.000000 0.000000 0.000000 0.033293 0.000000 0.000000
# 5 0.000000 0.000000 0.000000 0.000000 -0.055936 0.000000
# 6 0.000000 0.000000 0.000000 0.000000 0.000000 0.043983
#
#
# Mechanical properties :
#
#
# Convention : Reuss Voigt Hill
#
# Bulk Modulus (GPa) = 17.96022 60.30836 39.13429
# Shear Modulus (GPa) = 41.83997 23.80024 32.82010
#
# Velocity S-wave (km/s) = 4.61108 3.47774 4.08392
# Velocity P-wave (km/s) = 6.12180 6.83912 6.49037
#
# Compressibility (1/GPa) = 0.05567861
#
# Stress axis : x y z
#
# Youngs Moduli (GPa) = 20.29479 128.56956 94.43511
#
# Poissons Ratio (x) = 0.10203 0.00472
# Poissons Ratio (y) = 0.01611 0.48517
# Poissons Ratio (z) = 0.00101 0.66053
#
# Static dielectric constant tensor:
#      x y z
#    x 1.730880 0.000000 0.000000 
#    y 0.000000 1.708780 0.000000 
#    z 0.000000 0.000000 1.659950 
# 
# From -- ./inp_files/1992.got.cif
#   From: 2010.05.17/outbox.cif.g08.bks.cpg/sg25_1_cif.got.tgz:1992.got - 2010.06.04 01:04:00.
