data_PCOD9337788
_publ_section_title
;
Structure prediction by ZEFSAII (Michael W. Deem and Ramdas Pophale) SiO2 
 PCOD9337788
Probable space group: P M M 2
;
_chemical_formula_sum "Si O2"
_cell_formula_units_Z 24
_cell_length_a 12.840643
_cell_length_b 8.839491
_cell_length_c 11.965300
_cell_angle_alpha 90.000000
_cell_angle_beta 90.000000
_cell_angle_gamma 90.000000
_cell_volume 1358.118364
_symmetry_space_group_name_H-M "P M M 2"
_symmetry_group_IT_number 25
_symmetry_cell_setting 'orthorhombic'
loop_
_space_group_symop_operation_xyz
x,y,z
-x,-y,z
-x,y,z
x,-y,z
loop_
_atom_site_type_symbol
_atom_site_label
_atom_site_fract_x
_atom_site_fract_y
_atom_site_fract_z
Si Si1 0.622186 0.681293 0.273020
Si Si2 0.804069 0.180110 0.872423
Si Si3 0.000000 0.819752 0.031931
Si Si4 0.193258 0.180155 0.409860
Si Si5 0.123267 0.319054 0.640689
Si Si6 0.000000 0.319811 0.275318
Si Si7 0.621609 0.681627 0.014177
O O1 0.500000 0.713207 0.292136
O O2 0.636816 0.500000 0.284296
O O3 0.698362 0.766862 0.356025
O O4 0.646131 0.720942 0.143543
O O5 0.827612 0.261776 0.755966
O O6 0.802307 0.000000 0.854769
O O7 0.898582 0.214368 0.957739
O O8 0.698544 0.236008 0.930174
O O9 0.000000 0.728013 0.146257
O O10 0.000000 0.000000 0.057092
O O11 0.177283 0.242103 0.534647
O O12 0.101295 0.251880 0.335380
O O13 0.184612 0.000000 0.408468
O O14 0.132128 0.500000 0.631845
O O15 0.000000 0.280185 0.639604
O O16 0.000000 0.500000 0.287469
O O17 0.500000 0.717385 0.994779
O O18 0.633455 0.500000 0.003730
#
# Coordination Sequence:
#
# PCOD9337788 Si02
#       7
#     4   4   2   4   4   2   4
#     4   9  19  38  63  89 119 156 197 240 287 343
#     4  11  22  37  58  85 119 152 189 237 292 348
#     4  10  22  37  54  83 120 151 181 231 295 348
#     4  12  24  38  59  86 119 153 191 241 296 348
#     4  11  23  40  62  84 111 153 201 240 285 348
#     4  12  24  37  56  83 116 153 195 239 285 344
#     4   9  19  37  60  86 117 154 196 240 286 339
#
# _framework density 17.671509
#
# number of rings (size 3 to 8) (size 9 to 14) (size 15 to 20)
#    0.000    1.500    1.667    5.250    0.000    6.000 
#    0.000    2.500    0.000    5.000    0.000    0.000 
#    0.000    0.000    0.000    0.000    0.000    0.000 
#
# Total GULP energy -134160.711881 kJ/mol
# GULP energy per Si atom -5590.029662 kJ/mol
# Density = 1.763129 g / cm^3
# Si number density = 17.671509 Si / 1000 Ang^3
#
#
#
# Elastic Constant Matrix: (Units=GPa)
#
#
# Indices 1 2 3 4 5 6 
#
# 1 95.6429 60.9300 78.5491 0.0000 0.0000 0.0000
# 2 60.9300 91.5667 80.5737 0.0000 0.0000 0.0000
# 3 78.5491 80.5737 143.7373 0.0000 0.0000 0.0000
# 4 0.0000 0.0000 0.0000 20.9547 0.0000 0.0000
# 5 0.0000 0.0000 0.0000 0.0000 0.0681 0.0000
# 6 0.0000 0.0000 0.0000 0.0000 0.0000 24.1579
#
#
#
# Elastic Compliance Matrix: (Units=1/GPa)
#
#
# Indices 1 2 3 4 5 6 
#
# 1 0.021476 -0.007821 -0.007352 0.000000 0.000000 0.000000
# 2 -0.007821 0.024400 -0.009404 0.000000 0.000000 0.000000
# 3 -0.007352 -0.009404 0.016246 0.000000 0.000000 0.000000
# 4 0.000000 0.000000 0.000000 0.047722 0.000000 0.000000
# 5 0.000000 0.000000 0.000000 0.000000 14.683635 0.000000
# 6 0.000000 0.000000 0.000000 0.000000 0.000000 0.041394
#
#
# Mechanical properties :
#
#
# Convention : Reuss Voigt Hill
#
# Bulk Modulus (GPa) = 77.10874 85.67251 81.39063
# Shear Modulus (GPa) = 0.33583 16.42907 8.38245
#
# Velocity S-wave (km/s) = 0.43641 3.05239 2.18032
# Velocity P-wave (km/s) = 6.63198 7.81080 7.24541
#
# Compressibility (1/GPa) = 0.01296870
#
# Stress axis : x y z
#
# Youngs Moduli (GPa) = 46.56348 40.98342 61.55331
#
# Poissons Ratio (x) = 0.32054 0.45253
# Poissons Ratio (y) = 0.36419 0.57882
# Poissons Ratio (z) = 0.34233 0.38539
#
# Static dielectric constant tensor:
#      x y z
#    x 1.583770 0.000000 0.000000 
#    y 0.000000 1.586820 0.000000 
#    z 0.000000 0.000000 1.571290 
# 
# From -- ./inp_files/4549.got.cif
#   From: 2010.05.17/outbox.cif.g08.bks.cpg/sg25_3_cif.got.tgz:4549.got - 2010.06.04 01:04:00.
