data_PCOD9337090
_publ_section_title
;
Structure prediction by ZEFSAII (Michael W. Deem and Ramdas Pophale) SiO2 
 PCOD9337090
Probable space group: P M M 2
;
_chemical_formula_sum "Si O2"
_cell_formula_units_Z 32
_cell_length_a 13.234213
_cell_length_b 31.267950
_cell_length_c 5.289152
_cell_angle_alpha 90.000000
_cell_angle_beta 90.000000
_cell_angle_gamma 90.000000
_cell_volume 2188.686590
_symmetry_space_group_name_H-M "P M M 2"
_symmetry_group_IT_number 25
_symmetry_cell_setting 'orthorhombic'
loop_
_space_group_symop_operation_xyz
x,y,z
-x,-y,z
-x,y,z
x,-y,z
loop_
_atom_site_type_symbol
_atom_site_label
_atom_site_fract_x
_atom_site_fract_y
_atom_site_fract_z
Si Si1 0.885132 0.102272 0.077450
Si Si2 0.122624 0.750768 0.577452
Si Si3 0.683172 0.949268 0.077450
Si Si4 0.816092 0.151439 0.577450
Si Si5 0.876762 0.399714 0.077450
Si Si6 0.877344 0.698765 0.077452
Si Si7 0.123132 0.549359 0.577450
Si Si8 0.614712 0.099772 0.577450
O O1 0.800724 0.065297 0.077450
O O2 0.865602 0.130787 0.327008
O O3 0.000000 0.086581 0.077450
O O4 0.865602 0.130787 0.827892
O O5 0.167900 0.798063 0.577450
O O6 0.152442 0.724335 0.328440
O O7 0.000000 0.754914 0.577452
O O8 0.152442 0.724336 0.826465
O O9 0.634530 0.928658 0.327945
O O10 0.672620 0.000000 0.077450
O O11 0.634530 0.928658 0.826954
O O12 0.699217 0.136754 0.577450
O O13 0.845132 0.425203 0.827480
O O14 0.000000 0.399152 0.077450
O O15 0.843097 0.350449 0.077450
O O16 0.845132 0.425203 0.327421
O O17 0.000000 0.697497 0.077452
O O18 0.155893 0.500000 0.577450
O O19 0.000000 0.548892 0.577451
O O20 0.500000 0.115470 0.577450
#
# Coordination Sequence:
#
# PCOD9337090 Si02
#       8
#     4   4   4   4   4   4   4   4
#     4  10  19  32  48  66  91 118 140 166 204 244
#     4  10  17  26  40  57  77  99 127 159 196 243
#     4  10  21  34  50  73  93 113 144 172 200 247
#     4  10  20  32  47  67  87 110 142 174 205 247
#     4   9  15  23  31  41  62  86 114 154 197 240
#     4   9  17  25  35  52  72  98 125 154 199 246
#     4   9  15  21  30  42  56  81 118 159 201 237
#     4  10  21  36  52  69  90 114 140 174 214 246
#
# _framework density 14.62064
#
# number of rings (size 3 to 8) (size 9 to 14) (size 15 to 20)
#    0.000    2.375    0.000    3.750    0.000    7.250 
#    0.000    0.000    0.000    4.500    0.000    0.000 
#    0.000    0.000    0.000    0.000    0.000    0.000 
#
# Total GULP energy -178435.861944 kJ/mol
# GULP energy per Si atom -5576.120686 kJ/mol
# Density = 1.458736 g / cm^3
# Si number density = 14.620640 Si / 1000 Ang^3
#
#
#
# Elastic Constant Matrix: (Units=GPa)
#
#
# Indices 1 2 3 4 5 6 
#
# 1 60.8104 12.0684 17.3058 0.0000 0.0000 0.0000
# 2 12.0684 106.4319 52.1958 0.0000 0.0000 0.0000
# 3 17.3058 52.1958 140.4426 0.0000 0.0000 0.0000
# 4 0.0000 0.0000 0.0000 13.0894 0.0000 0.0000
# 5 0.0000 0.0000 0.0000 0.0000 -3.9006 0.0000
# 6 0.0000 0.0000 0.0000 0.0000 0.0000 6.5710
#
#
#
# Elastic Compliance Matrix: (Units=1/GPa)
#
#
# Indices 1 2 3 4 5 6 
#
# 1 0.017149 -0.001111 -0.001700 0.000000 0.000000 0.000000
# 2 -0.001111 0.011562 -0.004160 0.000000 0.000000 0.000000
# 3 -0.001700 -0.004160 0.008876 0.000000 0.000000 0.000000
# 4 0.000000 0.000000 0.000000 0.076398 0.000000 0.000000
# 5 0.000000 0.000000 0.000000 0.000000 -0.256369 0.000000
# 6 0.000000 0.000000 0.000000 0.000000 0.000000 0.152183
#
#
# Mechanical properties :
#
#
# Convention : Reuss Voigt Hill
#
# Bulk Modulus (GPa) = 42.29326 52.31387 47.30357
# Shear Modulus (GPa) = 158.11498 18.22628 88.17063
#
# Velocity S-wave (km/s) = 10.41056 3.53457 7.77409
# Velocity P-wave (km/s) = 13.17180 7.24680 10.63044
#
# Compressibility (1/GPa) = 0.02364443
#
# Stress axis : x y z
#
# Youngs Moduli (GPa) = 58.31284 86.49178 112.66352
#
# Poissons Ratio (x) = 0.09606 0.19157
# Poissons Ratio (y) = 0.06476 0.46869
# Poissons Ratio (z) = 0.09915 0.35982
#
# Static dielectric constant tensor:
#      x y z
#    x 1.456340 0.000000 0.000000 
#    y 0.000000 1.462540 0.000000 
#    z 0.000000 0.000000 1.493340 
# 
# From -- ./inp_files/769.got.cif
#   From: 2010.05.17/outbox.cif.g08.bks.cpg/sg25_1_cif.got.tgz:769.got - 2010.06.04 01:04:00.
