data_PCOD9337167
_publ_section_title
;
Structure prediction by ZEFSAII (Michael W. Deem and Ramdas Pophale) SiO2 
 PCOD9337167
Probable space group: P M M 2
;
_chemical_formula_sum "Si O2"
_cell_formula_units_Z 32
_cell_length_a 15.313476
_cell_length_b 7.969993
_cell_length_c 12.569048
_cell_angle_alpha 90.000000
_cell_angle_beta 90.000000
_cell_angle_gamma 90.000000
_cell_volume 1534.030897
_symmetry_space_group_name_H-M "P M M 2"
_symmetry_group_IT_number 25
_symmetry_cell_setting 'orthorhombic'
loop_
_space_group_symop_operation_xyz
x,y,z
-x,-y,z
-x,y,z
x,-y,z
loop_
_atom_site_type_symbol
_atom_site_label
_atom_site_fract_x
_atom_site_fract_y
_atom_site_fract_z
Si Si1 0.400522 0.300288 0.904050
Si Si2 0.722290 0.805395 0.713615
Si Si3 0.322330 0.198699 0.336611
Si Si4 0.905024 0.800744 0.635722
Si Si5 0.595177 0.300601 0.538695
Si Si6 0.094634 0.705031 0.161460
Si Si7 0.133148 0.694321 0.398856
Si Si8 0.286746 0.297217 0.101532
O O1 0.500000 0.233608 0.894909
O O2 0.408377 0.500000 0.919634
O O3 0.341061 0.275013 0.800334
O O4 0.344921 0.232901 0.004175
O O5 0.819150 0.731329 0.694988
O O6 0.671524 0.789894 0.602206
O O7 0.731115 0.000000 0.742404
O O8 0.398323 0.255271 0.414953
O O9 0.236730 0.290358 0.382699
O O10 0.329377 0.248272 0.213923
O O11 0.309456 0.000000 0.344330
O O12 0.893765 0.779282 0.508502
O O13 0.000000 0.730686 0.666419
O O14 0.905765 0.000000 0.656108
O O15 0.500000 0.251423 0.581223
O O16 0.605203 0.500000 0.552490
O O17 0.097157 0.500000 0.162624
O O18 0.098048 0.759680 0.285553
O O19 0.184953 0.760909 0.106258
O O20 0.000000 0.755507 0.116313
O O21 0.107784 0.500000 0.408018
O O22 0.283780 0.500000 0.095826
#
# Coordination Sequence:
#
# PCOD9337167 Si02
#       8
#     4   4   4   4   4   4   4   4
#     4  10  22  41  63  84 109 147 195 246 299 353
#     4  11  23  39  60  85 115 149 189 241 292 345
#     4  11  21  34  54  83 120 156 188 231 288 346
#     4  10  21  36  54  80 116 156 193 233 289 350
#     4  11  23  38  58  84 115 152 190 233 290 353
#     4   8  14  26  47  77 110 142 181 230 281 330
#     4  10  18  30  51  79 113 155 199 238 277 332
#     4   9  19  36  57  81 110 147 192 241 291 345
#
# _framework density 20.860074999999998
#
# number of rings (size 3 to 8) (size 9 to 14) (size 15 to 20)
#    0.000    2.000    1.250    3.750    0.000    5.000 
#    0.000    1.875    0.000    4.125    0.000    0.000 
#    0.000    0.000    0.000    0.000    0.000    0.000 
#
# Total GULP energy -178550.719778 kJ/mol
# GULP energy per Si atom -5579.709993 kJ/mol
# Density = 2.081260 g / cm^3
# Si number density = 20.860075 Si / 1000 Ang^3
#
#
#
# Elastic Constant Matrix: (Units=GPa)
#
#
# Indices 1 2 3 4 5 6 
#
# 1 176.7660 11.2036 67.6333 0.0000 0.0000 0.0000
# 2 11.2036 24.0734 -4.2601 0.0000 0.0000 0.0000
# 3 67.6333 -4.2601 90.0015 0.0000 0.0000 0.0000
# 4 0.0000 0.0000 0.0000 113.1824 0.0000 0.0000
# 5 0.0000 0.0000 0.0000 0.0000 13.1446 0.0000
# 6 0.0000 0.0000 0.0000 0.0000 0.0000 5.5548
#
#
#
# Elastic Compliance Matrix: (Units=1/GPa)
#
#
# Indices 1 2 3 4 5 6 
#
# 1 0.008529 -0.005147 -0.006653 0.000000 0.000000 0.000000
# 2 -0.005147 0.044996 0.005997 0.000000 0.000000 0.000000
# 3 -0.006653 0.005997 0.016394 0.000000 0.000000 0.000000
# 4 0.000000 0.000000 0.000000 0.008835 0.000000 0.000000
# 5 0.000000 0.000000 0.000000 0.000000 0.076077 0.000000
# 6 0.000000 0.000000 0.000000 0.000000 0.000000 0.180023
#
#
# Mechanical properties :
#
#
# Convention : Reuss Voigt Hill
#
# Bulk Modulus (GPa) = 17.14823 48.88828 33.01826
# Shear Modulus (GPa) = 13.66504 40.79396 27.22950
#
# Velocity S-wave (km/s) = 2.56223 4.42701 3.61687
# Velocity P-wave (km/s) = 4.12211 7.04404 5.77106
#
# Compressibility (1/GPa) = 0.05831504
#
# Stress axis : x y z
#
# Youngs Moduli (GPa) = 117.24923 22.22415 60.99735
#
# Poissons Ratio (x) = 0.11438 0.40580
# Poissons Ratio (y) = 0.60343 -0.36582
# Poissons Ratio (z) = 0.78003 -0.13328
#
# Static dielectric constant tensor:
#      x y z
#    x 1.813050 0.000000 0.000000 
#    y 0.000000 1.740370 0.000000 
#    z 0.000000 0.000000 1.727220 
# 
# From -- ./inp_files/4894.got.cif
#   From: 2010.05.17/outbox.cif.g08.bks.cpg/sg25_3_cif.got.tgz:4894.got - 2010.06.04 01:04:00.
