data_PCOD9337859
_publ_section_title
;
Structure prediction by ZEFSAII (Michael W. Deem and Ramdas Pophale) SiO2 
 PCOD9337859
Probable space group: P M M 2
;
_chemical_formula_sum "Si O2"
_cell_formula_units_Z 28
_cell_length_a 7.459249
_cell_length_b 9.524142
_cell_length_c 18.988568
_cell_angle_alpha 90.000000
_cell_angle_beta 90.000000
_cell_angle_gamma 90.000000
_cell_volume 1349.003824
_symmetry_space_group_name_H-M "P M M 2"
_symmetry_group_IT_number 25
_symmetry_cell_setting 'orthorhombic'
loop_
_space_group_symop_operation_xyz
x,y,z
-x,-y,z
-x,y,z
x,-y,z
loop_
_atom_site_type_symbol
_atom_site_label
_atom_site_fract_x
_atom_site_fract_y
_atom_site_fract_z
Si Si1 0.280648 0.338450 0.277080
Si Si2 0.713968 0.339536 0.546906
Si Si3 0.280777 0.161480 0.413907
Si Si4 0.781140 0.836484 0.836927
Si Si5 0.784798 0.162546 0.990014
Si Si6 0.785008 0.659783 0.704301
Si Si7 0.287788 0.839609 0.144457
O O1 0.500000 0.340172 0.276606
O O2 0.222565 0.500000 0.279945
O O3 0.226324 0.250616 0.345728
O O4 0.218651 0.258469 0.206710
O O5 0.500000 0.348313 0.538228
O O6 0.784351 0.500000 0.542169
O O7 0.780277 0.239796 0.484824
O O8 0.747163 0.285285 0.625888
O O9 0.500000 0.160036 0.414337
O O10 0.222668 0.000000 0.410344
O O11 0.717220 0.750726 0.769532
O O12 0.000000 0.833619 0.836031
O O13 0.729769 0.000000 0.832056
O O14 0.724854 0.779807 0.914131
O O15 0.734992 0.222453 0.065940
O O16 0.000000 0.161187 0.988235
O O17 0.722337 0.000000 0.991713
O O18 0.716340 0.500000 0.707457
O O19 0.000000 0.654263 0.710856
O O20 0.500000 0.851683 0.156093
O O21 0.214391 0.000000 0.146318
#
# Coordination Sequence:
#
# PCOD9337859 Si02
#       7
#     4   4   4   4   4   4   4
#     4   9  16  26  41  61  86 115 143 170 205 250
#     4   9  17  29  44  62  86 114 140 168 208 255
#     4   9  16  26  42  64  87 110 140 177 210 241
#     4   8  14  26  44  63  82 108 143 177 207 245
#     4   8  14  26  44  63  83 110 142 173 208 251
#     4   9  17  29  45  64  85 110 141 175 209 246
#     4   9  16  26  42  64  87 109 137 175 213 246
#
# _framework density 20.756056999999998
#
# number of rings (size 3 to 8) (size 9 to 14) (size 15 to 20)
#    0.000    3.286    0.000    1.714    0.000    4.000 
#    0.000    1.429    0.000    3.000    0.000    0.000 
#    0.000    0.000    0.000    0.000    0.000    0.000 
#
# Total GULP energy -156103.866030 kJ/mol
# GULP energy per Si atom -5575.138073 kJ/mol
# Density = 2.070882 g / cm^3
# Si number density = 20.756057 Si / 1000 Ang^3
#
#
#
# Elastic Constant Matrix: (Units=GPa)
#
#
# Indices 1 2 3 4 5 6 
#
# 1 59.4367 4.9730 1.4341 0.0000 0.0000 0.0000
# 2 4.9730 110.4569 120.4025 0.0000 0.0000 0.0000
# 3 1.4341 120.4025 259.1774 0.0000 0.0000 0.0000
# 4 0.0000 0.0000 0.0000 441.1723 0.0000 0.0000
# 5 0.0000 0.0000 0.0000 0.0000 20.8075 0.0000
# 6 0.0000 0.0000 0.0000 0.0000 0.0000 -18.2548
#
#
#
# Elastic Compliance Matrix: (Units=1/GPa)
#
#
# Indices 1 2 3 4 5 6 
#
# 1 0.016924 -0.001337 0.000527 0.000000 0.000000 0.000000
# 2 -0.001337 0.018446 -0.008562 0.000000 0.000000 0.000000
# 3 0.000527 -0.008562 0.007833 0.000000 0.000000 0.000000
# 4 0.000000 0.000000 0.000000 0.002267 0.000000 0.000000
# 5 0.000000 0.000000 0.000000 0.000000 0.048060 0.000000
# 6 0.000000 0.000000 0.000000 0.000000 0.000000 -0.054780
#
#
# Mechanical properties :
#
#
# Convention : Reuss Voigt Hill
#
# Bulk Modulus (GPa) = 40.88260 75.85446 58.36853
# Shear Modulus (GPa) = 76.16643 108.89576 92.53110
#
# Velocity S-wave (km/s) = 6.06429 7.25110 6.68409
# Velocity P-wave (km/s) = 8.29299 10.33100 9.36759
#
# Compressibility (1/GPa) = 0.02446028
#
# Stress axis : x y z
#
# Youngs Moduli (GPa) = 59.08859 54.21111 127.66551
#
# Poissons Ratio (x) = 0.07247 -0.06733
# Poissons Ratio (y) = 0.07899 1.09307
# Poissons Ratio (z) = -0.03116 0.46416
#
# Static dielectric constant tensor:
#      x y z
#    x 1.801040 0.000000 0.000000 
#    y 0.000000 1.704060 0.000000 
#    z 0.000000 0.000000 1.748250 
# 
# From -- ./inp_files/6211.got.cif
#   From: 2010.05.17/outbox.cif.g08.bks.cpg/sg25_4_cif.got.tgz:6211.got - 2010.06.04 01:04:00.
