data_PCOD9337834
_publ_section_title
;
Structure prediction by ZEFSAII (Michael W. Deem and Ramdas Pophale) SiO2 
 PCOD9337834
Probable space group: P M M 2
;
_chemical_formula_sum "Si O2"
_cell_formula_units_Z 28
_cell_length_a 7.373528
_cell_length_b 20.936523
_cell_length_c 7.962524
_cell_angle_alpha 90.000000
_cell_angle_beta 90.000000
_cell_angle_gamma 90.000000
_cell_volume 1229.222912
_symmetry_space_group_name_H-M "P M M 2"
_symmetry_group_IT_number 25
_symmetry_cell_setting 'orthorhombic'
loop_
_space_group_symop_operation_xyz
x,y,z
-x,-y,z
-x,y,z
x,-y,z
loop_
_atom_site_type_symbol
_atom_site_label
_atom_site_fract_x
_atom_site_fract_y
_atom_site_fract_z
Si Si1 0.721617 0.926651 0.760290
Si Si2 0.784306 0.431625 0.923556
Si Si3 0.721574 0.158193 0.075088
Si Si4 0.708817 0.568916 0.527342
Si Si5 0.722273 0.705457 0.558621
Si Si6 0.721024 0.155484 0.442460
Si Si7 0.284957 0.707011 0.946009
O O1 0.500000 0.926414 0.760092
O O2 0.780913 0.889608 0.593269
O O3 0.779367 0.000000 0.764652
O O4 0.779370 0.886341 0.922311
O O5 0.724589 0.500000 0.998272
O O6 0.709239 0.429115 0.732561
O O7 0.742121 0.364819 0.012551
O O8 0.000000 0.433317 0.906709
O O9 0.500000 0.158149 0.074358
O O10 0.778462 0.134746 0.257753
O O11 0.782193 0.231367 0.045092
O O12 0.500000 0.567810 0.471632
O O13 0.791021 0.500000 0.480039
O O14 0.785987 0.638190 0.480584
O O15 0.500000 0.703151 0.557600
O O16 0.776119 0.771086 0.472144
O O17 0.782220 0.708795 0.753396
O O18 0.500000 0.155381 0.447132
O O19 0.500000 0.715439 0.934927
#
# Coordination Sequence:
#
# PCOD9337834 Si02
#       7
#     4   4   4   4   4   4   4
#     4   9  16  25  36  53  82 118 150 178 215 267
#     4   9  16  24  36  59  88 114 144 185 229 268
#     4   9  16  25  38  57  82 113 148 184 220 260
#     4   8  13  21  35  56  80 110 147 181 218 267
#     4   8  12  20  35  52  73 102 135 173 214 253
#     4   9  15  23  36  54  78 110 146 180 217 260
#     4   9  15  25  41  58  81 115 151 185 222 264
#
# _framework density 22.77862
#
# number of rings (size 3 to 8) (size 9 to 14) (size 15 to 20)
#    0.000    3.286    1.429    1.286    0.000    1.429 
#    0.000    2.857    0.000    0.857    0.000    8.000 
#    0.000    9.714    0.000    0.143    0.000    0.000 
#
# Total GULP energy -156167.240628 kJ/mol
# GULP energy per Si atom -5577.401451 kJ/mol
# Density = 2.272677 g / cm^3
# Si number density = 22.778620 Si / 1000 Ang^3
#
#
#
# Elastic Constant Matrix: (Units=GPa)
#
#
# Indices 1 2 3 4 5 6 
#
# 1 81.0942 0.3233 1.6933 0.0000 0.0000 0.0000
# 2 0.3233 220.0532 95.0484 0.0000 0.0000 0.0000
# 3 1.6933 95.0484 125.3698 0.0000 0.0000 0.0000
# 4 0.0000 0.0000 0.0000 -17.3171 0.0000 0.0000
# 5 0.0000 0.0000 0.0000 0.0000 26.5099 0.0000
# 6 0.0000 0.0000 0.0000 0.0000 0.0000 -153.1307
#
#
#
# Elastic Compliance Matrix: (Units=1/GPa)
#
#
# Indices 1 2 3 4 5 6 
#
# 1 0.012336 0.000080 -0.000227 0.000000 0.000000 0.000000
# 2 0.000080 0.006758 -0.005124 0.000000 0.000000 0.000000
# 3 -0.000227 -0.005124 0.011864 0.000000 0.000000 0.000000
# 4 0.000000 0.000000 0.000000 -0.057746 0.000000 0.000000
# 5 0.000000 0.000000 0.000000 0.000000 0.037722 0.000000
# 6 0.000000 0.000000 0.000000 0.000000 0.000000 -0.006530
#
#
# Mechanical properties :
#
#
# Convention : Reuss Voigt Hill
#
# Bulk Modulus (GPa) = 48.98437 68.96079 58.97258
# Shear Modulus (GPa) = 229.87685 -6.82410 111.52638
#
# Velocity S-wave (km/s) = 10.05668 -1.73273 7.00480
# Velocity P-wave (km/s) = 12.50602 5.13195 9.55870
#
# Compressibility (1/GPa) = 0.02041467
#
# Stress axis : x y z
#
# Youngs Moduli (GPa) = 81.06513 147.98150 84.28550
#
# Poissons Ratio (x) = -0.01185 0.01916
# Poissons Ratio (y) = -0.00649 0.43191
# Poissons Ratio (z) = 0.01843 0.75830
#
# Static dielectric constant tensor:
#      x y z
#    x 1.854210 0.000000 0.000000 
#    y 0.000000 1.888040 0.000000 
#    z 0.000000 0.000000 1.813570 
# 
# From -- ./inp_files/2299.got.cif
#   From: 2010.05.17/outbox.cif.g08.bks.cpg/sg25_2_cif.got.tgz:2299.got - 2010.06.04 01:04:00.
