data_PCOD9337856
_publ_section_title
;
Structure prediction by ZEFSAII (Michael W. Deem and Ramdas Pophale) SiO2 
 PCOD9337856
Probable space group: P M M 2
;
_chemical_formula_sum "Si O2"
_cell_formula_units_Z 28
_cell_length_a 21.056560
_cell_length_b 7.549385
_cell_length_c 7.985377
_cell_angle_alpha 90.000000
_cell_angle_beta 90.000000
_cell_angle_gamma 90.000000
_cell_volume 1269.388094
_symmetry_space_group_name_H-M "P M M 2"
_symmetry_group_IT_number 25
_symmetry_cell_setting 'orthorhombic'
loop_
_space_group_symop_operation_xyz
x,y,z
-x,-y,z
-x,y,z
x,-y,z
loop_
_atom_site_type_symbol
_atom_site_label
_atom_site_fract_x
_atom_site_fract_y
_atom_site_fract_z
Si Si1 0.655531 0.792805 0.880180
Si Si2 0.796709 0.298112 0.270568
Si Si3 0.203292 0.298112 0.869258
Si Si4 0.655531 0.207196 0.259652
Si Si5 0.573563 0.217581 0.569916
Si Si6 0.068277 0.707810 0.770911
Si Si7 0.068276 0.707810 0.368913
O O1 0.728936 0.781097 0.821457
O O2 0.609887 0.719392 0.736872
O O3 0.640186 0.000000 0.894707
O O4 0.650566 0.717027 0.069916
O O5 0.796855 0.500000 0.336035
O O6 0.728936 0.218905 0.318372
O O7 0.863971 0.213316 0.318983
O O8 0.796545 0.301644 0.069913
O O9 0.203146 0.500000 0.803791
O O10 0.136029 0.213317 0.820842
O O11 0.609887 0.280609 0.402959
O O12 0.640186 0.000000 0.245127
O O13 0.500000 0.267476 0.569918
O O14 0.576492 0.000000 0.569916
O O15 0.069373 0.500000 0.824922
O O16 0.066820 0.710585 0.569912
O O17 0.000000 0.781341 0.830160
O O18 0.069373 0.500000 0.314901
O O19 0.000000 0.781340 0.309663
#
# Coordination Sequence:
#
# PCOD9337856 Si02
#       7
#     4   4   4   4   4   4   4
#     4   9  18  32  49  70  96 123 150 185 229 272
#     4   9  17  28  44  67  91 118 154 191 227 269
#     4   9  17  28  44  67  91 118 154 191 227 269
#     4   9  18  32  49  70  96 123 150 185 229 272
#     4   9  18  32  51  75  96 117 152 190 223 267
#     4   8  14  24  38  59  87 117 150 189 230 267
#     4   8  14  24  38  59  87 117 150 189 230 267
#
# _framework density 22.057874000000002
#
# number of rings (size 3 to 8) (size 9 to 14) (size 15 to 20)
#    0.000    3.286    0.000    0.857    2.000    1.143 
#    0.000    5.714    0.000    2.571    0.000   10.000 
#    0.000    0.000    0.000    0.000    0.000    0.000 
#
# Total GULP energy -155972.850080 kJ/mol
# GULP energy per Si atom -5570.458931 kJ/mol
# Density = 2.200767 g / cm^3
# Si number density = 22.057874 Si / 1000 Ang^3
#
#
#
# Elastic Constant Matrix: (Units=GPa)
#
#
# Indices 1 2 3 4 5 6 
#
# 1 231.1430 4.3596 102.0939 0.0000 0.0000 0.0000
# 2 4.3596 50.0429 9.4936 0.0000 0.0000 0.0000
# 3 102.0939 9.4936 82.6629 0.0000 0.0000 0.0000
# 4 0.0000 0.0000 0.0000 -1.8053 0.0000 0.0000
# 5 0.0000 0.0000 0.0000 0.0000 65.8562 0.0000
# 6 0.0000 0.0000 0.0000 0.0000 0.0000 17.8119
#
#
#
# Elastic Compliance Matrix: (Units=1/GPa)
#
#
# Indices 1 2 3 4 5 6 
#
# 1 0.009621 0.001448 -0.012048 0.000000 0.000000 0.000000
# 2 0.001448 0.020646 -0.004159 0.000000 0.000000 0.000000
# 3 -0.012048 -0.004159 0.027456 0.000000 0.000000 0.000000
# 4 0.000000 0.000000 0.000000 -0.553933 0.000000 0.000000
# 5 0.000000 0.000000 0.000000 0.000000 0.015185 0.000000
# 6 0.000000 0.000000 0.000000 0.000000 0.000000 0.056142
#
#
# Mechanical properties :
#
#
# Convention : Reuss Voigt Hill
#
# Bulk Modulus (GPa) = 35.45802 66.19368 50.82585
# Shear Modulus (GPa) = -12.95461 32.89933 9.97236
#
# Velocity S-wave (km/s) = -2.42606 3.86618 2.12857
# Velocity P-wave (km/s) = 2.87441 7.07136 5.39751
#
# Compressibility (1/GPa) = 0.02820237
#
# Stress axis : x y z
#
# Youngs Moduli (GPa) = 103.94226 48.43611 36.42245
#
# Poissons Ratio (x) = -0.07012 0.43883
# Poissons Ratio (y) = -0.15046 0.15148
# Poissons Ratio (z) = 1.25234 0.20144
#
# Static dielectric constant tensor:
#      x y z
#    x 1.824570 0.000000 0.000000 
#    y 0.000000 1.871350 0.000000 
#    z 0.000000 0.000000 1.800200 
# 
# From -- ./inp_files/3491.got.cif
#   From: 2010.05.17/outbox.cif.g08.bks.cpg/sg25_2_cif.got.tgz:3491.got - 2010.06.04 01:04:00.
