data_PCOD9337929
_publ_section_title
;
Structure prediction by ZEFSAII (Michael W. Deem and Ramdas Pophale) SiO2 
 PCOD9337929
Probable space group: P M C 21
;
_chemical_formula_sum "Si O2"
_cell_formula_units_Z 24
_cell_length_a 12.290679
_cell_length_b 10.293568
_cell_length_c 7.228853
_cell_angle_alpha 90.000000
_cell_angle_beta 90.000000
_cell_angle_gamma 90.000000
_cell_volume 914.557904
_symmetry_space_group_name_H-M "P M C 21"
_symmetry_group_IT_number 26
_symmetry_cell_setting 'orthorhombic'
loop_
_space_group_symop_operation_xyz
x,y,z
-x,-y,1/2+z
-x,y,z
x,-y,1/2+z
loop_
_atom_site_type_symbol
_atom_site_label
_atom_site_fract_x
_atom_site_fract_y
_atom_site_fract_z
Si Si1 0.811081 0.837160 0.135150
Si Si2 0.376106 0.777909 0.859458
Si Si3 0.711895 0.496084 0.868014
Si Si4 0.752772 0.771233 0.500547
Si Si5 0.000000 0.966975 0.924401
Si Si6 0.000000 0.775395 0.575629
Si Si7 0.125973 0.534742 0.116342
O O1 0.775698 0.872130 0.340791
O O2 0.867697 0.693205 0.135454
O O3 0.895005 0.933586 0.045306
O O4 0.702166 0.827021 0.018270
O O5 0.500000 0.818073 0.870449
O O6 0.365737 0.619882 0.864904
O O7 0.316016 0.817692 0.670807
O O8 0.848992 0.514774 0.872302
O O9 0.687331 0.344393 0.896440
O O10 0.739032 0.505731 0.125058
O O11 0.874554 0.720029 0.567546
O O12 0.000000 0.863716 0.759004
O O13 0.000000 0.122547 0.904528
O O14 0.000000 0.494718 0.119578
#
# Coordination Sequence:
#
# PCOD9337929 Si02
#       7
#     4   4   4   4   2   2   4
#     4  10  22  40  64  95 135 165 222 280 345 404
#     4  11  24  43  63  91 132 187 239 277 321 387
#     4  10  21  34  51  84 126 168 221 264 317 381
#     4  11  23  42  61 101 136 179 224 280 341 403
#     4  12  22  46  71 109 138 171 212 283 358 431
#     4  12  26  40  75 105 140 175 212 281 360 427
#     4  10  18  29  51  81 116 167 200 257 323 394
#
# _framework density 26.242186
#
# number of rings (size 3 to 8) (size 9 to 14) (size 15 to 20)
#    0.000    1.333    4.167    2.000    4.667    1.333 
#    0.000    0.000    0.000    1.000    0.000    0.000 
#    0.000    0.000    0.000    0.000    0.000    0.000 
#
# Total GULP energy -133908.350601 kJ/mol
# GULP energy per Si atom -5579.514608 kJ/mol
# Density = 2.618246 g / cm^3
# Si number density = 26.242186 Si / 1000 Ang^3
#
#
#
# Elastic Constant Matrix: (Units=GPa)
#
#
# Indices 1 2 3 4 5 6 
#
# 1 183.2976 4.9261 70.2873 0.0000 0.0000 0.0000
# 2 4.9261 37.4971 3.6995 0.0000 0.0000 0.0000
# 3 70.2873 3.6995 144.7829 0.0000 0.0000 0.0000
# 4 0.0000 0.0000 0.0000 42.4334 0.0000 0.0000
# 5 0.0000 0.0000 0.0000 0.0000 9.9372 0.0000
# 6 0.0000 0.0000 0.0000 0.0000 0.0000 24.3749
#
#
#
# Elastic Compliance Matrix: (Units=1/GPa)
#
#
# Indices 1 2 3 4 5 6 
#
# 1 0.006715 -0.000562 -0.003246 0.000000 0.000000 0.000000
# 2 -0.000562 0.026783 -0.000412 0.000000 0.000000 0.000000
# 3 -0.003246 -0.000412 0.008493 0.000000 0.000000 0.000000
# 4 0.000000 0.000000 0.000000 0.023566 0.000000 0.000000
# 5 0.000000 0.000000 0.000000 0.000000 0.100632 0.000000
# 6 0.000000 0.000000 0.000000 0.000000 0.000000 0.041026
#
#
# Mechanical properties :
#
#
# Convention : Reuss Voigt Hill
#
# Bulk Modulus (GPa) = 29.80347 58.15593 43.97970
# Shear Modulus (GPa) = 22.04207 34.46006 28.25106
#
# Velocity S-wave (km/s) = 2.90133 3.62768 3.28464
# Velocity P-wave (km/s) = 4.75451 6.30524 5.58397
#
# Compressibility (1/GPa) = 0.03355314
#
# Stress axis : x y z
#
# Youngs Moduli (GPa) = 148.91342 37.33684 117.74279
#
# Poissons Ratio (x) = 0.02098 0.38216
# Poissons Ratio (y) = 0.08369 0.04846
# Poissons Ratio (z) = 0.48333 0.01537
#
# Static dielectric constant tensor:
#      x y z
#    x 1.930010 0.000000 0.000000 
#    y 0.000000 2.104410 0.000000 
#    z 0.000000 0.000000 3.725200 
# 
# From -- ./inp_files/1825.got.cif
#   From: 2010.05.17/outbox.cif.g08.bks.cpg/sg26_1_cif.got.tgz:1825.got - 2010.06.04 01:07:29.
