data_PCOD9337266
_publ_section_title
;
Structure prediction by ZEFSAII (Michael W. Deem and Ramdas Pophale) SiO2 
 PCOD9337266
Probable space group: P M M 2
;
_chemical_formula_sum "Si O2"
_cell_formula_units_Z 20
_cell_length_a 9.214092
_cell_length_b 7.740574
_cell_length_c 15.094634
_cell_angle_alpha 90.000000
_cell_angle_beta 90.000000
_cell_angle_gamma 90.000000
_cell_volume 1076.584935
_symmetry_space_group_name_H-M "P M M 2"
_symmetry_group_IT_number 25
_symmetry_cell_setting 'orthorhombic'
loop_
_space_group_symop_operation_xyz
x,y,z
-x,-y,z
-x,y,z
x,-y,z
loop_
_atom_site_type_symbol
_atom_site_label
_atom_site_fract_x
_atom_site_fract_y
_atom_site_fract_z
Si Si1 0.336342 0.302583 0.953300
Si Si2 0.334033 0.211146 0.292403
Si Si3 0.175928 0.500000 0.607207
Si Si4 0.174586 0.798237 0.473869
Si Si5 0.174989 0.500000 0.811946
Si Si6 0.838241 0.202418 0.122018
O O1 0.500000 0.235736 0.939020
O O2 0.349679 0.500000 0.987002
O O3 0.244517 0.335159 0.863571
O O4 0.247492 0.211582 0.029938
O O5 0.500000 0.270262 0.294219
O O6 0.249361 0.255809 0.382048
O O7 0.252119 0.275217 0.204562
O O8 0.337033 0.000000 0.289684
O O9 0.220275 0.669934 0.552398
O O10 0.219970 0.500000 0.709615
O O11 0.000000 0.500000 0.608542
O O12 0.000000 0.786252 0.463613
O O13 0.209341 0.000000 0.491584
O O14 0.000000 0.500000 0.820279
O O15 0.000000 0.277822 0.113671
O O16 0.853836 0.000000 0.142321
#
# Coordination Sequence:
#
# PCOD9337266 Si02
#       6
#     4   4   2   4   2   4
#     4   9  19  34  51  72  98 133 169 205 256 312
#     4   9  17  30  48  71 103 139 170 207 256 306
#     4   9  18  33  54  79 102 131 173 218 268 313
#     4   9  17  32  53  75 102 136 175 217 259 309
#     4   9  17  33  54  71  96 131 163 210 266 313
#     4  10  19  31  51  78 104 135 175 213 254 308
#
# _framework density 18.577262999999999
#
# number of rings (size 3 to 8) (size 9 to 14) (size 15 to 20)
#    0.600    2.200    0.000    1.800    0.000    3.600 
#    1.800    3.500    0.000    3.600    0.000    0.000 
#    0.000    0.000    0.000    0.000    0.000    0.000 
#
# Total GULP energy -111334.547287 kJ/mol
# GULP energy per Si atom -5566.727364 kJ/mol
# Density = 1.853498 g / cm^3
# Si number density = 18.577263 Si / 1000 Ang^3
#
#
#
# Elastic Constant Matrix: (Units=GPa)
#
#
# Indices 1 2 3 4 5 6 
#
# 1 115.5262 24.6644 81.2635 0.0000 0.0000 0.0000
# 2 24.6644 43.3419 39.3713 0.0000 0.0000 0.0000
# 3 81.2635 39.3713 189.5169 0.0000 0.0000 0.0000
# 4 0.0000 0.0000 0.0000 29.0172 0.0000 0.0000
# 5 0.0000 0.0000 0.0000 0.0000 -9.2258 0.0000
# 6 0.0000 0.0000 0.0000 0.0000 0.0000 9.5903
#
#
#
# Elastic Compliance Matrix: (Units=1/GPa)
#
#
# Indices 1 2 3 4 5 6 
#
# 1 0.012665 -0.002803 -0.004848 0.000000 0.000000 0.000000
# 2 -0.002803 0.029060 -0.004835 0.000000 0.000000 0.000000
# 3 -0.004848 -0.004835 0.008360 0.000000 0.000000 0.000000
# 4 0.000000 0.000000 0.000000 0.034462 0.000000 0.000000
# 5 0.000000 0.000000 0.000000 0.000000 -0.108391 0.000000
# 6 0.000000 0.000000 0.000000 0.000000 0.000000 0.104272
#
#
# Mechanical properties :
#
#
# Convention : Reuss Voigt Hill
#
# Bulk Modulus (GPa) = 39.82216 70.99813 55.41015
# Shear Modulus (GPa) = 43.94801 19.41539 31.68170
#
# Velocity S-wave (km/s) = 4.86911 3.23633 4.13413
# Velocity P-wave (km/s) = 7.28653 7.22951 7.25808
#
# Compressibility (1/GPa) = 0.02511164
#
# Stress axis : x y z
#
# Youngs Moduli (GPa) = 78.95867 34.41203 119.61791
#
# Poissons Ratio (x) = 0.09646 0.57994
# Poissons Ratio (y) = 0.22132 0.57836
# Poissons Ratio (z) = 0.38281 0.16639
#
# Static dielectric constant tensor:
#      x y z
#    x 1.660860 0.000000 0.000000 
#    y 0.000000 1.663870 0.000000 
#    z 0.000000 0.000000 1.607920 
# 
# From -- ./inp_files/5156.got.cif
#   From: 2010.05.17/outbox.cif.g08.bks.cpg/sg25_3_cif.got.tgz:5156.got - 2010.06.04 01:04:00.
