data_PCOD9337306
_publ_section_title
;
Structure prediction by ZEFSAII (Michael W. Deem and Ramdas Pophale) SiO2 
 PCOD9337306
Probable space group: P M M 2
;
_chemical_formula_sum "Si O2"
_cell_formula_units_Z 32
_cell_length_a 16.732316
_cell_length_b 8.601026
_cell_length_c 11.971592
_cell_angle_alpha 90.000000
_cell_angle_beta 90.000000
_cell_angle_gamma 90.000000
_cell_volume 1722.892680
_symmetry_space_group_name_H-M "P M M 2"
_symmetry_group_IT_number 25
_symmetry_cell_setting 'orthorhombic'
loop_
_space_group_symop_operation_xyz
x,y,z
-x,-y,z
-x,y,z
x,-y,z
loop_
_atom_site_type_symbol
_atom_site_label
_atom_site_fract_x
_atom_site_fract_y
_atom_site_fract_z
Si Si1 0.759287 0.311461 0.800170
Si Si2 0.152616 0.682900 0.190711
Si Si3 0.301208 0.184843 0.332062
Si Si4 0.594221 0.825655 0.137750
Si Si5 0.407699 0.683665 0.906022
Si Si6 0.913874 0.820543 0.400624
Si Si7 0.094213 0.186984 0.952311
Si Si8 0.771986 0.315492 0.540302
O O1 0.761339 0.500000 0.812401
O O2 0.671487 0.255884 0.842669
O O3 0.837177 0.247365 0.866227
O O4 0.761962 0.272819 0.668829
O O5 0.166734 0.500000 0.175857
O O6 0.230538 0.762099 0.247175
O O7 0.090567 0.716030 0.290268
O O8 0.122524 0.754752 0.074857
O O9 0.378010 0.224291 0.259275
O O10 0.295752 0.268103 0.451061
O O11 0.296015 0.000000 0.350295
O O12 0.500000 0.837446 0.137832
O O13 0.628070 0.000000 0.116336
O O14 0.613766 0.714321 0.035465
O O15 0.500000 0.744493 0.885860
O O16 0.411985 0.500000 0.884116
O O17 0.847605 0.770257 0.487344
O O18 0.000000 0.806437 0.454433
O O19 0.902044 0.000000 0.366120
O O20 0.000000 0.234861 0.932566
O O21 0.095393 0.000000 0.950404
O O22 0.783653 0.500000 0.533727
#
# Coordination Sequence:
#
# PCOD9337306 Si02
#       8
#     4   4   4   4   4   4   4   4
#     4  10  22  39  57  78 106 142 183 226 270 315
#     4  11  21  33  53  79 107 137 171 215 266 319
#     4  10  19  33  54  77 104 139 175 214 262 314
#     4   9  18  32  51  78 109 136 165 206 257 313
#     4   9  18  34  57  83 109 138 174 217 266 320
#     4  10  20  34  53  76 102 133 172 218 265 314
#     4  11  24  39  55  78 109 144 181 221 267 320
#     4  10  21  36  53  74 102 136 176 219 261 310
#
# _framework density 18.573415000000001
#
# number of rings (size 3 to 8) (size 9 to 14) (size 15 to 20)
#    0.000    2.000    0.000    5.250    0.000    8.500 
#    0.000    3.125    0.000    0.750    0.000    0.000 
#    0.000    0.000    0.000    0.000    0.000    0.000 
#
# Total GULP energy -178227.710601 kJ/mol
# GULP energy per Si atom -5569.615956 kJ/mol
# Density = 1.853114 g / cm^3
# Si number density = 18.573415 Si / 1000 Ang^3
#
#
#
# Elastic Constant Matrix: (Units=GPa)
#
#
# Indices 1 2 3 4 5 6 
#
# 1 52.6574 14.5258 52.3815 0.0000 0.0000 0.0000
# 2 14.5258 32.7445 18.2603 0.0000 0.0000 0.0000
# 3 52.3815 18.2603 119.4270 0.0000 0.0000 0.0000
# 4 0.0000 0.0000 0.0000 71.1326 0.0000 0.0000
# 5 0.0000 0.0000 0.0000 0.0000 6.4392 0.0000
# 6 0.0000 0.0000 0.0000 0.0000 0.0000 -29.7008
#
#
#
# Elastic Compliance Matrix: (Units=1/GPa)
#
#
# Indices 1 2 3 4 5 6 
#
# 1 0.035380 -0.007698 -0.014341 0.000000 0.000000 0.000000
# 2 -0.007698 0.035061 -0.001985 0.000000 0.000000 0.000000
# 3 -0.014341 -0.001985 0.014967 0.000000 0.000000 0.000000
# 4 0.000000 0.000000 0.000000 0.014058 0.000000 0.000000
# 5 0.000000 0.000000 0.000000 0.000000 0.155299 0.000000
# 6 0.000000 0.000000 0.000000 0.000000 0.000000 -0.033669
#
#
# Mechanical properties :
#
#
# Convention : Reuss Voigt Hill
#
# Bulk Modulus (GPa) = 26.76555 41.68492 34.22523
# Shear Modulus (GPa) = 17.75595 17.55160 17.65378
#
# Velocity S-wave (km/s) = 3.09526 3.07740 3.08634
# Velocity P-wave (km/s) = 5.21691 5.92615 5.58280
#
# Compressibility (1/GPa) = 0.03736147
#
# Stress axis : x y z
#
# Youngs Moduli (GPa) = 28.26465 28.52180 66.81454
#
# Poissons Ratio (x) = 0.21955 0.95818
# Poissons Ratio (y) = 0.21757 0.13260
# Poissons Ratio (z) = 0.40534 0.05660
#
# Static dielectric constant tensor:
#      x y z
#    x 1.732410 0.000000 0.000000 
#    y 0.000000 1.656310 0.000000 
#    z 0.000000 0.000000 1.620780 
# 
# From -- ./inp_files/5031.got.cif
#   From: 2010.05.17/outbox.cif.g08.bks.cpg/sg25_3_cif.got.tgz:5031.got - 2010.06.04 01:04:00.
