data_PCOD9337973
_publ_section_title
;
Structure prediction by ZEFSAII (Michael W. Deem and Ramdas Pophale) SiO2 
 PCOD9337973
Probable space group: P M C 21
;
_chemical_formula_sum "Si O2"
_cell_formula_units_Z 32
_cell_length_a 8.182891
_cell_length_b 10.696798
_cell_length_c 19.807073
_cell_angle_alpha 90.000000
_cell_angle_beta 90.000000
_cell_angle_gamma 90.000000
_cell_volume 1733.727600
_symmetry_space_group_name_H-M "P M C 21"
_symmetry_group_IT_number 26
_symmetry_cell_setting 'orthorhombic'
loop_
_space_group_symop_operation_xyz
x,y,z
-x,-y,1/2+z
-x,y,z
x,-y,1/2+z
loop_
_atom_site_type_symbol
_atom_site_label
_atom_site_fract_x
_atom_site_fract_y
_atom_site_fract_z
Si Si1 0.305351 0.623900 0.012040
Si Si2 0.697840 0.872887 0.086338
Si Si3 0.694462 0.517642 0.729527
Si Si4 0.192826 0.514874 0.879072
Si Si5 0.299933 0.376584 0.089641
Si Si6 0.804079 0.766396 0.224172
Si Si7 0.696870 0.125939 0.015066
Si Si8 0.197060 0.771456 0.376550
O O1 0.500000 0.624904 0.022308
O O2 0.241495 0.750523 0.045712
O O3 0.242204 0.498519 0.048554
O O4 0.271077 0.606885 0.933151
O O5 0.500000 0.873431 0.084116
O O6 0.748706 0.855553 0.163945
O O7 0.756202 0.999543 0.050670
O O8 0.500000 0.528712 0.736579
O O9 0.773657 0.547018 0.801389
O O10 0.748968 0.603317 0.667229
O O11 0.734452 0.373076 0.712160
O O12 0.255221 0.371868 0.889125
O O13 0.000000 0.513750 0.890832
O O14 0.500000 0.376481 0.088011
O O15 0.243487 0.249324 0.054757
O O16 0.752180 0.805135 0.300072
O O17 0.000000 0.756787 0.224024
O O18 0.500000 0.125867 0.018856
O O19 0.743380 0.141719 0.936859
O O20 0.000000 0.769529 0.377668
#
# Coordination Sequence:
#
# PCOD9337973 Si02
#       8
#     4   4   4   4   4   4   4   4
#     4  10  18  33  54  77 103 135 174 215 260 311
#     4  10  21  36  54  79 108 137 177 223 265 313
#     4  10  18  32  54  79 108 141 174 220 271 312
#     4  10  20  33  50  80 111 137 175 221 265 316
#     4   9  17  31  53  79 103 130 172 217 261 311
#     4  10  20  34  53  78 108 140 178 219 261 317
#     4  10  20  35  55  79 105 136 175 219 262 312
#     4   9  19  34  51  75 106 136 171 214 257 310
#
# _framework density 18.457341
#
# number of rings (size 3 to 8) (size 9 to 14) (size 15 to 20)
#    0.000    2.250    2.500    1.875    0.000    3.500 
#    0.000    2.500    0.000    6.000    0.000    0.000 
#    0.000    0.000    0.000    0.000    0.000    0.000 
#
# Total GULP energy -178522.438066 kJ/mol
# GULP energy per Si atom -5578.826190 kJ/mol
# Density = 1.841533 g / cm^3
# Si number density = 18.457341 Si / 1000 Ang^3
#
#
#
# Elastic Constant Matrix: (Units=GPa)
#
#
# Indices 1 2 3 4 5 6 
#
# 1 5.9181 13.0372 -4.1762 0.0000 0.0000 0.0000
# 2 13.0372 118.4757 79.6936 0.0000 0.0000 0.0000
# 3 -4.1762 79.6936 139.3234 0.0000 0.0000 0.0000
# 4 0.0000 0.0000 0.0000 29.2807 0.0000 0.0000
# 5 0.0000 0.0000 0.0000 0.0000 -92.4465 0.0000
# 6 0.0000 0.0000 0.0000 0.0000 0.0000 8.3103
#
#
#
# Elastic Compliance Matrix: (Units=1/GPa)
#
#
# Indices 1 2 3 4 5 6 
#
# 1 0.395530 -0.083707 0.059737 0.000000 0.000000 0.000000
# 2 -0.083707 0.031434 -0.020490 0.000000 0.000000 0.000000
# 3 0.059737 -0.020490 0.020688 0.000000 0.000000 0.000000
# 4 0.000000 0.000000 0.000000 0.034152 0.000000 0.000000
# 5 0.000000 0.000000 0.000000 0.000000 -0.010817 0.000000
# 6 0.000000 0.000000 0.000000 0.000000 0.000000 0.120333
#
#
# Mechanical properties :
#
#
# Convention : Reuss Voigt Hill
#
# Bulk Modulus (GPa) = 2.78759 48.98070 25.88414
# Shear Modulus (GPa) = 6.25143 0.70641 3.47892
#
# Velocity S-wave (km/s) = 1.84237 0.61932 1.37439
# Velocity P-wave (km/s) = 2.45750 5.20637 4.07097
#
# Compressibility (1/GPa) = 0.35873297
#
# Stress axis : x y z
#
# Youngs Moduli (GPa) = 2.52825 31.81246 48.33643
#
# Poissons Ratio (x) = 2.66292 -2.88746
# Poissons Ratio (y) = 0.21163 0.99040
# Poissons Ratio (z) = -0.15103 0.65183
#
# Static dielectric constant tensor:
#      x y z
#    x 1.651320 0.000000 0.000000 
#    y 0.000000 1.624580 0.000000 
#    z 0.000000 0.000000 1.644390 
# 
# From -- ./inp_files/5053.got.cif
#   From: 2010.05.17/outbox.cif.g08.bks.cpg/sg26_3_cif.got.tgz:5053.got - 2010.06.04 01:07:29.
