data_PCOD9337149
_publ_section_title
;
Structure prediction by ZEFSAII (Michael W. Deem and Ramdas Pophale) SiO2 
 PCOD9337149
Probable space group: P M M 2
;
_chemical_formula_sum "Si O2"
_cell_formula_units_Z 24
_cell_length_a 12.187033
_cell_length_b 9.337128
_cell_length_c 12.869692
_cell_angle_alpha 90.000000
_cell_angle_beta 90.000000
_cell_angle_gamma 90.000000
_cell_volume 1464.466539
_symmetry_space_group_name_H-M "P M M 2"
_symmetry_group_IT_number 25
_symmetry_cell_setting 'orthorhombic'
loop_
_space_group_symop_operation_xyz
x,y,z
-x,-y,z
-x,y,z
x,-y,z
loop_
_atom_site_type_symbol
_atom_site_label
_atom_site_fract_x
_atom_site_fract_y
_atom_site_fract_z
Si Si1 0.871527 0.331020 0.250000
Si Si2 0.232213 0.336749 0.648030
Si Si3 0.000000 0.346002 0.760987
Si Si4 0.000000 0.166582 0.949598
Si Si5 0.871130 0.170834 0.465437
Si Si6 0.625701 0.325902 0.846797
Si Si7 0.212692 0.671799 0.031169
O O1 0.862673 0.500000 0.275395
O O2 0.851751 0.237650 0.351856
O O3 0.789295 0.299422 0.154742
O O4 0.000000 0.307558 0.217506
O O5 0.266490 0.500000 0.620324
O O6 0.110762 0.346787 0.696532
O O7 0.212986 0.239470 0.547582
O O8 0.309652 0.282047 0.741883
O O9 0.000000 0.203605 0.828299
O O10 0.000000 0.500000 0.821854
O O11 0.107260 0.244571 0.991145
O O12 0.000000 0.000000 0.973201
O O13 0.000000 0.204881 0.491643
O O14 0.861236 0.000000 0.463921
O O15 0.500000 0.277265 0.846444
O O16 0.626507 0.500000 0.844326
O O17 0.688655 0.286635 0.953555
O O18 0.197609 0.500000 0.020743
#
# Coordination Sequence:
#
# PCOD9337149 Si02
#       7
#     4   4   2   2   4   4   4
#     4   9  17  29  48  71  98 133 171 201 237 300
#     4  10  18  30  51  72  98 131 166 203 245 301
#     4  10  18  30  47  70  97 132 167 199 249 305
#     4  12  22  28  43  74 107 134 165 203 247 303
#     4  10  20  31  45  70 106 136 163 201 246 296
#     4   9  18  32  53  79 101 126 166 217 262 296
#     4  10  18  33  53  73 102 136 169 204 250 306
#
# _framework density 16.388218999999999
#
# number of rings (size 3 to 8) (size 9 to 14) (size 15 to 20)
#    0.000    2.167    3.333    1.250    0.000    2.000 
#    0.000    0.000    0.000    3.000    0.000    4.667 
#    0.000    0.000    0.000    0.000    0.000    0.000 
#
# Total GULP energy -133622.035110 kJ/mol
# GULP energy per Si atom -5567.584796 kJ/mol
# Density = 1.635092 g / cm^3
# Si number density = 16.388219 Si / 1000 Ang^3
#
#
#
# Elastic Constant Matrix: (Units=GPa)
#
#
# Indices 1 2 3 4 5 6 
#
# 1 94.8915 30.5392 60.5492 0.0000 0.0000 0.0000
# 2 30.5392 35.4838 51.2298 0.0000 0.0000 0.0000
# 3 60.5492 51.2298 127.5156 0.0000 0.0000 0.0000
# 4 0.0000 0.0000 0.0000 0.2035 0.0000 0.0000
# 5 0.0000 0.0000 0.0000 0.0000 9.0486 0.0000
# 6 0.0000 0.0000 0.0000 0.0000 0.0000 10.6944
#
#
#
# Elastic Compliance Matrix: (Units=1/GPa)
#
#
# Indices 1 2 3 4 5 6 
#
# 1 0.015736 -0.006561 -0.004836 0.000000 0.000000 0.000000
# 2 -0.006561 0.069840 -0.024943 0.000000 0.000000 0.000000
# 3 -0.004836 -0.024943 0.020160 0.000000 0.000000 0.000000
# 4 0.000000 0.000000 0.000000 4.915047 0.000000 0.000000
# 5 0.000000 0.000000 0.000000 0.000000 0.110514 0.000000
# 6 0.000000 0.000000 0.000000 0.000000 0.000000 0.093507
#
#
# Mechanical properties :
#
#
# Convention : Reuss Voigt Hill
#
# Bulk Modulus (GPa) = 30.25233 60.28078 45.26656
# Shear Modulus (GPa) = 0.94189 11.69413 6.31801
#
# Velocity S-wave (km/s) = 0.75893 2.67417 1.96560
# Velocity P-wave (km/s) = 4.38952 6.81159 5.72999
#
# Compressibility (1/GPa) = 0.03305530
#
# Stress axis : x y z
#
# Youngs Moduli (GPa) = 63.54982 14.31835 49.60430
#
# Poissons Ratio (x) = 0.09394 0.23989
# Poissons Ratio (y) = 0.41694 1.23729
# Poissons Ratio (z) = 0.30733 0.35715
#
# Static dielectric constant tensor:
#      x y z
#    x 1.547390 0.000000 0.000000 
#    y 0.000000 1.555820 0.000000 
#    z 0.000000 0.000000 1.591630 
# 
# From -- ./inp_files/4567.got.cif
#   From: 2010.05.17/outbox.cif.g08.bks.cpg/sg25_3_cif.got.tgz:4567.got - 2010.06.04 01:04:00.
