data_PCOD9337677
_publ_section_title
;
Structure prediction by ZEFSAII (Michael W. Deem and Ramdas Pophale) SiO2 
 PCOD9337677
Probable space group: P M M 2
;
_chemical_formula_sum "Si O2"
_cell_formula_units_Z 32
_cell_length_a 9.602056
_cell_length_b 7.427835
_cell_length_c 21.801393
_cell_angle_alpha 90.000000
_cell_angle_beta 90.000000
_cell_angle_gamma 90.000000
_cell_volume 1554.929583
_symmetry_space_group_name_H-M "P M M 2"
_symmetry_group_IT_number 25
_symmetry_cell_setting 'orthorhombic'
loop_
_space_group_symop_operation_xyz
x,y,z
-x,-y,z
-x,y,z
x,-y,z
loop_
_atom_site_type_symbol
_atom_site_label
_atom_site_fract_x
_atom_site_fract_y
_atom_site_fract_z
Si Si1 0.333742 0.217289 0.126120
Si Si2 0.337923 0.780143 0.260106
Si Si3 0.658792 0.215315 0.491993
Si Si4 0.156599 0.714409 0.742004
Si Si5 0.160062 0.779652 0.377313
Si Si6 0.331204 0.213695 0.994246
Si Si7 0.659398 0.783286 0.860862
Si Si8 0.658384 0.715234 0.630380
O O1 0.500000 0.251583 0.126972
O O2 0.283832 0.279256 0.192897
O O3 0.317225 0.000000 0.124996
O O4 0.280454 0.286009 0.060156
O O5 0.500000 0.726525 0.267698
O O6 0.244098 0.722473 0.316837
O O7 0.338079 0.000000 0.259564
O O8 0.500000 0.284969 0.486408
O O9 0.758795 0.281016 0.438247
O O10 0.708424 0.251319 0.561135
O O11 0.651311 0.000000 0.485242
O O12 0.145966 0.500000 0.733074
O O13 0.242518 0.740671 0.804244
O O14 0.242887 0.786441 0.683885
O O15 0.000000 0.786678 0.746085
O O16 0.000000 0.722380 0.376603
O O17 0.160398 0.000000 0.377376
O O18 0.500000 0.230963 0.994197
O O19 0.287800 0.284065 0.927489
O O20 0.300451 0.000000 0.994850
O O21 0.500000 0.719962 0.850520
O O22 0.652557 0.000000 0.865412
O O23 0.500000 0.785875 0.635454
O O24 0.650315 0.500000 0.637762
#
# Coordination Sequence:
#
# PCOD9337677 Si02
#       8
#     4   4   4   4   4   4   4   4
#     4   7   9  14  27  48  73 102 136 171 206 246
#     4   8  12  18  30  48  71 103 141 174 204 244
#     4   9  17  29  45  64  85 109 137 169 206 252
#     4  10  21  35  49  66  90 120 151 182 218 262
#     4   9  16  24  34  51  78 110 140 171 207 244
#     4   7  10  18  33  55  82 108 136 173 214 253
#     4   9  17  29  47  70  93 118 149 185 225 268
#     4   9  18  33  51  68  86 109 138 175 218 259
#
# _framework density 20.579709999999999
#
# number of rings (size 3 to 8) (size 9 to 14) (size 15 to 20)
#    0.000    3.500    0.000    3.000    0.000    3.500 
#    0.000    1.250    0.000    0.750    0.000    3.500 
#    0.000    1.000    0.000    7.250    0.000    8.875 
#
# Total GULP energy -178300.278867 kJ/mol
# GULP energy per Si atom -5571.883715 kJ/mol
# Density = 2.053287 g / cm^3
# Si number density = 20.579710 Si / 1000 Ang^3
#
#
#
# Elastic Constant Matrix: (Units=GPa)
#
#
# Indices 1 2 3 4 5 6 
#
# 1 94.5074 4.8844 118.4008 0.0000 0.0000 0.0000
# 2 4.8844 63.5662 3.2207 0.0000 0.0000 0.0000
# 3 118.4008 3.2207 267.0793 0.0000 0.0000 0.0000
# 4 0.0000 0.0000 0.0000 42.5971 0.0000 0.0000
# 5 0.0000 0.0000 0.0000 0.0000 -12.0194 0.0000
# 6 0.0000 0.0000 0.0000 0.0000 0.0000 16.1245
#
#
#
# Elastic Compliance Matrix: (Units=1/GPa)
#
#
# Indices 1 2 3 4 5 6 
#
# 1 0.023906 -0.001301 -0.010582 0.000000 0.000000 0.000000
# 2 -0.001301 0.015812 0.000386 0.000000 0.000000 0.000000
# 3 -0.010582 0.000386 0.008431 0.000000 0.000000 0.000000
# 4 0.000000 0.000000 0.000000 0.023476 0.000000 0.000000
# 5 0.000000 0.000000 0.000000 0.000000 -0.083199 0.000000
# 6 0.000000 0.000000 0.000000 0.000000 0.000000 0.062017
#
#
# Mechanical properties :
#
#
# Convention : Reuss Voigt Hill
#
# Bulk Modulus (GPa) = 39.75378 75.35163 57.55270
# Shear Modulus (GPa) = 61.10779 29.25025 45.17902
#
# Velocity S-wave (km/s) = 5.45506 3.77412 4.69051
# Velocity P-wave (km/s) = 7.68348 7.46231 7.57370
#
# Compressibility (1/GPa) = 0.02515484
#
# Stress axis : x y z
#
# Youngs Moduli (GPa) = 41.83022 63.24302 118.61163
#
# Poissons Ratio (x) = 0.08226 1.25519
# Poissons Ratio (y) = 0.05441 -0.04578
# Poissons Ratio (z) = 0.44266 -0.02441
#
# Static dielectric constant tensor:
#      x y z
#    x 1.687290 0.000000 0.000000 
#    y 0.000000 1.792540 0.000000 
#    z 0.000000 0.000000 1.762960 
# 
# From -- ./inp_files/6532.got.cif
#   From: 2010.05.17/outbox.cif.g08.bks.cpg/sg25_4_cif.got.tgz:6532.got - 2010.06.04 01:04:00.
