data_PCOD9337957
_publ_section_title
;
Structure prediction by ZEFSAII (Michael W. Deem and Ramdas Pophale) SiO2 
 PCOD9337957
Probable space group: P M C 21
;
_chemical_formula_sum "Si O2"
_cell_formula_units_Z 28
_cell_length_a 11.071779
_cell_length_b 14.321516
_cell_length_c 7.855456
_cell_angle_alpha 90.000000
_cell_angle_beta 90.000000
_cell_angle_gamma 90.000000
_cell_volume 1245.597711
_symmetry_space_group_name_H-M "P M C 21"
_symmetry_group_IT_number 26
_symmetry_cell_setting 'orthorhombic'
loop_
_space_group_symop_operation_xyz
x,y,z
-x,-y,1/2+z
-x,y,z
x,-y,1/2+z
loop_
_atom_site_type_symbol
_atom_site_label
_atom_site_fract_x
_atom_site_fract_y
_atom_site_fract_z
Si Si1 0.143688 0.022648 0.663270
Si Si2 0.500000 0.602049 0.107926
Si Si3 0.500000 0.616571 0.516564
Si Si4 0.235205 0.354889 0.070346
Si Si5 0.757570 0.681661 0.036659
Si Si6 0.857651 0.202261 0.846997
Si Si7 0.860004 0.471640 0.756128
Si Si8 0.854537 0.846826 0.835677
O O1 0.166430 0.092721 0.822832
O O2 0.168437 0.087132 0.501658
O O3 0.000000 0.006747 0.658898
O O4 0.193560 0.918941 0.693042
O O5 0.500000 0.491511 0.074168
O O6 0.621287 0.645536 0.030424
O O7 0.500000 0.619584 0.311067
O O8 0.622740 0.661366 0.585602
O O9 0.166168 0.259974 0.019403
O O10 0.183797 0.424779 0.212103
O O11 0.217369 0.420715 0.901093
O O12 0.840749 0.593233 0.088246
O O13 0.793687 0.748372 0.880510
O O14 0.778154 0.747116 0.203087
O O15 0.000000 0.215237 0.805346
O O16 0.000000 0.469162 0.804424
O O17 0.000000 0.831488 0.823451
#
# Coordination Sequence:
#
# PCOD9337957 Si02
#       8
#     4   2   2   4   4   4   4   4
#     4   8  15  27  48  74 100 129 160 203 251 312
#     4  12  22  36  58  71 105 133 193 218 254 305
#     4  12  20  38  52  79  97 143 187 220 250 301
#     4  11  20  33  51  71 105 135 173 219 248 309
#     4  10  18  31  50  74  96 135 170 217 245 305
#     4   9  16  29  49  75 102 132 168 206 257 311
#     4  11  20  32  49  75 103 135 167 211 269 310
#     4   9  16  30  52  76 101 128 166 207 258 312
#
# _framework density 22.479167
#
# number of rings (size 3 to 8) (size 9 to 14) (size 15 to 20)
#    0.000    2.000    4.286    4.286    0.000    0.000 
#    0.000    1.429    0.000    7.714    0.000    0.000 
#    0.000    0.000    0.000    0.000    0.000    0.000 
#
# Total GULP energy -156440.730221 kJ/mol
# GULP energy per Si atom -5587.168936 kJ/mol
# Density = 2.242800 g / cm^3
# Si number density = 22.479167 Si / 1000 Ang^3
#
#
#
# Elastic Constant Matrix: (Units=GPa)
#
#
# Indices 1 2 3 4 5 6 
#
# 1 100.0751 5.1708 -12.9178 0.0000 0.0000 0.0000
# 2 5.1708 133.0025 -10.3517 0.0000 0.0000 0.0000
# 3 -12.9178 -10.3517 59.5644 0.0000 0.0000 0.0000
# 4 0.0000 0.0000 0.0000 39.5090 0.0000 0.0000
# 5 0.0000 0.0000 0.0000 0.0000 16.0832 0.0000
# 6 0.0000 0.0000 0.0000 0.0000 0.0000 -0.0980
#
#
#
# Elastic Compliance Matrix: (Units=1/GPa)
#
#
# Indices 1 2 3 4 5 6 
#
# 1 0.010287 -0.000229 0.002191 0.000000 0.000000 0.000000
# 2 -0.000229 0.007627 0.001276 0.000000 0.000000 0.000000
# 3 0.002191 0.001276 0.017485 0.000000 0.000000 0.000000
# 4 0.000000 0.000000 0.000000 0.025311 0.000000 0.000000
# 5 0.000000 0.000000 0.000000 0.000000 0.062177 0.000000
# 6 0.000000 0.000000 0.000000 0.000000 0.000000-10.201714
#
#
# Mechanical properties :
#
#
# Convention : Reuss Voigt Hill
#
# Bulk Modulus (GPa) = 23.88096 28.49385 26.18740
# Shear Modulus (GPa) = -0.49646 31.81487 15.65921
#
# Velocity S-wave (km/s) = -0.47046 3.76614 2.64220
# Velocity P-wave (km/s) = 3.21738 5.62271 4.58074
#
# Compressibility (1/GPa) = 0.04187437
#
# Stress axis : x y z
#
# Youngs Moduli (GPa) = 97.20843 131.11545 57.19041
#
# Poissons Ratio (x) = 0.03008 -0.12531
# Poissons Ratio (y) = 0.02230 -0.07296
# Poissons Ratio (z) = -0.21299 -0.16727
#
# Static dielectric constant tensor:
#      x y z
#    x 1.727120 0.000000 0.000000 
#    y 0.000000 1.874710 0.000000 
#    z 0.000000 0.000000 2.067990 
# 
# From -- ./inp_files/1996.got.cif
#   From: 2010.05.17/outbox.cif.g08.bks.cpg/sg26_1_cif.got.tgz:1996.got - 2010.06.04 01:07:29.
