data_PCOD9337516
_publ_section_title
;
Structure prediction by ZEFSAII (Michael W. Deem and Ramdas Pophale) SiO2 
 PCOD9337516
Probable space group: P M M 2
;
_chemical_formula_sum "Si O2"
_cell_formula_units_Z 32
_cell_length_a 7.590363
_cell_length_b 15.290067
_cell_length_c 12.745775
_cell_angle_alpha 90.000000
_cell_angle_beta 90.000000
_cell_angle_gamma 90.000000
_cell_volume 1479.238434
_symmetry_space_group_name_H-M "P M M 2"
_symmetry_group_IT_number 25
_symmetry_cell_setting 'orthorhombic'
loop_
_space_group_symop_operation_xyz
x,y,z
-x,-y,z
-x,y,z
x,-y,z
loop_
_atom_site_type_symbol
_atom_site_label
_atom_site_fract_x
_atom_site_fract_y
_atom_site_fract_z
Si Si1 0.286696 0.405339 0.450420
Si Si2 0.289270 0.709490 0.011174
Si Si3 0.201079 0.274707 0.627055
Si Si4 0.787423 0.905397 0.068093
Si Si5 0.205005 0.130773 0.301113
Si Si6 0.292227 0.400804 0.815174
Si Si7 0.215949 0.096324 0.535636
Si Si8 0.286821 0.674697 0.242303
O O1 0.500000 0.399331 0.457997
O O2 0.232762 0.500000 0.492355
O O3 0.209641 0.327276 0.518025
O O4 0.238313 0.396873 0.328192
O O5 0.500000 0.699153 0.011377
O O6 0.217885 0.654760 0.913166
O O7 0.259446 0.814388 0.011761
O O8 0.222693 0.672125 0.122853
O O9 0.278728 0.339974 0.712875
O O10 0.279187 0.178939 0.603433
O O11 0.000000 0.261236 0.659685
O O12 0.720879 0.900976 0.189214
O O13 0.000000 0.905110 0.072349
O O14 0.731829 0.000000 0.023340
O O15 0.277564 0.103728 0.414217
O O16 0.221071 0.234620 0.290981
O O17 0.000000 0.104365 0.301919
O O18 0.500000 0.410694 0.834659
O O19 0.220622 0.500000 0.803188
O O20 0.000000 0.102275 0.532664
O O21 0.262279 0.000000 0.575785
O O22 0.500000 0.677589 0.238597
#
# Coordination Sequence:
#
# PCOD9337516 Si02
#       8
#     4   4   4   4   4   4   4   4
#     4  10  20  33  51  76 108 144 174 207 263 329
#     4   9  19  35  55  79 105 136 178 226 270 313
#     4  11  22  36  56  81 107 136 176 225 268 310
#     4   9  17  29  49  79 112 146 181 214 254 310
#     4   9  15  27  48  73 104 142 180 212 248 302
#     4  10  22  41  62  79  99 135 181 226 273 323
#     4   9  17  30  50  76 105 138 175 212 255 308
#     4   9  17  30  49  75 108 139 169 212 263 311
#
# _framework density 21.632750999999999
#
# number of rings (size 3 to 8) (size 9 to 14) (size 15 to 20)
#    0.000    2.500    1.250    1.125    0.000    4.750 
#    0.000    3.125    0.000    6.375    0.000    5.250 
#    0.000    0.000    0.000    0.000    0.000    0.000 
#
# Total GULP energy -178416.397547 kJ/mol
# GULP energy per Si atom -5575.512423 kJ/mol
# Density = 2.158351 g / cm^3
# Si number density = 21.632751 Si / 1000 Ang^3
#
#
#
# Elastic Constant Matrix: (Units=GPa)
#
#
# Indices 1 2 3 4 5 6 
#
# 1 44.8542 4.1935 4.4672 0.0000 0.0000 0.0000
# 2 4.1935 181.8648 78.3560 0.0000 0.0000 0.0000
# 3 4.4672 78.3560 110.0405 0.0000 0.0000 0.0000
# 4 0.0000 0.0000 0.0000 14.8964 0.0000 0.0000
# 5 0.0000 0.0000 0.0000 0.0000 -0.7031 0.0000
# 6 0.0000 0.0000 0.0000 0.0000 0.0000 11.5511
#
#
#
# Elastic Compliance Matrix: (Units=1/GPa)
#
#
# Indices 1 2 3 4 5 6 
#
# 1 0.022389 -0.000180 -0.000781 0.000000 0.000000 0.000000
# 2 -0.000180 0.007934 -0.005642 0.000000 0.000000 0.000000
# 3 -0.000781 -0.005642 0.013137 0.000000 0.000000 0.000000
# 4 0.000000 0.000000 0.000000 0.067130 0.000000 0.000000
# 5 0.000000 0.000000 0.000000 0.000000 -1.422242 0.000000
# 6 0.000000 0.000000 0.000000 0.000000 0.000000 0.086571
#
#
# Mechanical properties :
#
#
# Convention : Reuss Voigt Hill
#
# Bulk Modulus (GPa) = 33.05343 56.75478 44.90410
# Shear Modulus (GPa) = -4.16046 21.79841 8.81898
#
# Velocity S-wave (km/s) = -1.38831 3.17781 2.02127
# Velocity P-wave (km/s) = 3.56969 6.30533 5.12347
#
# Compressibility (1/GPa) = 0.03025405
#
# Stress axis : x y z
#
# Youngs Moduli (GPa) = 44.66476 126.04731 76.12288
#
# Poissons Ratio (x) = 0.02267 0.05944
# Poissons Ratio (y) = 0.00803 0.42948
# Poissons Ratio (z) = 0.03488 0.71114
#
# Static dielectric constant tensor:
#      x y z
#    x 1.837780 0.000000 0.000000 
#    y 0.000000 1.784470 0.000000 
#    z 0.000000 0.000000 1.783630 
# 
# From -- ./inp_files/4177.got.cif
#   From: 2010.05.17/outbox.cif.g08.bks.cpg/sg25_3_cif.got.tgz:4177.got - 2010.06.04 01:04:00.
