data_PCOD9337722
_publ_section_title
;
Structure prediction by ZEFSAII (Michael W. Deem and Ramdas Pophale) SiO2 
 PCOD9337722
Probable space group: P M M 2
;
_chemical_formula_sum "Si O2"
_cell_formula_units_Z 32
_cell_length_a 14.284031
_cell_length_b 8.846820
_cell_length_c 13.259840
_cell_angle_alpha 90.000000
_cell_angle_beta 90.000000
_cell_angle_gamma 90.000000
_cell_volume 1675.622791
_symmetry_space_group_name_H-M "P M M 2"
_symmetry_group_IT_number 25
_symmetry_cell_setting 'orthorhombic'
loop_
_space_group_symop_operation_xyz
x,y,z
-x,-y,z
-x,y,z
x,-y,z
loop_
_atom_site_type_symbol
_atom_site_label
_atom_site_fract_x
_atom_site_fract_y
_atom_site_fract_z
Si Si1 0.106415 0.684141 0.084400
Si Si2 0.389575 0.680777 0.400516
Si Si3 0.704570 0.680827 0.992998
Si Si4 0.109279 0.820535 0.518634
Si Si5 0.886498 0.327778 0.307708
Si Si6 0.715402 0.680742 0.606240
Si Si7 0.613207 0.823379 0.189407
Si Si8 0.609097 0.181109 0.796499
O O1 0.104062 0.500000 0.089516
O O2 0.186222 0.726048 0.005499
O O3 0.138126 0.732848 0.196979
O O4 0.000000 0.735050 0.064269
O O5 0.500000 0.714696 0.412758
O O6 0.380215 0.500000 0.388084
O O7 0.336658 0.725913 0.502233
O O8 0.355879 0.760081 0.298211
O O9 0.699417 0.500000 0.982488
O O10 0.654932 0.730718 0.096542
O O11 0.655297 0.758272 0.898783
O O12 0.136621 0.769208 0.405276
O O13 0.178583 0.737418 0.594556
O O14 0.000000 0.779954 0.533108
O O15 0.118634 0.000000 0.527903
O O16 0.850886 0.500000 0.320734
O O17 0.000000 0.336297 0.304414
O O18 0.712311 0.500000 0.613806
O O19 0.663450 0.752424 0.700944
O O20 0.500000 0.809735 0.186262
O O21 0.637111 0.000000 0.179486
O O22 0.500000 0.226521 0.792720
O O23 0.613760 0.000000 0.794854
#
# Coordination Sequence:
#
# PCOD9337722 Si02
#       8
#     4   4   4   4   4   4   4   4
#     4   8  16  32  54  82 116 152 193 240 288 340
#     4   9  19  36  57  83 115 148 185 234 292 355
#     4  11  22  36  60  89 116 151 199 247 294 346
#     4  10  21  36  54  82 122 162 200 243 292 349
#     4   8  14  28  51  77 109 152 197 239 284 337
#     4  11  23  39  63  90 116 150 198 249 300 356
#     4  10  21  36  54  80 117 156 190 231 290 356
#     4  11  25  45  66  87 115 152 195 245 303 365
#
# _framework density 19.097377999999999
#
# number of rings (size 3 to 8) (size 9 to 14) (size 15 to 20)
#    0.000    2.250    0.000    3.375    1.750    5.500 
#    0.000    2.500    0.000    4.500    0.000    0.000 
#    0.000    0.000    0.000    0.000    0.000    0.000 
#
# Total GULP energy -178732.540114 kJ/mol
# GULP energy per Si atom -5585.391879 kJ/mol
# Density = 1.905391 g / cm^3
# Si number density = 19.097378 Si / 1000 Ang^3
#
#
#
# Elastic Constant Matrix: (Units=GPa)
#
#
# Indices 1 2 3 4 5 6 
#
# 1 113.8410 42.7131 77.0164 0.0000 0.0000 0.0000
# 2 42.7131 45.4889 44.8817 0.0000 0.0000 0.0000
# 3 77.0164 44.8817 133.6420 0.0000 0.0000 0.0000
# 4 0.0000 0.0000 0.0000 61.6223 0.0000 0.0000
# 5 0.0000 0.0000 0.0000 0.0000 34.6592 0.0000
# 6 0.0000 0.0000 0.0000 0.0000 0.0000 21.7898
#
#
#
# Elastic Compliance Matrix: (Units=1/GPa)
#
#
# Indices 1 2 3 4 5 6 
#
# 1 0.016632 -0.009213 -0.006491 0.000000 0.000000 0.000000
# 2 -0.009213 0.037981 -0.007446 0.000000 0.000000 0.000000
# 3 -0.006491 -0.007446 0.013724 0.000000 0.000000 0.000000
# 4 0.000000 0.000000 0.000000 0.016228 0.000000 0.000000
# 5 0.000000 0.000000 0.000000 0.000000 0.028852 0.000000
# 6 0.000000 0.000000 0.000000 0.000000 0.000000 0.045893
#
#
# Mechanical properties :
#
#
# Convention : Reuss Voigt Hill
#
# Bulk Modulus (GPa) = 45.37785 69.13270 57.25527
# Shear Modulus (GPa) = 23.47911 32.17164 27.82537
#
# Velocity S-wave (km/s) = 3.51014 4.10885 3.82124
# Velocity P-wave (km/s) = 6.34358 7.66739 7.03669
#
# Compressibility (1/GPa) = 0.02203718
#
# Stress axis : x y z
#
# Youngs Moduli (GPa) = 60.12458 26.32918 72.86569
#
# Poissons Ratio (x) = 0.24257 0.47296
# Poissons Ratio (y) = 0.55393 0.54255
# Poissons Ratio (z) = 0.39026 0.19604
#
# Static dielectric constant tensor:
#      x y z
#    x 1.702270 0.000000 0.000000 
#    y 0.000000 1.637650 0.000000 
#    z 0.000000 0.000000 1.631460 
# 
# From -- ./inp_files/4900.got.cif
#   From: 2010.05.17/outbox.cif.g08.bks.cpg/sg25_3_cif.got.tgz:4900.got - 2010.06.04 01:04:00.
