data_PCOD9337694
_publ_section_title
;
Structure prediction by ZEFSAII (Michael W. Deem and Ramdas Pophale) SiO2 
 PCOD9337694
Probable space group: P M M 2
;
_chemical_formula_sum "Si O2"
_cell_formula_units_Z 28
_cell_length_a 9.794219
_cell_length_b 8.831012
_cell_length_c 18.399106
_cell_angle_alpha 90.000000
_cell_angle_beta 90.000000
_cell_angle_gamma 90.000000
_cell_volume 1591.391401
_symmetry_space_group_name_H-M "P M M 2"
_symmetry_group_IT_number 25
_symmetry_cell_setting 'orthorhombic'
loop_
_space_group_symop_operation_xyz
x,y,z
-x,-y,z
-x,y,z
x,-y,z
loop_
_atom_site_type_symbol
_atom_site_label
_atom_site_fract_x
_atom_site_fract_y
_atom_site_fract_z
Si Si1 0.659306 0.182630 0.701160
Si Si2 0.841317 0.182626 0.148002
Si Si3 0.841223 0.181896 0.980535
Si Si4 0.156281 0.184325 0.567346
Si Si5 0.341274 0.318526 0.274486
Si Si6 0.160024 0.817285 0.402044
Si Si7 0.659289 0.319254 0.854421
O O1 0.500000 0.222929 0.691956
O O2 0.745402 0.235398 0.631715
O O3 0.707546 0.250571 0.777630
O O4 0.668564 0.000000 0.705328
O O5 0.738308 0.256992 0.204125
O O6 0.000000 0.223961 0.163236
O O7 0.833132 0.000000 0.154018
O O8 0.810478 0.223682 0.064243
O O9 0.745649 0.258683 0.921676
O O10 0.000000 0.219859 0.967097
O O11 0.828002 0.000000 0.975165
O O12 0.193593 0.228957 0.485064
O O13 0.000000 0.230933 0.580876
O O14 0.158290 0.000000 0.567459
O O15 0.500000 0.270154 0.275000
O O16 0.337311 0.500000 0.274541
O O17 0.259729 0.256538 0.344099
O O18 0.000000 0.779559 0.388464
O O19 0.170586 0.000000 0.397078
O O20 0.500000 0.274833 0.863084
O O21 0.666793 0.500000 0.851057
#
# Coordination Sequence:
#
# PCOD9337694 Si02
#       7
#     4   4   4   4   4   4   4
#     4   9  17  30  49  72  98 131 171 210 249 297
#     4   9  19  37  59  80 101 128 166 210 255 304
#     4   9  19  36  57  80 103 128 164 211 258 302
#     4   8  15  29  50  76 101 124 158 208 259 301
#     4  11  24  37  49  73 108 140 171 207 248 297
#     4   9  18  34  56  79 102 131 169 211 255 304
#     4  10  21  35  50  72 105 142 175 207 248 299
#
# _framework density 17.594667000000001
#
# number of rings (size 3 to 8) (size 9 to 14) (size 15 to 20)
#    0.000    2.714    0.000    3.000    0.000    6.857 
#    0.000    7.857    0.000    2.571    0.000    0.000 
#    0.000    0.000    0.000    0.000    0.000    0.000 
#
# Total GULP energy -156174.454908 kJ/mol
# GULP energy per Si atom -5577.659104 kJ/mol
# Density = 1.755462 g / cm^3
# Si number density = 17.594667 Si / 1000 Ang^3
#
#
#
# Elastic Constant Matrix: (Units=GPa)
#
#
# Indices 1 2 3 4 5 6 
#
# 1 113.8409 39.4215 120.9340 0.0000 0.0000 0.0000
# 2 39.4215 18.9135 44.7607 0.0000 0.0000 0.0000
# 3 120.9340 44.7607 177.6908 0.0000 0.0000 0.0000
# 4 0.0000 0.0000 0.0000 -23.5582 0.0000 0.0000
# 5 0.0000 0.0000 0.0000 0.0000 84.8710 0.0000
# 6 0.0000 0.0000 0.0000 0.0000 0.0000 23.1069
#
#
#
# Elastic Compliance Matrix: (Units=1/GPa)
#
#
# Indices 1 2 3 4 5 6 
#
# 1 0.047553 -0.055770 -0.018316 0.000000 0.000000 0.000000
# 2 -0.055770 0.196328 -0.011499 0.000000 0.000000 0.000000
# 3 -0.018316 -0.011499 0.020990 0.000000 0.000000 0.000000
# 4 0.000000 0.000000 0.000000 -0.042448 0.000000 0.000000
# 5 0.000000 0.000000 0.000000 0.000000 0.011783 0.000000
# 6 0.000000 0.000000 0.000000 0.000000 0.000000 0.043277
#
#
# Mechanical properties :
#
#
# Convention : Reuss Voigt Hill
#
# Bulk Modulus (GPa) = 10.67217 80.07527 45.37372
# Shear Modulus (GPa) = 10.41915 23.90588 17.16251
#
# Velocity S-wave (km/s) = 2.43611 3.69005 3.12659
# Velocity P-wave (km/s) = 3.74053 7.98531 6.23525
#
# Compressibility (1/GPa) = 0.09370167
#
# Stress axis : x y z
#
# Youngs Moduli (GPa) = 21.02906 5.09352 47.64239
#
# Poissons Ratio (x) = 0.28407 0.87260
# Poissons Ratio (y) = 1.17279 0.54785
# Poissons Ratio (z) = 0.38516 0.05857
#
# Static dielectric constant tensor:
#      x y z
#    x 1.585680 0.000000 0.000000 
#    y 0.000000 1.586660 0.000000 
#    z 0.000000 0.000000 1.586510 
# 
# From -- ./inp_files/6119.got.cif
#   From: 2010.05.17/outbox.cif.g08.bks.cpg/sg25_4_cif.got.tgz:6119.got - 2010.06.04 01:04:00.
