data_PCOD9337939
_publ_section_title
;
Structure prediction by ZEFSAII (Michael W. Deem and Ramdas Pophale) SiO2 
 PCOD9337939
Probable space group: P M C 21
;
_chemical_formula_sum "Si O2"
_cell_formula_units_Z 24
_cell_length_a 18.866134
_cell_length_b 11.644341
_cell_length_c 5.183197
_cell_angle_alpha 90.000000
_cell_angle_beta 90.000000
_cell_angle_gamma 90.000000
_cell_volume 1138.663883
_symmetry_space_group_name_H-M "P M C 21"
_symmetry_group_IT_number 26
_symmetry_cell_setting 'orthorhombic'
loop_
_space_group_symop_operation_xyz
x,y,z
-x,-y,1/2+z
-x,y,z
x,-y,1/2+z
loop_
_atom_site_type_symbol
_atom_site_label
_atom_site_fract_x
_atom_site_fract_y
_atom_site_fract_z
Si Si1 0.081732 0.577544 0.386060
Si Si2 0.576731 0.421678 0.375177
Si Si3 0.171366 0.252211 0.572925
Si Si4 0.264285 0.958147 0.226343
Si Si5 0.892651 0.942053 0.784113
Si Si6 0.270202 0.578506 0.784004
O O1 0.091581 0.519562 0.663912
O O2 0.134337 0.677486 0.300595
O O3 0.000000 0.616712 0.370308
O O4 0.500000 0.362731 0.341731
O O5 0.578015 0.476060 0.661271
O O6 0.652293 0.363608 0.323683
O O7 0.109955 0.180171 0.423600
O O8 0.231771 0.168013 0.690382
O O9 0.210645 0.333075 0.369642
O O10 0.304046 0.011496 0.985328
O O11 0.191697 0.034433 0.248153
O O12 0.920428 0.032056 0.999262
O O13 0.265558 0.523883 0.499369
#
# Coordination Sequence:
#
# PCOD9337939 Si02
#       6
#     4   4   4   4   4   4
#     4  10  22  36  47  63  87 117 150 174 203 255
#     4   8  14  26  40  53  79 115 141 168 206 243
#     4  10  18  30  50  64  87 115 139 179 220 241
#     4   8  16  28  43  64  85 105 135 171 211 261
#     4   8  16  28  43  64  85 105 135 171 211 261
#     4  10  20  28  39  66  91 111 146 177 203 247
#
# _framework density 21.077335000000001
#
# number of rings (size 3 to 8) (size 9 to 14) (size 15 to 20)
#    0.000    3.333    0.000    1.000    0.000   10.667 
#    0.000    0.000    0.000    9.000    0.000    0.000 
#    0.000   12.000    0.000    0.000    0.000    8.333 
#
# Total GULP energy -133711.837512 kJ/mol
# GULP energy per Si atom -5571.326563 kJ/mol
# Density = 2.102936 g / cm^3
# Si number density = 21.077335 Si / 1000 Ang^3
#
#
#
# Elastic Constant Matrix: (Units=GPa)
#
#
# Indices 1 2 3 4 5 6 
#
# 1 68.3348 23.8007 5.9781 0.0000 0.0000 0.0000
# 2 23.8007 53.7883 12.0843 0.0000 0.0000 0.0000
# 3 5.9781 12.0843 129.3249 0.0000 0.0000 0.0000
# 4 0.0000 0.0000 0.0000 4.1272 0.0000 0.0000
# 5 0.0000 0.0000 0.0000 0.0000 88.7665 0.0000
# 6 0.0000 0.0000 0.0000 0.0000 0.0000 -21.8801
#
#
#
# Elastic Compliance Matrix: (Units=1/GPa)
#
#
# Indices 1 2 3 4 5 6 
#
# 1 0.017301 -0.007636 -0.000086 0.000000 0.000000 0.000000
# 2 -0.007636 0.022360 -0.001736 0.000000 0.000000 0.000000
# 3 -0.000086 -0.001736 0.007899 0.000000 0.000000 0.000000
# 4 0.000000 0.000000 0.000000 0.242297 0.000000 0.000000
# 5 0.000000 0.000000 0.000000 0.000000 0.011266 0.000000
# 6 0.000000 0.000000 0.000000 0.000000 0.000000 -0.045704
#
#
# Mechanical properties :
#
#
# Convention : Reuss Voigt Hill
#
# Bulk Modulus (GPa) = 34.91301 37.24158 36.07729
# Shear Modulus (GPa) = 17.61283 28.17504 22.89394
#
# Velocity S-wave (km/s) = 2.89386 3.66012 3.29931
# Velocity P-wave (km/s) = 5.26936 5.96400 5.62741
#
# Compressibility (1/GPa) = 0.02864262
#
# Stress axis : x y z
#
# Youngs Moduli (GPa) = 57.80012 44.72195 126.60312
#
# Poissons Ratio (x) = 0.34150 0.01092
# Poissons Ratio (y) = 0.44137 0.21983
# Poissons Ratio (z) = 0.00498 0.07766
#
# Static dielectric constant tensor:
#      x y z
#    x 1.661620 0.000000 0.000000 
#    y 0.000000 1.807070 0.000000 
#    z 0.000000 0.000000 1.916220 
# 
# From -- ./inp_files/867.got.cif
#   From: 2010.05.17/outbox.cif.g08.bks.cpg/sg26_1_cif.got.tgz:867.got - 2010.06.04 01:07:29.
