data_PCOD9337959
_publ_section_title
;
Structure prediction by ZEFSAII (Michael W. Deem and Ramdas Pophale) SiO2 
 PCOD9337959
Probable space group: P M C 21
;
_chemical_formula_sum "Si O2"
_cell_formula_units_Z 28
_cell_length_a 14.881986
_cell_length_b 12.819327
_cell_length_c 9.089876
_cell_angle_alpha 90.000000
_cell_angle_beta 90.000000
_cell_angle_gamma 90.000000
_cell_volume 1734.139682
_symmetry_space_group_name_H-M "P M C 21"
_symmetry_group_IT_number 26
_symmetry_cell_setting 'orthorhombic'
loop_
_space_group_symop_operation_xyz
x,y,z
-x,-y,1/2+z
-x,y,z
x,-y,1/2+z
loop_
_atom_site_type_symbol
_atom_site_label
_atom_site_fract_x
_atom_site_fract_y
_atom_site_fract_z
Si Si1 0.391222 0.864075 0.050820
Si Si2 0.700192 0.688606 0.223540
Si Si3 0.607300 0.733786 0.533176
Si Si4 0.159274 0.478346 0.428382
Si Si5 0.714344 0.443723 0.176516
Si Si6 0.097297 0.353655 0.700587
Si Si7 0.608746 0.932591 0.724426
O O1 0.500000 0.853244 0.054115
O O2 0.345546 0.756774 0.097259
O O3 0.363936 0.954036 0.166711
O O4 0.364011 0.903085 0.889092
O O5 0.654794 0.720518 0.376561
O O6 0.685415 0.564527 0.198115
O O7 0.808187 0.705251 0.224171
O O8 0.500000 0.734075 0.513712
O O9 0.637750 0.637736 0.636703
O O10 0.635059 0.841348 0.611757
O O11 0.217733 0.551101 0.537866
O O12 0.229337 0.417680 0.323106
O O13 0.105689 0.403861 0.537816
O O14 0.103753 0.551375 0.318386
O O15 0.000000 0.301539 0.717080
O O16 0.500000 0.934002 0.724890
#
# Coordination Sequence:
#
# PCOD9337959 Si02
#       7
#     4   4   4   4   4   4   4
#     4  10  19  35  53  75 102 131 172 214 260 300
#     4  10  21  33  50  73 106 140 167 212 254 307
#     4  11  21  33  49  73 106 142 177 209 247 298
#     4   8  17  31  49  66  98 132 169 211 248 296
#     4  10  18  34  46  71 105 141 168 207 244 308
#     4  10  18  31  51  76  98 132 173 215 265 301
#     4   9  20  33  53  76  97 130 175 224 251 294
#
# _framework density 16.146336000000002
#
# number of rings (size 3 to 8) (size 9 to 14) (size 15 to 20)
#    0.000    2.571    2.857    1.714    4.000    3.429 
#    0.000    0.000    0.000    0.000    0.000    4.000 
#    0.000    0.000    0.000    0.000    0.000    0.000 
#
# Total GULP energy -155951.818285 kJ/mol
# GULP energy per Si atom -5569.707796 kJ/mol
# Density = 1.610959 g / cm^3
# Si number density = 16.146336 Si / 1000 Ang^3
#
#
#
# Elastic Constant Matrix: (Units=GPa)
#
#
# Indices 1 2 3 4 5 6 
#
# 1 79.0923 17.5585 22.9402 0.0000 0.0000 0.0000
# 2 17.5585 52.1448 12.0318 0.0000 0.0000 0.0000
# 3 22.9402 12.0318 91.3338 0.0000 0.0000 0.0000
# 4 0.0000 0.0000 0.0000 23.1697 0.0000 0.0000
# 5 0.0000 0.0000 0.0000 0.0000 9.8817 0.0000
# 6 0.0000 0.0000 0.0000 0.0000 0.0000 4.0288
#
#
#
# Elastic Compliance Matrix: (Units=1/GPa)
#
#
# Indices 1 2 3 4 5 6 
#
# 1 0.014461 -0.004158 -0.003084 0.000000 0.000000 0.000000
# 2 -0.004158 0.020974 -0.001719 0.000000 0.000000 0.000000
# 3 -0.003084 -0.001719 0.011950 0.000000 0.000000 0.000000
# 4 0.000000 0.000000 0.000000 0.043160 0.000000 0.000000
# 5 0.000000 0.000000 0.000000 0.000000 0.101197 0.000000
# 6 0.000000 0.000000 0.000000 0.000000 0.000000 0.248214
#
#
# Mechanical properties :
#
#
# Convention : Reuss Voigt Hill
#
# Bulk Modulus (GPa) = 33.94057 36.40355 35.17206
# Shear Modulus (GPa) = 10.69064 18.75207 14.72135
#
# Velocity S-wave (km/s) = 2.57594 3.41160 3.02279
# Velocity P-wave (km/s) = 5.46933 6.17363 5.83212
#
# Compressibility (1/GPa) = 0.02946326
#
# Stress axis : x y z
#
# Youngs Moduli (GPa) = 69.15107 47.67818 83.68217
#
# Poissons Ratio (x) = 0.19823 0.25811
# Poissons Ratio (y) = 0.28751 0.14382
# Poissons Ratio (z) = 0.21329 0.08194
#
# Static dielectric constant tensor:
#      x y z
#    x 1.547420 0.000000 0.000000 
#    y 0.000000 1.529880 0.000000 
#    z 0.000000 0.000000 1.573020 
# 
# From -- ./inp_files/2265.got.cif
#   From: 2010.05.17/outbox.cif.g08.bks.cpg/sg26_2_cif.got.tgz:2265.got - 2010.06.04 01:07:29.
