data_PCOD9337213
_publ_section_title
;
Structure prediction by ZEFSAII (Michael W. Deem and Ramdas Pophale) SiO2 
 PCOD9337213
Probable space group: P M M 2
;
_chemical_formula_sum "Si O2"
_cell_formula_units_Z 32
_cell_length_a 14.411060
_cell_length_b 7.401247
_cell_length_c 13.603805
_cell_angle_alpha 90.000000
_cell_angle_beta 90.000000
_cell_angle_gamma 90.000000
_cell_volume 1450.979319
_symmetry_space_group_name_H-M "P M M 2"
_symmetry_group_IT_number 25
_symmetry_cell_setting 'orthorhombic'
loop_
_space_group_symop_operation_xyz
x,y,z
-x,-y,z
-x,y,z
x,-y,z
loop_
_atom_site_type_symbol
_atom_site_label
_atom_site_fract_x
_atom_site_fract_y
_atom_site_fract_z
Si Si1 0.894425 0.217237 0.815540
Si Si2 0.290122 0.721786 0.326192
Si Si3 0.609054 0.280248 0.914437
Si Si4 0.103549 0.290942 0.247827
Si Si5 0.607372 0.279052 0.524490
Si Si6 0.710087 0.713956 0.719815
Si Si7 0.112653 0.210095 0.028912
Si Si8 0.391536 0.719371 0.128736
O O1 0.819888 0.260997 0.732794
O O2 0.000000 0.280185 0.798146
O O3 0.898623 0.000000 0.824541
O O4 0.858617 0.285977 0.922631
O O5 0.290293 0.500000 0.325838
O O6 0.183996 0.784952 0.316185
O O7 0.343306 0.778580 0.423868
O O8 0.340963 0.781486 0.226535
O O9 0.500000 0.233490 0.907284
O O10 0.613384 0.500000 0.914454
O O11 0.662857 0.212298 0.819143
O O12 0.644946 0.220500 0.021784
O O13 0.094419 0.500000 0.274891
O O14 0.138522 0.289688 0.134234
O O15 0.000000 0.209868 0.251043
O O16 0.500000 0.223766 0.528833
O O17 0.607917 0.500000 0.523994
O O18 0.664014 0.216826 0.620207
O O19 0.691867 0.500000 0.719778
O O20 0.000000 0.223848 0.024793
O O21 0.137265 0.000000 0.033900
O O22 0.500000 0.767950 0.133446
O O23 0.387156 0.500000 0.128976
#
# Coordination Sequence:
#
# PCOD9337213 Si02
#       8
#     4   4   4   4   4   4   4   4
#     4   9  19  35  51  68  96 133 167 197 235 290
#     4   9  16  25  40  62  92 128 164 194 231 284
#     4   8  14  24  38  61  95 127 152 188 242 294
#     4   9  17  27  41  66  98 126 155 197 244 283
#     4   9  17  30  47  68  96 129 164 203 246 292
#     4  10  19  29  48  75  99 124 159 203 249 288
#     4   8  15  29  47  65  89 125 162 191 226 279
#     4   8  13  21  34  55  85 119 152 187 228 276
#
# _framework density 22.054071
#
# number of rings (size 3 to 8) (size 9 to 14) (size 15 to 20)
#    0.000    3.250    0.000    2.250    1.750    3.750 
#    0.000    1.875    0.000    4.500    0.000    1.750 
#    0.000    1.500    0.000    0.000    0.000    0.000 
#
# Total GULP energy -178586.932393 kJ/mol
# GULP energy per Si atom -5580.841637 kJ/mol
# Density = 2.200387 g / cm^3
# Si number density = 22.054071 Si / 1000 Ang^3
#
#
#
# Elastic Constant Matrix: (Units=GPa)
#
#
# Indices 1 2 3 4 5 6 
#
# 1 139.6158 -1.8055 117.4716 0.0000 0.0000 0.0000
# 2 -1.8055 71.6447 7.7002 0.0000 0.0000 0.0000
# 3 117.4716 7.7002 182.9489 0.0000 0.0000 0.0000
# 4 0.0000 0.0000 0.0000 2.7983 0.0000 0.0000
# 5 0.0000 0.0000 0.0000 0.0000 43.2402 0.0000
# 6 0.0000 0.0000 0.0000 0.0000 0.0000 -727.5281
#
#
#
# Elastic Compliance Matrix: (Units=1/GPa)
#
#
# Indices 1 2 3 4 5 6 
#
# 1 0.015736 0.001489 -0.010167 0.000000 0.000000 0.000000
# 2 0.001489 0.014162 -0.001552 0.000000 0.000000 0.000000
# 3 -0.010167 -0.001552 0.012059 0.000000 0.000000 0.000000
# 4 0.000000 0.000000 0.000000 0.357361 0.000000 0.000000
# 5 0.000000 0.000000 0.000000 0.000000 0.023127 0.000000
# 6 0.000000 0.000000 0.000000 0.000000 0.000000 -0.001375
#
#
# Mechanical properties :
#
#
# Convention : Reuss Voigt Hill
#
# Bulk Modulus (GPa) = 46.51620 71.21577 58.86598
# Shear Modulus (GPa) = 11.14339 -118.24172 -53.54917
#
# Velocity S-wave (km/s) = 2.25027 -7.33013 -4.93291
# Velocity P-wave (km/s) = 5.28103 6.26734 2.38645
#
# Compressibility (1/GPa) = 0.02149789
#
# Stress axis : x y z
#
# Youngs Moduli (GPa) = 63.54851 70.61085 82.92262
#
# Poissons Ratio (x) = -0.10516 0.84306
# Poissons Ratio (y) = -0.09464 0.12872
# Poissons Ratio (z) = 0.64608 0.10961
#
# Static dielectric constant tensor:
#      x y z
#    x 1.827380 0.000000 0.000000 
#    y 0.000000 1.830240 0.000000 
#    z 0.000000 0.000000 1.785420 
# 
# From -- ./inp_files/4918.got.cif
#   From: 2010.05.17/outbox.cif.g08.bks.cpg/sg25_3_cif.got.tgz:4918.got - 2010.06.04 01:04:00.
