data_PCOD9337250
_publ_section_title
;
Structure prediction by ZEFSAII (Michael W. Deem and Ramdas Pophale) SiO2 
 PCOD9337250
Probable space group: P M M 2
;
_chemical_formula_sum "Si O2"
_cell_formula_units_Z 24
_cell_length_a 12.926621
_cell_length_b 8.884514
_cell_length_c 12.933682
_cell_angle_alpha 90.000000
_cell_angle_beta 90.000000
_cell_angle_gamma 90.000000
_cell_volume 1485.391282
_symmetry_space_group_name_H-M "P M M 2"
_symmetry_group_IT_number 25
_symmetry_cell_setting 'orthorhombic'
loop_
_space_group_symop_operation_xyz
x,y,z
-x,-y,z
-x,y,z
x,-y,z
loop_
_atom_site_type_symbol
_atom_site_label
_atom_site_fract_x
_atom_site_fract_y
_atom_site_fract_z
Si Si1 0.274979 0.181897 0.317580
Si Si2 0.716752 0.680736 0.090366
Si Si3 0.874413 0.172854 0.697639
Si Si4 0.879821 0.680908 0.913702
Si Si5 0.500000 0.173044 0.081311
Si Si6 0.500000 0.827992 0.332509
Si Si7 0.877111 0.678708 0.482282
O O1 0.261284 0.247915 0.202644
O O2 0.387868 0.237545 0.358932
O O3 0.186602 0.236812 0.394210
O O4 0.278087 0.000000 0.311216
O O5 0.712260 0.500000 0.099999
O O6 0.605655 0.742848 0.052719
O O7 0.805943 0.721402 0.008765
O O8 0.843281 0.245635 0.806401
O O9 0.843391 0.264002 0.595621
O O10 0.000000 0.175092 0.698559
O O11 0.840628 0.000000 0.690031
O O12 0.877417 0.500000 0.902040
O O13 0.000000 0.724206 0.932341
O O14 0.500000 0.169524 0.207068
O O15 0.500000 0.000000 0.045868
O O16 0.500000 0.000000 0.370715
O O17 0.862045 0.500000 0.473901
O O18 0.000000 0.709377 0.471724
#
# Coordination Sequence:
#
# PCOD9337250 Si02
#       7
#     4   4   4   4   2   2   4
#     4  10  19  32  50  72  99 128 160 199 242 288
#     4  10  19  31  49  73 100 130 163 198 239 288
#     4   9  17  30  49  71  93 121 161 202 237 280
#     4   9  18  32  49  70  98 130 160 193 237 288
#     4   9  17  31  49  68  93 126 165 205 241 279
#     4   7  14  29  47  66  89 120 155 193 235 277
#     4  10  20  33  49  70  98 130 162 197 239 287
#
# _framework density 16.157360000000001
#
# number of rings (size 3 to 8) (size 9 to 14) (size 15 to 20)
#    0.000    2.667    0.000    3.250    0.000    5.000 
#    0.000    2.917    0.000    1.000    0.000    4.667 
#    0.000    0.000    0.000    0.000    0.000    0.000 
#
# Total GULP energy -133697.777683 kJ/mol
# GULP energy per Si atom -5570.740737 kJ/mol
# Density = 1.612058 g / cm^3
# Si number density = 16.157360 Si / 1000 Ang^3
#
#
#
# Elastic Constant Matrix: (Units=GPa)
#
#
# Indices 1 2 3 4 5 6 
#
# 1 86.8019 48.6578 65.3354 0.0000 0.0000 0.0000
# 2 48.6578 66.6189 52.0364 0.0000 0.0000 0.0000
# 3 65.3354 52.0364 107.2163 0.0000 0.0000 0.0000
# 4 0.0000 0.0000 0.0000 15.4148 0.0000 0.0000
# 5 0.0000 0.0000 0.0000 0.0000 -3.3484 0.0000
# 6 0.0000 0.0000 0.0000 0.0000 0.0000 20.2468
#
#
#
# Elastic Compliance Matrix: (Units=1/GPa)
#
#
# Indices 1 2 3 4 5 6 
#
# 1 0.024973 -0.010232 -0.010252 0.000000 0.000000 0.000000
# 2 -0.010232 0.028368 -0.007533 0.000000 0.000000 0.000000
# 3 -0.010252 -0.007533 0.019230 0.000000 0.000000 0.000000
# 4 0.000000 0.000000 0.000000 0.064873 0.000000 0.000000
# 5 0.000000 0.000000 0.000000 0.000000 -0.298648 0.000000
# 6 0.000000 0.000000 0.000000 0.000000 0.000000 0.049390
#
#
# Mechanical properties :
#
#
# Convention : Reuss Voigt Hill
#
# Bulk Modulus (GPa) = 60.46907 65.85514 63.16211
# Shear Modulus (GPa) = -99.46893 12.76980 -43.34956
#
# Velocity S-wave (km/s) = -7.85470 2.81435 -5.18535
# Velocity P-wave (km/s) = 6.68994 7.16993 1.82380
#
# Compressibility (1/GPa) = 0.01653738
#
# Stress axis : x y z
#
# Youngs Moduli (GPa) = 40.04373 35.25062 52.00129
#
# Poissons Ratio (x) = 0.36069 0.53311
# Poissons Ratio (y) = 0.40973 0.39173
# Poissons Ratio (z) = 0.41052 0.26555
#
# Static dielectric constant tensor:
#      x y z
#    x 1.552380 0.000000 0.000000 
#    y 0.000000 1.545960 0.000000 
#    z 0.000000 0.000000 1.513720 
# 
# From -- ./inp_files/4002.got.cif
#   From: 2010.05.17/outbox.cif.g08.bks.cpg/sg25_3_cif.got.tgz:4002.got - 2010.06.04 01:04:00.
