data_PCOD9337179
_publ_section_title
;
Structure prediction by ZEFSAII (Michael W. Deem and Ramdas Pophale) SiO2 
 PCOD9337179
Probable space group: P M M 2
;
_chemical_formula_sum "Si O2"
_cell_formula_units_Z 32
_cell_length_a 7.628568
_cell_length_b 20.112225
_cell_length_c 10.608540
_cell_angle_alpha 90.000000
_cell_angle_beta 90.000000
_cell_angle_gamma 90.000000
_cell_volume 1627.641517
_symmetry_space_group_name_H-M "P M M 2"
_symmetry_group_IT_number 25
_symmetry_cell_setting 'orthorhombic'
loop_
_space_group_symop_operation_xyz
x,y,z
-x,-y,z
-x,y,z
x,-y,z
loop_
_atom_site_type_symbol
_atom_site_label
_atom_site_fract_x
_atom_site_fract_y
_atom_site_fract_z
Si Si1 0.286278 0.074035 0.285660
Si Si2 0.204296 0.289703 0.942290
Si Si3 0.286738 0.925780 0.579517
Si Si4 0.712824 0.788319 0.688717
Si Si5 0.292151 0.712551 0.439415
Si Si6 0.211051 0.426266 0.538423
Si Si7 0.708113 0.212370 0.193953
Si Si8 0.214413 0.425072 0.829521
O O1 0.500000 0.071950 0.281745
O O2 0.239099 0.085896 0.432748
O O3 0.224366 0.136645 0.204039
O O4 0.225285 0.000000 0.249633
O O5 0.227445 0.245673 0.816959
O O6 0.279052 0.363199 0.912198
O O7 0.000000 0.299749 0.965016
O O8 0.270051 0.250255 0.063274
O O9 0.500000 0.926155 0.582086
O O10 0.229878 0.864331 0.665243
O O11 0.227660 0.000000 0.615410
O O12 0.500000 0.787272 0.690526
O O13 0.776434 0.746471 0.567399
O O14 0.500000 0.725273 0.440944
O O15 0.266372 0.634011 0.450871
O O16 0.220511 0.745337 0.312261
O O17 0.271431 0.500000 0.500905
O O18 0.268411 0.414378 0.683471
O O19 0.000000 0.426985 0.540432
O O20 0.500000 0.206747 0.213075
O O21 0.267573 0.500000 0.866815
O O22 0.000000 0.424281 0.830036
#
# Coordination Sequence:
#
# PCOD9337179 Si02
#       8
#     4   4   4   4   4   4   4   4
#     4   8  13  25  49  77 100 126 166 212 253 295
#     4  11  22  35  52  75 102 137 175 210 251 300
#     4   8  13  24  47  78 104 126 163 213 255 295
#     4  10  18  31  52  78 104 130 163 207 259 307
#     4  10  19  31  51  78 106 132 161 203 263 313
#     4   9  17  31  52  76 101 132 171 213 252 293
#     4  10  20  35  52  75 107 138 167 208 257 304
#     4   8  15  30  51  72  94 123 164 212 252 287
#
# _framework density 19.660349
#
# number of rings (size 3 to 8) (size 9 to 14) (size 15 to 20)
#    0.000    2.750    2.500    1.875    0.000    0.750 
#    0.000    1.250    0.000    8.250    0.000    1.750 
#    0.000    0.000    0.000    0.000    0.000    0.000 
#
# Total GULP energy -178421.648254 kJ/mol
# GULP energy per Si atom -5575.676508 kJ/mol
# Density = 1.961560 g / cm^3
# Si number density = 19.660349 Si / 1000 Ang^3
#
#
#
# Elastic Constant Matrix: (Units=GPa)
#
#
# Indices 1 2 3 4 5 6 
#
# 1 33.8177 -1.7808 -2.3928 0.0000 0.0000 0.0000
# 2 -1.7808 194.9543 86.0459 0.0000 0.0000 0.0000
# 3 -2.3928 86.0459 103.6912 0.0000 0.0000 0.0000
# 4 0.0000 0.0000 0.0000 26.4517 0.0000 0.0000
# 5 0.0000 0.0000 0.0000 0.0000 -979.8604 0.0000
# 6 0.0000 0.0000 0.0000 0.0000 0.0000 23.5291
#
#
#
# Elastic Compliance Matrix: (Units=1/GPa)
#
#
# Indices 1 2 3 4 5 6 
#
# 1 0.029619 -0.000049 0.000724 0.000000 0.000000 0.000000
# 2 -0.000049 0.008094 -0.006718 0.000000 0.000000 0.000000
# 3 0.000724 -0.006718 0.015235 0.000000 0.000000 0.000000
# 4 0.000000 0.000000 0.000000 0.037805 0.000000 0.000000
# 5 0.000000 0.000000 0.000000 0.000000 -0.001021 0.000000
# 6 0.000000 0.000000 0.000000 0.000000 0.000000 0.042500
#
#
# Mechanical properties :
#
#
# Convention : Reuss Voigt Hill
#
# Bulk Modulus (GPa) = 24.47198 55.13421 39.80310
# Shear Modulus (GPa) = 31.65778 -169.26987 -68.80604
#
# Velocity S-wave (km/s) = 4.01713 -9.28892 -5.92228
# Velocity P-wave (km/s) = 5.83016 9.32422 5.14540
#
# Compressibility (1/GPa) = 0.04086306
#
# Stress axis : x y z
#
# Youngs Moduli (GPa) = 33.76211 123.54960 65.63713
#
# Poissons Ratio (x) = 0.00607 -0.04754
# Poissons Ratio (y) = 0.00166 0.44093
# Poissons Ratio (z) = -0.02445 0.82997
#
# Static dielectric constant tensor:
#      x y z
#    x 2.108200 0.000000 0.000000 
#    y 0.000000 1.731370 0.000000 
#    z 0.000000 0.000000 1.648510 
# 
# From -- ./inp_files/4452.got.cif
#   From: 2010.05.17/outbox.cif.g08.bks.cpg/sg25_3_cif.got.tgz:4452.got - 2010.06.04 01:04:00.
