data_PCOD9337876
_publ_section_title
;
Structure prediction by ZEFSAII (Michael W. Deem and Ramdas Pophale) SiO2 
 PCOD9337876
Probable space group: P M C 21
;
_chemical_formula_sum "Si O2"
_cell_formula_units_Z 28
_cell_length_a 32.741080
_cell_length_b 6.893839
_cell_length_c 5.309380
_cell_angle_alpha 90.000000
_cell_angle_beta 90.000000
_cell_angle_gamma 90.000000
_cell_volume 1198.389367
_symmetry_space_group_name_H-M "P M C 21"
_symmetry_group_IT_number 26
_symmetry_cell_setting 'orthorhombic'
loop_
_space_group_symop_operation_xyz
x,y,z
-x,-y,1/2+z
-x,y,z
x,-y,1/2+z
loop_
_atom_site_type_symbol
_atom_site_label
_atom_site_fract_x
_atom_site_fract_y
_atom_site_fract_z
Si Si1 0.120039 0.772570 0.811060
Si Si2 0.380765 0.712956 0.818865
Si Si3 0.207200 0.872364 0.655452
Si Si4 0.000000 0.122423 0.648537
Si Si5 0.702898 0.867836 0.685199
Si Si6 0.413538 0.722286 0.319171
Si Si7 0.088169 0.221289 0.810782
Si Si8 0.500000 0.128029 0.681868
O O1 0.165827 0.757647 0.707548
O O2 0.090711 0.696961 0.591231
O O3 0.104827 0.998340 0.844814
O O4 0.116737 0.694285 0.092724
O O5 0.334658 0.721962 0.720162
O O6 0.408301 0.806845 0.599188
O O7 0.398684 0.498258 0.857167
O O8 0.384589 0.801706 0.097146
O O9 0.251650 0.776667 0.689815
O O10 0.205722 0.963210 0.375793
O O11 0.957600 0.227449 0.706477
O O12 0.000000 0.047809 0.361774
O O13 0.699897 0.984138 0.422041
O O14 0.459372 0.745852 0.223822
O O15 0.500000 0.031766 0.406118
#
# Coordination Sequence:
#
# PCOD9337876 Si02
#       8
#     4   4   4   2   4   4   4   2
#     4  10  14  22  31  42  60  92 129 168 230 298
#     4  10  21  39  59  82 109 147 186 205 250 314
#     4  10  16  25  38  56  81 109 144 189 244 300
#     4  12  16  20  24  38  56  78 126 178 238 270
#     4  10  21  32  50  77 105 133 169 220 263 295
#     4  10  23  40  63  83 112 150 173 210 250 302
#     4  10  16  20  29  40  58  91 128 182 230 293
#     4  12  26  42  62  96 120 136 174 218 260 298
#
# _framework density 23.364691000000001
#
# number of rings (size 3 to 8) (size 9 to 14) (size 15 to 20)
#    0.000    1.714    5.714    1.714    0.000    5.714 
#    0.000    0.000    0.000    0.000    0.000    0.000 
#    0.000    0.000    0.000    0.000    0.000    0.000 
#
# Total GULP energy -156237.539306 kJ/mol
# GULP energy per Si atom -5579.912118 kJ/mol
# Density = 2.331151 g / cm^3
# Si number density = 23.364691 Si / 1000 Ang^3
#
#
#
# Elastic Constant Matrix: (Units=GPa)
#
#
# Indices 1 2 3 4 5 6 
#
# 1 141.5779 -5.4574 -22.2215 0.0000 0.0000 0.0000
# 2 -5.4574 68.9309 -17.6041 0.0000 0.0000 0.0000
# 3 -22.2215 -17.6041 146.1822 0.0000 0.0000 0.0000
# 4 0.0000 0.0000 0.0000 -8.4724 0.0000 0.0000
# 5 0.0000 0.0000 0.0000 0.0000 39.6675 0.0000
# 6 0.0000 0.0000 0.0000 0.0000 0.0000 14.1627
#
#
#
# Elastic Compliance Matrix: (Units=1/GPa)
#
#
# Indices 1 2 3 4 5 6 
#
# 1 0.007288 0.000887 0.001215 0.000000 0.000000 0.000000
# 2 0.000887 0.015076 0.001950 0.000000 0.000000 0.000000
# 3 0.001215 0.001950 0.007260 0.000000 0.000000 0.000000
# 4 0.000000 0.000000 0.000000 -0.118030 0.000000 0.000000
# 5 0.000000 0.000000 0.000000 0.000000 0.025210 0.000000
# 6 0.000000 0.000000 0.000000 0.000000 0.000000 0.070608
#
#
# Mechanical properties :
#
#
# Convention : Reuss Voigt Hill
#
# Bulk Modulus (GPa) = 26.50500 29.56944 28.03722
# Shear Modulus (GPa) = 420.76504 35.86981 228.31742
#
# Velocity S-wave (km/s) = 13.43417 3.92243 9.89602
# Velocity P-wave (km/s) = 15.87465 5.76169 11.94155
#
# Compressibility (1/GPa) = 0.03772872
#
# Stress axis : x y z
#
# Youngs Moduli (GPa) = 137.20985 66.33219 137.73519
#
# Poissons Ratio (x) = -0.05885 -0.16731
# Poissons Ratio (y) = -0.12174 -0.26863
# Poissons Ratio (z) = -0.16667 -0.12937
#
# Static dielectric constant tensor:
#      x y z
#    x 1.867880 0.000000 0.000000 
#    y 0.000000 1.516800 0.000000 
#    z 0.000000 0.000000 1.958000 
# 
# From -- ./inp_files/1105.got.cif
#   From: 2010.05.17/outbox.cif.g08.bks.cpg/sg26_1_cif.got.tgz:1105.got - 2010.06.04 01:07:29.
