data_PCOD9337264
_publ_section_title
;
Structure prediction by ZEFSAII (Michael W. Deem and Ramdas Pophale) SiO2 
 PCOD9337264
Probable space group: P M M 2
;
_chemical_formula_sum "Si O2"
_cell_formula_units_Z 28
_cell_length_a 12.433495
_cell_length_b 21.375617
_cell_length_c 5.405695
_cell_angle_alpha 90.000000
_cell_angle_beta 90.000000
_cell_angle_gamma 90.000000
_cell_volume 1436.691167
_symmetry_space_group_name_H-M "P M M 2"
_symmetry_group_IT_number 25
_symmetry_cell_setting 'orthorhombic'
loop_
_space_group_symop_operation_xyz
x,y,z
-x,-y,z
-x,y,z
x,-y,z
loop_
_atom_site_type_symbol
_atom_site_label
_atom_site_fract_x
_atom_site_fract_y
_atom_site_fract_z
Si Si1 0.378921 0.191457 0.135170
Si Si2 0.230885 0.740640 0.480490
Si Si3 0.617091 0.932008 0.478681
Si Si4 0.000000 0.252590 0.449844
Si Si5 0.000000 0.829204 0.951506
Si Si6 0.629833 0.646094 0.749704
Si Si7 0.217070 0.135102 0.751353
Si Si8 0.629624 0.428891 0.244410
O O1 0.500000 0.209205 0.070017
O O2 0.318316 0.248695 0.266869
O O3 0.383841 0.129713 0.310257
O O4 0.308804 0.167710 0.911612
O O5 0.114346 0.711410 0.424288
O O6 0.295224 0.705822 0.696475
O O7 0.197667 0.812532 0.541879
O O8 0.500000 0.930236 0.613408
O O9 0.723548 0.924829 0.643055
O O10 0.620922 0.000000 0.350397
O O11 0.000000 0.223140 0.730108
O O12 0.000000 0.203781 0.218075
O O13 0.107699 0.869375 0.904682
O O14 0.500000 0.659180 0.750618
O O15 0.660281 0.611348 0.003465
O O16 0.652905 0.603095 0.507841
O O17 0.500000 0.432188 0.231470
O O18 0.671036 0.500000 0.232429
#
# Coordination Sequence:
#
# PCOD9337264 Si02
#       8
#     4   4   4   2   2   4   4   4
#     4  10  19  31  51  76 106 140 172 217 273 331
#     4  10  21  34  50  78 110 138 181 224 273 331
#     4   9  19  35  52  75 104 136 178 222 270 331
#     4  10  20  36  56  76 106 148 182 220 265 320
#     4  10  20  36  57  78 102 142 185 222 267 322
#     4  10  20  31  50  79 111 143 176 224 275 319
#     4  10  20  34  54  75 104 140 179 222 275 326
#     4   9  18  33  51  74 107 147 186 219 262 322
#
# _framework density 19.489227
#
# number of rings (size 3 to 8) (size 9 to 14) (size 15 to 20)
#    0.000    2.286    1.429    1.286    2.000    4.000 
#    0.000    1.786    0.000    0.000    0.000    3.000 
#    0.000    0.000    0.000    0.000    0.000    0.000 
#
# Total GULP energy -155874.638750 kJ/mol
# GULP energy per Si atom -5566.951384 kJ/mol
# Density = 1.944487 g / cm^3
# Si number density = 19.489227 Si / 1000 Ang^3
#
#
#
# Elastic Constant Matrix: (Units=GPa)
#
#
# Indices 1 2 3 4 5 6 
#
# 1 125.5938 16.6265 18.8476 0.0000 0.0000 0.0000
# 2 16.6265 82.1513 25.3609 0.0000 0.0000 0.0000
# 3 18.8476 25.3609 80.2831 0.0000 0.0000 0.0000
# 4 0.0000 0.0000 0.0000 17.9121 0.0000 0.0000
# 5 0.0000 0.0000 0.0000 0.0000 20.6742 0.0000
# 6 0.0000 0.0000 0.0000 0.0000 0.0000 2.0185
#
#
#
# Elastic Compliance Matrix: (Units=1/GPa)
#
#
# Indices 1 2 3 4 5 6 
#
# 1 0.008359 -0.001203 -0.001582 0.000000 0.000000 0.000000
# 2 -0.001203 0.013661 -0.004033 0.000000 0.000000 0.000000
# 3 -0.001582 -0.004033 0.014101 0.000000 0.000000 0.000000
# 4 0.000000 0.000000 0.000000 0.055828 0.000000 0.000000
# 5 0.000000 0.000000 0.000000 0.000000 0.048369 0.000000
# 6 0.000000 0.000000 0.000000 0.000000 0.000000 0.495410
#
#
# Mechanical properties :
#
#
# Convention : Reuss Voigt Hill
#
# Bulk Modulus (GPa) = 44.47526 45.52202 44.99864
# Shear Modulus (GPa) = 7.61197 23.26718 15.43957
#
# Velocity S-wave (km/s) = 1.97844 3.45896 2.81768
# Velocity P-wave (km/s) = 5.29990 6.27382 5.80731
#
# Compressibility (1/GPa) = 0.02248441
#
# Stress axis : x y z
#
# Youngs Moduli (GPa) = 119.63272 73.19988 70.91500
#
# Poissons Ratio (x) = 0.08808 0.11221
# Poissons Ratio (y) = 0.14395 0.28600
# Poissons Ratio (z) = 0.18929 0.29522
#
# Static dielectric constant tensor:
#      x y z
#    x 1.765380 0.000000 0.000000 
#    y 0.000000 1.722880 0.000000 
#    z 0.000000 0.000000 1.745560 
# 
# From -- ./inp_files/691.got.cif
#   From: 2010.05.17/outbox.cif.g08.bks.cpg/sg25_1_cif.got.tgz:691.got - 2010.06.04 01:04:00.
