data_PCOD9337780
_publ_section_title
;
Structure prediction by ZEFSAII (Michael W. Deem and Ramdas Pophale) SiO2 
 PCOD9337780
Probable space group: P M M 2
;
_chemical_formula_sum "Si O2"
_cell_formula_units_Z 24
_cell_length_a 19.624334
_cell_length_b 7.903332
_cell_length_c 7.820953
_cell_angle_alpha 90.000000
_cell_angle_beta 90.000000
_cell_angle_gamma 90.000000
_cell_volume 1213.011250
_symmetry_space_group_name_H-M "P M M 2"
_symmetry_group_IT_number 25
_symmetry_cell_setting 'orthorhombic'
loop_
_space_group_symop_operation_xyz
x,y,z
-x,-y,z
-x,y,z
x,-y,z
loop_
_atom_site_type_symbol
_atom_site_label
_atom_site_fract_x
_atom_site_fract_y
_atom_site_fract_z
Si Si1 0.423563 0.799417 0.775040
Si Si2 0.175048 0.304614 0.567479
Si Si3 0.921774 0.000000 0.565288
Si Si4 0.078200 0.000000 0.983640
Si Si5 0.672934 0.296649 0.086199
Si Si6 0.327317 0.703468 0.463406
Si Si7 0.175001 0.304557 0.981583
O O1 0.500000 0.725729 0.774768
O O2 0.380275 0.752327 0.608488
O O3 0.429257 0.000000 0.776126
O O4 0.380124 0.750761 0.940850
O O5 0.163385 0.500000 0.511285
O O6 0.118857 0.168773 0.511630
O O7 0.249908 0.246114 0.508095
O O8 0.175968 0.306664 0.774533
O O9 0.921734 0.000000 0.774464
O O10 0.000000 0.000000 0.508948
O O11 0.118760 0.168835 0.037348
O O12 0.000000 0.000000 0.040018
O O13 0.674859 0.500000 0.090141
O O14 0.654127 0.233448 0.274692
O O15 0.750218 0.245542 0.041107
O O16 0.325877 0.500000 0.460494
O O17 0.163405 0.500000 0.037727
#
# Coordination Sequence:
#
# PCOD9337780 Si02
#       7
#     4   4   2   2   4   4   4
#     4  11  25  41  59  87 123 158 191 238 300 358
#     4   9  17  31  53  80 112 151 196 245 294 347
#     4   9  18  30  49  81 115 151 195 240 295 356
#     4   9  18  30  49  81 115 151 195 240 295 356
#     4  10  21  38  62  89 115 152 202 248 294 349
#     4  10  21  38  62  89 115 152 202 248 294 349
#     4   9  17  31  53  80 112 151 196 245 294 347
#
# _framework density 19.78547
#
# number of rings (size 3 to 8) (size 9 to 14) (size 15 to 20)
#    0.000    2.333    1.667    0.500    2.333    3.333 
#    0.000    6.667    0.000    2.000    0.000    4.667 
#    0.000    0.000    0.000    0.000    0.000    0.000 
#
# Total GULP energy -133975.144247 kJ/mol
# GULP energy per Si atom -5582.297677 kJ/mol
# Density = 1.974044 g / cm^3
# Si number density = 19.785470 Si / 1000 Ang^3
#
#
#
# Elastic Constant Matrix: (Units=GPa)
#
#
# Indices 1 2 3 4 5 6 
#
# 1 204.8148 72.8760 76.4620 0.0000 0.0000 0.0000
# 2 72.8760 74.4845 33.8657 0.0000 0.0000 0.0000
# 3 76.4620 33.8657 98.7583 0.0000 0.0000 0.0000
# 4 0.0000 0.0000 0.0000 -9.6871 0.0000 0.0000
# 5 0.0000 0.0000 0.0000 0.0000 -10.4403 0.0000
# 6 0.0000 0.0000 0.0000 0.0000 0.0000 52.6515
#
#
#
# Elastic Compliance Matrix: (Units=1/GPa)
#
#
# Indices 1 2 3 4 5 6 
#
# 1 0.009010 -0.006686 -0.004683 0.000000 0.000000 0.000000
# 2 -0.006686 0.020867 -0.001979 0.000000 0.000000 0.000000
# 3 -0.004683 -0.001979 0.014430 0.000000 0.000000 0.000000
# 4 0.000000 0.000000 0.000000 -0.103230 0.000000 0.000000
# 5 0.000000 0.000000 0.000000 0.000000 -0.095783 0.000000
# 6 0.000000 0.000000 0.000000 0.000000 0.000000 0.018993
#
#
# Mechanical properties :
#
#
# Convention : Reuss Voigt Hill
#
# Bulk Modulus (GPa) = 56.78324 82.71834 69.75079
# Shear Modulus (GPa) = -48.47431 19.49509 -14.48961
#
# Velocity S-wave (km/s) = -4.95511 3.14239 -2.70911
# Velocity P-wave (km/s) = 1.99393 7.42055 5.05415
#
# Compressibility (1/GPa) = 0.01761083
#
# Stress axis : x y z
#
# Youngs Moduli (GPa) = 110.99249 47.92261 69.29988
#
# Poissons Ratio (x) = 0.32041 0.32452
# Poissons Ratio (y) = 0.74209 0.13715
# Poissons Ratio (z) = 0.51976 0.09485
#
# Static dielectric constant tensor:
#      x y z
#    x 1.674950 0.000000 0.000000 
#    y 0.000000 1.700960 0.000000 
#    z 0.000000 0.000000 1.942090 
# 
# From -- ./inp_files/3379.got.cif
#   From: 2010.05.17/outbox.cif.g08.bks.cpg/sg25_2_cif.got.tgz:3379.got - 2010.06.04 01:04:00.
