data_PCOD9337153
_publ_section_title
;
Structure prediction by ZEFSAII (Michael W. Deem and Ramdas Pophale) SiO2 
 PCOD9337153
Probable space group: P M M 2
;
_chemical_formula_sum "Si O2"
_cell_formula_units_Z 28
_cell_length_a 14.841491
_cell_length_b 7.598431
_cell_length_c 13.355229
_cell_angle_alpha 90.000000
_cell_angle_beta 90.000000
_cell_angle_gamma 90.000000
_cell_volume 1506.096490
_symmetry_space_group_name_H-M "P M M 2"
_symmetry_group_IT_number 25
_symmetry_cell_setting 'orthorhombic'
loop_
_space_group_symop_operation_xyz
x,y,z
-x,-y,z
-x,y,z
x,-y,z
loop_
_atom_site_type_symbol
_atom_site_label
_atom_site_fract_x
_atom_site_fract_y
_atom_site_fract_z
Si Si1 0.602556 0.210360 0.629540
Si Si2 0.292565 0.291123 0.048081
Si Si3 0.716921 0.791313 0.444914
Si Si4 0.604135 0.286809 0.246324
Si Si5 0.603365 0.287893 0.854282
Si Si6 0.099867 0.211868 0.121036
Si Si7 0.899327 0.784912 0.352370
O O1 0.500000 0.280282 0.621286
O O2 0.666866 0.281633 0.542598
O O3 0.634834 0.241463 0.742677
O O4 0.596972 0.000000 0.615659
O O5 0.309352 0.500000 0.048449
O O6 0.341721 0.222076 0.148377
O O7 0.336179 0.221448 0.945856
O O8 0.185894 0.265208 0.057232
O O9 0.654270 0.768696 0.347456
O O10 0.815839 0.720382 0.417830
O O11 0.728540 0.000000 0.461223
O O12 0.500000 0.229293 0.244446
O O13 0.604504 0.500000 0.244874
O O14 0.500000 0.225012 0.865109
O O15 0.601360 0.500000 0.858989
O O16 0.000000 0.272482 0.089018
O O17 0.098135 0.000000 0.122244
O O18 0.113886 0.269628 0.236474
O O19 0.000000 0.731340 0.383677
O O20 0.897912 0.000000 0.352365
#
# Coordination Sequence:
#
# PCOD9337153 Si02
#       7
#     4   4   4   4   4   4   4
#     4   9  18  31  46  67  93 120 156 202 241 272
#     4  10  19  31  48  70  95 123 157 196 235 276
#     4  10  18  30  49  70  94 124 157 192 232 279
#     4  10  20  31  43  65  98 128 151 184 233 284
#     4   9  18  33  51  68  89 124 166 199 230 275
#     4   9  17  30  48  70  96 125 157 192 230 278
#     4   8  14  26  45  68  93 121 153 187 225 272
#
# _framework density 18.591107000000001
#
# number of rings (size 3 to 8) (size 9 to 14) (size 15 to 20)
#    0.000    2.714    1.429    1.714    0.000    4.000 
#    0.000    1.429    0.000    3.857    0.000    2.000 
#    0.000    0.000    0.000    0.000    0.000    0.000 
#
# Total GULP energy -156169.043448 kJ/mol
# GULP energy per Si atom -5577.465837 kJ/mol
# Density = 1.854879 g / cm^3
# Si number density = 18.591107 Si / 1000 Ang^3
#
#
#
# Elastic Constant Matrix: (Units=GPa)
#
#
# Indices 1 2 3 4 5 6 
#
# 1 146.6880 -4.1737 99.2111 0.0000 0.0000 0.0000
# 2 -4.1737 35.8743 -2.1300 0.0000 0.0000 0.0000
# 3 99.2111 -2.1300 155.0828 0.0000 0.0000 0.0000
# 4 0.0000 0.0000 0.0000 15.9631 0.0000 0.0000
# 5 0.0000 0.0000 0.0000 0.0000 24.2225 0.0000
# 6 0.0000 0.0000 0.0000 0.0000 0.0000 11.1208
#
#
#
# Elastic Compliance Matrix: (Units=1/GPa)
#
#
# Indices 1 2 3 4 5 6 
#
# 1 0.012048 0.000945 -0.007695 0.000000 0.000000 0.000000
# 2 0.000945 0.027972 -0.000220 0.000000 0.000000 0.000000
# 3 -0.007695 -0.000220 0.011368 0.000000 0.000000 0.000000
# 4 0.000000 0.000000 0.000000 0.062644 0.000000 0.000000
# 5 0.000000 0.000000 0.000000 0.000000 0.041284 0.000000
# 6 0.000000 0.000000 0.000000 0.000000 0.000000 0.089922
#
#
# Mechanical properties :
#
#
# Convention : Reuss Voigt Hill
#
# Bulk Modulus (GPa) = 26.70388 58.16222 42.43305
# Shear Modulus (GPa) = 18.40528 26.57711 22.49120
#
# Velocity S-wave (km/s) = 3.14985 3.78505 3.48197
# Velocity P-wave (km/s) = 5.25582 7.10317 6.24815
#
# Compressibility (1/GPa) = 0.03744774
#
# Stress axis : x y z
#
# Youngs Moduli (GPa) = 82.99922 35.75008 87.96880
#
# Poissons Ratio (x) = -0.03378 0.67689
# Poissons Ratio (y) = -0.07842 0.01938
# Poissons Ratio (z) = 0.63865 0.00787
#
# Static dielectric constant tensor:
#      x y z
#    x 1.651700 0.000000 0.000000 
#    y 0.000000 1.705840 0.000000 
#    z 0.000000 0.000000 1.622570 
# 
# From -- ./inp_files/4038.got.cif
#   From: 2010.05.17/outbox.cif.g08.bks.cpg/sg25_3_cif.got.tgz:4038.got - 2010.06.04 01:04:00.
