data_PCOD9337852
_publ_section_title
;
Structure prediction by ZEFSAII (Michael W. Deem and Ramdas Pophale) SiO2 
 PCOD9337852
Probable space group: P M M 2
;
_chemical_formula_sum "Si O2"
_cell_formula_units_Z 28
_cell_length_a 9.615299
_cell_length_b 7.454990
_cell_length_c 18.899609
_cell_angle_alpha 90.000000
_cell_angle_beta 90.000000
_cell_angle_gamma 90.000000
_cell_volume 1354.760977
_symmetry_space_group_name_H-M "P M M 2"
_symmetry_group_IT_number 25
_symmetry_cell_setting 'orthorhombic'
loop_
_space_group_symop_operation_xyz
x,y,z
-x,-y,z
-x,y,z
x,-y,z
loop_
_atom_site_type_symbol
_atom_site_label
_atom_site_fract_x
_atom_site_fract_y
_atom_site_fract_z
Si Si1 0.840301 0.780004 0.155750
Si Si2 0.337798 0.281237 0.597096
Si Si3 0.840129 0.719703 0.731836
Si Si4 0.341643 0.785582 0.023754
Si Si5 0.341643 0.285523 0.863743
Si Si6 0.660785 0.715280 0.442450
Si Si7 0.341363 0.212239 0.287490
O O1 0.755223 0.718796 0.224773
O O2 0.000000 0.722554 0.156790
O O3 0.841037 0.000000 0.155937
O O4 0.759550 0.720499 0.085216
O O5 0.500000 0.228195 0.605000
O O6 0.337523 0.500000 0.597933
O O7 0.244038 0.222044 0.662252
O O8 0.284777 0.224578 0.519053
O O9 0.839798 0.500000 0.731761
O O10 0.759295 0.780071 0.802199
O O11 0.000000 0.776623 0.730897
O O12 0.500000 0.715635 0.030856
O O13 0.293586 0.749900 0.943741
O O14 0.349290 0.000000 0.031665
O O15 0.500000 0.215724 0.856709
O O16 0.349147 0.500000 0.855681
O O17 0.500000 0.777836 0.440328
O O18 0.659865 0.500000 0.444276
O O19 0.720777 0.765085 0.366278
O O20 0.500000 0.286098 0.285802
O O21 0.353507 0.000000 0.275835
#
# Coordination Sequence:
#
# PCOD9337852 Si02
#       7
#     4   4   4   4   4   4   4
#     4   9  17  29  45  64  85 111 143 174 205 247
#     4   8  13  23  40  59  79 107 143 177 207 244
#     4   9  16  25  39  61  87 113 142 175 208 243
#     4   9  17  30  48  67  85 107 139 177 211 244
#     4   9  17  29  45  65  88 112 138 170 210 253
#     4   8  14  25  42  64  87 110 138 173 212 251
#     4   9  16  27  45  66  85 107 139 177 211 244
#
# _framework density 20.667852
#
# number of rings (size 3 to 8) (size 9 to 14) (size 15 to 20)
#    0.000    3.286    0.000    1.714    0.000    4.000 
#    0.000    1.429    0.000    6.429    0.000    4.000 
#    0.000    0.000    0.000    0.000    0.000    0.000 
#
# Total GULP energy -156118.571415 kJ/mol
# GULP energy per Si atom -5575.663265 kJ/mol
# Density = 2.062081 g / cm^3
# Si number density = 20.667852 Si / 1000 Ang^3
#
#
#
# Elastic Constant Matrix: (Units=GPa)
#
#
# Indices 1 2 3 4 5 6 
#
# 1 116.5369 5.6806 132.7429 0.0000 0.0000 0.0000
# 2 5.6806 59.6320 1.8181 0.0000 0.0000 0.0000
# 3 132.7429 1.8181 255.5208 0.0000 0.0000 0.0000
# 4 0.0000 0.0000 0.0000 20.1780 0.0000 0.0000
# 5 0.0000 0.0000 0.0000 0.0000 -16.9203 0.0000
# 6 0.0000 0.0000 0.0000 0.0000 0.0000 -0.6119
#
#
#
# Elastic Compliance Matrix: (Units=1/GPa)
#
#
# Indices 1 2 3 4 5 6 
#
# 1 0.021186 -0.001683 -0.010994 0.000000 0.000000 0.000000
# 2 -0.001683 0.016907 0.000754 0.000000 0.000000 0.000000
# 3 -0.010994 0.000754 0.009620 0.000000 0.000000 0.000000
# 4 0.000000 0.000000 0.000000 0.049559 0.000000 0.000000
# 5 0.000000 0.000000 0.000000 0.000000 -0.059101 0.000000
# 6 0.000000 0.000000 0.000000 0.000000 0.000000 -1.634176
#
#
# Mechanical properties :
#
#
# Convention : Reuss Voigt Hill
#
# Bulk Modulus (GPa) = 41.90011 79.13034 60.51523
# Shear Modulus (GPa) = -3.19652 19.95902 8.38125
#
# Velocity S-wave (km/s) = -1.24498 3.11095 2.01594
# Velocity P-wave (km/s) = 4.27206 7.16057 5.89594
#
# Compressibility (1/GPa) = 0.02386629
#
# Stress axis : x y z
#
# Youngs Moduli (GPa) = 47.20080 59.14756 103.95355
#
# Poissons Ratio (x) = 0.09955 1.14288
# Poissons Ratio (y) = 0.07944 -0.07838
# Poissons Ratio (z) = 0.51893 -0.04460
#
# Static dielectric constant tensor:
#      x y z
#    x 1.695210 0.000000 0.000000 
#    y 0.000000 1.796190 0.000000 
#    z 0.000000 0.000000 1.740320 
# 
# From -- ./inp_files/6218.got.cif
#   From: 2010.05.17/outbox.cif.g08.bks.cpg/sg25_4_cif.got.tgz:6218.got - 2010.06.04 01:04:00.
