data_PCOD9337350
_publ_section_title
;
Structure prediction by ZEFSAII (Michael W. Deem and Ramdas Pophale) SiO2 
 PCOD9337350
Probable space group: P M M 2
;
_chemical_formula_sum "Si O2"
_cell_formula_units_Z 32
_cell_length_a 11.488574
_cell_length_b 15.113823
_cell_length_c 9.626135
_cell_angle_alpha 90.000000
_cell_angle_beta 90.000000
_cell_angle_gamma 90.000000
_cell_volume 1671.446214
_symmetry_space_group_name_H-M "P M M 2"
_symmetry_group_IT_number 25
_symmetry_cell_setting 'orthorhombic'
loop_
_space_group_symop_operation_xyz
x,y,z
-x,-y,z
-x,y,z
x,-y,z
loop_
_atom_site_type_symbol
_atom_site_label
_atom_site_fract_x
_atom_site_fract_y
_atom_site_fract_z
Si Si1 0.129118 0.898791 0.868000
Si Si2 0.131198 0.836376 0.561519
Si Si3 0.375147 0.198949 0.912440
Si Si4 0.287622 0.319256 0.675402
Si Si5 0.136492 0.602538 0.922799
Si Si6 0.139687 0.097711 0.262968
Si Si7 0.255106 0.722724 0.153698
Si Si8 0.362958 0.397946 0.390207
O O1 0.129521 0.893669 0.701038
O O2 0.251517 0.853297 0.907235
O O3 0.000000 0.860529 0.909990
O O4 0.129997 0.000000 0.913535
O O5 0.212662 0.754217 0.594252
O O6 0.165013 0.891133 0.426698
O O7 0.000000 0.803206 0.536833
O O8 0.500000 0.150518 0.908539
O O9 0.369891 0.264504 0.780195
O O10 0.364337 0.252737 0.055854
O O11 0.205693 0.371929 0.783022
O O12 0.343701 0.376463 0.553341
O O13 0.158800 0.500000 0.956855
O O14 0.000000 0.614985 0.897168
O O15 0.175815 0.664160 0.050394
O O16 0.193906 0.184938 0.194864
O O17 0.000000 0.099211 0.243997
O O18 0.181769 0.000000 0.218272
O O19 0.291870 0.667368 0.288999
O O20 0.500000 0.387602 0.360340
O O21 0.329683 0.500000 0.363773
#
# Coordination Sequence:
#
# PCOD9337350 Si02
#       8
#     4   4   4   4   4   4   4   4
#     4   9  18  33  56  85 115 149 194 247 299 354
#     4   9  16  30  54  84 116 149 185 236 298 355
#     4  10  22  37  57  83 114 158 199 239 300 361
#     4  10  19  36  60  85 116 150 194 244 300 362
#     4  10  21  37  58  87 125 164 200 243 302 371
#     4  10  20  34  56  86 118 154 199 249 300 357
#     4  11  22  39  58  81 119 162 201 246 298 364
#     4  11  23  39  61  87 113 148 198 253 304 360
#
# _framework density 19.145095999999999
#
# number of rings (size 3 to 8) (size 9 to 14) (size 15 to 20)
#    0.000    2.000    1.250    2.625    0.000    5.750 
#    0.000    1.250    0.000   10.125    0.000    0.000 
#    0.000    0.000    0.000    0.000    0.000    0.000 
#
# Total GULP energy -178376.474873 kJ/mol
# GULP energy per Si atom -5574.264840 kJ/mol
# Density = 1.910152 g / cm^3
# Si number density = 19.145096 Si / 1000 Ang^3
#
#
#
# Elastic Constant Matrix: (Units=GPa)
#
#
# Indices 1 2 3 4 5 6 
#
# 1 110.3345 57.9347 31.8612 0.0000 0.0000 0.0000
# 2 57.9347 125.4258 45.7592 0.0000 0.0000 0.0000
# 3 31.8612 45.7592 124.4196 0.0000 0.0000 0.0000
# 4 0.0000 0.0000 0.0000 1.5927 0.0000 0.0000
# 5 0.0000 0.0000 0.0000 0.0000 -11.7067 0.0000
# 6 0.0000 0.0000 0.0000 0.0000 0.0000 2.0771
#
#
#
# Elastic Compliance Matrix: (Units=1/GPa)
#
#
# Indices 1 2 3 4 5 6 
#
# 1 0.012120 -0.005158 -0.001207 0.000000 0.000000 0.000000
# 2 -0.005158 0.011404 -0.002873 0.000000 0.000000 0.000000
# 3 -0.001207 -0.002873 0.009403 0.000000 0.000000 0.000000
# 4 0.000000 0.000000 0.000000 0.627860 0.000000 0.000000
# 5 0.000000 0.000000 0.000000 0.000000 -0.085421 0.000000
# 6 0.000000 0.000000 0.000000 0.000000 0.000000 0.481433
#
#
# Mechanical properties :
#
#
# Convention : Reuss Voigt Hill
#
# Bulk Modulus (GPa) = 69.19964 70.14336 69.67150
# Shear Modulus (GPa) = 4.62923 13.36762 8.99843
#
# Velocity S-wave (km/s) = 1.55667 2.64527 2.17033
# Velocity P-wave (km/s) = 6.28126 6.78581 6.53841
#
# Compressibility (1/GPa) = 0.01445094
#
# Stress axis : x y z
#
# Youngs Moduli (GPa) = 82.50651 87.69135 106.34894
#
# Poissons Ratio (x) = 0.45233 0.12833
# Poissons Ratio (y) = 0.42558 0.30556
# Poissons Ratio (z) = 0.09956 0.25195
#
# Static dielectric constant tensor:
#      x y z
#    x 1.666580 0.000000 0.000000 
#    y 0.000000 1.672130 0.000000 
#    z 0.000000 0.000000 1.680400 
# 
# From -- ./inp_files/2817.got.cif
#   From: 2010.05.17/outbox.cif.g08.bks.cpg/sg25_2_cif.got.tgz:2817.got - 2010.06.04 01:04:00.
