data_PCOD9337096
_publ_section_title
;
Structure prediction by ZEFSAII (Michael W. Deem and Ramdas Pophale) SiO2 
 PCOD9337096
Probable space group: P M M 2
;
_chemical_formula_sum "Si O2"
_cell_formula_units_Z 32
_cell_length_a 14.736192
_cell_length_b 8.683041
_cell_length_c 16.074594
_cell_angle_alpha 90.000000
_cell_angle_beta 90.000000
_cell_angle_gamma 90.000000
_cell_volume 2056.824021
_symmetry_space_group_name_H-M "P M M 2"
_symmetry_group_IT_number 25
_symmetry_cell_setting 'orthorhombic'
loop_
_space_group_symop_operation_xyz
x,y,z
-x,-y,z
-x,y,z
x,-y,z
loop_
_atom_site_type_symbol
_atom_site_label
_atom_site_fract_x
_atom_site_fract_y
_atom_site_fract_z
Si Si1 0.215756 0.313948 0.549350
Si Si2 0.215445 0.315775 0.222344
Si Si3 0.889910 0.677683 0.893613
Si Si4 0.105067 0.688208 0.710684
Si Si5 0.397154 0.814377 0.288613
Si Si6 0.894672 0.183306 0.068775
Si Si7 0.895415 0.312219 0.385845
Si Si8 0.602627 0.814420 0.482512
O O1 0.216043 0.500000 0.549288
O O2 0.167325 0.262270 0.634194
O O3 0.157058 0.262984 0.469083
O O4 0.317535 0.255322 0.537039
O O5 0.215322 0.500000 0.222406
O O6 0.317460 0.256153 0.234217
O O7 0.167162 0.256567 0.139525
O O8 0.157709 0.262181 0.303140
O O9 0.860833 0.500000 0.902882
O O10 0.862052 0.737579 0.802484
O O11 0.000000 0.677885 0.890075
O O12 0.864305 0.769723 0.975932
O O13 0.104629 0.500000 0.712496
O O14 0.000000 0.735276 0.697951
O O15 0.500000 0.768947 0.265399
O O16 0.383122 0.769188 0.385575
O O17 0.392367 0.000000 0.285050
O O18 0.000000 0.235480 0.079004
O O19 0.892983 0.000000 0.076649
O O20 0.895817 0.500000 0.385962
O O21 0.000000 0.261574 0.385399
O O22 0.500000 0.767939 0.505794
O O23 0.606797 0.000000 0.485702
#
# Coordination Sequence:
#
# PCOD9337096 Si02
#       8
#     4   4   4   4   4   4   4   4
#     4  10  17  27  45  69  92 118 154 192 224 261
#     4  11  20  30  46  69  94 122 155 192 230 271
#     4   8  14  27  46  66  88 117 153 191 229 270
#     4   8  14  25  44  69  95 122 151 184 226 274
#     4   9  18  33  50  65  86 119 156 195 237 277
#     4  10  20  32  46  66  93 125 158 192 230 273
#     4   9  17  27  39  60  92 125 153 180 214 257
#     4   9  18  32  47  62  86 121 155 190 233 274
#
# _framework density 15.557967
#
# number of rings (size 3 to 8) (size 9 to 14) (size 15 to 20)
#    0.000    2.750    1.250    3.000    0.000    3.250 
#    0.000    1.875    0.000    3.000    0.000    0.875 
#    0.000    5.000    0.000    0.000    0.000    0.000 
#
# Total GULP energy -178319.901954 kJ/mol
# GULP energy per Si atom -5572.496936 kJ/mol
# Density = 1.552256 g / cm^3
# Si number density = 15.557967 Si / 1000 Ang^3
#
#
#
# Elastic Constant Matrix: (Units=GPa)
#
#
# Indices 1 2 3 4 5 6 
#
# 1 116.8459 24.2859 77.6965 0.0000 0.0000 0.0000
# 2 24.2859 15.4834 27.1811 0.0000 0.0000 0.0000
# 3 77.6965 27.1811 137.8635 0.0000 0.0000 0.0000
# 4 0.0000 0.0000 0.0000 13.1320 0.0000 0.0000
# 5 0.0000 0.0000 0.0000 0.0000 9.7009 0.0000
# 6 0.0000 0.0000 0.0000 0.0000 0.0000 19.7490
#
#
#
# Elastic Compliance Matrix: (Units=1/GPa)
#
#
# Indices 1 2 3 4 5 6 
#
# 1 0.015357 -0.013602 -0.005973 0.000000 0.000000 0.000000
# 2 -0.013602 0.110819 -0.014183 0.000000 0.000000 0.000000
# 3 -0.005973 -0.014183 0.013416 0.000000 0.000000 0.000000
# 4 0.000000 0.000000 0.000000 0.076150 0.000000 0.000000
# 5 0.000000 0.000000 0.000000 0.000000 0.103083 0.000000
# 6 0.000000 0.000000 0.000000 0.000000 0.000000 0.050635
#
#
# Mechanical properties :
#
#
# Convention : Reuss Voigt Hill
#
# Bulk Modulus (GPa) = 13.87430 58.72440 36.29935
# Shear Modulus (GPa) = 10.84589 17.91833 14.38211
#
# Velocity S-wave (km/s) = 2.64318 3.39737 3.04373
# Velocity P-wave (km/s) = 4.27228 7.29500 5.97785
#
# Compressibility (1/GPa) = 0.07207569
#
# Stress axis : x y z
#
# Youngs Moduli (GPa) = 65.11562 9.02370 74.53645
#
# Poissons Ratio (x) = 0.12274 0.44522
# Poissons Ratio (y) = 0.88571 1.05717
# Poissons Ratio (z) = 0.38895 0.12799
#
# Static dielectric constant tensor:
#      x y z
#    x 1.503880 0.000000 0.000000 
#    y 0.000000 1.526900 0.000000 
#    z 0.000000 0.000000 1.518630 
# 
# From -- ./inp_files/5692.got.cif
#   From: 2010.05.17/outbox.cif.g08.bks.cpg/sg25_3_cif.got.tgz:5692.got - 2010.06.04 01:04:00.
