data_PCOD9337560
_publ_section_title
;
Structure prediction by ZEFSAII (Michael W. Deem and Ramdas Pophale) SiO2 
 PCOD9337560
Probable space group: P M M 2
;
_chemical_formula_sum "Si O2"
_cell_formula_units_Z 32
_cell_length_a 9.768339
_cell_length_b 8.064944
_cell_length_c 21.521063
_cell_angle_alpha 90.000000
_cell_angle_beta 90.000000
_cell_angle_gamma 90.000000
_cell_volume 1695.453167
_symmetry_space_group_name_H-M "P M M 2"
_symmetry_group_IT_number 25
_symmetry_cell_setting 'orthorhombic'
loop_
_space_group_symop_operation_xyz
x,y,z
-x,-y,z
-x,y,z
x,-y,z
loop_
_atom_site_type_symbol
_atom_site_label
_atom_site_fract_x
_atom_site_fract_y
_atom_site_fract_z
Si Si1 0.342394 0.703307 0.292620
Si Si2 0.342684 0.197445 0.793820
Si Si3 0.842173 0.297735 0.407743
Si Si4 0.155817 0.197735 0.040953
Si Si5 0.343650 0.697313 0.926989
Si Si6 0.842360 0.297537 0.547765
Si Si7 0.156485 0.300847 0.178380
Si Si8 0.343198 0.699318 0.660864
O O1 0.500000 0.756762 0.292105
O O2 0.342589 0.500000 0.292557
O O3 0.260526 0.757131 0.354135
O O4 0.258152 0.758778 0.231958
O O5 0.500000 0.263570 0.794504
O O6 0.283191 0.249997 0.860095
O O7 0.282641 0.257844 0.728570
O O8 0.346503 0.000000 0.792128
O O9 0.841768 0.500000 0.407246
O O10 0.803457 0.245838 0.477754
O O11 0.000000 0.247712 0.395756
O O12 0.202648 0.258771 0.108694
O O13 0.000000 0.261313 0.031631
O O14 0.150816 0.000000 0.043060
O O15 0.253111 0.248315 0.984861
O O16 0.500000 0.764689 0.931695
O O17 0.351274 0.500000 0.927374
O O18 0.838959 0.500000 0.548162
O O19 0.745083 0.238479 0.602920
O O20 0.000000 0.248974 0.558261
O O21 0.150852 0.500000 0.183611
O O22 0.000000 0.238065 0.186278
O O23 0.500000 0.762480 0.658103
O O24 0.348413 0.500000 0.656723
#
# Coordination Sequence:
#
# PCOD9337560 Si02
#       8
#     4   4   4   4   4   4   4   4
#     4   9  16  24  37  61  91 119 150 192 236 275
#     4   9  17  30  48  69  94 125 159 193 232 281
#     4   8  13  22  36  55  83 119 153 184 226 281
#     4  10  21  36  53  74 100 129 162 200 241 287
#     4  10  20  34  54  78 101 127 161 200 241 287
#     4   8  14  24  38  58  86 119 152 186 228 279
#     4   9  17  30  47  65  89 124 160 191 230 283
#     4   9  16  26  42  64  88 115 151 194 234 273
#
# _framework density 18.874012
#
# number of rings (size 3 to 8) (size 9 to 14) (size 15 to 20)
#    0.000    3.000    0.000    2.250    0.000    5.500 
#    0.000    4.375    0.000    2.625    0.000    0.875 
#    0.000    1.000    0.000    0.000    0.000    0.000 
#
# Total GULP energy -178347.841429 kJ/mol
# GULP energy per Si atom -5573.370045 kJ/mol
# Density = 1.883105 g / cm^3
# Si number density = 18.874012 Si / 1000 Ang^3
#
#
#
# Elastic Constant Matrix: (Units=GPa)
#
#
# Indices 1 2 3 4 5 6 
#
# 1 88.6240 8.0092 113.4419 0.0000 0.0000 0.0000
# 2 8.0092 13.7803 10.0591 0.0000 0.0000 0.0000
# 3 113.4419 10.0591 222.0816 0.0000 0.0000 0.0000
# 4 0.0000 0.0000 0.0000 -30.8004 0.0000 0.0000
# 5 0.0000 0.0000 0.0000 0.0000 50.8770 0.0000
# 6 0.0000 0.0000 0.0000 0.0000 0.0000 7.6155
#
#
#
# Elastic Compliance Matrix: (Units=1/GPa)
#
#
# Indices 1 2 3 4 5 6 
#
# 1 0.033269 -0.007168 -0.016669 0.000000 0.000000 0.000000
# 2 -0.007168 0.076593 0.000192 0.000000 0.000000 0.000000
# 3 -0.016669 0.000192 0.013009 0.000000 0.000000 0.000000
# 4 0.000000 0.000000 0.000000 -0.032467 0.000000 0.000000
# 5 0.000000 0.000000 0.000000 0.000000 0.019655 0.000000
# 6 0.000000 0.000000 0.000000 0.000000 0.000000 0.131311
#
#
# Mechanical properties :
#
#
# Convention : Reuss Voigt Hill
#
# Bulk Modulus (GPa) = 13.23085 65.27847 39.25466
# Shear Modulus (GPa) = 15.93092 18.40346 17.16719
#
# Velocity S-wave (km/s) = 2.90843 3.12600 3.01918
# Velocity P-wave (km/s) = 4.27831 6.90584 5.74433
#
# Compressibility (1/GPa) = 0.07558091
#
# Stress axis : x y z
#
# Youngs Moduli (GPa) = 30.05806 13.05595 76.86917
#
# Poissons Ratio (x) = 0.09359 1.28137
# Poissons Ratio (y) = 0.21546 -0.01478
# Poissons Ratio (z) = 0.50105 -0.00251
#
# Static dielectric constant tensor:
#      x y z
#    x 1.628130 0.000000 0.000000 
#    y 0.000000 1.659320 0.000000 
#    z 0.000000 0.000000 1.655440 
# 
# From -- ./inp_files/6536.got.cif
#   From: 2010.05.17/outbox.cif.g08.bks.cpg/sg25_4_cif.got.tgz:6536.got - 2010.06.04 01:04:00.
