data_PCOD9337657
_publ_section_title
;
Structure prediction by ZEFSAII (Michael W. Deem and Ramdas Pophale) SiO2 
 PCOD9337657
Probable space group: P M M 2
;
_chemical_formula_sum "Si O2"
_cell_formula_units_Z 32
_cell_length_a 16.020293
_cell_length_b 8.204965
_cell_length_c 12.199201
_cell_angle_alpha 90.000000
_cell_angle_beta 90.000000
_cell_angle_gamma 90.000000
_cell_volume 1603.535484
_symmetry_space_group_name_H-M "P M M 2"
_symmetry_group_IT_number 25
_symmetry_cell_setting 'orthorhombic'
loop_
_space_group_symop_operation_xyz
x,y,z
-x,-y,z
-x,y,z
x,-y,z
loop_
_atom_site_type_symbol
_atom_site_label
_atom_site_fract_x
_atom_site_fract_y
_atom_site_fract_z
Si Si1 0.647189 0.804484 0.551510
Si Si2 0.250779 0.693140 0.930107
Si Si3 0.093246 0.199298 0.322577
Si Si4 0.907276 0.196390 0.794119
Si Si5 0.841997 0.198443 0.558701
Si Si6 0.592023 0.697080 0.789980
Si Si7 0.249498 0.193233 0.177918
Si Si8 0.592642 0.306522 0.315664
O O1 0.744757 0.755345 0.554833
O O2 0.606208 0.750750 0.665006
O O3 0.605714 0.728998 0.444189
O O4 0.643090 0.000000 0.541957
O O5 0.250422 0.500000 0.915509
O O6 0.165668 0.758017 0.877221
O O7 0.331283 0.758965 0.863743
O O8 0.256601 0.732208 0.057877
O O9 0.112998 0.251189 0.447263
O O10 0.167865 0.254724 0.243673
O O11 0.000000 0.250017 0.289975
O O12 0.094851 0.000000 0.322401
O O13 0.883165 0.255228 0.671806
O O14 0.000000 0.254486 0.824586
O O15 0.909678 0.000000 0.789470
O O16 0.844883 0.000000 0.559696
O O17 0.500000 0.751361 0.827317
O O18 0.593084 0.500000 0.793234
O O19 0.331774 0.227152 0.249318
O O20 0.239946 0.000000 0.165269
O O21 0.500000 0.248310 0.283089
O O22 0.596501 0.500000 0.297442
#
# Coordination Sequence:
#
# PCOD9337657 Si02
#       8
#     4   4   4   4   4   4   4   4
#     4  11  20  34  60  92 122 151 190 242 295 348
#     4  11  24  41  60  83 115 159 202 247 301 357
#     4   9  17  32  57  88 118 148 184 230 288 348
#     4  10  20  36  61  90 119 154 197 245 297 355
#     4   9  16  30  55  88 120 147 182 235 294 346
#     4  10  22  40  60  83 114 154 197 238 290 359
#     4  11  23  40  62  89 117 151 200 254 298 344
#     4  11  24  41  61  86 120 161 199 237 291 358
#
# _framework density 19.955904
#
# number of rings (size 3 to 8) (size 9 to 14) (size 15 to 20)
#    0.000    1.750    2.500    2.250    0.000    6.000 
#    0.000    2.500    0.000    1.125    0.000    0.000 
#    0.000    0.000    0.000    0.000    0.000    0.000 
#
# Total GULP energy -178782.191553 kJ/mol
# GULP energy per Si atom -5586.943486 kJ/mol
# Density = 1.991048 g / cm^3
# Si number density = 19.955904 Si / 1000 Ang^3
#
#
#
# Elastic Constant Matrix: (Units=GPa)
#
#
# Indices 1 2 3 4 5 6 
#
# 1 169.7790 5.5230 49.9810 0.0000 0.0000 0.0000
# 2 5.5230 7.9721 -12.2991 0.0000 0.0000 0.0000
# 3 49.9810 -12.2991 99.1109 0.0000 0.0000 0.0000
# 4 0.0000 0.0000 0.0000 24.9575 0.0000 0.0000
# 5 0.0000 0.0000 0.0000 0.0000 13.6520 0.0000
# 6 0.0000 0.0000 0.0000 0.0000 0.0000 77.0680
#
#
#
# Elastic Compliance Matrix: (Units=1/GPa)
#
#
# Indices 1 2 3 4 5 6 
#
# 1 0.008114 -0.014760 -0.005923 0.000000 0.000000 0.000000
# 2 -0.014760 0.181987 0.030027 0.000000 0.000000 0.000000
# 3 -0.005923 0.030027 0.016803 0.000000 0.000000 0.000000
# 4 0.000000 0.000000 0.000000 0.040068 0.000000 0.000000
# 5 0.000000 0.000000 0.000000 0.000000 0.073249 0.000000
# 6 0.000000 0.000000 0.000000 0.000000 0.000000 0.012976
#
#
# Mechanical properties :
#
#
# Convention : Reuss Voigt Hill
#
# Bulk Modulus (GPa) = 4.43281 40.36356 22.39818
# Shear Modulus (GPa) = 12.83018 38.71263 25.77140
#
# Velocity S-wave (km/s) = 2.53835 4.40922 3.59753
# Velocity P-wave (km/s) = 3.28893 6.79646 5.33896
#
# Compressibility (1/GPa) = 0.22559079
#
# Stress axis : x y z
#
# Youngs Moduli (GPa) = 123.24482 5.49491 59.51331
#
# Poissons Ratio (x) = 0.08110 0.35252
# Poissons Ratio (y) = 1.81905 -1.78699
# Poissons Ratio (z) = 0.73003 -0.16499
#
# Static dielectric constant tensor:
#      x y z
#    x 1.717270 0.000000 0.000000 
#    y 0.000000 1.705250 0.000000 
#    z 0.000000 0.000000 1.659610 
# 
# From -- ./inp_files/4184.got.cif
#   From: 2010.05.17/outbox.cif.g08.bks.cpg/sg25_3_cif.got.tgz:4184.got - 2010.06.04 01:04:00.
