data_PCOD9337279
_publ_section_title
;
Structure prediction by ZEFSAII (Michael W. Deem and Ramdas Pophale) SiO2 
 PCOD9337279
Probable space group: P M M 2
;
_chemical_formula_sum "Si O2"
_cell_formula_units_Z 32
_cell_length_a 8.987383
_cell_length_b 15.014808
_cell_length_c 12.801247
_cell_angle_alpha 90.000000
_cell_angle_beta 90.000000
_cell_angle_gamma 90.000000
_cell_volume 1727.449301
_symmetry_space_group_name_H-M "P M M 2"
_symmetry_group_IT_number 25
_symmetry_cell_setting 'orthorhombic'
loop_
_space_group_symop_operation_xyz
x,y,z
-x,-y,z
-x,y,z
x,-y,z
loop_
_atom_site_type_symbol
_atom_site_label
_atom_site_fract_x
_atom_site_fract_y
_atom_site_fract_z
Si Si1 0.679010 0.898916 0.835150
Si Si2 0.819942 0.273935 0.753595
Si Si3 0.178978 0.096541 0.289665
Si Si4 0.330203 0.656345 0.137748
Si Si5 0.181408 0.603199 0.558547
Si Si6 0.175748 0.597246 0.936515
Si Si7 0.820322 0.293120 0.349587
Si Si8 0.671603 0.137478 0.073442
O O1 0.500000 0.888219 0.832927
O O2 0.753093 0.824163 0.763413
O O3 0.715516 0.000000 0.804485
O O4 0.724968 0.885367 0.956990
O O5 0.773557 0.334184 0.655299
O O6 0.771954 0.327126 0.857600
O O7 0.000000 0.268872 0.752722
O O8 0.229201 0.188780 0.344644
O O9 0.233471 0.100928 0.169739
O O10 0.000000 0.098118 0.291389
O O11 0.227936 0.000000 0.333463
O O12 0.500000 0.630020 0.156482
O O13 0.241400 0.660389 0.245599
O O14 0.327948 0.756611 0.091244
O O15 0.255639 0.600047 0.046971
O O16 0.231046 0.500000 0.565077
O O17 0.227122 0.652677 0.451861
O O18 0.000000 0.600900 0.559619
O O19 0.195225 0.500000 0.886406
O O20 0.000000 0.610489 0.954101
O O21 0.000000 0.293476 0.346471
O O22 0.500000 0.106793 0.082682
#
# Coordination Sequence:
#
# PCOD9337279 Si02
#       8
#     4   4   4   4   4   4   4   4
#     4  10  20  34  52  75 107 146 181 213 259 320
#     4  10  20  35  56  80 106 134 176 230 270 307
#     4   9  17  28  44  70 103 136 171 212 258 306
#     4  10  19  32  51  76 108 141 173 215 263 310
#     4   9  18  35  59  82 102 133 179 226 271 319
#     4  10  20  33  51  76 106 140 174 212 266 327
#     4   9  18  33  53  76 104 137 176 218 266 320
#     4   9  17  30  48  70 100 139 178 210 247 302
#
# _framework density 18.524421
#
# number of rings (size 3 to 8) (size 9 to 14) (size 15 to 20)
#    0.000    2.500    1.250    1.125    0.000    4.250 
#    0.000    2.500    0.000    4.125    0.000    0.000 
#    0.000    0.000    0.000    0.000    0.000    0.000 
#
# Total GULP energy -178381.319590 kJ/mol
# GULP energy per Si atom -5574.416237 kJ/mol
# Density = 1.848226 g / cm^3
# Si number density = 18.524421 Si / 1000 Ang^3
#
#
#
# Elastic Constant Matrix: (Units=GPa)
#
#
# Indices 1 2 3 4 5 6 
#
# 1 9.1995 28.1384 21.0675 0.0000 0.0000 0.0000
# 2 28.1384 138.6334 76.3204 0.0000 0.0000 0.0000
# 3 21.0675 76.3204 114.1774 0.0000 0.0000 0.0000
# 4 0.0000 0.0000 0.0000 17.7608 0.0000 0.0000
# 5 0.0000 0.0000 0.0000 0.0000 7.9737 0.0000
# 6 0.0000 0.0000 0.0000 0.0000 0.0000 7.1520
#
#
#
# Elastic Compliance Matrix: (Units=1/GPa)
#
#
# Indices 1 2 3 4 5 6 
#
# 1 0.327085 -0.052472 -0.025278 0.000000 0.000000 0.000000
# 2 -0.052472 0.019831 -0.003574 0.000000 0.000000 0.000000
# 3 -0.025278 -0.003574 0.015811 0.000000 0.000000 0.000000
# 4 0.000000 0.000000 0.000000 0.056304 0.000000 0.000000
# 5 0.000000 0.000000 0.000000 0.000000 0.125412 0.000000
# 6 0.000000 0.000000 0.000000 0.000000 0.000000 0.139821
#
#
# Mechanical properties :
#
#
# Convention : Reuss Voigt Hill
#
# Bulk Modulus (GPa) = 4.99801 57.00699 31.00250
# Shear Modulus (GPa) = 5.47282 15.67623 10.57452
#
# Velocity S-wave (km/s) = 1.72070 2.91219 2.39182
# Velocity P-wave (km/s) = 2.57908 6.49219 4.93965
#
# Compressibility (1/GPa) = 0.20007961
#
# Stress axis : x y z
#
# Youngs Moduli (GPa) = 3.05731 50.42598 63.24590
#
# Poissons Ratio (x) = 2.64598 1.59871
# Poissons Ratio (y) = 0.16042 0.22603
# Poissons Ratio (z) = 0.07728 0.18021
#
# Static dielectric constant tensor:
#      x y z
#    x 1.624890 0.000000 0.000000 
#    y 0.000000 1.686590 0.000000 
#    z 0.000000 0.000000 1.612660 
# 
# From -- ./inp_files/4173.got.cif
#   From: 2010.05.17/outbox.cif.g08.bks.cpg/sg25_3_cif.got.tgz:4173.got - 2010.06.04 01:04:00.
