data_PCOD9337761
_publ_section_title
;
Structure prediction by ZEFSAII (Michael W. Deem and Ramdas Pophale) SiO2 
 PCOD9337761
Probable space group: P M M 2
;
_chemical_formula_sum "Si O2"
_cell_formula_units_Z 32
_cell_length_a 8.697387
_cell_length_b 14.275172
_cell_length_c 13.312519
_cell_angle_alpha 90.000000
_cell_angle_beta 90.000000
_cell_angle_gamma 90.000000
_cell_volume 1652.838366
_symmetry_space_group_name_H-M "P M M 2"
_symmetry_group_IT_number 25
_symmetry_cell_setting 'orthorhombic'
loop_
_space_group_symop_operation_xyz
x,y,z
-x,-y,z
-x,y,z
x,-y,z
loop_
_atom_site_type_symbol
_atom_site_label
_atom_site_fract_x
_atom_site_fract_y
_atom_site_fract_z
Si Si1 0.180384 0.387271 0.688940
Si Si2 0.684269 0.712717 0.107329
Si Si3 0.813501 0.891582 0.580850
Si Si4 0.184313 0.608760 0.301047
Si Si5 0.683742 0.388713 0.901576
Si Si6 0.813491 0.108530 0.021884
Si Si7 0.824182 0.886115 0.801785
Si Si8 0.682111 0.711894 0.494866
O O1 0.201829 0.500000 0.684987
O O2 0.235878 0.355325 0.799161
O O3 0.269793 0.340684 0.597390
O O4 0.000000 0.366901 0.676920
O O5 0.500000 0.711234 0.111140
O O6 0.750573 0.659472 0.202867
O O7 0.745604 0.818429 0.099715
O O8 0.733985 0.661612 0.003725
O O9 0.756245 0.863006 0.693269
O O10 0.747126 0.817088 0.504151
O O11 0.000000 0.887011 0.582459
O O12 0.771872 0.000000 0.562402
O O13 0.231873 0.500000 0.301127
O O14 0.244820 0.658602 0.400962
O O15 0.000000 0.612872 0.299742
O O16 0.500000 0.376589 0.890284
O O17 0.714157 0.500000 0.911712
O O18 0.000000 0.113753 0.020114
O O19 0.773098 0.000000 0.040042
O O20 0.754029 0.136950 0.909791
O O21 0.000000 0.850952 0.802162
O O22 0.832545 0.000000 0.801846
O O23 0.500000 0.713243 0.484999
#
# Coordination Sequence:
#
# PCOD9337761 Si02
#       8
#     4   4   4   4   4   4   4   4
#     4  10  21  37  58  85 117 154 199 249 297 351
#     4  11  23  38  60  90 124 158 195 242 304 367
#     4   9  18  35  59  87 121 161 205 250 294 345
#     4  11  25  46  70  92 114 147 200 257 301 354
#     4   9  19  36  56  82 120 159 191 232 296 369
#     4   9  18  34  56  84 120 162 208 252 293 344
#     4   7  12  26  50  79 111 151 197 242 286 331
#     4  12  25  39  60  89 123 159 196 242 304 367
#
# _framework density 19.360636
#
# number of rings (size 3 to 8) (size 9 to 14) (size 15 to 20)
#    0.000    2.250    0.000    4.500    1.750    5.250 
#    0.000    1.875    0.000    6.000    0.000    0.000 
#    0.000    0.000    0.000    0.000    0.000    0.000 
#
# Total GULP energy -178709.760204 kJ/mol
# GULP energy per Si atom -5584.680006 kJ/mol
# Density = 1.931657 g / cm^3
# Si number density = 19.360636 Si / 1000 Ang^3
#
#
#
# Elastic Constant Matrix: (Units=GPa)
#
#
# Indices 1 2 3 4 5 6 
#
# 1 43.1477 45.6795 39.8817 0.0000 0.0000 0.0000
# 2 45.6795 124.0413 84.3047 0.0000 0.0000 0.0000
# 3 39.8817 84.3047 136.9968 0.0000 0.0000 0.0000
# 4 0.0000 0.0000 0.0000 39.4883 0.0000 0.0000
# 5 0.0000 0.0000 0.0000 0.0000 23.0851 0.0000
# 6 0.0000 0.0000 0.0000 0.0000 0.0000 10.8388
#
#
#
# Elastic Compliance Matrix: (Units=1/GPa)
#
#
# Indices 1 2 3 4 5 6 
#
# 1 0.039454 -0.011556 -0.004374 0.000000 0.000000 0.000000
# 2 -0.011556 0.017243 -0.007247 0.000000 0.000000 0.000000
# 3 -0.004374 -0.007247 0.013032 0.000000 0.000000 0.000000
# 4 0.000000 0.000000 0.000000 0.025324 0.000000 0.000000
# 5 0.000000 0.000000 0.000000 0.000000 0.043318 0.000000
# 6 0.000000 0.000000 0.000000 0.000000 0.000000 0.092261
#
#
# Mechanical properties :
#
#
# Convention : Reuss Voigt Hill
#
# Bulk Modulus (GPa) = 42.78146 71.54641 57.16394
# Shear Modulus (GPa) = 17.55762 23.63712 20.59737
#
# Velocity S-wave (km/s) = 3.01470 3.49791 3.26525
# Velocity P-wave (km/s) = 5.85346 7.30401 6.61860
#
# Compressibility (1/GPa) = 0.02337461
#
# Stress axis : x y z
#
# Youngs Moduli (GPa) = 25.34620 57.99543 76.73363
#
# Poissons Ratio (x) = 0.67022 0.33563
# Poissons Ratio (y) = 0.29291 0.55605
# Poissons Ratio (z) = 0.11086 0.42027
#
# Static dielectric constant tensor:
#      x y z
#    x 1.646270 0.000000 0.000000 
#    y 0.000000 1.699320 0.000000 
#    z 0.000000 0.000000 1.662960 
# 
# From -- ./inp_files/4275.got.cif
#   From: 2010.05.17/outbox.cif.g08.bks.cpg/sg25_3_cif.got.tgz:4275.got - 2010.06.04 01:04:00.
