data_PCOD9337473
_publ_section_title
;
Structure prediction by ZEFSAII (Michael W. Deem and Ramdas Pophale) SiO2 
 PCOD9337473
Probable space group: P M M 2
;
_chemical_formula_sum "Si O2"
_cell_formula_units_Z 28
_cell_length_a 7.490972
_cell_length_b 9.352446
_cell_length_c 19.181343
_cell_angle_alpha 90.000000
_cell_angle_beta 90.000000
_cell_angle_gamma 90.000000
_cell_volume 1343.824004
_symmetry_space_group_name_H-M "P M M 2"
_symmetry_group_IT_number 25
_symmetry_cell_setting 'orthorhombic'
loop_
_space_group_symop_operation_xyz
x,y,z
-x,-y,z
-x,y,z
x,-y,z
loop_
_atom_site_type_symbol
_atom_site_label
_atom_site_fract_x
_atom_site_fract_y
_atom_site_fract_z
Si Si1 0.786786 0.335870 0.743620
Si Si2 0.713246 0.664176 0.593669
Si Si3 0.717567 0.667212 0.441804
Si Si4 0.217808 0.332833 0.895558
Si Si5 0.785754 0.838195 0.030178
Si Si6 0.713772 0.338089 0.169822
Si Si7 0.281363 0.164539 0.305075
O O1 0.717423 0.500000 0.740205
O O2 0.749986 0.265862 0.668651
O O3 0.725444 0.278308 0.818668
O O4 0.000000 0.343523 0.748134
O O5 0.500000 0.656656 0.589104
O O6 0.782412 0.500000 0.597125
O O7 0.774952 0.721625 0.518634
O O8 0.500000 0.669890 0.440426
O O9 0.768375 0.500000 0.435092
O O10 0.777926 0.759202 0.376250
O O11 0.268714 0.500000 0.902205
O O12 0.000000 0.330322 0.897102
O O13 0.281816 0.241008 0.960770
O O14 0.748909 0.746821 0.098964
O O15 0.000000 0.845854 0.023591
O O16 0.717717 0.000000 0.036732
O O17 0.500000 0.346783 0.177269
O O18 0.783366 0.500000 0.166703
O O19 0.779282 0.252087 0.237337
O O20 0.500000 0.165754 0.305052
O O21 0.225686 0.000000 0.301655
#
# Coordination Sequence:
#
# PCOD9337473 Si02
#       7
#     4   4   4   4   4   4   4
#     4   8  13  22  38  59  81 107 141 180 220 260
#     4   8  13  21  35  57  83 108 136 175 220 260
#     4   8  13  22  37  57  81 110 145 182 218 259
#     4   8  14  26  44  64  86 114 149 187 223 262
#     4  10  20  33  50  71  94 122 155 189 228 275
#     4  10  20  33  50  72  96 121 151 189 232 275
#     4   9  16  26  42  64  89 117 149 184 221 263
#
# _framework density 20.83606
#
# number of rings (size 3 to 8) (size 9 to 14) (size 15 to 20)
#    0.000    3.286    0.000    3.000    0.000    3.429 
#    0.000    0.714    0.000    4.286    0.000    2.000 
#    0.000    0.000    0.000    0.000    0.000    0.000 
#
# Total GULP energy -156036.058171 kJ/mol
# GULP energy per Si atom -5572.716363 kJ/mol
# Density = 2.078864 g / cm^3
# Si number density = 20.836060 Si / 1000 Ang^3
#
#
#
# Elastic Constant Matrix: (Units=GPa)
#
#
# Indices 1 2 3 4 5 6 
#
# 1 55.3252 4.8580 5.1523 0.0000 0.0000 0.0000
# 2 4.8580 119.9706 114.3538 0.0000 0.0000 0.0000
# 3 5.1523 114.3538 277.4136 0.0000 0.0000 0.0000
# 4 0.0000 0.0000 0.0000 -20.6737 0.0000 0.0000
# 5 0.0000 0.0000 0.0000 0.0000 22.5425 0.0000
# 6 0.0000 0.0000 0.0000 0.0000 0.0000 3.1832
#
#
#
# Elastic Compliance Matrix: (Units=1/GPa)
#
#
# Indices 1 2 3 4 5 6 
#
# 1 0.018140 -0.000681 -0.000056 0.000000 0.000000 0.000000
# 2 -0.000681 0.013756 -0.005658 0.000000 0.000000 0.000000
# 3 -0.000056 -0.005658 0.005938 0.000000 0.000000 0.000000
# 4 0.000000 0.000000 0.000000 -0.048371 0.000000 0.000000
# 5 0.000000 0.000000 0.000000 0.000000 0.044361 0.000000
# 6 0.000000 0.000000 0.000000 0.000000 0.000000 0.314149
#
#
# Mechanical properties :
#
#
# Convention : Reuss Voigt Hill
#
# Bulk Modulus (GPa) = 39.92979 77.93751 58.93365
# Shear Modulus (GPa) = 13.54610 22.90010 18.22310
#
# Velocity S-wave (km/s) = 2.55253 3.31881 2.96056
# Velocity P-wave (km/s) = 5.28134 7.22304 6.32712
#
# Compressibility (1/GPa) = 0.02504396
#
# Stress axis : x y z
#
# Youngs Moduli (GPa) = 55.12691 72.69706 168.40883
#
# Poissons Ratio (x) = 0.04951 0.00946
# Poissons Ratio (y) = 0.03754 0.95280
# Poissons Ratio (z) = 0.00310 0.41129
#
# Static dielectric constant tensor:
#      x y z
#    x 1.813440 0.000000 0.000000 
#    y 0.000000 1.704800 0.000000 
#    z 0.000000 0.000000 1.776180 
# 
# From -- ./inp_files/6417.got.cif
#   From: 2010.05.17/outbox.cif.g08.bks.cpg/sg25_4_cif.got.tgz:6417.got - 2010.06.04 01:04:00.
