data_PCOD9337493
_publ_section_title
;
Structure prediction by ZEFSAII (Michael W. Deem and Ramdas Pophale) SiO2 
 PCOD9337493
Probable space group: P M M 2
;
_chemical_formula_sum "Si O2"
_cell_formula_units_Z 32
_cell_length_a 7.464783
_cell_length_b 15.521761
_cell_length_c 12.557594
_cell_angle_alpha 90.000000
_cell_angle_beta 90.000000
_cell_angle_gamma 90.000000
_cell_volume 1455.005440
_symmetry_space_group_name_H-M "P M M 2"
_symmetry_group_IT_number 25
_symmetry_cell_setting 'orthorhombic'
loop_
_space_group_symop_operation_xyz
x,y,z
-x,-y,z
-x,y,z
x,-y,z
loop_
_atom_site_type_symbol
_atom_site_label
_atom_site_fract_x
_atom_site_fract_y
_atom_site_fract_z
Si Si1 0.219053 0.283830 0.870620
Si Si2 0.218110 0.906279 0.806115
Si Si3 0.710696 0.590349 0.430726
Si Si4 0.214691 0.599594 0.067634
Si Si5 0.783683 0.139614 0.567432
Si Si6 0.784895 0.672964 0.636916
Si Si7 0.714755 0.723402 0.267516
Si Si8 0.709843 0.093033 0.325915
O O1 0.275502 0.182746 0.863622
O O2 0.274764 0.326173 0.758455
O O3 0.000000 0.282262 0.873956
O O4 0.280636 0.343899 0.967063
O O5 0.269570 0.901942 0.680656
O O6 0.000000 0.904411 0.807976
O O7 0.275051 0.000000 0.849077
O O8 0.500000 0.589189 0.406397
O O9 0.788898 0.500000 0.392795
O O10 0.729645 0.599334 0.556690
O O11 0.787395 0.672031 0.369865
O O12 0.281144 0.500000 0.074706
O O13 0.251221 0.659804 0.169427
O O14 0.000000 0.593314 0.057221
O O15 0.723917 0.238078 0.582599
O O16 0.720289 0.104403 0.454442
O O17 0.000000 0.135421 0.564007
O O18 0.000000 0.674982 0.639644
O O19 0.500000 0.732428 0.276786
O O20 0.785938 0.821012 0.270470
O O21 0.500000 0.089353 0.298404
O O22 0.789994 0.000000 0.298346
#
# Coordination Sequence:
#
# PCOD9337493 Si02
#       8
#     4   4   4   4   4   4   4   4
#     4   8  16  31  49  72 102 133 167 208 255 305
#     4   8  13  23  43  72 104 136 167 199 242 298
#     4  10  20  33  50  73 101 134 169 207 257 312
#     4  10  21  37  57  78  99 129 174 225 267 304
#     4   9  16  27  46  74 106 138 171 206 242 288
#     4   9  17  30  50  76 106 138 168 201 249 309
#     4  10  21  38  56  73 101 137 172 213 260 310
#     4  10  20  33  51  75 102 136 174 207 249 306
#
# _framework density 21.993043
#
# number of rings (size 3 to 8) (size 9 to 14) (size 15 to 20)
#    0.000    2.750    1.250    2.250    0.000    3.250 
#    0.000    2.500    0.000    1.500    0.000    0.000 
#    0.000    0.000    0.000    0.000    0.000    0.000 
#
# Total GULP energy -178402.390248 kJ/mol
# GULP energy per Si atom -5575.074695 kJ/mol
# Density = 2.194299 g / cm^3
# Si number density = 21.993043 Si / 1000 Ang^3
#
#
#
# Elastic Constant Matrix: (Units=GPa)
#
#
# Indices 1 2 3 4 5 6 
#
# 1 64.5481 9.4519 -8.0152 0.0000 0.0000 0.0000
# 2 9.4519 225.1761 87.5255 0.0000 0.0000 0.0000
# 3 -8.0152 87.5255 104.7436 0.0000 0.0000 0.0000
# 4 0.0000 0.0000 0.0000 20.1972 0.0000 0.0000
# 5 0.0000 0.0000 0.0000 0.0000 23.5158 0.0000
# 6 0.0000 0.0000 0.0000 0.0000 0.0000 4.6964
#
#
#
# Elastic Compliance Matrix: (Units=1/GPa)
#
#
# Indices 1 2 3 4 5 6 
#
# 1 0.016072 -0.001707 0.002656 0.000000 0.000000 0.000000
# 2 -0.001707 0.006759 -0.005778 0.000000 0.000000 0.000000
# 3 0.002656 -0.005778 0.014579 0.000000 0.000000 0.000000
# 4 0.000000 0.000000 0.000000 0.049512 0.000000 0.000000
# 5 0.000000 0.000000 0.000000 0.000000 0.042525 0.000000
# 6 0.000000 0.000000 0.000000 0.000000 0.000000 0.212928
#
#
# Mechanical properties :
#
#
# Convention : Reuss Voigt Hill
#
# Bulk Modulus (GPa) = 36.03400 63.59916 49.81658
# Shear Modulus (GPa) = 13.83960 30.04893 21.94426
#
# Velocity S-wave (km/s) = 2.51125 3.70035 3.16220
# Velocity P-wave (km/s) = 4.98281 6.87295 6.00274
#
# Compressibility (1/GPa) = 0.02775156
#
# Stress axis : x y z
#
# Youngs Moduli (GPa) = 62.21935 147.95905 68.59274
#
# Poissons Ratio (x) = 0.25259 -0.18221
# Poissons Ratio (y) = 0.10622 0.39635
# Poissons Ratio (z) = -0.16528 0.85495
#
# Static dielectric constant tensor:
#      x y z
#    x 1.834910 0.000000 0.000000 
#    y 0.000000 1.869210 0.000000 
#    z 0.000000 0.000000 1.779380 
# 
# From -- ./inp_files/4175.got.cif
#   From: 2010.05.17/outbox.cif.g08.bks.cpg/sg25_3_cif.got.tgz:4175.got - 2010.06.04 01:04:00.
