data_PCOD9337689
_publ_section_title
;
Structure prediction by ZEFSAII (Michael W. Deem and Ramdas Pophale) SiO2 
 PCOD9337689
Probable space group: P M M 2
;
_chemical_formula_sum "Si O2"
_cell_formula_units_Z 32
_cell_length_a 8.056817
_cell_length_b 10.258505
_cell_length_c 20.948674
_cell_angle_alpha 90.000000
_cell_angle_beta 90.000000
_cell_angle_gamma 90.000000
_cell_volume 1731.426707
_symmetry_space_group_name_H-M "P M M 2"
_symmetry_group_IT_number 25
_symmetry_cell_setting 'orthorhombic'
loop_
_space_group_symop_operation_xyz
x,y,z
-x,-y,z
-x,y,z
x,-y,z
loop_
_atom_site_type_symbol
_atom_site_label
_atom_site_fract_x
_atom_site_fract_y
_atom_site_fract_z
Si Si1 0.699385 0.851918 0.079030
Si Si2 0.700157 0.851640 0.433113
Si Si3 0.197891 0.648085 0.325742
Si Si4 0.297300 0.649349 0.684621
Si Si5 0.802109 0.148085 0.936706
Si Si6 0.297300 0.850651 0.577827
Si Si7 0.299843 0.648360 0.829336
Si Si8 0.300615 0.648082 0.183418
O O1 0.500000 0.856975 0.085639
O O2 0.763883 0.750000 0.131224
O O3 0.763375 0.000000 0.087923
O O4 0.737670 0.811641 0.006517
O O5 0.500000 0.853880 0.433839
O O6 0.753616 0.748013 0.380776
O O7 0.754954 0.818187 0.505385
O O8 0.756499 0.000000 0.418955
O O9 0.259982 0.500000 0.338234
O O10 0.262329 0.688360 0.255931
O O11 0.000000 0.643358 0.322335
O O12 0.500000 0.652008 0.684119
O O13 0.248268 0.500000 0.671095
O O14 0.238600 0.750000 0.631224
O O15 0.245046 0.681813 0.757063
O O16 0.753616 0.248013 0.881673
O O17 0.000000 0.143358 0.940113
O O18 0.740018 0.000000 0.924215
O O19 0.500000 0.847992 0.578329
O O20 0.248268 0.000000 0.591353
O O21 0.500000 0.646120 0.828610
O O22 0.243501 0.500000 0.843493
O O23 0.500000 0.643025 0.176809
O O24 0.236625 0.500000 0.174526
#
# Coordination Sequence:
#
# PCOD9337689 Si02
#       8
#     4   4   4   4   4   4   4   4
#     4   9  18  33  52  73  97 125 158 197 240 286
#     4   9  18  32  50  73 100 129 163 203 245 291
#     4  10  21  35  50  71 100 132 166 203 241 285
#     4   8  14  25  42  67  97 124 153 194 242 289
#     4  10  21  35  50  71 100 132 166 203 241 285
#     4   8  14  25  42  67  97 124 153 194 242 289
#     4   9  18  32  50  73 100 129 163 203 245 291
#     4   9  18  33  52  73  97 125 158 197 240 286
#
# _framework density 18.481867000000001
#
# number of rings (size 3 to 8) (size 9 to 14) (size 15 to 20)
#    0.000    3.000    0.000    2.250    0.000    4.500 
#    0.000    5.000    0.000    0.750    0.000    0.000 
#    0.000    0.000    0.000    0.000    0.000    0.000 
#
# Total GULP energy -178385.326035 kJ/mol
# GULP energy per Si atom -5574.541439 kJ/mol
# Density = 1.843980 g / cm^3
# Si number density = 18.481867 Si / 1000 Ang^3
#
#
#
# Elastic Constant Matrix: (Units=GPa)
#
#
# Indices 1 2 3 4 5 6 
#
# 1 9.5018 7.8466 5.8519 0.0000 0.0000 0.0000
# 2 7.8466 128.0286 137.6400 0.0000 0.0000 0.0000
# 3 5.8519 137.6400 181.8408 0.0000 0.0000 0.0000
# 4 0.0000 0.0000 0.0000 42.2878 0.0000 0.0000
# 5 0.0000 0.0000 0.0000 0.0000 -37.6293 0.0000
# 6 0.0000 0.0000 0.0000 0.0000 0.0000 12.7829
#
#
#
# Elastic Compliance Matrix: (Units=1/GPa)
#
#
# Indices 1 2 3 4 5 6 
#
# 1 0.113331 -0.016241 0.008646 0.000000 0.000000 0.000000
# 2 -0.016241 0.044264 -0.032982 0.000000 0.000000 0.000000
# 3 0.008646 -0.032982 0.030186 0.000000 0.000000 0.000000
# 4 0.000000 0.000000 0.000000 0.023647 0.000000 0.000000
# 5 0.000000 0.000000 0.000000 0.000000 -0.026575 0.000000
# 6 0.000000 0.000000 0.000000 0.000000 0.000000 0.078230
#
#
# Mechanical properties :
#
#
# Convention : Reuss Voigt Hill
#
# Bulk Modulus (GPa) = 9.37848 69.11646 39.24747
# Shear Modulus (GPa) = 13.16555 14.69045 13.92800
#
# Velocity S-wave (km/s) = 2.67188 2.82238 2.74816
# Velocity P-wave (km/s) = 3.82152 6.93536 5.59925
#
# Compressibility (1/GPa) = 0.10662706
#
# Stress axis : x y z
#
# Youngs Moduli (GPa) = 8.82374 22.59162 33.12788
#
# Poissons Ratio (x) = 0.36690 -0.28642
# Poissons Ratio (y) = 0.14330 1.09263
# Poissons Ratio (z) = -0.07629 0.74512
#
# Static dielectric constant tensor:
#      x y z
#    x 1.647710 0.000000 0.000000 
#    y 0.000000 1.642890 0.000000 
#    z 0.000000 0.000000 1.612190 
# 
# From -- ./inp_files/5572.got.cif
#   From: 2010.05.17/outbox.cif.g08.bks.cpg/sg25_3_cif.got.tgz:5572.got - 2010.06.04 01:04:00.
