data_PCOD9337764
_publ_section_title
;
Structure prediction by ZEFSAII (Michael W. Deem and Ramdas Pophale) SiO2 
 PCOD9337764
Probable space group: P M M 2
;
_chemical_formula_sum "Si O2"
_cell_formula_units_Z 24
_cell_length_a 12.852927
_cell_length_b 8.825611
_cell_length_c 12.022671
_cell_angle_alpha 90.000000
_cell_angle_beta 90.000000
_cell_angle_gamma 90.000000
_cell_volume 1363.790890
_symmetry_space_group_name_H-M "P M M 2"
_symmetry_group_IT_number 25
_symmetry_cell_setting 'orthorhombic'
loop_
_space_group_symop_operation_xyz
x,y,z
-x,-y,z
-x,y,z
x,-y,z
loop_
_atom_site_type_symbol
_atom_site_label
_atom_site_fract_x
_atom_site_fract_y
_atom_site_fract_z
Si Si1 0.308457 0.181836 0.105500
Si Si2 0.622775 0.681541 0.335674
Si Si3 0.303598 0.818990 0.567182
Si Si4 0.500000 0.181068 0.725061
Si Si5 0.121636 0.680935 0.709047
Si Si6 0.500000 0.319298 0.968513
Si Si7 0.879984 0.181538 0.948631
O O1 0.321941 0.247887 0.228357
O O2 0.318609 0.000000 0.108672
O O3 0.399593 0.250602 0.029604
O O4 0.199363 0.220627 0.046552
O O5 0.500000 0.722707 0.331793
O O6 0.630103 0.500000 0.332099
O O7 0.670998 0.743605 0.449417
O O8 0.398300 0.783657 0.651814
O O9 0.197993 0.758183 0.621505
O O10 0.299616 0.000000 0.554318
O O11 0.500000 0.269763 0.840296
O O12 0.500000 0.000000 0.748293
O O13 0.132363 0.500000 0.703556
O O14 0.148902 0.737938 0.833137
O O15 0.000000 0.719979 0.690544
O O16 0.500000 0.500000 0.979655
O O17 0.000000 0.219443 0.974594
O O18 0.873615 0.000000 0.930621
#
# Coordination Sequence:
#
# PCOD9337764 Si02
#       7
#     4   4   4   2   4   2   4
#     4  11  22  37  59  83 112 150 192 236 283 338
#     4  11  23  39  59  83 114 152 193 236 287 343
#     4  11  22  38  60  84 113 150 194 237 283 341
#     4  10  22  37  54  81 114 145 181 231 285 340
#     4  10  21  37  58  86 119 153 190 236 290 343
#     4  12  24  35  52  81 116 149 183 231 285 340
#     4   9  19  37  60  86 115 149 190 235 285 341
#
# _framework density 17.598005000000001
#
# number of rings (size 3 to 8) (size 9 to 14) (size 15 to 20)
#    0.000    1.500    1.667    3.750    0.000    8.333 
#    0.000    0.833    0.000    3.000    0.000    0.000 
#    0.000    0.000    0.000    0.000    0.000    0.000 
#
# Total GULP energy -134141.949375 kJ/mol
# GULP energy per Si atom -5589.247891 kJ/mol
# Density = 1.755795 g / cm^3
# Si number density = 17.598005 Si / 1000 Ang^3
#
#
#
# Elastic Constant Matrix: (Units=GPa)
#
#
# Indices 1 2 3 4 5 6 
#
# 1 98.8763 50.0368 79.3731 0.0000 0.0000 0.0000
# 2 50.0368 59.9385 64.4468 0.0000 0.0000 0.0000
# 3 79.3731 64.4468 153.8693 0.0000 0.0000 0.0000
# 4 0.0000 0.0000 0.0000 60.5679 0.0000 0.0000
# 5 0.0000 0.0000 0.0000 0.0000 17.0970 0.0000
# 6 0.0000 0.0000 0.0000 0.0000 0.0000 20.8029
#
#
#
# Elastic Compliance Matrix: (Units=1/GPa)
#
#
# Indices 1 2 3 4 5 6 
#
# 1 0.020254 -0.010323 -0.006124 0.000000 0.000000 0.000000
# 2 -0.010323 0.035615 -0.009592 0.000000 0.000000 0.000000
# 3 -0.006124 -0.009592 0.013676 0.000000 0.000000 0.000000
# 4 0.000000 0.000000 0.000000 0.016510 0.000000 0.000000
# 5 0.000000 0.000000 0.000000 0.000000 0.058490 0.000000
# 6 0.000000 0.000000 0.000000 0.000000 0.000000 0.048070
#
#
# Mechanical properties :
#
#
# Convention : Reuss Voigt Hill
#
# Bulk Modulus (GPa) = 57.25391 77.82195 67.53793
# Shear Modulus (GPa) = 19.95889 27.61538 23.78713
#
# Velocity S-wave (km/s) = 3.37138 3.96565 3.68053
# Velocity P-wave (km/s) = 6.91085 8.08001 7.51819
#
# Compressibility (1/GPa) = 0.01746606
#
# Stress axis : x y z
#
# Youngs Moduli (GPa) = 49.37310 28.07821 73.12310
#
# Poissons Ratio (x) = 0.28986 0.44782
# Poissons Ratio (y) = 0.50969 0.70138
# Poissons Ratio (z) = 0.30237 0.26932
#
# Static dielectric constant tensor:
#      x y z
#    x 1.591770 0.000000 0.000000 
#    y 0.000000 1.586190 0.000000 
#    z 0.000000 0.000000 1.559750 
# 
# From -- ./inp_files/3948.got.cif
#   From: 2010.05.17/outbox.cif.g08.bks.cpg/sg25_2_cif.got.tgz:3948.got - 2010.06.04 01:04:00.
