data_PCOD9337888
_publ_section_title
;
Structure prediction by ZEFSAII (Michael W. Deem and Ramdas Pophale) SiO2 
 PCOD9337888
Probable space group: P M C 21
;
_chemical_formula_sum "Si O2"
_cell_formula_units_Z 28
_cell_length_a 26.782316
_cell_length_b 9.310375
_cell_length_c 5.490752
_cell_angle_alpha 90.000000
_cell_angle_beta 90.000000
_cell_angle_gamma 90.000000
_cell_volume 1369.137709
_symmetry_space_group_name_H-M "P M C 21"
_symmetry_group_IT_number 26
_symmetry_cell_setting 'orthorhombic'
loop_
_space_group_symop_operation_xyz
x,y,z
-x,-y,1/2+z
-x,y,z
x,-y,1/2+z
loop_
_atom_site_type_symbol
_atom_site_label
_atom_site_fract_x
_atom_site_fract_y
_atom_site_fract_z
Si Si1 0.057686 0.589815 0.581860
Si Si2 0.770399 0.502332 0.438606
Si Si3 0.337481 0.822473 0.634082
Si Si4 0.299024 0.149802 0.632965
Si Si5 0.444325 0.093606 0.075648
Si Si6 0.152449 0.768897 0.475504
Si Si7 0.188104 0.184243 0.476049
O O1 0.065132 0.490230 0.341123
O O2 0.098835 0.711940 0.555816
O O3 0.000000 0.638341 0.575248
O O4 0.741036 0.500451 0.188699
O O5 0.808841 0.635098 0.445011
O O6 0.803013 0.356430 0.443842
O O7 0.305768 0.778224 0.397049
O O8 0.395963 0.805593 0.582414
O O9 0.325954 0.994971 0.654013
O O10 0.321908 0.768646 0.900261
O O11 0.241612 0.125922 0.562773
O O12 0.500000 0.158934 0.076408
O O13 0.440792 0.999095 0.325168
O O14 0.151256 0.833400 0.204184
O O15 0.173201 0.860548 0.703189
#
# Coordination Sequence:
#
# PCOD9337888 Si02
#       7
#     4   4   4   4   4   4   4
#     4  10  18  27  41  60  80 107 137 161 192 237
#     4   8  14  23  36  49  69  94 123 154 184 210
#     4  10  17  30  40  55  82 111 128 164 205 224
#     4  10  18  27  40  54  76 106 139 162 195 237
#     4  10  16  25  41  60  76 102 143 161 182 236
#     4  10  17  28  40  55  79 104 131 164 192 225
#     4  10  18  26  39  57  72 102 140 164 188 229
#
# _framework density 20.45083
#
# number of rings (size 3 to 8) (size 9 to 14) (size 15 to 20)
#    0.000    2.286    2.857    4.286    0.000    0.000 
#    0.000    0.000    0.000    0.000    0.000    0.000 
#    0.000    0.000    0.000   51.429    0.000  222.000 
#
# Total GULP energy -156039.775621 kJ/mol
# GULP energy per Si atom -5572.849129 kJ/mol
# Density = 2.040428 g / cm^3
# Si number density = 20.450830 Si / 1000 Ang^3
#
#
#
# Elastic Constant Matrix: (Units=GPa)
#
#
# Indices 1 2 3 4 5 6 
#
# 1 92.0624 -1.1477 5.4474 0.0000 0.0000 0.0000
# 2 -1.1477 44.5106 0.8948 0.0000 0.0000 0.0000
# 3 5.4474 0.8948 187.3629 0.0000 0.0000 0.0000
# 4 0.0000 0.0000 0.0000 -8.2227 0.0000 0.0000
# 5 0.0000 0.0000 0.0000 0.0000 31.1846 0.0000
# 6 0.0000 0.0000 0.0000 0.0000 0.0000 8.2381
#
#
#
# Elastic Compliance Matrix: (Units=1/GPa)
#
#
# Indices 1 2 3 4 5 6 
#
# 1 0.010885 0.000287 -0.000318 0.000000 0.000000 0.000000
# 2 0.000287 0.022476 -0.000116 0.000000 0.000000 0.000000
# 3 -0.000318 -0.000116 0.005347 0.000000 0.000000 0.000000
# 4 0.000000 0.000000 0.000000 -0.121615 0.000000 0.000000
# 5 0.000000 0.000000 0.000000 0.000000 0.032067 0.000000
# 6 0.000000 0.000000 0.000000 0.000000 0.000000 0.121386
#
#
# Mechanical properties :
#
#
# Convention : Reuss Voigt Hill
#
# Bulk Modulus (GPa) = 26.03154 37.14722 31.58938
# Shear Modulus (GPa) = 59.77671 27.48944 43.63307
#
# Velocity S-wave (km/s) = 5.41229 3.67027 4.62406
# Velocity P-wave (km/s) = 7.19817 6.01372 6.63244
#
# Compressibility (1/GPa) = 0.03841494
#
# Stress axis : x y z
#
# Youngs Moduli (GPa) = 91.87307 44.49135 187.01971
#
# Poissons Ratio (x) = -0.01277 0.05944
# Poissons Ratio (y) = -0.02637 0.02164
# Poissons Ratio (z) = 0.02920 0.00515
#
# Static dielectric constant tensor:
#      x y z
#    x 1.713010 0.000000 0.000000 
#    y 0.000000 1.783970 0.000000 
#    z 0.000000 0.000000 1.859120 
# 
# From -- ./inp_files/963.got.cif
#   From: 2010.05.17/outbox.cif.g08.bks.cpg/sg26_1_cif.got.tgz:963.got - 2010.06.04 01:07:29.
