data_PCOD9337595
_publ_section_title
;
Structure prediction by ZEFSAII (Michael W. Deem and Ramdas Pophale) SiO2 
 PCOD9337595
Probable space group: P M M 2
;
_chemical_formula_sum "Si O2"
_cell_formula_units_Z 20
_cell_length_a 14.820433
_cell_length_b 8.660519
_cell_length_c 8.005578
_cell_angle_alpha 90.000000
_cell_angle_beta 90.000000
_cell_angle_gamma 90.000000
_cell_volume 1027.537084
_symmetry_space_group_name_H-M "P M M 2"
_symmetry_group_IT_number 25
_symmetry_cell_setting 'orthorhombic'
loop_
_space_group_symop_operation_xyz
x,y,z
-x,-y,z
-x,y,z
x,-y,z
loop_
_atom_site_type_symbol
_atom_site_label
_atom_site_fract_x
_atom_site_fract_y
_atom_site_fract_z
Si Si1 0.101445 0.315495 0.692320
Si Si2 0.395862 0.315226 0.493417
Si Si3 0.099844 0.814041 0.317397
Si Si4 0.290684 0.186282 0.175861
Si Si5 0.713666 0.815557 0.806518
O O1 0.111592 0.500000 0.703651
O O2 0.108708 0.264570 0.498441
O O3 0.182015 0.232672 0.787747
O O4 0.000000 0.273320 0.748440
O O5 0.500000 0.264685 0.501901
O O6 0.392752 0.500000 0.491701
O O7 0.349461 0.253570 0.325349
O O8 0.341398 0.256325 0.654142
O O9 0.185993 0.769937 0.207951
O O10 0.000000 0.775218 0.249718
O O11 0.103090 0.000000 0.340994
O O12 0.295805 0.000000 0.183505
O O13 0.319057 0.234892 0.990054
O O14 0.707102 0.000000 0.795348
#
# Coordination Sequence:
#
# PCOD9337595 Si02
#       5
#     4   4   4   4   4
#     4  10  20  34  55  86 123 163 204 244 291 348
#     4  11  25  44  65  88 117 155 198 249 308 364
#     4   9  17  32  56  85 118 157 198 240 290 349
#     4  10  22  39  62  92 122 156 199 246 297 354
#     4  11  23  39  62  92 124 159 200 246 297 356
#
# _framework density 19.464016999999998
#
# number of rings (size 3 to 8) (size 9 to 14) (size 15 to 20)
#    0.000    1.800    2.000    1.800    0.000    6.000 
#    0.000    6.000    0.000    2.400    0.000    0.000 
#    0.000    0.000    0.000    0.000    0.000    0.000 
#
# Total GULP energy -111713.221815 kJ/mol
# GULP energy per Si atom -5585.661091 kJ/mol
# Density = 1.941972 g / cm^3
# Si number density = 19.464017 Si / 1000 Ang^3
#
#
#
# Elastic Constant Matrix: (Units=GPa)
#
#
# Indices 1 2 3 4 5 6 
#
# 1 122.0412 26.9592 75.8241 0.0000 0.0000 0.0000
# 2 26.9592 17.1322 28.8463 0.0000 0.0000 0.0000
# 3 75.8241 28.8463 151.0570 0.0000 0.0000 0.0000
# 4 0.0000 0.0000 0.0000 -228.9975 0.0000 0.0000
# 5 0.0000 0.0000 0.0000 0.0000 -3.1602 0.0000
# 6 0.0000 0.0000 0.0000 0.0000 0.0000 24.4427
#
#
#
# Elastic Compliance Matrix: (Units=1/GPa)
#
#
# Indices 1 2 3 4 5 6 
#
# 1 0.014168 -0.015211 -0.004207 0.000000 0.000000 0.000000
# 2 -0.015211 0.102363 -0.011912 0.000000 0.000000 0.000000
# 3 -0.004207 -0.011912 0.011006 0.000000 0.000000 0.000000
# 4 0.000000 0.000000 0.000000 -0.004367 0.000000 0.000000
# 5 0.000000 0.000000 0.000000 0.000000 -0.316432 0.000000
# 6 0.000000 0.000000 0.000000 0.000000 0.000000 0.040912
#
#
# Mechanical properties :
#
#
# Convention : Reuss Voigt Hill
#
# Bulk Modulus (GPa) = 15.41386 61.49886 38.45636
# Shear Modulus (GPa) = -73.46005 -30.96961 -52.21483
#
# Velocity S-wave (km/s) = -6.15007 -3.99321 -5.18503
# Velocity P-wave (km/s) = 6.51881 3.22549 4.00569
#
# Compressibility (1/GPa) = 0.06487666
#
# Stress axis : x y z
#
# Youngs Moduli (GPa) = 70.58205 9.76918 90.85567
#
# Poissons Ratio (x) = 0.14860 0.38222
# Poissons Ratio (y) = 1.07364 1.08228
# Poissons Ratio (z) = 0.29693 0.11637
#
# Static dielectric constant tensor:
#      x y z
#    x 1.685520 0.000000 0.000000 
#    y 0.000000 1.665240 0.000000 
#    z 0.000000 0.000000 1.669090 
# 
# From -- ./inp_files/1842.got.cif
#   From: 2010.05.17/outbox.cif.g08.bks.cpg/sg25_1_cif.got.tgz:1842.got - 2010.06.04 01:04:00.
