data_PCOD9337558
_publ_section_title
;
Structure prediction by ZEFSAII (Michael W. Deem and Ramdas Pophale) SiO2 
 PCOD9337558
Probable space group: P M M 2
;
_chemical_formula_sum "Si O2"
_cell_formula_units_Z 32
_cell_length_a 14.639217
_cell_length_b 7.445342
_cell_length_c 13.098833
_cell_angle_alpha 90.000000
_cell_angle_beta 90.000000
_cell_angle_gamma 90.000000
_cell_volume 1427.693905
_symmetry_space_group_name_H-M "P M M 2"
_symmetry_group_IT_number 25
_symmetry_cell_setting 'orthorhombic'
loop_
_space_group_symop_operation_xyz
x,y,z
-x,-y,z
-x,y,z
x,-y,z
loop_
_atom_site_type_symbol
_atom_site_label
_atom_site_fract_x
_atom_site_fract_y
_atom_site_fract_z
Si Si1 0.767592 0.705710 0.063370
Si Si2 0.601937 0.794106 0.484027
Si Si3 0.794378 0.217333 0.443370
Si Si4 0.897469 0.286790 0.236412
Si Si5 0.394755 0.720637 0.934355
Si Si6 0.893876 0.781357 0.646694
Si Si7 0.107219 0.216968 0.873536
Si Si8 0.610559 0.295098 0.712749
O O1 0.746703 0.500000 0.092570
O O2 0.824484 0.789134 0.155847
O O3 0.672682 0.784209 0.022593
O O4 0.833259 0.706819 0.964685
O O5 0.500000 0.712876 0.474596
O O6 0.690651 0.714124 0.429842
O O7 0.627703 0.796565 0.604793
O O8 0.594318 0.000000 0.450265
O O9 0.859666 0.263680 0.350027
O O10 0.835802 0.281457 0.550709
O O11 0.790062 0.000000 0.448423
O O12 0.903300 0.500000 0.215617
O O13 0.000000 0.213558 0.225343
O O14 0.500000 0.773140 0.948855
O O15 0.392735 0.500000 0.930467
O O16 0.359778 0.780967 0.822075
O O17 0.863173 0.724728 0.759733
O O18 0.000000 0.730100 0.634187
O O19 0.891580 0.000000 0.646808
O O20 0.000000 0.263634 0.885129
O O21 0.113301 0.000000 0.878247
O O22 0.500000 0.298232 0.722232
O O23 0.642443 0.500000 0.702962
#
# Coordination Sequence:
#
# PCOD9337558 Si02
#       8
#     4   4   4   4   4   4   4   4
#     4  10  20  34  54  77 102 135 172 210 258 307
#     4   9  18  31  47  73 108 139 168 206 254 302
#     4  10  20  34  55  77  98 134 180 214 249 305
#     4  10  22  39  55  74 103 133 165 217 274 311
#     4   8  15  29  49  74 104 137 173 208 244 294
#     4   8  15  29  48  71  99 128 160 204 255 301
#     4   9  18  32  50  74 105 136 164 203 257 312
#     4   8  14  26  45  69  99 136 173 206 240 285
#
# _framework density 22.413768000000001
#
# number of rings (size 3 to 8) (size 9 to 14) (size 15 to 20)
#    0.000    3.000    0.000    2.250    1.750    2.500 
#    0.000    1.250    0.000    1.875    0.000    0.000 
#    0.000    0.000    0.000    0.000    0.000    0.000 
#
# Total GULP energy -178593.992967 kJ/mol
# GULP energy per Si atom -5581.062280 kJ/mol
# Density = 2.236275 g / cm^3
# Si number density = 22.413768 Si / 1000 Ang^3
#
#
#
# Elastic Constant Matrix: (Units=GPa)
#
#
# Indices 1 2 3 4 5 6 
#
# 1 99.7842 -3.8694 20.8770 0.0000 0.0000 0.0000
# 2 -3.8694 68.6671 -13.5428 0.0000 0.0000 0.0000
# 3 20.8770 -13.5428 43.7090 0.0000 0.0000 0.0000
# 4 0.0000 0.0000 0.0000 14.6602 0.0000 0.0000
# 5 0.0000 0.0000 0.0000 0.0000 39.7085 0.0000
# 6 0.0000 0.0000 0.0000 0.0000 0.0000 0.2121
#
#
#
# Elastic Compliance Matrix: (Units=1/GPa)
#
#
# Indices 1 2 3 4 5 6 
#
# 1 0.011147 -0.000449 -0.005464 0.000000 0.000000 0.000000
# 2 -0.000449 0.015529 0.005026 0.000000 0.000000 0.000000
# 3 -0.005464 0.005026 0.027046 0.000000 0.000000 0.000000
# 4 0.000000 0.000000 0.000000 0.068212 0.000000 0.000000
# 5 0.000000 0.000000 0.000000 0.000000 0.025184 0.000000
# 6 0.000000 0.000000 0.000000 0.000000 0.000000 4.715643
#
#
# Mechanical properties :
#
#
# Convention : Reuss Voigt Hill
#
# Bulk Modulus (GPa) = 19.25000 24.34334 21.79667
# Shear Modulus (GPa) = 1.02420 24.82918 12.92669
#
# Velocity S-wave (km/s) = 0.67672 3.33192 2.40413
# Velocity P-wave (km/s) = 3.03607 5.06821 4.17758
#
# Compressibility (1/GPa) = 0.05194805
#
# Stress axis : x y z
#
# Youngs Moduli (GPa) = 89.70781 64.39576 36.97471
#
# Poissons Ratio (x) = 0.02894 0.20202
# Poissons Ratio (y) = 0.04032 -0.18584
# Poissons Ratio (z) = 0.49013 -0.32366
#
# Static dielectric constant tensor:
#      x y z
#    x 1.860110 0.000000 0.000000 
#    y 0.000000 1.849540 0.000000 
#    z 0.000000 0.000000 1.793850 
# 
# From -- ./inp_files/4912.got.cif
#   From: 2010.05.17/outbox.cif.g08.bks.cpg/sg25_3_cif.got.tgz:4912.got - 2010.06.04 01:04:00.
