data_PCOD9337321
_publ_section_title
;
Structure prediction by ZEFSAII (Michael W. Deem and Ramdas Pophale) SiO2 
 PCOD9337321
Probable space group: P M M 2
;
_chemical_formula_sum "Si O2"
_cell_formula_units_Z 24
_cell_length_a 12.221923
_cell_length_b 8.034418
_cell_length_c 13.107907
_cell_angle_alpha 90.000000
_cell_angle_beta 90.000000
_cell_angle_gamma 90.000000
_cell_volume 1287.144536
_symmetry_space_group_name_H-M "P M M 2"
_symmetry_group_IT_number 25
_symmetry_cell_setting 'orthorhombic'
loop_
_space_group_symop_operation_xyz
x,y,z
-x,-y,z
-x,y,z
x,-y,z
loop_
_atom_site_type_symbol
_atom_site_label
_atom_site_fract_x
_atom_site_fract_y
_atom_site_fract_z
Si Si1 0.500000 0.704006 0.800071
Si Si2 0.500000 0.301834 0.036162
Si Si3 0.735003 0.801397 0.112026
Si Si4 0.124159 0.700562 0.916301
Si Si5 0.875928 0.799357 0.533626
Si Si6 0.265182 0.700255 0.724169
Si Si7 0.125185 0.203132 0.301615
O O1 0.500000 0.500000 0.800867
O O2 0.388742 0.759146 0.744906
O O3 0.500000 0.759749 0.918450
O O4 0.500000 0.500000 0.029761
O O5 0.389766 0.248777 0.092777
O O6 0.790167 0.737385 0.216415
O O7 0.739711 0.000000 0.115125
O O8 0.807142 0.743379 0.016324
O O9 0.119676 0.500000 0.909428
O O10 0.187666 0.762377 0.816028
O O11 0.000000 0.764019 0.921696
O O12 0.788693 0.745007 0.616948
O O13 0.851613 0.743363 0.417780
O O14 0.000000 0.742590 0.560032
O O15 0.877930 0.000000 0.532468
O O16 0.267806 0.500000 0.731126
O O17 0.000000 0.251602 0.276038
O O18 0.127137 0.000000 0.301840
#
# Coordination Sequence:
#
# PCOD9337321 Si02
#       7
#     2   2   4   4   4   4   4
#     4   9  18  35  56  71  96 142 181 208 252 315
#     4  11  21  39  58  73 104 148 183 214 266 323
#     4  11  21  34  55  82 107 136 180 225 266 313
#     4  10  20  33  51  77 109 143 175 213 270 331
#     4   9  18  34  55  78 105 139 176 215 264 316
#     4  10  19  34  54  76 102 138 180 217 260 314
#     4   8  16  33  55  77 106 142 173 209 266 324
#
# _framework density 18.645924999999998
#
# number of rings (size 3 to 8) (size 9 to 14) (size 15 to 20)
#    0.000    2.333    1.667    2.750    0.000    2.667 
#    0.000    2.917    0.000    5.000    0.000    0.000 
#    0.000    0.000    0.000    0.000    0.000    0.000 
#
# Total GULP energy -133934.620338 kJ/mol
# GULP energy per Si atom -5580.609181 kJ/mol
# Density = 1.860349 g / cm^3
# Si number density = 18.645925 Si / 1000 Ang^3
#
#
#
# Elastic Constant Matrix: (Units=GPa)
#
#
# Indices 1 2 3 4 5 6 
#
# 1 202.6221 10.8201 121.3824 0.0000 0.0000 0.0000
# 2 10.8201 10.8879 5.1767 0.0000 0.0000 0.0000
# 3 121.3824 5.1767 156.1839 0.0000 0.0000 0.0000
# 4 0.0000 0.0000 0.0000 28.4948 0.0000 0.0000
# 5 0.0000 0.0000 0.0000 0.0000 22.7346 0.0000
# 6 0.0000 0.0000 0.0000 0.0000 0.0000 17.7558
#
#
#
# Elastic Compliance Matrix: (Units=1/GPa)
#
#
# Indices 1 2 3 4 5 6 
#
# 1 0.009618 -0.006100 -0.007272 0.000000 0.000000 0.000000
# 2 -0.006100 0.097185 0.001520 0.000000 0.000000 0.000000
# 3 -0.007272 0.001520 0.012004 0.000000 0.000000 0.000000
# 4 0.000000 0.000000 0.000000 0.035094 0.000000 0.000000
# 5 0.000000 0.000000 0.000000 0.000000 0.043986 0.000000
# 6 0.000000 0.000000 0.000000 0.000000 0.000000 0.056320
#
#
# Mechanical properties :
#
#
# Convention : Reuss Voigt Hill
#
# Bulk Modulus (GPa) = 10.51514 71.60583 41.06049
# Shear Modulus (GPa) = 16.14922 29.28468 22.71695
#
# Velocity S-wave (km/s) = 2.94615 3.96734 3.49425
# Velocity P-wave (km/s) = 4.15026 7.71185 6.19263
#
# Compressibility (1/GPa) = 0.09510100
#
# Stress axis : x y z
#
# Youngs Moduli (GPa) = 103.97558 10.28968 83.30355
#
# Poissons Ratio (x) = 0.06277 0.60582
# Poissons Ratio (y) = 0.63426 -0.12659
# Poissons Ratio (z) = 0.75615 -0.01564
#
# Static dielectric constant tensor:
#      x y z
#    x 1.627970 0.000000 0.000000 
#    y 0.000000 1.673510 0.000000 
#    z 0.000000 0.000000 1.630520 
# 
# From -- ./inp_files/4007.got.cif
#   From: 2010.05.17/outbox.cif.g08.bks.cpg/sg25_3_cif.got.tgz:4007.got - 2010.06.04 01:04:00.
