data_PCOD9337031
_publ_section_title
;
Structure prediction by ZEFSAII (Michael W. Deem and Ramdas Pophale) SiO2 
 PCOD9337031
Probable space group: I 21 21 21
;
_chemical_formula_sum "Si O2"
_cell_formula_units_Z 30
_cell_length_a 15.000000
_cell_length_b 12.000000
_cell_length_c 18.000000
_cell_angle_alpha 90.000000
_cell_angle_beta 90.000000
_cell_angle_gamma 90.000000
_cell_volume 3240.000000
_symmetry_space_group_name_H-M "I 21 21 21"
_symmetry_group_IT_number 24
_symmetry_cell_setting 'orthorhombic'
loop_
_space_group_symop_operation_xyz
x,y,z
-x,1/2-y,z
x,-y,1/2-z
1/2-x,y,-z
1/2+x,1/2+y,1/2+z
1/2-x,-y,1/2+z
1/2+x,1/2-y,-z
-x,1/2+y,1/2-z
loop_
_atom_site_type_symbol
_atom_site_label
_atom_site_fract_x
_atom_site_fract_y
_atom_site_fract_z
Si Si1 0.771416 0.322930 0.412616
Si Si2 0.516673 0.000000 0.250000
Si Si3 0.663295 0.867257 0.807008
Si Si4 0.425248 0.601714 0.658090
Si Si5 0.713265 0.748559 0.583913
Si Si6 0.163254 0.671853 0.709665
Si Si7 0.914509 0.326270 0.673314
Si Si8 0.133780 0.967047 0.337876
O O1 0.750000 0.315084 0.500000
O O2 0.823372 0.219337 0.373905
O O3 0.672159 0.326939 0.377368
O O4 0.830759 0.428743 0.386666
O O5 0.582059 0.912573 0.288607
O O6 0.455653 0.945715 0.187677
O O7 0.595499 0.839131 0.738460
O O8 0.759153 0.869779 0.765966
O O9 0.629370 0.985681 0.836527
O O10 0.377157 0.676875 0.595222
O O11 0.529421 0.569212 0.651619
O O12 0.750000 0.731967 0.500000
O O13 0.790341 0.809512 0.631349
O O14 0.691208 0.636477 0.630614
O O15 0.122161 0.781703 0.747512
O O16 0.000000 0.250000 0.650408
O O17 0.145968 0.000000 0.250000
#
# Coordination Sequence:
#
# PCOD9337031 Si02
#       8
#     8   4   8   8   8   8   8   8
#     4  11  25  42  60  92 133 172 199 256 342 386
#     4  10  18  34  62  84 114 142 218 266 288 354
#     4   9  18  40  67  90 125 153 222 269 310 376
#     4  10  20  40  65 102 116 163 222 269 313 364
#     4  11  24  40  60  90 137 169 202 252 328 397
#     4   9  18  36  60  86 110 162 203 255 310 356
#     4   9  20  38  59  88 110 155 212 253 297 364
#     4  12  23  41  68  94 125 168 221 270 309 375
#
# _framework density 9.2592590000000001
#
# number of rings (size 3 to 8) (size 9 to 14) (size 15 to 20)
#    0.000    1.867    1.333    4.800    2.800    1.067 
#    4.800    2.667    0.000    0.000    0.000    0.000 
#    0.000    0.000    0.000    0.000    0.000    0.000 
#
# Total GULP energy -167205.838853 kJ/mol
# GULP energy per Si atom -5573.527962 kJ/mol
# Density = 0.923818 g / cm^3
# Si number density = 9.259259 Si / 1000 Ang^3
#
#
#
# Elastic Constant Matrix: (Units=GPa)
#
#
# Indices 1 2 3 4 5 6 
#
# 1 106.7053 29.6922 51.5872 0.0000 0.0000 0.0000
# 2 29.6922 81.0814 54.4916 0.0000 0.0000 0.0000
# 3 51.5872 54.4916 129.7490 0.0000 0.0000 0.0000
# 4 0.0000 0.0000 0.0000 20.9136 0.0000 0.0000
# 5 0.0000 0.0000 0.0000 0.0000 20.6870 0.0000
# 6 0.0000 0.0000 0.0000 0.0000 0.0000 20.5091
#
#
#
# Elastic Compliance Matrix: (Units=1/GPa)
#
#
# Indices 1 2 3 4 5 6 
#
# 1 0.011753 -0.001621 -0.003992 0.000000 0.000000 0.000000
# 2 -0.001621 0.017407 -0.006666 0.000000 0.000000 0.000000
# 3 -0.003992 -0.006666 0.012094 0.000000 0.000000 0.000000
# 4 0.000000 0.000000 0.000000 0.047816 0.000000 0.000000
# 5 0.000000 0.000000 0.000000 0.000000 0.048340 0.000000
# 6 0.000000 0.000000 0.000000 0.000000 0.000000 0.048759
#
#
# Mechanical properties :
#
#
# Convention : Reuss Voigt Hill
#
# Bulk Modulus (GPa) = 59.89641 65.45308 62.67474
# Shear Modulus (GPa) = 23.11702 24.53956 23.82829
#
# Velocity S-wave (km/s) = 3.53699 3.64419 3.59099
# Velocity P-wave (km/s) = 7.00676 7.28891 7.14923
#
# Compressibility (1/GPa) = 0.01669549
#
# Stress axis : x y z
#
# Youngs Moduli (GPa) = 85.08752 57.44862 82.68610
#
# Poissons Ratio (x) = 0.09312 0.33008
# Poissons Ratio (y) = 0.13793 0.55118
# Poissons Ratio (z) = 0.33967 0.38295
#
# Static dielectric constant tensor:
#      x y z
#    x 1.635970 0.000000 0.000000 
#    y 0.000000 1.710890 0.000000 
#    z 0.000000 0.000000 1.625680 
# 
# From -- ./inp_files/30878.got.cif
#   From: 2010.05.17/outbox.ucp.g08.bks.cvg/sg24_16_cif.got.tgz:30878.got - 2010.06.11 15:20:44.
