data_PCOD9337446
_publ_section_title
;
Structure prediction by ZEFSAII (Michael W. Deem and Ramdas Pophale) SiO2 
 PCOD9337446
Probable space group: P M M 2
;
_chemical_formula_sum "Si O2"
_cell_formula_units_Z 28
_cell_length_a 8.967559
_cell_length_b 9.496186
_cell_length_c 18.600753
_cell_angle_alpha 90.000000
_cell_angle_beta 90.000000
_cell_angle_gamma 90.000000
_cell_volume 1583.995637
_symmetry_space_group_name_H-M "P M M 2"
_symmetry_group_IT_number 25
_symmetry_cell_setting 'orthorhombic'
loop_
_space_group_symop_operation_xyz
x,y,z
-x,-y,z
-x,y,z
x,-y,z
loop_
_atom_site_type_symbol
_atom_site_label
_atom_site_fract_x
_atom_site_fract_y
_atom_site_fract_z
Si Si1 0.181372 0.338552 0.056280
Si Si2 0.177445 0.666350 0.479851
Si Si3 0.178903 0.333103 0.219087
Si Si4 0.819761 0.836236 0.917855
Si Si5 0.328320 0.328986 0.627732
Si Si6 0.319737 0.664657 0.787533
Si Si7 0.678463 0.164394 0.349310
O O1 0.228640 0.500000 0.042852
O O2 0.225968 0.297754 0.137258
O O3 0.000000 0.338742 0.056809
O O4 0.229833 0.237986 0.992017
O O5 0.215513 0.500000 0.471163
O O6 0.231603 0.711774 0.559108
O O7 0.255630 0.756287 0.418400
O O8 0.000000 0.679375 0.473937
O O9 0.207635 0.500000 0.230077
O O10 0.259111 0.240862 0.278582
O O11 0.000000 0.313687 0.224766
O O12 0.751044 0.755591 0.850298
O O13 0.000000 0.826140 0.914459
O O14 0.778803 0.000000 0.917376
O O15 0.500000 0.283576 0.617476
O O16 0.329318 0.500000 0.630254
O O17 0.275487 0.285474 0.707163
O O18 0.500000 0.671346 0.790173
O O19 0.277468 0.500000 0.796002
O O20 0.500000 0.174104 0.350554
O O21 0.721097 0.000000 0.349757
#
# Coordination Sequence:
#
# PCOD9337446 Si02
#       7
#     4   4   4   4   4   4   4
#     4   8  15  30  52  76 101 130 166 209 255 301
#     4  10  20  34  55  82 106 129 164 209 255 304
#     4   9  18  34  57  82 103 126 164 212 258 305
#     4  10  20  32  48  74 106 138 173 210 250 300
#     4   8  15  30  52  76 101 130 166 209 255 301
#     4   9  18  33  53  76 101 132 172 213 253 301
#     4  11  24  38  51  72 104 140 175 207 244 296
#
# _framework density 17.676815999999999
#
# number of rings (size 3 to 8) (size 9 to 14) (size 15 to 20)
#    0.000    2.714    0.000    3.429    0.000    6.286 
#    0.000    4.286    0.000    1.714    0.000    0.000 
#    0.000    0.000    0.000    0.000    0.000    0.000 
#
# Total GULP energy -156152.373008 kJ/mol
# GULP energy per Si atom -5576.870465 kJ/mol
# Density = 1.763658 g / cm^3
# Si number density = 17.676816 Si / 1000 Ang^3
#
#
#
# Elastic Constant Matrix: (Units=GPa)
#
#
# Indices 1 2 3 4 5 6 
#
# 1 29.3448 45.8128 53.6894 0.0000 0.0000 0.0000
# 2 45.8128 100.2317 110.6755 0.0000 0.0000 0.0000
# 3 53.6894 110.6755 199.7998 0.0000 0.0000 0.0000
# 4 0.0000 0.0000 0.0000 -8.7614 0.0000 0.0000
# 5 0.0000 0.0000 0.0000 0.0000 59.2912 0.0000
# 6 0.0000 0.0000 0.0000 0.0000 0.0000 23.5432
#
#
#
# Elastic Compliance Matrix: (Units=1/GPa)
#
#
# Indices 1 2 3 4 5 6 
#
# 1 0.120757 -0.049862 -0.004829 0.000000 0.000000 0.000000
# 2 -0.049862 0.046279 -0.012237 0.000000 0.000000 0.000000
# 3 -0.004829 -0.012237 0.013081 0.000000 0.000000 0.000000
# 4 0.000000 0.000000 0.000000 -0.114137 0.000000 0.000000
# 5 0.000000 0.000000 0.000000 0.000000 0.016866 0.000000
# 6 0.000000 0.000000 0.000000 0.000000 0.000000 0.042475
#
#
# Mechanical properties :
#
#
# Convention : Reuss Voigt Hill
#
# Bulk Modulus (GPa) = 21.61634 83.30351 52.45992
# Shear Modulus (GPa) = 18.20851 22.76116 20.48484
#
# Velocity S-wave (km/s) = 3.21297 3.59225 3.40789
# Velocity P-wave (km/s) = 5.10092 8.02707 6.72507
#
# Compressibility (1/GPa) = 0.04626131
#
# Stress axis : x y z
#
# Youngs Moduli (GPa) = 8.28110 21.60817 76.44662
#
# Poissons Ratio (x) = 1.07742 0.36919
# Poissons Ratio (y) = 0.41291 0.93545
# Poissons Ratio (z) = 0.03999 0.26441
#
# Static dielectric constant tensor:
#      x y z
#    x 1.593130 0.000000 0.000000 
#    y 0.000000 1.582380 0.000000 
#    z 0.000000 0.000000 1.599240 
# 
# From -- ./inp_files/6141.got.cif
#   From: 2010.05.17/outbox.cif.g08.bks.cpg/sg25_4_cif.got.tgz:6141.got - 2010.06.04 01:04:00.
