data_PCOD9337996
_publ_section_title
;
Structure prediction by ZEFSAII (Michael W. Deem and Ramdas Pophale) SiO2 
 PCOD9337996
Probable space group: P M C 21
;
_chemical_formula_sum "Si O2"
_cell_formula_units_Z 32
_cell_length_a 7.386499
_cell_length_b 15.501612
_cell_length_c 10.441939
_cell_angle_alpha 90.000000
_cell_angle_beta 90.000000
_cell_angle_gamma 90.000000
_cell_volume 1195.629598
_symmetry_space_group_name_H-M "P M C 21"
_symmetry_group_IT_number 26
_symmetry_cell_setting 'orthorhombic'
loop_
_space_group_symop_operation_xyz
x,y,z
-x,-y,1/2+z
-x,y,z
x,-y,1/2+z
loop_
_atom_site_type_symbol
_atom_site_label
_atom_site_fract_x
_atom_site_fract_y
_atom_site_fract_z
Si Si1 0.279576 0.056879 0.159820
Si Si2 0.699801 0.758246 0.294398
Si Si3 0.718426 0.433587 0.129165
Si Si4 0.720424 0.943121 0.928976
Si Si5 0.722386 0.241442 0.512821
Si Si6 0.718426 0.433587 0.459630
Si Si7 0.789410 0.565410 0.294398
Si Si8 0.277614 0.758558 0.575975
O O1 0.500000 0.057232 0.153962
O O2 0.225204 0.017864 0.294398
O O3 0.226355 0.156792 0.152479
O O4 0.212597 0.000000 0.044398
O O5 0.500000 0.799645 0.294398
O O6 0.784435 0.776318 0.158009
O O7 0.681582 0.654103 0.294398
O O8 0.784435 0.776318 0.430786
O O9 0.500000 0.430200 0.133615
O O10 0.762135 0.455603 0.294398
O O11 0.786326 0.334732 0.123725
O O12 0.759767 0.543319 0.126631
O O13 0.500000 0.942769 0.934834
O O14 0.773645 0.843208 0.936317
O O15 0.500000 0.246566 0.514906
O O16 0.786326 0.334732 0.465070
O O17 0.500000 0.430200 0.455180
O O18 0.759768 0.543319 0.462165
O O19 0.000000 0.585289 0.294397
O O20 0.500000 0.753433 0.573889
#
# Coordination Sequence:
#
# PCOD9337996 Si02
#       8
#     4   4   4   4   4   4   4   4
#     4   9  18  30  45  72 110 147 178 219 281 341
#     4  10  18  34  54  75 102 142 194 231 268 323
#     4  10  19  34  54  74  99 142 192 232 266 318
#     4   9  18  30  45  72 110 147 178 219 281 341
#     4   9  18  30  50  74 100 139 188 232 269 323
#     4  10  19  34  54  74  99 142 192 232 266 318
#     4  12  24  34  48  75 114 150 180 227 288 337
#     4   9  18  30  50  74 100 139 188 232 269 323
#
# _framework density 26.764140999999999
#
# number of rings (size 3 to 8) (size 9 to 14) (size 15 to 20)
#    0.000    2.250    2.500    1.125    3.500    0.500 
#    0.000    0.000    0.000    0.000    0.000    0.000 
#    0.000    6.000    0.000    0.000    0.000    0.000 
#
# Total GULP energy -178627.846989 kJ/mol
# GULP energy per Si atom -5582.120218 kJ/mol
# Density = 2.670322 g / cm^3
# Si number density = 26.764141 Si / 1000 Ang^3
#
#
#
# Elastic Constant Matrix: (Units=GPa)
#
#
# Indices 1 2 3 4 5 6 
#
# 1 130.0508 -1.9546 0.8697 0.0000 0.0000 0.0000
# 2 -1.9546 138.2881 88.6561 0.0000 0.0000 0.0000
# 3 0.8697 88.6561 234.1570 0.0000 0.0000 0.0000
# 4 0.0000 0.0000 0.0000 48.0592 0.0000 0.0000
# 5 0.0000 0.0000 0.0000 0.0000 9.0638 0.0000
# 6 0.0000 0.0000 0.0000 0.0000 0.0000 -54.2713
#
#
#
# Elastic Compliance Matrix: (Units=1/GPa)
#
#
# Indices 1 2 3 4 5 6 
#
# 1 0.007692 0.000168 -0.000092 0.000000 0.000000 0.000000
# 2 0.000168 0.009553 -0.003617 0.000000 0.000000 0.000000
# 3 -0.000092 -0.003617 0.005641 0.000000 0.000000 0.000000
# 4 0.000000 0.000000 0.000000 0.020808 0.000000 0.000000
# 5 0.000000 0.000000 0.000000 0.000000 0.110329 0.000000
# 6 0.000000 0.000000 0.000000 0.000000 0.000000 -0.018426
#
#
# Mechanical properties :
#
#
# Convention : Reuss Voigt Hill
#
# Bulk Modulus (GPa) = 63.28214 75.29316 69.28765
# Shear Modulus (GPa) = 33.79566 28.23196 31.01381
#
# Velocity S-wave (km/s) = 3.55733 3.25136 3.40778
# Velocity P-wave (km/s) = 6.36934 6.50294 6.43649
#
# Compressibility (1/GPa) = 0.01580225
#
# Stress axis : x y z
#
# Youngs Moduli (GPa) = 129.99774 104.68115 177.28511
#
# Poissons Ratio (x) = -0.01756 0.01633
# Poissons Ratio (y) = -0.02181 0.64133
# Poissons Ratio (z) = 0.01197 0.37868
#
# Static dielectric constant tensor:
#      x y z
#    x 1.983340 0.000000 0.000000 
#    y 0.000000 1.971950 0.000000 
#    z 0.000000 0.000000 2.616090 
# 
# From -- ./inp_files/2986.got.cif
#   From: 2010.05.17/outbox.cif.g08.bks.cpg/sg26_2_cif.got.tgz:2986.got - 2010.06.04 01:07:29.
