data_PCOD9337724
_publ_section_title
;
Structure prediction by ZEFSAII (Michael W. Deem and Ramdas Pophale) SiO2 
 PCOD9337724
Probable space group: P M M 2
;
_chemical_formula_sum "Si O2"
_cell_formula_units_Z 20
_cell_length_a 8.992039
_cell_length_b 7.824978
_cell_length_c 14.882736
_cell_angle_alpha 90.000000
_cell_angle_beta 90.000000
_cell_angle_gamma 90.000000
_cell_volume 1047.186621
_symmetry_space_group_name_H-M "P M M 2"
_symmetry_group_IT_number 25
_symmetry_cell_setting 'orthorhombic'
loop_
_space_group_symop_operation_xyz
x,y,z
-x,-y,z
-x,y,z
x,-y,z
loop_
_atom_site_type_symbol
_atom_site_label
_atom_site_fract_x
_atom_site_fract_y
_atom_site_fract_z
Si Si1 0.171077 0.706410 0.041020
Si Si2 0.176291 0.692850 0.403815
Si Si3 0.329266 0.798433 0.224804
Si Si4 0.320685 0.699100 0.852414
Si Si5 0.680605 0.000000 0.720033
Si Si6 0.321218 0.000000 0.512902
O O1 0.172678 0.500000 0.045769
O O2 0.260143 0.772451 0.126816
O O3 0.000000 0.764077 0.043643
O O4 0.247736 0.752192 0.946837
O O5 0.204700 0.500000 0.436113
O O6 0.233987 0.708407 0.301730
O O7 0.000000 0.724893 0.405616
O O8 0.259774 0.833441 0.462583
O O9 0.500000 0.738305 0.226398
O O10 0.328187 0.000000 0.245714
O O11 0.500000 0.707563 0.861385
O O12 0.281931 0.500000 0.834063
O O13 0.273979 0.830642 0.774880
O O14 0.500000 0.000000 0.719075
O O15 0.728396 0.000000 0.616814
O O16 0.500000 0.000000 0.508739
#
# Coordination Sequence:
#
# PCOD9337724 Si02
#       6
#     4   4   4   4   2   2
#     4  10  21  36  54  81 118 157 196 238 287 347
#     4  11  24  42  64  89 121 161 200 244 300 359
#     4  11  23  37  57  87 120 156 199 246 293 347
#     4   9  18  35  58  83 114 152 193 240 290 341
#     4   9  20  37  60  87 114 145 191 244 296 353
#     4  11  23  41  64  93 122 153 197 252 306 359
#
# _framework density 19.098792
#
# number of rings (size 3 to 8) (size 9 to 14) (size 15 to 20)
#    0.000    1.800    1.000    2.700    1.400    7.200 
#    0.000    4.000    0.000    2.400    0.000    0.000 
#    0.000    0.000    0.000    0.000    0.000    0.000 
#
# Total GULP energy -111755.322200 kJ/mol
# GULP energy per Si atom -5587.766110 kJ/mol
# Density = 1.905532 g / cm^3
# Si number density = 19.098792 Si / 1000 Ang^3
#
#
#
# Elastic Constant Matrix: (Units=GPa)
#
#
# Indices 1 2 3 4 5 6 
#
# 1 82.7475 55.8245 48.8434 0.0000 0.0000 0.0000
# 2 55.8245 100.0337 71.5420 0.0000 0.0000 0.0000
# 3 48.8434 71.5420 147.3621 0.0000 0.0000 0.0000
# 4 0.0000 0.0000 0.0000 -10.9647 0.0000 0.0000
# 5 0.0000 0.0000 0.0000 0.0000 -43.5015 0.0000
# 6 0.0000 0.0000 0.0000 0.0000 0.0000 133.6746
#
#
#
# Elastic Compliance Matrix: (Units=1/GPa)
#
#
# Indices 1 2 3 4 5 6 
#
# 1 0.019698 -0.009686 -0.001826 0.000000 0.000000 0.000000
# 2 -0.009686 0.020077 -0.006536 0.000000 0.000000 0.000000
# 3 -0.001826 -0.006536 0.010565 0.000000 0.000000 0.000000
# 4 0.000000 0.000000 0.000000 -0.091201 0.000000 0.000000
# 5 0.000000 0.000000 0.000000 0.000000 -0.022988 0.000000
# 6 0.000000 0.000000 0.000000 0.000000 0.000000 0.007481
#
#
# Mechanical properties :
#
#
# Convention : Reuss Voigt Hill
#
# Bulk Modulus (GPa) = 70.21910 75.84033 73.02972
# Shear Modulus (GPa) = -322.08667 26.10389 -147.99139
#
# Velocity S-wave (km/s) = -13.00033 3.70101 -8.81224
# Velocity P-wave (km/s) = 13.72948 7.61965 8.07588
#
# Compressibility (1/GPa) = 0.01424114
#
# Stress axis : x y z
#
# Youngs Moduli (GPa) = 50.76734 49.80845 94.65501
#
# Poissons Ratio (x) = 0.48246 0.17287
# Poissons Ratio (y) = 0.49175 0.61871
# Poissons Ratio (z) = 0.09271 0.32557
#
# Static dielectric constant tensor:
#      x y z
#    x 1.641470 0.000000 0.000000 
#    y 0.000000 1.677510 0.000000 
#    z 0.000000 0.000000 1.624890 
# 
# From -- ./inp_files/5191.got.cif
#   From: 2010.05.17/outbox.cif.g08.bks.cpg/sg25_3_cif.got.tgz:5191.got - 2010.06.04 01:04:00.
