data_PCOD9337500
_publ_section_title
;
Structure prediction by ZEFSAII (Michael W. Deem and Ramdas Pophale) SiO2 
 PCOD9337500
Probable space group: P M M 2
;
_chemical_formula_sum "Si O2"
_cell_formula_units_Z 32
_cell_length_a 8.069011
_cell_length_b 9.540625
_cell_length_c 21.176495
_cell_angle_alpha 90.000000
_cell_angle_beta 90.000000
_cell_angle_gamma 90.000000
_cell_volume 1630.238756
_symmetry_space_group_name_H-M "P M M 2"
_symmetry_group_IT_number 25
_symmetry_cell_setting 'orthorhombic'
loop_
_space_group_symop_operation_xyz
x,y,z
-x,-y,z
-x,y,z
x,-y,z
loop_
_atom_site_type_symbol
_atom_site_label
_atom_site_fract_x
_atom_site_fract_y
_atom_site_fract_z
Si Si1 0.202174 0.338316 0.938290
Si Si2 0.198200 0.840933 0.575979
Si Si3 0.696360 0.660403 0.458121
Si Si4 0.797079 0.661695 0.695816
Si Si5 0.197266 0.340512 0.318881
Si Si6 0.302677 0.158198 0.199829
Si Si7 0.202762 0.161243 0.818371
Si Si8 0.200176 0.660891 0.080574
O O1 0.250956 0.500000 0.926046
O O2 0.257951 0.235158 0.883155
O O3 0.000000 0.336675 0.937989
O O4 0.254580 0.300047 0.009491
O O5 0.231485 0.763233 0.510304
O O6 0.260302 0.745509 0.633846
O O7 0.000000 0.849808 0.583914
O O8 0.264069 0.000000 0.577183
O O9 0.500000 0.656103 0.467150
O O10 0.761631 0.500000 0.465057
O O11 0.732389 0.706203 0.386425
O O12 0.742848 0.500000 0.695987
O O13 0.746350 0.745777 0.758432
O O14 0.000000 0.659930 0.695310
O O15 0.258187 0.500000 0.307262
O O16 0.240423 0.243345 0.260318
O O17 0.000000 0.345102 0.325069
O O18 0.500000 0.152108 0.204412
O O19 0.258492 0.238297 0.135602
O O20 0.235487 0.000000 0.199239
O O21 0.000000 0.160645 0.818691
O O22 0.256370 0.000000 0.813384
O O23 0.253384 0.500000 0.092487
O O24 0.000000 0.661321 0.080788
#
# Coordination Sequence:
#
# PCOD9337500 Si02
#       8
#     4   4   4   4   4   4   4   4
#     4   8  14  25  41  63  93 127 163 205 253 305
#     4  10  20  33  50  74 104 137 173 214 260 308
#     4  10  21  37  57  80 105 135 171 209 251 302
#     4   9  16  26  42  64  93 131 172 214 259 305
#     4  10  21  38  61  85 106 132 169 211 254 302
#     4  11  24  38  52  75 107 140 173 210 254 305
#     4   9  15  22  35  60  95 131 166 206 254 307
#     4   9  18  33  53  76 101 132 173 218 261 307
#
# _framework density 19.629028000000002
#
# number of rings (size 3 to 8) (size 9 to 14) (size 15 to 20)
#    0.000    2.500    0.000    3.375    0.000    9.000 
#    0.000    1.250    0.000    0.000    0.000    0.875 
#    0.000    3.000    0.000    0.000    0.000    0.000 
#
# Total GULP energy -178625.360169 kJ/mol
# GULP energy per Si atom -5582.042505 kJ/mol
# Density = 1.958435 g / cm^3
# Si number density = 19.629028 Si / 1000 Ang^3
#
#
#
# Elastic Constant Matrix: (Units=GPa)
#
#
# Indices 1 2 3 4 5 6 
#
# 1 12.5005 6.6939 0.1293 0.0000 0.0000 0.0000
# 2 6.6939 158.3668 117.9018 0.0000 0.0000 0.0000
# 3 0.1293 117.9018 158.2885 0.0000 0.0000 0.0000
# 4 0.0000 0.0000 0.0000 9.2053 0.0000 0.0000
# 5 0.0000 0.0000 0.0000 0.0000 -42.1104 0.0000
# 6 0.0000 0.0000 0.0000 0.0000 0.0000 9.3381
#
#
#
# Elastic Compliance Matrix: (Units=1/GPa)
#
#
# Indices 1 2 3 4 5 6 
#
# 1 0.084151 -0.007870 0.005793 0.000000 0.000000 0.000000
# 2 -0.007870 0.014911 -0.011100 0.000000 0.000000 0.000000
# 3 0.005793 -0.011100 0.014581 0.000000 0.000000 0.000000
# 4 0.000000 0.000000 0.000000 0.108633 0.000000 0.000000
# 5 0.000000 0.000000 0.000000 0.000000 -0.023747 0.000000
# 6 0.000000 0.000000 0.000000 0.000000 0.000000 0.107088
#
#
# Mechanical properties :
#
#
# Convention : Reuss Voigt Hill
#
# Bulk Modulus (GPa) = 11.45616 64.28953 37.87284
# Shear Modulus (GPa) = 13.84786 8.91532 11.38159
#
# Velocity S-wave (km/s) = 2.65897 2.13349 2.41059
# Velocity P-wave (km/s) = 3.90843 6.23638 5.20424
#
# Compressibility (1/GPa) = 0.08728927
#
# Stress axis : x y z
#
# Youngs Moduli (GPa) = 11.88339 67.06514 68.58376
#
# Poissons Ratio (x) = 0.52779 -0.39731
# Poissons Ratio (y) = 0.09352 0.76128
# Poissons Ratio (z) = -0.06884 0.74442
#
# Static dielectric constant tensor:
#      x y z
#    x 1.694620 0.000000 0.000000 
#    y 0.000000 1.677430 0.000000 
#    z 0.000000 0.000000 1.660570 
# 
# From -- ./inp_files/6575.got.cif
#   From: 2010.05.17/outbox.cif.g08.bks.cpg/sg25_4_cif.got.tgz:6575.got - 2010.06.04 01:04:00.
