data_PCOD9337964
_publ_section_title
;
Structure prediction by ZEFSAII (Michael W. Deem and Ramdas Pophale) SiO2 
 PCOD9337964
Probable space group: P M C 21
;
_chemical_formula_sum "Si O2"
_cell_formula_units_Z 32
_cell_length_a 7.547653
_cell_length_b 10.918504
_cell_length_c 14.427445
_cell_angle_alpha 90.000000
_cell_angle_beta 90.000000
_cell_angle_gamma 90.000000
_cell_volume 1188.952462
_symmetry_space_group_name_H-M "P M C 21"
_symmetry_group_IT_number 26
_symmetry_cell_setting 'orthorhombic'
loop_
_space_group_symop_operation_xyz
x,y,z
-x,-y,1/2+z
-x,y,z
x,-y,1/2+z
loop_
_atom_site_type_symbol
_atom_site_label
_atom_site_fract_x
_atom_site_fract_y
_atom_site_fract_z
Si Si1 0.288433 0.695809 0.946430
Si Si2 0.703678 0.085647 0.994853
Si Si3 0.789936 0.852108 0.118047
Si Si4 0.715922 0.062569 0.333156
Si Si5 0.704281 0.531634 0.677534
Si Si6 0.794496 0.428656 0.964784
Si Si7 0.795188 0.292648 0.787463
Si Si8 0.281936 0.205331 0.167287
O O1 0.500000 0.688197 0.940183
O O2 0.233097 0.811951 0.885523
O O3 0.215502 0.564314 0.919759
O O4 0.237735 0.734967 0.050693
O O5 0.500000 0.117878 0.978787
O O6 0.704942 0.963037 0.059696
O O7 0.783105 0.185863 0.062856
O O8 0.784610 0.046677 0.897279
O O9 0.717332 0.812470 0.219355
O O10 0.000000 0.874487 0.124035
O O11 0.500000 0.055685 0.334089
O O12 0.774599 0.090496 0.229616
O O13 0.500000 0.521041 0.706147
O O14 0.708276 0.547538 0.565407
O O15 0.793630 0.415437 0.723731
O O16 0.774361 0.664929 0.707367
O O17 0.720059 0.333572 0.887791
O O18 0.000000 0.401687 0.980292
O O19 0.000000 0.261687 0.802602
O O20 0.500000 0.206282 0.166233
#
# Coordination Sequence:
#
# PCOD9337964 Si02
#       8
#     4   4   4   4   4   4   4   4
#     4  10  18  31  54  82 107 139 184 232 275 322
#     4   9  18  34  56  80 106 139 183 229 276 329
#     4  10  19  34  55  77 106 141 180 227 277 325
#     4   8  15  29  52  79 106 137 178 226 274 323
#     4  11  22  36  57  84 115 148 188 240 286 337
#     4  11  22  36  53  78 114 153 186 223 282 346
#     4  10  22  38  56  79 112 154 188 224 280 344
#     4   9  18  34  53  79 112 145 179 227 286 332
#
# _framework density 26.914451
#
# number of rings (size 3 to 8) (size 9 to 14) (size 15 to 20)
#    0.000    2.250    1.250    3.000    0.000    2.500 
#    2.250    1.250    0.000    4.500    0.000    0.000 
#    0.000    0.000    0.000    0.000    0.000    0.000 
#
# Total GULP energy -178992.173382 kJ/mol
# GULP energy per Si atom -5593.505418 kJ/mol
# Density = 2.685319 g / cm^3
# Si number density = 26.914451 Si / 1000 Ang^3
#
#
#
# Elastic Constant Matrix: (Units=GPa)
#
#
# Indices 1 2 3 4 5 6 
#
# 1 97.7105 21.1633 2.8060 0.0000 0.0000 0.0000
# 2 21.1633 103.3695 24.2803 0.0000 0.0000 0.0000
# 3 2.8060 24.2803 158.2479 0.0000 0.0000 0.0000
# 4 0.0000 0.0000 0.0000 61.0109 0.0000 0.0000
# 5 0.0000 0.0000 0.0000 0.0000 13.8312 0.0000
# 6 0.0000 0.0000 0.0000 0.0000 0.0000 22.2009
#
#
#
# Elastic Compliance Matrix: (Units=1/GPa)
#
#
# Indices 1 2 3 4 5 6 
#
# 1 0.010713 -0.002229 0.000152 0.000000 0.000000 0.000000
# 2 -0.002229 0.010499 -0.001571 0.000000 0.000000 0.000000
# 3 0.000152 -0.001571 0.006558 0.000000 0.000000 0.000000
# 4 0.000000 0.000000 0.000000 0.016391 0.000000 0.000000
# 5 0.000000 0.000000 0.000000 0.000000 0.072300 0.000000
# 6 0.000000 0.000000 0.000000 0.000000 0.000000 0.045043
#
#
# Mechanical properties :
#
#
# Convention : Reuss Voigt Hill
#
# Bulk Modulus (GPa) = 48.84459 50.64745 49.74602
# Shear Modulus (GPa) = 28.46975 40.14715 34.30845
#
# Velocity S-wave (km/s) = 3.25589 3.86639 3.57420
# Velocity P-wave (km/s) = 5.68524 6.22822 5.96291
#
# Compressibility (1/GPa) = 0.02047310
#
# Stress axis : x y z
#
# Youngs Moduli (GPa) = 93.34688 95.24265 152.49456
#
# Poissons Ratio (x) = 0.21229 -0.02319
# Poissons Ratio (y) = 0.20807 0.23964
# Poissons Ratio (z) = -0.01419 0.14967
#
# Static dielectric constant tensor:
#      x y z
#    x 1.977700 0.000000 0.000000 
#    y 0.000000 2.143220 0.000000 
#    z 0.000000 0.000000 2.186550 
# 
# From -- ./inp_files/4320.got.cif
#   From: 2010.05.17/outbox.cif.g08.bks.cpg/sg26_3_cif.got.tgz:4320.got - 2010.06.04 01:07:29.
