data_PCOD9337226
_publ_section_title
;
Structure prediction by ZEFSAII (Michael W. Deem and Ramdas Pophale) SiO2 
 PCOD9337226
Probable space group: P M M 2
;
_chemical_formula_sum "Si O2"
_cell_formula_units_Z 32
_cell_length_a 15.452729
_cell_length_b 7.555716
_cell_length_c 12.588106
_cell_angle_alpha 90.000000
_cell_angle_beta 90.000000
_cell_angle_gamma 90.000000
_cell_volume 1469.742339
_symmetry_space_group_name_H-M "P M M 2"
_symmetry_group_IT_number 25
_symmetry_cell_setting 'orthorhombic'
loop_
_space_group_symop_operation_xyz
x,y,z
-x,-y,z
-x,y,z
x,-y,z
loop_
_atom_site_type_symbol
_atom_site_label
_atom_site_fract_x
_atom_site_fract_y
_atom_site_fract_z
Si Si1 0.593891 0.206372 0.836600
Si Si2 0.357030 0.289921 0.073360
Si Si3 0.779170 0.796392 0.389218
Si Si4 0.176145 0.292001 0.160500
Si Si5 0.907750 0.212559 0.954960
Si Si6 0.780078 0.216759 0.778235
Si Si7 0.593624 0.213179 0.311558
Si Si8 0.100535 0.216662 0.579041
O O1 0.500000 0.285942 0.810956
O O2 0.680980 0.280063 0.782800
O O3 0.590778 0.000000 0.806495
O O4 0.606291 0.213022 0.964635
O O5 0.355155 0.500000 0.056362
O O6 0.260692 0.221323 0.098550
O O7 0.403202 0.255394 0.185713
O O8 0.826848 0.792878 0.275518
O O9 0.682688 0.719571 0.366022
O O10 0.843887 0.721122 0.477125
O O11 0.764188 0.000000 0.421354
O O12 0.188997 0.500000 0.178812
O O13 0.100573 0.264213 0.077352
O O14 0.828884 0.279015 0.884392
O O15 0.000000 0.272279 0.910625
O O16 0.905869 0.000000 0.949513
O O17 0.841415 0.267098 0.680595
O O18 0.777275 0.000000 0.779282
O O19 0.500000 0.274802 0.353526
O O20 0.595904 0.000000 0.320015
O O21 0.000000 0.275178 0.581448
O O22 0.097048 0.000000 0.577398
#
# Coordination Sequence:
#
# PCOD9337226 Si02
#       8
#     4   4   4   4   4   4   4   4
#     4  10  19  30  47  72 102 136 168 199 246 303
#     4  10  19  30  46  70 100 135 173 208 243 289
#     4   9  18  32  51  74 100 129 168 213 252 296
#     4  10  20  33  49  72 105 139 166 202 256 306
#     4  10  19  31  51  76  99 130 169 205 249 306
#     4   9  17  31  50  73 103 131 162 208 253 295
#     4   9  17  29  45  67  98 135 169 201 246 300
#     4   9  17  31  53  78  99 124 165 215 259 296
#
# _framework density 21.772521999999999
#
# number of rings (size 3 to 8) (size 9 to 14) (size 15 to 20)
#    0.000    2.500    1.250    1.500    0.000    5.250 
#    0.000    1.875    0.000    5.250    0.000    0.000 
#    0.000    2.000    0.000    0.000    0.000    0.000 
#
# Total GULP energy -178451.316604 kJ/mol
# GULP energy per Si atom -5576.603644 kJ/mol
# Density = 2.172297 g / cm^3
# Si number density = 21.772522 Si / 1000 Ang^3
#
#
#
# Elastic Constant Matrix: (Units=GPa)
#
#
# Indices 1 2 3 4 5 6 
#
# 1 198.7574 6.3245 86.3819 0.0000 0.0000 0.0000
# 2 6.3245 53.3990 -7.4884 0.0000 0.0000 0.0000
# 3 86.3819 -7.4884 109.1161 0.0000 0.0000 0.0000
# 4 0.0000 0.0000 0.0000 -70.9628 0.0000 0.0000
# 5 0.0000 0.0000 0.0000 0.0000 11.0001 0.0000
# 6 0.0000 0.0000 0.0000 0.0000 0.0000 -11.8732
#
#
#
# Elastic Compliance Matrix: (Units=1/GPa)
#
#
# Indices 1 2 3 4 5 6 
#
# 1 0.007841 -0.001817 -0.006332 0.000000 0.000000 0.000000
# 2 -0.001817 0.019330 0.002765 0.000000 0.000000 0.000000
# 3 -0.006332 0.002765 0.014367 0.000000 0.000000 0.000000
# 4 0.000000 0.000000 0.000000 -0.014092 0.000000 0.000000
# 5 0.000000 0.000000 0.000000 0.000000 0.090908 0.000000
# 6 0.000000 0.000000 0.000000 0.000000 0.000000 -0.084223
#
#
# Mechanical properties :
#
#
# Convention : Reuss Voigt Hill
#
# Bulk Modulus (GPa) = 32.49923 59.07871 45.78897
# Shear Modulus (GPa) = 90.65233 4.03644 47.34438
#
# Velocity S-wave (km/s) = 6.45961 1.36306 4.66821
# Velocity P-wave (km/s) = 8.40205 5.44708 7.08044
#
# Compressibility (1/GPa) = 0.03076996
#
# Stress axis : x y z
#
# Youngs Moduli (GPa) = 127.53433 51.73356 69.60371
#
# Poissons Ratio (x) = 0.09398 0.44073
# Poissons Ratio (y) = 0.23168 -0.19243
# Poissons Ratio (z) = 0.80755 -0.14303
#
# Static dielectric constant tensor:
#      x y z
#    x 1.861930 0.000000 0.000000 
#    y 0.000000 1.799710 0.000000 
#    z 0.000000 0.000000 1.758350 
# 
# From -- ./inp_files/4938.got.cif
#   From: 2010.05.17/outbox.cif.g08.bks.cpg/sg25_3_cif.got.tgz:4938.got - 2010.06.04 01:04:00.
