data_PCOD9337286
_publ_section_title
;
Structure prediction by ZEFSAII (Michael W. Deem and Ramdas Pophale) SiO2 
 PCOD9337286
Probable space group: P M M 2
;
_chemical_formula_sum "Si O2"
_cell_formula_units_Z 20
_cell_length_a 7.426013
_cell_length_b 14.880094
_cell_length_c 8.122161
_cell_angle_alpha 90.000000
_cell_angle_beta 90.000000
_cell_angle_gamma 90.000000
_cell_volume 897.496934
_symmetry_space_group_name_H-M "P M M 2"
_symmetry_group_IT_number 25
_symmetry_cell_setting 'orthorhombic'
loop_
_space_group_symop_operation_xyz
x,y,z
-x,-y,z
-x,y,z
x,-y,z
loop_
_atom_site_type_symbol
_atom_site_label
_atom_site_fract_x
_atom_site_fract_y
_atom_site_fract_z
Si Si1 0.716580 0.098226 0.306860
Si Si2 0.706867 0.294510 0.805742
Si Si3 0.787608 0.900593 0.916303
Si Si4 0.721132 0.285997 0.446863
Si Si5 0.720093 0.396321 0.127460
O O1 0.500000 0.097465 0.318875
O O2 0.759758 0.108789 0.113188
O O3 0.780473 0.184442 0.406160
O O4 0.783430 0.000000 0.360547
O O5 0.500000 0.325245 0.799810
O O6 0.785246 0.314943 0.626855
O O7 0.707872 0.186940 0.831053
O O8 0.784913 0.341200 0.967910
O O9 0.000000 0.899326 0.884123
O O10 0.717451 0.000000 0.869363
O O11 0.500000 0.285531 0.449844
O O12 0.777209 0.348860 0.296262
O O13 0.500000 0.392746 0.128650
O O14 0.772979 0.500000 0.119116
#
# Coordination Sequence:
#
# PCOD9337286 Si02
#       5
#     4   4   4   4   4
#     4   9  16  29  50  73  99 131 169 212 253 298
#     4  10  19  32  53  78 103 135 172 207 250 302
#     4  10  20  33  50  74 104 137 172 209 252 301
#     4   9  17  29  48  76 104 130 165 207 251 300
#     4   9  17  30  49  76 108 134 162 209 261 301
#
# _framework density 22.284198
#
# number of rings (size 3 to 8) (size 9 to 14) (size 15 to 20)
#    0.000    2.600    2.000    0.600    0.000    2.800 
#    0.000    7.000    0.000    3.000    0.000    0.000 
#    0.000    0.000    0.000    0.000    0.000    0.000 
#
# Total GULP energy -111694.452526 kJ/mol
# GULP energy per Si atom -5584.722626 kJ/mol
# Density = 2.223348 g / cm^3
# Si number density = 22.284198 Si / 1000 Ang^3
#
#
#
# Elastic Constant Matrix: (Units=GPa)
#
#
# Indices 1 2 3 4 5 6 
#
# 1 74.6835 -0.0581 2.2500 0.0000 0.0000 0.0000
# 2 -0.0581 138.1599 98.1506 0.0000 0.0000 0.0000
# 3 2.2500 98.1506 189.3443 0.0000 0.0000 0.0000
# 4 0.0000 0.0000 0.0000 4.5268 0.0000 0.0000
# 5 0.0000 0.0000 0.0000 0.0000 -43.2477 0.0000
# 6 0.0000 0.0000 0.0000 0.0000 0.0000 -21.2114
#
#
#
# Elastic Compliance Matrix: (Units=1/GPa)
#
#
# Indices 1 2 3 4 5 6 
#
# 1 0.013398 0.000188 -0.000257 0.000000 0.000000 0.000000
# 2 0.000188 0.011460 -0.005943 0.000000 0.000000 0.000000
# 3 -0.000257 -0.005943 0.008365 0.000000 0.000000 0.000000
# 4 0.000000 0.000000 0.000000 0.220909 0.000000 0.000000
# 5 0.000000 0.000000 0.000000 0.000000 -0.023123 0.000000
# 6 0.000000 0.000000 0.000000 0.000000 0.000000 -0.047144
#
#
# Mechanical properties :
#
#
# Convention : Reuss Voigt Hill
#
# Bulk Modulus (GPa) = 47.17036 66.98587 57.07812
# Shear Modulus (GPa) = 24.63622 8.13655 16.38638
#
# Velocity S-wave (km/s) = 3.32858 1.91290 2.71465
# Velocity P-wave (km/s) = 5.99885 5.91642 5.95778
#
# Compressibility (1/GPa) = 0.02119975
#
# Stress axis : x y z
#
# Youngs Moduli (GPa) = 74.63962 87.26141 119.54651
#
# Poissons Ratio (x) = -0.01640 0.03068
# Poissons Ratio (y) = -0.01403 0.71043
# Poissons Ratio (z) = 0.01915 0.51857
#
# Static dielectric constant tensor:
#      x y z
#    x 1.841800 0.000000 0.000000 
#    y 0.000000 1.787600 0.000000 
#    z 0.000000 0.000000 1.798660 
# 
# From -- ./inp_files/1768.got.cif
#   From: 2010.05.17/outbox.cif.g08.bks.cpg/sg25_1_cif.got.tgz:1768.got - 2010.06.04 01:04:00.
