data_PCOD9337662
_publ_section_title
;
Structure prediction by ZEFSAII (Michael W. Deem and Ramdas Pophale) SiO2 
 PCOD9337662
Probable space group: P M M 2
;
_chemical_formula_sum "Si O2"
_cell_formula_units_Z 20
_cell_length_a 14.703787
_cell_length_b 8.992031
_cell_length_c 7.909579
_cell_angle_alpha 90.000000
_cell_angle_beta 90.000000
_cell_angle_gamma 90.000000
_cell_volume 1045.780083
_symmetry_space_group_name_H-M "P M M 2"
_symmetry_group_IT_number 25
_symmetry_cell_setting 'orthorhombic'
loop_
_space_group_symop_operation_xyz
x,y,z
-x,-y,z
-x,y,z
x,-y,z
loop_
_atom_site_type_symbol
_atom_site_label
_atom_site_fract_x
_atom_site_fract_y
_atom_site_fract_z
Si Si1 0.400315 0.679600 0.018810
Si Si2 0.207940 0.320707 0.158141
Si Si3 0.892264 0.323584 0.810257
Si Si4 0.396743 0.677646 0.616453
Si Si5 0.214236 0.176283 0.502829
O O1 0.500000 0.735307 0.073448
O O2 0.401796 0.500000 0.035549
O O3 0.311103 0.730846 0.116249
O O4 0.390011 0.708082 0.818077
O O5 0.208067 0.500000 0.178488
O O6 0.176117 0.245729 0.330046
O O7 0.147778 0.285140 0.994157
O O8 0.874092 0.500000 0.784863
O O9 0.841369 0.235578 0.663571
O O10 0.000000 0.299463 0.805023
O O11 0.500000 0.713618 0.563213
O O12 0.383922 0.500000 0.592856
O O13 0.317212 0.764182 0.524396
O O14 0.212549 0.000000 0.496705
#
# Coordination Sequence:
#
# PCOD9337662 Si02
#       5
#     4   4   4   4   4
#     4   8  14  28  55  87 114 144 190 247 295 335
#     4  10  20  37  62  89 118 152 201 252 294 346
#     4  10  22  43  69  91 112 146 200 261 308 348
#     4   9  17  34  61  88 116 156 207 254 291 336
#     4  12  25  38  57  89 131 166 193 233 296 370
#
# _framework density 19.124479000000001
#
# number of rings (size 3 to 8) (size 9 to 14) (size 15 to 20)
#    0.000    2.200    2.000    3.000    0.000    3.200 
#    0.000    4.000    0.000    0.000    0.000    0.000 
#    0.000    0.000    0.000    0.000    0.000    0.000 
#
# Total GULP energy -111678.411403 kJ/mol
# GULP energy per Si atom -5583.920570 kJ/mol
# Density = 1.908095 g / cm^3
# Si number density = 19.124479 Si / 1000 Ang^3
#
#
#
# Elastic Constant Matrix: (Units=GPa)
#
#
# Indices 1 2 3 4 5 6 
#
# 1 74.9439 55.7779 58.8389 0.0000 0.0000 0.0000
# 2 55.7779 59.9310 70.3636 0.0000 0.0000 0.0000
# 3 58.8389 70.3636 136.1890 0.0000 0.0000 0.0000
# 4 0.0000 0.0000 0.0000 -23.5006 0.0000 0.0000
# 5 0.0000 0.0000 0.0000 0.0000 -3.5013 0.0000
# 6 0.0000 0.0000 0.0000 0.0000 0.0000 5.8656
#
#
#
# Elastic Compliance Matrix: (Units=1/GPa)
#
#
# Indices 1 2 3 4 5 6 
#
# 1 0.045032 -0.048473 0.005588 0.000000 0.000000 0.000000
# 2 -0.048473 0.094591 -0.027929 0.000000 0.000000 0.000000
# 3 0.005588 -0.027929 0.019358 0.000000 0.000000 0.000000
# 4 0.000000 0.000000 0.000000 -0.042552 0.000000 0.000000
# 5 0.000000 0.000000 0.000000 0.000000 -0.285606 0.000000
# 6 0.000000 0.000000 0.000000 0.000000 0.000000 0.170485
#
#
# Mechanical properties :
#
#
# Convention : Reuss Voigt Hill
#
# Bulk Modulus (GPa) = 57.62394 71.22496 64.42445
# Shear Modulus (GPa) = 33.61984 1.51163 17.56574
#
# Velocity S-wave (km/s) = 4.19734 0.89002 3.03396
# Velocity P-wave (km/s) = 7.32711 6.19515 6.78478
#
# Compressibility (1/GPa) = 0.01735390
#
# Stress axis : x y z
#
# Youngs Moduli (GPa) = 22.20620 10.57184 51.65731
#
# Poissons Ratio (x) = 0.51245 -0.28868
# Poissons Ratio (y) = 1.07640 1.44275
# Poissons Ratio (z) = -0.12410 0.29526
#
# Static dielectric constant tensor:
#      x y z
#    x 1.674020 0.000000 0.000000 
#    y 0.000000 1.634390 0.000000 
#    z 0.000000 0.000000 1.669400 
# 
# From -- ./inp_files/2984.got.cif
#   From: 2010.05.17/outbox.cif.g08.bks.cpg/sg25_2_cif.got.tgz:2984.got - 2010.06.04 01:04:00.
