data_PCOD9337385
_publ_section_title
;
Structure prediction by ZEFSAII (Michael W. Deem and Ramdas Pophale) SiO2 
 PCOD9337385
Probable space group: P M M 2
;
_chemical_formula_sum "Si O2"
_cell_formula_units_Z 32
_cell_length_a 9.514976
_cell_length_b 7.461983
_cell_length_c 21.885331
_cell_angle_alpha 90.000000
_cell_angle_beta 90.000000
_cell_angle_gamma 90.000000
_cell_volume 1553.871395
_symmetry_space_group_name_H-M "P M M 2"
_symmetry_group_IT_number 25
_symmetry_cell_setting 'orthorhombic'
loop_
_space_group_symop_operation_xyz
x,y,z
-x,-y,z
-x,y,z
x,-y,z
loop_
_atom_site_type_symbol
_atom_site_label
_atom_site_fract_x
_atom_site_fract_y
_atom_site_fract_z
Si Si1 0.337181 0.719859 0.042940
Si Si2 0.662937 0.280716 0.776562
Si Si3 0.670960 0.709130 0.910063
Si Si4 0.159398 0.287299 0.157651
Si Si5 0.838473 0.719380 0.658718
Si Si6 0.162606 0.214929 0.290601
Si Si7 0.341583 0.287700 0.543602
Si Si8 0.837662 0.784098 0.423976
O O1 0.500000 0.771401 0.049823
O O2 0.334895 0.500000 0.041613
O O3 0.247993 0.782285 0.100703
O O4 0.284547 0.782118 0.976068
O O5 0.500000 0.228315 0.766968
O O6 0.663390 0.500000 0.778216
O O7 0.711636 0.216965 0.843768
O O8 0.760052 0.224955 0.720653
O O9 0.500000 0.714996 0.910635
O O10 0.712426 0.500000 0.909716
O O11 0.148987 0.500000 0.148788
O O12 0.225758 0.263155 0.225027
O O13 0.000000 0.213659 0.158319
O O14 0.838970 0.500000 0.658304
O O15 0.751652 0.782262 0.599676
O O16 0.000000 0.776891 0.656390
O O17 0.216320 0.276357 0.356883
O O18 0.000000 0.277729 0.288525
O O19 0.161519 0.000000 0.292231
O O20 0.500000 0.214340 0.541716
O O21 0.353356 0.500000 0.554353
O O22 0.260376 0.266033 0.479979
O O23 0.000000 0.722805 0.432236
O O24 0.842544 0.000000 0.422714
#
# Coordination Sequence:
#
# PCOD9337385 Si02
#       8
#     4   4   4   4   4   4   4   4
#     4   8  13  22  35  51  75 108 141 170 204 248
#     4   8  12  19  32  49  71 102 139 175 209 249
#     4   7  10  17  30  47  68 100 140 172 200 244
#     4   9  16  25  39  61  85 107 135 172 209 243
#     4   9  16  25  37  55  81 112 144 178 216 256
#     4   8  15  29  47  64  83 109 139 169 205 254
#     4  10  20  32  46  66  92 121 151 182 218 262
#     4   9  18  33  52  71  89 112 145 184 225 268
#
# _framework density 20.593723000000001
#
# number of rings (size 3 to 8) (size 9 to 14) (size 15 to 20)
#    0.000    3.500    0.000    3.000    0.000    3.000 
#    0.000    2.500    0.000    6.375    0.000    0.000 
#    0.000    1.000    0.000    8.000    0.000    8.875 
#
# Total GULP energy -178266.331902 kJ/mol
# GULP energy per Si atom -5570.822872 kJ/mol
# Density = 2.054685 g / cm^3
# Si number density = 20.593723 Si / 1000 Ang^3
#
#
#
# Elastic Constant Matrix: (Units=GPa)
#
#
# Indices 1 2 3 4 5 6 
#
# 1 99.9939 4.7400 109.2546 0.0000 0.0000 0.0000
# 2 4.7400 58.0316 4.0340 0.0000 0.0000 0.0000
# 3 109.2546 4.0340 262.8140 0.0000 0.0000 0.0000
# 4 0.0000 0.0000 0.0000 68.6682 0.0000 0.0000
# 5 0.0000 0.0000 0.0000 0.0000 35.6608 0.0000
# 6 0.0000 0.0000 0.0000 0.0000 0.0000 -3.5871
#
#
#
# Elastic Compliance Matrix: (Units=1/GPa)
#
#
# Indices 1 2 3 4 5 6 
#
# 1 0.018378 -0.000971 -0.007625 0.000000 0.000000 0.000000
# 2 -0.000971 0.017302 0.000138 0.000000 0.000000 0.000000
# 3 -0.007625 0.000138 0.006973 0.000000 0.000000 0.000000
# 4 0.000000 0.000000 0.000000 0.014563 0.000000 0.000000
# 5 0.000000 0.000000 0.000000 0.000000 0.028042 0.000000
# 6 0.000000 0.000000 0.000000 0.000000 0.000000 -0.278774
#
#
# Mechanical properties :
#
#
# Convention : Reuss Voigt Hill
#
# Bulk Modulus (GPa) = 38.85555 72.98852 55.92204
# Shear Modulus (GPa) = -29.75796 40.33577 5.28891
#
# Velocity S-wave (km/s) = -3.80544 4.43046 1.60430
# Velocity P-wave (km/s) = 0.63236 7.85436 5.53584
#
# Compressibility (1/GPa) = 0.02573635
#
# Stress axis : x y z
#
# Youngs Moduli (GPa) = 54.41374 57.79774 143.41841
#
# Poissons Ratio (x) = 0.05612 1.09355
# Poissons Ratio (y) = 0.05284 -0.01981
# Poissons Ratio (z) = 0.41490 -0.00798
#
# Static dielectric constant tensor:
#      x y z
#    x 1.697150 0.000000 0.000000 
#    y 0.000000 1.793980 0.000000 
#    z 0.000000 0.000000 1.766980 
# 
# From -- ./inp_files/6305.got.cif
#   From: 2010.05.17/outbox.cif.g08.bks.cpg/sg25_4_cif.got.tgz:6305.got - 2010.06.04 01:04:00.
