data_PCOD9337686
_publ_section_title
;
Structure prediction by ZEFSAII (Michael W. Deem and Ramdas Pophale) SiO2 
 PCOD9337686
Probable space group: P M M 2
;
_chemical_formula_sum "Si O2"
_cell_formula_units_Z 32
_cell_length_a 7.415459
_cell_length_b 9.571975
_cell_length_c 21.221184
_cell_angle_alpha 90.000000
_cell_angle_beta 90.000000
_cell_angle_gamma 90.000000
_cell_volume 1506.292122
_symmetry_space_group_name_H-M "P M M 2"
_symmetry_group_IT_number 25
_symmetry_cell_setting 'orthorhombic'
loop_
_space_group_symop_operation_xyz
x,y,z
-x,-y,z
-x,y,z
x,-y,z
loop_
_atom_site_type_symbol
_atom_site_label
_atom_site_fract_x
_atom_site_fract_y
_atom_site_fract_z
Si Si1 0.219700 0.338948 0.488070
Si Si2 0.215402 0.659638 0.007203
Si Si3 0.715764 0.658540 0.865033
Si Si4 0.286203 0.843878 0.750582
Si Si5 0.220353 0.160830 0.368919
Si Si6 0.783203 0.658256 0.629751
Si Si7 0.779503 0.839070 0.125470
Si Si8 0.779943 0.338673 0.247336
O O1 0.272350 0.500000 0.475332
O O2 0.279228 0.234464 0.433638
O O3 0.277864 0.302449 0.559189
O O4 0.000000 0.337158 0.487632
O O5 0.285226 0.500000 0.013169
O O6 0.250073 0.709237 0.936044
O O7 0.000000 0.651601 0.014768
O O8 0.281193 0.762414 0.061604
O O9 0.500000 0.650540 0.857868
O O10 0.786628 0.500000 0.860265
O O11 0.787430 0.755160 0.809289
O O12 0.500000 0.855282 0.761398
O O13 0.265019 0.762015 0.685329
O O14 0.211611 0.000000 0.747078
O O15 0.276374 0.254800 0.309621
O O16 0.000000 0.160144 0.368887
O O17 0.277905 0.000000 0.363764
O O18 0.719855 0.500000 0.643328
O O19 0.000000 0.653542 0.627381
O O20 0.724265 0.746766 0.185436
O O21 0.000000 0.840798 0.125443
O O22 0.721424 0.000000 0.129647
O O23 0.721245 0.500000 0.246889
O O24 0.000000 0.340770 0.247430
#
# Coordination Sequence:
#
# PCOD9337686 Si02
#       8
#     4   4   4   4   4   4   4   4
#     4   8  14  25  39  56  81 112 145 182 224 268
#     4   9  17  29  45  65  88 114 145 181 221 266
#     4   9  18  33  51  68  88 117 151 186 225 269
#     4  10  21  35  50  70  96 124 154 190 233 280
#     4   9  15  21  31  50  77 110 147 183 219 262
#     4   9  18  32  50  71  94 122 157 195 234 278
#     4   9  16  25  37  55  81 111 142 178 220 264
#     4   9  15  22  33  49  73 109 149 184 218 258
#
# _framework density 21.244219000000001
#
# number of rings (size 3 to 8) (size 9 to 14) (size 15 to 20)
#    0.000    3.000    0.000    2.250    0.000    7.000 
#    0.000    2.500    0.000    0.000    0.000    0.000 
#    0.000    1.000    0.000    5.250    0.000    8.500 
#
# Total GULP energy -178664.905318 kJ/mol
# GULP energy per Si atom -5583.278291 kJ/mol
# Density = 2.119587 g / cm^3
# Si number density = 21.244219 Si / 1000 Ang^3
#
#
#
# Elastic Constant Matrix: (Units=GPa)
#
#
# Indices 1 2 3 4 5 6 
#
# 1 68.5909 5.4334 0.8193 0.0000 0.0000 0.0000
# 2 5.4334 194.3451 160.6909 0.0000 0.0000 0.0000
# 3 0.8193 160.6909 221.8700 0.0000 0.0000 0.0000
# 4 0.0000 0.0000 0.0000 -182.7019 0.0000 0.0000
# 5 0.0000 0.0000 0.0000 0.0000 38.2415 0.0000
# 6 0.0000 0.0000 0.0000 0.0000 0.0000 -1.4916
#
#
#
# Elastic Compliance Matrix: (Units=1/GPa)
#
#
# Indices 1 2 3 4 5 6 
#
# 1 0.014644 -0.000909 0.000604 0.000000 0.000000 0.000000
# 2 -0.000909 0.012883 -0.009327 0.000000 0.000000 0.000000
# 3 0.000604 -0.009327 0.011260 0.000000 0.000000 0.000000
# 4 0.000000 0.000000 0.000000 -0.005473 0.000000 0.000000
# 5 0.000000 0.000000 0.000000 0.000000 0.026150 0.000000
# 6 0.000000 0.000000 0.000000 0.000000 0.000000 -0.670442
#
#
# Mechanical properties :
#
#
# Convention : Reuss Voigt Hill
#
# Bulk Modulus (GPa) = 51.22106 90.96590 71.09348
# Shear Modulus (GPa) = -8.54399 -7.99955 -8.27177
#
# Velocity S-wave (km/s) = -2.00762 -1.94260 -1.97538
# Velocity P-wave (km/s) = 4.33462 6.15471 5.32303
#
# Compressibility (1/GPa) = 0.01952322
#
# Stress axis : x y z
#
# Youngs Moduli (GPa) = 68.28739 77.62195 88.80825
#
# Poissons Ratio (x) = 0.07057 -0.05367
# Poissons Ratio (y) = 0.06208 0.82833
# Poissons Ratio (z) = -0.04127 0.72400
#
# Static dielectric constant tensor:
#      x y z
#    x 1.816210 0.000000 0.000000 
#    y 0.000000 1.733930 0.000000 
#    z 0.000000 0.000000 1.728060 
# 
# From -- ./inp_files/6267.got.cif
#   From: 2010.05.17/outbox.cif.g08.bks.cpg/sg25_4_cif.got.tgz:6267.got - 2010.06.04 01:04:00.
