data_PCOD9337486
_publ_section_title
;
Structure prediction by ZEFSAII (Michael W. Deem and Ramdas Pophale) SiO2 
 PCOD9337486
Probable space group: P M M 2
;
_chemical_formula_sum "Si O2"
_cell_formula_units_Z 24
_cell_length_a 7.520127
_cell_length_b 9.673197
_cell_length_c 15.946463
_cell_angle_alpha 90.000000
_cell_angle_beta 90.000000
_cell_angle_gamma 90.000000
_cell_volume 1160.004241
_symmetry_space_group_name_H-M "P M M 2"
_symmetry_group_IT_number 25
_symmetry_cell_setting 'orthorhombic'
loop_
_space_group_symop_operation_xyz
x,y,z
-x,-y,z
-x,y,z
x,-y,z
loop_
_atom_site_type_symbol
_atom_site_label
_atom_site_fract_x
_atom_site_fract_y
_atom_site_fract_z
Si Si1 0.213708 0.656952 0.559240
Si Si2 0.289725 0.342271 0.370559
Si Si3 0.783024 0.159239 0.713057
Si Si4 0.217995 0.340809 0.058691
Si Si5 0.783320 0.840250 0.900979
Si Si6 0.209223 0.843990 0.213167
O O1 0.281361 0.500000 0.565036
O O2 0.253942 0.706954 0.465340
O O3 0.280420 0.748472 0.636066
O O4 0.000000 0.652722 0.566084
O O5 0.500000 0.351101 0.359826
O O6 0.216820 0.500000 0.361808
O O7 0.224055 0.237423 0.300404
O O8 0.727781 0.201769 0.806945
O O9 0.000000 0.162883 0.712601
O O10 0.730974 0.000000 0.701345
O O11 0.275369 0.500000 0.062338
O O12 0.280801 0.252265 0.138564
O O13 0.000000 0.342523 0.059312
O O14 0.274160 0.262144 0.974140
O O15 0.000000 0.840621 0.901604
O O16 0.729099 0.000000 0.915769
O O17 0.000000 0.857494 0.195186
O O18 0.283237 0.000000 0.216222
#
# Coordination Sequence:
#
# PCOD9337486 Si02
#       6
#     4   4   4   4   4   4
#     4   9  17  29  46  68  93 121 154 193 235 279
#     4  10  21  36  52  70  94 125 160 199 244 291
#     4   8  14  24  39  61  90 123 155 187 227 275
#     4   9  16  25  40  64  93 124 156 190 230 278
#     4   8  13  22  36  57  89 124 153 185 228 275
#     4  10  20  33  50  72  97 126 160 198 240 286
#
# _framework density 20.689579999999999
#
# number of rings (size 3 to 8) (size 9 to 14) (size 15 to 20)
#    0.000    3.000    0.000    2.500    0.000    5.333 
#    0.000    5.000    0.000    0.000    0.000    1.167 
#    0.000    4.000    0.000    0.000    0.000    0.000 
#
# Total GULP energy -133912.405904 kJ/mol
# GULP energy per Si atom -5579.683579 kJ/mol
# Density = 2.064249 g / cm^3
# Si number density = 20.689580 Si / 1000 Ang^3
#
#
#
# Elastic Constant Matrix: (Units=GPa)
#
#
# Indices 1 2 3 4 5 6 
#
# 1 52.2875 5.1128 -3.8776 0.0000 0.0000 0.0000
# 2 5.1128 154.5408 144.6665 0.0000 0.0000 0.0000
# 3 -3.8776 144.6665 219.3525 0.0000 0.0000 0.0000
# 4 0.0000 0.0000 0.0000 41.9469 0.0000 0.0000
# 5 0.0000 0.0000 0.0000 0.0000 -46.4787 0.0000
# 6 0.0000 0.0000 0.0000 0.0000 0.0000 -3.8561
#
#
#
# Elastic Compliance Matrix: (Units=1/GPa)
#
#
# Indices 1 2 3 4 5 6 
#
# 1 0.019522 -0.002532 0.002015 0.000000 0.000000 0.000000
# 2 -0.002532 0.017240 -0.011415 0.000000 0.000000 0.000000
# 3 0.002015 -0.011415 0.012123 0.000000 0.000000 0.000000
# 4 0.000000 0.000000 0.000000 0.023840 0.000000 0.000000
# 5 0.000000 0.000000 0.000000 0.000000 -0.021515 0.000000
# 6 0.000000 0.000000 0.000000 0.000000 0.000000 -0.259329
#
#
# Mechanical properties :
#
#
# Convention : Reuss Voigt Hill
#
# Bulk Modulus (GPa) = 39.96643 79.77604 59.87123
# Shear Modulus (GPa) = -28.42273 17.00768 -5.70752
#
# Velocity S-wave (km/s) = -3.71046 2.87024 -1.66272
# Velocity P-wave (km/s) = 1.00121 7.04462 5.03135
#
# Compressibility (1/GPa) = 0.02502100
#
# Stress axis : x y z
#
# Youngs Moduli (GPa) = 51.22400 58.00433 82.48925
#
# Poissons Ratio (x) = 0.14688 -0.16623
# Poissons Ratio (y) = 0.12971 0.94160
# Poissons Ratio (z) = -0.10323 0.66211
#
# Static dielectric constant tensor:
#      x y z
#    x 1.772450 0.000000 0.000000 
#    y 0.000000 1.714970 0.000000 
#    z 0.000000 0.000000 1.713480 
# 
# From -- ./inp_files/5277.got.cif
#   From: 2010.05.17/outbox.cif.g08.bks.cpg/sg25_3_cif.got.tgz:5277.got - 2010.06.04 01:04:00.
