data_PCOD9337380
_publ_section_title
;
Structure prediction by ZEFSAII (Michael W. Deem and Ramdas Pophale) SiO2 
 PCOD9337380
Probable space group: P M M 2
;
_chemical_formula_sum "Si O2"
_cell_formula_units_Z 32
_cell_length_a 9.544462
_cell_length_b 7.464438
_cell_length_c 21.893017
_cell_angle_alpha 90.000000
_cell_angle_beta 90.000000
_cell_angle_gamma 90.000000
_cell_volume 1559.747085
_symmetry_space_group_name_H-M "P M M 2"
_symmetry_group_IT_number 25
_symmetry_cell_setting 'orthorhombic'
loop_
_space_group_symop_operation_xyz
x,y,z
-x,-y,z
-x,y,z
x,-y,z
loop_
_atom_site_type_symbol
_atom_site_label
_atom_site_fract_x
_atom_site_fract_y
_atom_site_fract_z
Si Si1 0.339173 0.286203 0.605600
Si Si2 0.660875 0.785957 0.737078
Si Si3 0.162252 0.718378 0.357165
Si Si4 0.157913 0.288104 0.989547
Si Si5 0.663775 0.718291 0.473114
Si Si6 0.162182 0.718289 0.220929
Si Si7 0.338920 0.280512 0.104160
Si Si8 0.662167 0.215898 0.870446
O O1 0.500000 0.216159 0.608728
O O2 0.347579 0.500000 0.601122
O O3 0.270476 0.251595 0.671445
O O4 0.280840 0.223928 0.540171
O O5 0.500000 0.717318 0.733938
O O6 0.714887 0.723724 0.803150
O O7 0.654492 0.000000 0.740653
O O8 0.167331 0.500000 0.357410
O O9 0.252733 0.782631 0.414179
O O10 0.207275 0.774712 0.289064
O O11 0.000000 0.768812 0.364661
O O12 0.145702 0.500000 0.000798
O O13 0.239408 0.267999 0.926003
O O14 0.000000 0.214436 0.987439
O O15 0.251398 0.217793 0.045386
O O16 0.500000 0.766711 0.469477
O O17 0.669888 0.500000 0.471713
O O18 0.162597 0.500000 0.220604
O O19 0.261313 0.776700 0.166099
O O20 0.000000 0.772170 0.211399
O O21 0.500000 0.223300 0.101461
O O22 0.339537 0.500000 0.103877
O O23 0.500000 0.276163 0.878591
O O24 0.658420 0.000000 0.870076
#
# Coordination Sequence:
#
# PCOD9337380 Si02
#       8
#     4   4   4   4   4   4   4   4
#     4   8  13  21  34  54  79 106 136 169 206 248
#     4   8  14  25  41  61  84 108 135 170 211 253
#     4   8  13  20  30  45  68 101 137 168 201 244
#     4  10  20  32  46  65  90 120 151 182 218 263
#     4   8  13  20  30  46  70  99 130 164 200 239
#     4   8  13  21  32  47  71 104 138 169 204 250
#     4   9  16  25  38  57  81 109 141 177 216 256
#     4   9  18  32  49  69  91 114 144 184 226 266
#
# _framework density 20.516148000000001
#
# number of rings (size 3 to 8) (size 9 to 14) (size 15 to 20)
#    0.000    3.500    0.000    3.000    0.000    3.500 
#    0.000    3.750    0.000    0.750    0.000    1.750 
#    0.000    1.000    0.000    9.250    0.000   11.250 
#
# Total GULP energy -178246.236327 kJ/mol
# GULP energy per Si atom -5570.194885 kJ/mol
# Density = 2.046945 g / cm^3
# Si number density = 20.516148 Si / 1000 Ang^3
#
#
#
# Elastic Constant Matrix: (Units=GPa)
#
#
# Indices 1 2 3 4 5 6 
#
# 1 95.5648 4.5183 113.1457 0.0000 0.0000 0.0000
# 2 4.5183 56.8870 3.9892 0.0000 0.0000 0.0000
# 3 113.1457 3.9892 264.9713 0.0000 0.0000 0.0000
# 4 0.0000 0.0000 0.0000 66.5274 0.0000 0.0000
# 5 0.0000 0.0000 0.0000 0.0000 -25.9501 0.0000
# 6 0.0000 0.0000 0.0000 0.0000 0.0000 -2.0890
#
#
#
# Elastic Compliance Matrix: (Units=1/GPa)
#
#
# Indices 1 2 3 4 5 6 
#
# 1 0.021227 -0.001051 -0.009048 0.000000 0.000000 0.000000
# 2 -0.001051 0.017649 0.000183 0.000000 0.000000 0.000000
# 3 -0.009048 0.000183 0.007635 0.000000 0.000000 0.000000
# 4 0.000000 0.000000 0.000000 0.015031 0.000000 0.000000
# 5 0.000000 0.000000 0.000000 0.000000 -0.038535 0.000000
# 6 0.000000 0.000000 0.000000 0.000000 0.000000 -0.478707
#
#
# Mechanical properties :
#
#
# Convention : Reuss Voigt Hill
#
# Bulk Modulus (GPa) = 37.48386 73.41439 55.44912
# Shear Modulus (GPa) = -11.71030 27.41565 7.85267
#
# Velocity S-wave (km/s) = -2.39170 3.65950 1.95854
# Velocity P-wave (km/s) = 3.26850 7.32921 5.67452
#
# Compressibility (1/GPa) = 0.02667815
#
# Stress axis : x y z
#
# Youngs Moduli (GPa) = 47.11089 56.65929 130.97772
#
# Poissons Ratio (x) = 0.05957 1.18510
# Poissons Ratio (y) = 0.04953 -0.02400
# Poissons Ratio (z) = 0.42627 -0.01038
#
# Static dielectric constant tensor:
#      x y z
#    x 1.686360 0.000000 0.000000 
#    y 0.000000 1.791150 0.000000 
#    z 0.000000 0.000000 1.769320 
# 
# From -- ./inp_files/6579.got.cif
#   From: 2010.05.17/outbox.cif.g08.bks.cpg/sg25_4_cif.got.tgz:6579.got - 2010.06.04 01:04:00.
