data_PCOD9337804
_publ_section_title
;
Structure prediction by ZEFSAII (Michael W. Deem and Ramdas Pophale) SiO2 
 PCOD9337804
Probable space group: P M M 2
;
_chemical_formula_sum "Si O2"
_cell_formula_units_Z 32
_cell_length_a 13.236600
_cell_length_b 7.470150
_cell_length_c 13.075522
_cell_angle_alpha 90.000000
_cell_angle_beta 90.000000
_cell_angle_gamma 90.000000
_cell_volume 1292.899606
_symmetry_space_group_name_H-M "P M M 2"
_symmetry_group_IT_number 25
_symmetry_cell_setting 'orthorhombic'
loop_
_space_group_symop_operation_xyz
x,y,z
-x,-y,z
-x,y,z
x,-y,z
loop_
_atom_site_type_symbol
_atom_site_label
_atom_site_fract_x
_atom_site_fract_y
_atom_site_fract_z
Si Si1 0.670896 0.782054 0.290090
Si Si2 0.108978 0.202739 0.020842
Si Si3 0.108410 0.782086 0.354244
Si Si4 0.669389 0.219013 0.070125
Si Si5 0.391123 0.216798 0.846356
Si Si6 0.827911 0.784853 0.578254
Si Si7 0.391321 0.781354 0.514584
Si Si8 0.836449 0.300119 0.802064
O O1 0.788567 0.727024 0.299531
O O2 0.629208 0.724500 0.180486
O O3 0.618465 0.727877 0.395342
O O4 0.667855 0.000000 0.291090
O O5 0.122389 0.190265 0.897700
O O6 0.000000 0.284965 0.043702
O O7 0.107002 0.000000 0.062726
O O8 0.214256 0.281511 0.059376
O O9 0.118525 0.727572 0.473591
O O10 0.000000 0.722861 0.312943
O O11 0.109253 0.000000 0.352258
O O12 0.669319 0.000000 0.068576
O O13 0.614624 0.270573 0.965971
O O14 0.500000 0.274873 0.804404
O O15 0.285408 0.278842 0.799836
O O16 0.388485 0.000000 0.839678
O O17 0.711374 0.721900 0.568581
O O18 0.872724 0.735121 0.687465
O O19 0.826639 0.000000 0.575679
O O20 0.500000 0.722955 0.554976
O O21 0.390041 0.000000 0.518569
O O22 0.863058 0.500000 0.830939
#
# Coordination Sequence:
#
# PCOD9337804 Si02
#       8
#     4   4   4   4   4   4   4   4
#     4   8  13  21  36  63  98 125 145 178 225 275
#     4   9  18  33  51  70  95 128 163 196 232 280
#     4   8  14  24  39  62  92 123 152 184 225 272
#     4   8  14  25  42  67  96 123 153 190 232 275
#     4   9  18  33  51  70  95 128 163 196 232 280
#     4   9  17  30  46  64  88 119 157 195 230 277
#     4   8  14  24  39  62  92 123 152 184 225 272
#     4  11  22  34  49  70  96 123 155 201 249 289
#
# _framework density 24.750568999999999
#
# number of rings (size 3 to 8) (size 9 to 14) (size 15 to 20)
#    0.000    3.250    0.000    3.375    0.000    2.500 
#    0.000    7.500    0.000    0.000    0.000   14.000 
#    0.000    0.000    0.000    0.000    0.000    0.000 
#
# Total GULP energy -178634.268737 kJ/mol
# GULP energy per Si atom -5582.320898 kJ/mol
# Density = 2.469424 g / cm^3
# Si number density = 24.750569 Si / 1000 Ang^3
#
#
#
# Elastic Constant Matrix: (Units=GPa)
#
#
# Indices 1 2 3 4 5 6 
#
# 1 117.0307 -2.6931 -6.8096 0.0000 0.0000 0.0000
# 2 -2.6931 73.3533 -6.3573 0.0000 0.0000 0.0000
# 3 -6.8096 -6.3573 117.0952 0.0000 0.0000 0.0000
# 4 0.0000 0.0000 0.0000 145.2918 0.0000 0.0000
# 5 0.0000 0.0000 0.0000 0.0000 -15.6087 0.0000
# 6 0.0000 0.0000 0.0000 0.0000 0.0000 352.2516
#
#
#
# Elastic Compliance Matrix: (Units=1/GPa)
#
#
# Indices 1 2 3 4 5 6 
#
# 1 0.008583 0.000360 0.000519 0.000000 0.000000 0.000000
# 2 0.000360 0.013712 0.000765 0.000000 0.000000 0.000000
# 3 0.000519 0.000765 0.008612 0.000000 0.000000 0.000000
# 4 0.000000 0.000000 0.000000 0.006883 0.000000 0.000000
# 5 0.000000 0.000000 0.000000 0.000000 -0.064067 0.000000
# 6 0.000000 0.000000 0.000000 0.000000 0.000000 0.002839
#
#
# Mechanical properties :
#
#
# Convention : Reuss Voigt Hill
#
# Bulk Modulus (GPa) = 29.24352 30.63989 29.94171
# Shear Modulus (GPa) = -326.20654 117.94288 -104.13183
#
# Velocity S-wave (km/s) = -11.49277 6.91057 -6.49337
# Velocity P-wave (km/s) = 12.81681 8.72245 6.64039
#
# Compressibility (1/GPa) = 0.03419561
#
# Stress axis : x y z
#
# Youngs Moduli (GPa) = 116.50620 72.92769 116.12001
#
# Poissons Ratio (x) = -0.02626 -0.06023
# Poissons Ratio (y) = -0.04195 -0.08888
# Poissons Ratio (z) = -0.06043 -0.05582
#
# Static dielectric constant tensor:
#      x y z
#    x 1.949520 0.000000 0.000000 
#    y 0.000000 1.981580 0.000000 
#    z 0.000000 0.000000 1.933470 
# 
# From -- ./inp_files/5941.got.cif
#   From: 2010.05.17/outbox.cif.g08.bks.cpg/sg25_3_cif.got.tgz:5941.got - 2010.06.04 01:04:00.
