data_PCOD9337463
_publ_section_title
;
Structure prediction by ZEFSAII (Michael W. Deem and Ramdas Pophale) SiO2 
 PCOD9337463
Probable space group: P M M 2
;
_chemical_formula_sum "Si O2"
_cell_formula_units_Z 32
_cell_length_a 9.341279
_cell_length_b 7.420968
_cell_length_c 21.582303
_cell_angle_alpha 90.000000
_cell_angle_beta 90.000000
_cell_angle_gamma 90.000000
_cell_volume 1496.114003
_symmetry_space_group_name_H-M "P M M 2"
_symmetry_group_IT_number 25
_symmetry_cell_setting 'orthorhombic'
loop_
_space_group_symop_operation_xyz
x,y,z
-x,-y,z
-x,y,z
x,-y,z
loop_
_atom_site_type_symbol
_atom_site_label
_atom_site_fract_x
_atom_site_fract_y
_atom_site_fract_z
Si Si1 0.162315 0.215302 0.956220
Si Si2 0.664525 0.779498 0.590627
Si Si3 0.163294 0.786572 0.471379
Si Si4 0.834696 0.716067 0.335844
Si Si5 0.662030 0.716031 0.080817
Si Si6 0.167250 0.719872 0.200671
Si Si7 0.835134 0.219888 0.713139
Si Si8 0.665022 0.220337 0.835853
O O1 0.252713 0.281918 0.897473
O O2 0.000000 0.285752 0.957863
O O3 0.152967 0.000000 0.948708
O O4 0.244673 0.247835 0.020097
O O5 0.500000 0.722072 0.594233
O O6 0.741105 0.717400 0.527592
O O7 0.754382 0.723653 0.650751
O O8 0.663877 0.000000 0.590412
O O9 0.228278 0.763245 0.402617
O O10 0.000000 0.712880 0.472248
O O11 0.151236 0.000000 0.481074
O O12 0.837175 0.500000 0.333705
O O13 0.777605 0.776572 0.268926
O O14 0.000000 0.780331 0.337956
O O15 0.500000 0.784443 0.074300
O O16 0.654032 0.500000 0.086825
O O17 0.740359 0.783730 0.142772
O O18 0.168838 0.500000 0.199711
O O19 0.000000 0.771854 0.194577
O O20 0.749306 0.276393 0.774267
O O21 0.000000 0.278061 0.714316
O O22 0.835883 0.000000 0.713216
O O23 0.500000 0.277736 0.835355
O O24 0.664399 0.000000 0.836171
#
# Coordination Sequence:
#
# PCOD9337463 Si02
#       8
#     4   4   4   4   4   4   4   4
#     4  10  20  33  49  70  96 126 159 194 233 277
#     4   9  16  25  37  55  82 115 147 179 219 266
#     4   9  16  26  41  62  87 113 142 179 221 262
#     4   8  14  26  45  66  86 112 147 183 219 262
#     4  10  20  33  50  72  96 123 156 193 234 280
#     4   8  14  27  47  67  87 114 149 188 227 267
#     4   9  15  23  37  58  84 114 150 189 223 259
#     4   9  16  26  41  62  90 122 152 185 228 274
#
# _framework density 21.388745
#
# number of rings (size 3 to 8) (size 9 to 14) (size 15 to 20)
#    0.000    3.000    0.000    2.625    0.000    6.000 
#    0.000    1.250    0.000    3.375    0.000    0.875 
#    0.000    5.000    0.000    0.000    0.000    0.000 
#
# Total GULP energy -178599.480619 kJ/mol
# GULP energy per Si atom -5581.233769 kJ/mol
# Density = 2.134006 g / cm^3
# Si number density = 21.388745 Si / 1000 Ang^3
#
#
#
# Elastic Constant Matrix: (Units=GPa)
#
#
# Indices 1 2 3 4 5 6 
#
# 1 185.2187 6.2156 140.7185 0.0000 0.0000 0.0000
# 2 6.2156 67.8204 1.9143 0.0000 0.0000 0.0000
# 3 140.7185 1.9143 263.0227 0.0000 0.0000 0.0000
# 4 0.0000 0.0000 0.0000 21.7568 0.0000 0.0000
# 5 0.0000 0.0000 0.0000 0.0000 319.9871 0.0000
# 6 0.0000 0.0000 0.0000 0.0000 0.0000 -0.7560
#
#
#
# Elastic Compliance Matrix: (Units=1/GPa)
#
#
# Indices 1 2 3 4 5 6 
#
# 1 0.009129 -0.000699 -0.004879 0.000000 0.000000 0.000000
# 2 -0.000699 0.014801 0.000266 0.000000 0.000000 0.000000
# 3 -0.004879 0.000266 0.006410 0.000000 0.000000 0.000000
# 4 0.000000 0.000000 0.000000 0.045963 0.000000 0.000000
# 5 0.000000 0.000000 0.000000 0.000000 0.003125 0.000000
# 6 0.000000 0.000000 0.000000 0.000000 0.000000 -1.322749
#
#
# Mechanical properties :
#
#
# Convention : Reuss Voigt Hill
#
# Bulk Modulus (GPa) = 50.71685 90.41761 70.56723
# Shear Modulus (GPa) = -4.07789 92.67846 44.30029
#
# Velocity S-wave (km/s) = -1.38228 6.58973 4.55598
# Velocity P-wave (km/s) = 4.60606 10.01322 7.79360
#
# Compressibility (1/GPa) = 0.01971731
#
# Stress axis : x y z
#
# Youngs Moduli (GPa) = 109.53611 67.56132 155.99630
#
# Poissons Ratio (x) = 0.04722 0.76114
# Poissons Ratio (y) = 0.07656 -0.04153
# Poissons Ratio (z) = 0.53445 -0.01799
#
# Static dielectric constant tensor:
#      x y z
#    x 1.692710 0.000000 0.000000 
#    y 0.000000 1.844050 0.000000 
#    z 0.000000 0.000000 1.754800 
# 
# From -- ./inp_files/6261.got.cif
#   From: 2010.05.17/outbox.cif.g08.bks.cpg/sg25_4_cif.got.tgz:6261.got - 2010.06.04 01:04:00.
