data_PCOD9337514
_publ_section_title
;
Structure prediction by ZEFSAII (Michael W. Deem and Ramdas Pophale) SiO2 
 PCOD9337514
Probable space group: P M M 2
;
_chemical_formula_sum "Si O2"
_cell_formula_units_Z 32
_cell_length_a 7.506636
_cell_length_b 15.286141
_cell_length_c 12.678931
_cell_angle_alpha 90.000000
_cell_angle_beta 90.000000
_cell_angle_gamma 90.000000
_cell_volume 1454.875588
_symmetry_space_group_name_H-M "P M M 2"
_symmetry_group_IT_number 25
_symmetry_cell_setting 'orthorhombic'
loop_
_space_group_symop_operation_xyz
x,y,z
-x,-y,z
-x,y,z
x,-y,z
loop_
_atom_site_type_symbol
_atom_site_label
_atom_site_fract_x
_atom_site_fract_y
_atom_site_fract_z
Si Si1 0.715666 0.094673 0.505540
Si Si2 0.793165 0.370216 0.661175
Si Si3 0.289906 0.206458 0.948814
Si Si4 0.215268 0.404538 0.896252
Si Si5 0.284550 0.174366 0.715550
Si Si6 0.795305 0.771733 0.329250
Si Si7 0.792365 0.099262 0.154948
Si Si8 0.781813 0.595645 0.426240
O O1 0.500000 0.100599 0.499816
O O2 0.766244 0.103841 0.628265
O O3 0.792340 0.172312 0.436403
O O4 0.770261 0.000000 0.463358
O O5 0.718664 0.400472 0.774247
O O6 0.778499 0.266102 0.667959
O O7 0.719107 0.398013 0.548108
O O8 0.000000 0.397159 0.661356
O O9 0.500000 0.190981 0.951336
O O10 0.264568 0.312190 0.950341
O O11 0.219593 0.172137 0.835633
O O12 0.214486 0.150936 0.044833
O O13 0.270128 0.500000 0.940421
O O14 0.000000 0.403685 0.893697
O O15 0.500000 0.175962 0.720353
O O16 0.710859 0.835202 0.241892
O O17 0.716720 0.677344 0.357715
O O18 0.000000 0.755116 0.296326
O O19 0.000000 0.089888 0.184089
O O20 0.718776 0.000000 0.149982
O O21 0.735779 0.500000 0.384288
O O22 0.000000 0.601922 0.430247
#
# Coordination Sequence:
#
# PCOD9337514 Si02
#       8
#     4   4   4   4   4   4   4   4
#     4  10  20  33  51  76 107 141 173 212 269 332
#     4   9  15  26  47  75 107 143 182 217 252 303
#     4  10  21  36  56  81 108 141 184 232 276 324
#     4   9  17  30  51  80 114 151 186 220 264 319
#     4   9  18  32  49  73 108 143 173 212 267 321
#     4  10  20  36  57  80 107 139 177 224 271 316
#     4  10  22  40  59  78 103 137 180 233 286 334
#     4   9  16  27  48  79 110 139 173 212 257 309
#
# _framework density 21.995007000000001
#
# number of rings (size 3 to 8) (size 9 to 14) (size 15 to 20)
#    0.000    2.500    1.250    1.125    0.000    4.250 
#    0.000    1.875    0.000    4.500    0.000    0.000 
#    0.000    0.000    0.000    0.000    0.000    0.000 
#
# Total GULP energy -178463.600914 kJ/mol
# GULP energy per Si atom -5576.987529 kJ/mol
# Density = 2.194495 g / cm^3
# Si number density = 21.995007 Si / 1000 Ang^3
#
#
#
# Elastic Constant Matrix: (Units=GPa)
#
#
# Indices 1 2 3 4 5 6 
#
# 1 59.1214 -1.3583 -1.0186 0.0000 0.0000 0.0000
# 2 -1.3583 179.6077 72.3941 0.0000 0.0000 0.0000
# 3 -1.0186 72.3941 103.1113 0.0000 0.0000 0.0000
# 4 0.0000 0.0000 0.0000 6.5452 0.0000 0.0000
# 5 0.0000 0.0000 0.0000 0.0000 8.2357 0.0000
# 6 0.0000 0.0000 0.0000 0.0000 0.0000 46.9444
#
#
#
# Elastic Compliance Matrix: (Units=1/GPa)
#
#
# Indices 1 2 3 4 5 6 
#
# 1 0.016918 0.000084 0.000108 0.000000 0.000000 0.000000
# 2 0.000084 0.007766 -0.005451 0.000000 0.000000 0.000000
# 3 0.000108 -0.005451 0.013527 0.000000 0.000000 0.000000
# 4 0.000000 0.000000 0.000000 0.152784 0.000000 0.000000
# 5 0.000000 0.000000 0.000000 0.000000 0.121423 0.000000
# 6 0.000000 0.000000 0.000000 0.000000 0.000000 0.021302
#
#
# Mechanical properties :
#
#
# Convention : Reuss Voigt Hill
#
# Bulk Modulus (GPa) = 36.11110 53.54164 44.82637
# Shear Modulus (GPa) = 14.14555 30.46661 22.30608
#
# Velocity S-wave (km/s) = 2.53874 3.72581 3.18802
# Velocity P-wave (km/s) = 5.00471 6.55014 5.82887
#
# Compressibility (1/GPa) = 0.02769232
#
# Stress axis : x y z
#
# Youngs Moduli (GPa) = 59.10815 128.77307 73.92782
#
# Poissons Ratio (x) = -0.01088 -0.00797
# Poissons Ratio (y) = -0.00499 0.40301
# Poissons Ratio (z) = -0.00637 0.70199
#
# Static dielectric constant tensor:
#      x y z
#    x 1.831710 0.000000 0.000000 
#    y 0.000000 1.807440 0.000000 
#    z 0.000000 0.000000 1.805610 
# 
# From -- ./inp_files/4246.got.cif
#   From: 2010.05.17/outbox.cif.g08.bks.cpg/sg25_3_cif.got.tgz:4246.got - 2010.06.04 01:04:00.
