data_PCOD9337708
_publ_section_title
;
Structure prediction by ZEFSAII (Michael W. Deem and Ramdas Pophale) SiO2 
 PCOD9337708
Probable space group: P M M 2
;
_chemical_formula_sum "Si O2"
_cell_formula_units_Z 28
_cell_length_a 9.776479
_cell_length_b 8.697944
_cell_length_c 18.502691
_cell_angle_alpha 90.000000
_cell_angle_beta 90.000000
_cell_angle_gamma 90.000000
_cell_volume 1573.381267
_symmetry_space_group_name_H-M "P M M 2"
_symmetry_group_IT_number 25
_symmetry_cell_setting 'orthorhombic'
loop_
_space_group_symop_operation_xyz
x,y,z
-x,-y,z
-x,y,z
x,-y,z
loop_
_atom_site_type_symbol
_atom_site_label
_atom_site_fract_x
_atom_site_fract_y
_atom_site_fract_z
Si Si1 0.657307 0.812583 0.613610
Si Si2 0.159395 0.816124 0.167507
Si Si3 0.339366 0.815311 0.449863
Si Si4 0.340852 0.316161 0.039059
Si Si5 0.157581 0.187929 0.747116
Si Si6 0.658723 0.814441 0.882710
Si Si7 0.841112 0.316512 0.321774
O O1 0.500000 0.765538 0.628203
O O2 0.695439 0.766146 0.531995
O O3 0.760949 0.761356 0.675542
O O4 0.656939 0.000000 0.614050
O O5 0.248539 0.750180 0.102604
O O6 0.206021 0.754941 0.245678
O O7 0.000000 0.769780 0.158877
O O8 0.166351 0.000000 0.167101
O O9 0.500000 0.781150 0.438833
O O10 0.248104 0.739485 0.388737
O O11 0.323358 0.000000 0.446035
O O12 0.500000 0.271753 0.050323
O O13 0.332302 0.500000 0.038769
O O14 0.300673 0.252816 0.960271
O O15 0.242344 0.235322 0.818002
O O16 0.000000 0.237873 0.748226
O O17 0.157603 0.000000 0.746554
O O18 0.500000 0.771096 0.868219
O O19 0.663422 0.000000 0.886779
O O20 0.835259 0.500000 0.316166
O O21 0.000000 0.270154 0.332174
#
# Coordination Sequence:
#
# PCOD9337708 Si02
#       7
#     4   4   4   4   4   4   4
#     4   8  14  26  44  67  97 130 162 200 249 300
#     4  10  21  37  57  79 102 131 168 208 251 300
#     4   9  18  32  51  76 103 132 170 214 256 299
#     4  10  21  36  54  77 104 134 169 208 251 300
#     4   9  16  25  41  69 100 127 161 206 251 294
#     4   9  17  30  48  69  96 131 167 204 249 298
#     4  10  21  36  53  74 102 136 171 206 249 302
#
# _framework density 17.796068000000002
#
# number of rings (size 3 to 8) (size 9 to 14) (size 15 to 20)
#    0.000    2.714    0.000    2.571    0.000    6.286 
#    0.000    2.857    0.000    0.857    0.000    2.000 
#    0.000    0.000    0.000    0.000    0.000    0.000 
#
# Total GULP energy -156182.591702 kJ/mol
# GULP energy per Si atom -5577.949704 kJ/mol
# Density = 1.775556 g / cm^3
# Si number density = 17.796068 Si / 1000 Ang^3
#
#
#
# Elastic Constant Matrix: (Units=GPa)
#
#
# Indices 1 2 3 4 5 6 
#
# 1 98.7419 27.9248 118.2411 0.0000 0.0000 0.0000
# 2 27.9248 13.9070 37.7880 0.0000 0.0000 0.0000
# 3 118.2411 37.7880 202.0403 0.0000 0.0000 0.0000
# 4 0.0000 0.0000 0.0000 -20.5541 0.0000 0.0000
# 5 0.0000 0.0000 0.0000 0.0000 771.3964 0.0000
# 6 0.0000 0.0000 0.0000 0.0000 0.0000 19.4035
#
#
#
# Elastic Compliance Matrix: (Units=1/GPa)
#
#
# Indices 1 2 3 4 5 6 
#
# 1 0.040638 -0.034521 -0.017326 0.000000 0.000000 0.000000
# 2 -0.034521 0.175536 -0.012628 0.000000 0.000000 0.000000
# 3 -0.017326 -0.012628 0.017451 0.000000 0.000000 0.000000
# 4 0.000000 0.000000 0.000000 -0.048652 0.000000 0.000000
# 5 0.000000 0.000000 0.000000 0.000000 0.001296 0.000000
# 6 0.000000 0.000000 0.000000 0.000000 0.000000 0.051537
#
#
# Mechanical properties :
#
#
# Convention : Reuss Voigt Hill
#
# Bulk Modulus (GPa) = 9.55341 75.84413 42.69877
# Shear Modulus (GPa) = 12.44870 162.76483 87.60677
#
# Velocity S-wave (km/s) = 2.64771 9.57391 7.02389
# Velocity P-wave (km/s) = 3.83759 12.84227 9.47763
#
# Compressibility (1/GPa) = 0.10467467
#
# Stress axis : x y z
#
# Youngs Moduli (GPa) = 24.60756 5.69684 57.30259
#
# Poissons Ratio (x) = 0.19666 0.99284
# Poissons Ratio (y) = 0.84948 0.72361
# Poissons Ratio (z) = 0.42636 0.07194
#
# Static dielectric constant tensor:
#      x y z
#    x 1.598110 0.000000 0.000000 
#    y 0.000000 1.594190 0.000000 
#    z 0.000000 0.000000 1.584070 
# 
# From -- ./inp_files/6039.got.cif
#   From: 2010.05.17/outbox.cif.g08.bks.cpg/sg25_4_cif.got.tgz:6039.got - 2010.06.04 01:04:00.
