data_PCOD9337298
_publ_section_title
;
Structure prediction by ZEFSAII (Michael W. Deem and Ramdas Pophale) SiO2 
 PCOD9337298
Probable space group: P M M 2
;
_chemical_formula_sum "Si O2"
_cell_formula_units_Z 32
_cell_length_a 14.176098
_cell_length_b 14.096824
_cell_length_c 9.093477
_cell_angle_alpha 90.000000
_cell_angle_beta 90.000000
_cell_angle_gamma 90.000000
_cell_volume 1817.221879
_symmetry_space_group_name_H-M "P M M 2"
_symmetry_group_IT_number 25
_symmetry_cell_setting 'orthorhombic'
loop_
_space_group_symop_operation_xyz
x,y,z
-x,-y,z
-x,y,z
x,-y,z
loop_
_atom_site_type_symbol
_atom_site_label
_atom_site_fract_x
_atom_site_fract_y
_atom_site_fract_z
Si Si1 0.394877 0.271232 0.413020
Si Si2 0.654178 0.606683 0.682493
Si Si3 0.748932 0.612174 0.225804
Si Si4 0.257446 0.272010 0.936219
Si Si5 0.144340 0.604720 0.518752
Si Si6 0.283367 0.891083 0.562886
Si Si7 0.389244 0.889744 0.876815
Si Si8 0.893517 0.788572 0.696262
O O1 0.500000 0.243218 0.367427
O O2 0.400824 0.328548 0.567271
O O3 0.343898 0.340588 0.298003
O O4 0.327536 0.181884 0.446698
O O5 0.617352 0.500000 0.703218
O O6 0.677062 0.661469 0.832176
O O7 0.754885 0.599109 0.600652
O O8 0.735029 0.500000 0.200812
O O9 0.830807 0.622009 0.348472
O O10 0.770443 0.668464 0.078007
O O11 0.322507 0.180510 0.968376
O O12 0.165936 0.240319 0.841963
O O13 0.101517 0.500000 0.534989
O O14 0.098687 0.694148 0.596497
O O15 0.348481 0.882907 0.709915
O O16 0.178471 0.858589 0.611079
O O17 0.284507 0.000000 0.514887
O O18 0.500000 0.864373 0.880359
O O19 0.380143 0.000000 0.920891
O O20 0.000000 0.823763 0.724366
#
# Coordination Sequence:
#
# PCOD9337298 Si02
#       8
#     4   4   4   4   4   4   4   4
#     4  11  20  34  54  79 109 147 190 229 273 327
#     4   9  16  29  49  73 102 136 179 226 269 318
#     4  10  20  35  54  75 113 157 185 217 268 328
#     4  10  19  33  52  80 111 146 180 227 275 324
#     4   8  15  31  52  74 102 140 178 215 266 321
#     4  10  19  34  56  83 108 136 178 232 287 329
#     4   9  17  31  52  76 104 139 179 224 274 325
#     4  10  19  35  58  85 110 137 181 234 283 328
#
# _framework density 17.609297999999999
#
# number of rings (size 3 to 8) (size 9 to 14) (size 15 to 20)
#    0.000    2.375    5.000    1.875    0.000    3.250 
#    0.000    1.250    0.000    3.000    0.000    0.000 
#    0.000    0.000    0.000    0.000    0.000    0.000 
#
# Total GULP energy -178232.522623 kJ/mol
# GULP energy per Si atom -5569.766332 kJ/mol
# Density = 1.756922 g / cm^3
# Si number density = 17.609298 Si / 1000 Ang^3
#
#
#
# Elastic Constant Matrix: (Units=GPa)
#
#
# Indices 1 2 3 4 5 6 
#
# 1 119.0495 44.8814 13.4535 0.0000 0.0000 0.0000
# 2 44.8814 106.6884 18.2980 0.0000 0.0000 0.0000
# 3 13.4535 18.2980 39.5642 0.0000 0.0000 0.0000
# 4 0.0000 0.0000 0.0000 22.4180 0.0000 0.0000
# 5 0.0000 0.0000 0.0000 0.0000 4.9162 0.0000
# 6 0.0000 0.0000 0.0000 0.0000 0.0000 -5.5710
#
#
#
# Elastic Compliance Matrix: (Units=1/GPa)
#
#
# Indices 1 2 3 4 5 6 
#
# 1 0.010075 -0.003965 -0.001592 0.000000 0.000000 0.000000
# 2 -0.003965 0.011741 -0.004082 0.000000 0.000000 0.000000
# 3 -0.001592 -0.004082 0.027704 0.000000 0.000000 0.000000
# 4 0.000000 0.000000 0.000000 0.044607 0.000000 0.000000
# 5 0.000000 0.000000 0.000000 0.000000 0.203409 0.000000
# 6 0.000000 0.000000 0.000000 0.000000 0.000000 -0.179501
#
#
# Mechanical properties :
#
#
# Convention : Reuss Voigt Hill
#
# Bulk Modulus (GPa) = 33.06615 46.50754 39.78684
# Shear Modulus (GPa) = 33.92272 16.93060 25.42666
#
# Velocity S-wave (km/s) = 4.39385 3.10410 3.80404
# Velocity P-wave (km/s) = 6.67530 6.27020 6.47592
#
# Compressibility (1/GPa) = 0.03024241
#
# Stress axis : x y z
#
# Youngs Moduli (GPa) = 99.25941 85.17011 36.09522
#
# Poissons Ratio (x) = 0.33771 0.05746
# Poissons Ratio (y) = 0.39358 0.14734
# Poissons Ratio (z) = 0.15802 0.34765
#
# Static dielectric constant tensor:
#      x y z
#    x 1.626150 0.000000 0.000000 
#    y 0.000000 1.625280 0.000000 
#    z 0.000000 0.000000 1.595950 
# 
# From -- ./inp_files/3281.got.cif
#   From: 2010.05.17/outbox.cif.g08.bks.cpg/sg25_2_cif.got.tgz:3281.got - 2010.06.04 01:04:00.
