data_PCOD9337995
_publ_section_title
;
Structure prediction by ZEFSAII (Michael W. Deem and Ramdas Pophale) SiO2 
 PCOD9337995
Probable space group: P M C 21
;
_chemical_formula_sum "Si O2"
_cell_formula_units_Z 32
_cell_length_a 13.833975
_cell_length_b 14.415756
_cell_length_c 8.104320
_cell_angle_alpha 90.000000
_cell_angle_beta 90.000000
_cell_angle_gamma 90.000000
_cell_volume 1616.221911
_symmetry_space_group_name_H-M "P M C 21"
_symmetry_group_IT_number 26
_symmetry_cell_setting 'orthorhombic'
loop_
_space_group_symop_operation_xyz
x,y,z
-x,-y,1/2+z
-x,y,z
x,-y,1/2+z
loop_
_atom_site_type_symbol
_atom_site_label
_atom_site_fract_x
_atom_site_fract_y
_atom_site_fract_z
Si Si1 0.882959 0.355359 0.529380
Si Si2 0.392975 0.100514 0.767206
Si Si3 0.888609 0.296328 0.003879
Si Si4 0.805883 0.187102 0.704670
Si Si5 0.815327 0.858378 0.718741
Si Si6 0.392500 0.114469 0.164327
Si Si7 0.884165 0.531992 0.714051
Si Si8 0.887072 0.972512 0.410240
O O1 0.841388 0.253748 0.559638
O O2 0.854612 0.427526 0.674987
O O3 0.846933 0.409995 0.368527
O O4 0.000000 0.348492 0.525669
O O5 0.500000 0.129643 0.710225
O O6 0.303681 0.153955 0.688012
O O7 0.388376 0.113400 0.964999
O O8 0.383491 0.991563 0.727016
O O9 0.820309 0.251944 0.867100
O O10 0.000000 0.289371 0.945737
O O11 0.877211 0.230793 0.165934
O O12 0.868423 0.400949 0.057132
O O13 0.868688 0.096717 0.754696
O O14 0.702302 0.834697 0.732182
O O15 0.827386 0.926009 0.557859
O O16 0.852467 0.924987 0.863250
O O17 0.500000 0.147950 0.212534
O O18 0.000000 0.527444 0.736741
O O19 0.000000 0.971150 0.452169
#
# Coordination Sequence:
#
# PCOD9337995 Si02
#       8
#     4   4   4   4   4   4   4   4
#     4  10  19  33  53  77 104 134 167 207 252 300
#     4  10  20  35  54  75  99 133 175 221 264 301
#     4  10  19  32  48  70 103 139 174 209 247 300
#     4  11  19  32  49  73 101 134 169 209 257 307
#     4  11  19  33  46  69  97 138 173 208 255 297
#     4  10  18  34  53  72  97 130 175 224 262 298
#     4   9  19  34  52  76 103 134 172 210 248 293
#     4  11  21  31  44  66 102 140 174 202 242 304
#
# _framework density 19.799263
#
# number of rings (size 3 to 8) (size 9 to 14) (size 15 to 20)
#    0.000    1.750    3.750    3.750    0.000    3.000 
#    2.250    2.500    0.000    0.000    0.000    4.375 
#    0.000    0.000    0.000    0.000    0.000    0.000 
#
# Total GULP energy -178751.133230 kJ/mol
# GULP energy per Si atom -5585.972913 kJ/mol
# Density = 1.975420 g / cm^3
# Si number density = 19.799263 Si / 1000 Ang^3
#
#
#
# Elastic Constant Matrix: (Units=GPa)
#
#
# Indices 1 2 3 4 5 6 
#
# 1 103.4326 1.9373 -8.9364 0.0000 0.0000 0.0000
# 2 1.9373 79.1868 -4.4934 0.0000 0.0000 0.0000
# 3 -8.9364 -4.4934 37.9807 0.0000 0.0000 0.0000
# 4 0.0000 0.0000 0.0000 22.8840 0.0000 0.0000
# 5 0.0000 0.0000 0.0000 0.0000 15.6188 0.0000
# 6 0.0000 0.0000 0.0000 0.0000 0.0000 9.6665
#
#
#
# Elastic Compliance Matrix: (Units=1/GPa)
#
#
# Indices 1 2 3 4 5 6 
#
# 1 0.009870 -0.000110 0.002309 0.000000 0.000000 0.000000
# 2 -0.000110 0.012715 0.001478 0.000000 0.000000 0.000000
# 3 0.002309 0.001478 0.027047 0.000000 0.000000 0.000000
# 4 0.000000 0.000000 0.000000 0.043699 0.000000 0.000000
# 5 0.000000 0.000000 0.000000 0.000000 0.064025 0.000000
# 6 0.000000 0.000000 0.000000 0.000000 0.000000 0.103450
#
#
# Mechanical properties :
#
#
# Convention : Reuss Voigt Hill
#
# Bulk Modulus (GPa) = 17.54815 21.95723 19.75269
# Shear Modulus (GPa) = 18.35214 25.10670 21.72942
#
# Velocity S-wave (km/s) = 3.04782 3.56485 3.31643
# Velocity P-wave (km/s) = 4.61171 5.29700 4.96619
#
# Compressibility (1/GPa) = 0.05698606
#
# Stress axis : x y z
#
# Youngs Moduli (GPa) = 101.32013 78.64759 36.97220
#
# Poissons Ratio (x) = 0.00868 -0.08537
# Poissons Ratio (y) = 0.01119 -0.05466
# Poissons Ratio (z) = -0.23396 -0.11626
#
# Static dielectric constant tensor:
#      x y z
#    x 1.664960 0.000000 0.000000 
#    y 0.000000 1.689940 0.000000 
#    z 0.000000 0.000000 1.851150 
# 
# From -- ./inp_files/2293.got.cif
#   From: 2010.05.17/outbox.cif.g08.bks.cpg/sg26_2_cif.got.tgz:2293.got - 2010.06.04 01:07:29.
