data_PCOD9337063
_publ_section_title
;
Structure prediction by ZEFSAII (Michael W. Deem and Ramdas Pophale) SiO2 
 PCOD9337063
Probable space group: I 21 21 21
;
_chemical_formula_sum "Si O2"
_cell_formula_units_Z 30
_cell_length_a 15.000000
_cell_length_b 9.000000
_cell_length_c 24.000000
_cell_angle_alpha 90.000000
_cell_angle_beta 90.000000
_cell_angle_gamma 90.000000
_cell_volume 3240.000000
_symmetry_space_group_name_H-M "I 21 21 21"
_symmetry_group_IT_number 24
_symmetry_cell_setting 'orthorhombic'
loop_
_space_group_symop_operation_xyz
x,y,z
-x,1/2-y,z
x,-y,1/2-z
1/2-x,y,-z
1/2+x,1/2+y,1/2+z
1/2-x,-y,1/2+z
1/2+x,1/2-y,-z
-x,1/2+y,1/2-z
loop_
_atom_site_type_symbol
_atom_site_label
_atom_site_fract_x
_atom_site_fract_y
_atom_site_fract_z
Si Si1 0.047932 0.592724 0.696037
Si Si2 0.228569 0.840519 0.855004
Si Si3 0.737385 0.161078 0.244223
Si Si4 0.465112 0.082328 0.404439
Si Si5 0.662354 0.260494 0.541271
Si Si6 0.000000 0.250000 0.110135
Si Si7 0.137229 0.912413 0.304975
Si Si8 0.505285 0.020924 0.526309
O O1 0.016643 0.500000 0.750000
O O2 0.151549 0.628135 0.706078
O O3 0.000000 0.750000 0.692303
O O4 0.023262 0.493692 0.643391
O O5 0.205748 0.734180 0.802686
O O6 0.137744 0.902016 0.883712
O O7 0.288687 0.751299 0.899323
O O8 0.292725 0.973359 0.833567
O O9 0.803885 0.278114 0.218352
O O10 0.782055 0.000000 0.250000
O O11 0.500000 0.250000 0.414784
O O12 0.482013 0.991881 0.461377
O O13 0.750000 0.277272 0.500000
O O14 0.594590 0.124686 0.527788
O O15 0.587915 0.394049 0.543649
O O16 0.931126 0.336645 0.151541
O O17 0.025745 0.382961 0.066964
O O18 0.098683 0.000000 0.250000
#
# Coordination Sequence:
#
# PCOD9337063 Si02
#       8
#     8   8   8   8   8   4   8   8
#     4  11  22  37  60  94 135 175 217 274 337 394
#     4  11  21  40  69  90 131 176 219 267 338 406
#     4  10  22  38  59  95 128 161 220 274 332 396
#     4  12  22  40  67  97 137 176 224 270 332 417
#     4  11  21  44  69  96 128 180 227 280 331 408
#     4  12  26  48  66  94 140 172 224 288 348 404
#     4  10  24  45  64  93 124 170 220 278 343 407
#     4  11  25  43  67 100 136 176 233 277 344 417
#
# _framework density 9.2592590000000001
#
# number of rings (size 3 to 8) (size 9 to 14) (size 15 to 20)
#    0.000    1.067    4.000    3.600    2.800    1.600 
#    2.400    0.667    0.000    0.000    0.000    0.000 
#    0.000    0.000    0.000    0.000    0.000    0.000 
#
# Total GULP energy -167241.756724 kJ/mol
# GULP energy per Si atom -5574.725224 kJ/mol
# Density = 0.923818 g / cm^3
# Si number density = 9.259259 Si / 1000 Ang^3
#
#
#
# Elastic Constant Matrix: (Units=GPa)
#
#
# Indices 1 2 3 4 5 6 
#
# 1 100.6690 33.6179 49.3993 0.0000 0.0000 0.0000
# 2 33.6179 102.3641 45.7961 0.0000 0.0000 0.0000
# 3 49.3993 45.7961 139.2110 0.0000 0.0000 0.0000
# 4 0.0000 0.0000 0.0000 35.7852 0.0000 0.0000
# 5 0.0000 0.0000 0.0000 0.0000 35.2957 0.0000
# 6 0.0000 0.0000 0.0000 0.0000 0.0000 28.2211
#
#
#
# Elastic Compliance Matrix: (Units=1/GPa)
#
#
# Indices 1 2 3 4 5 6 
#
# 1 0.012549 -0.002497 -0.003632 0.000000 0.000000 0.000000
# 2 -0.002497 0.011952 -0.003046 0.000000 0.000000 0.000000
# 3 -0.003632 -0.003046 0.009474 0.000000 0.000000 0.000000
# 4 0.000000 0.000000 0.000000 0.027945 0.000000 0.000000
# 5 0.000000 0.000000 0.000000 0.000000 0.028332 0.000000
# 6 0.000000 0.000000 0.000000 0.000000 0.000000 0.035435
#
#
# Mechanical properties :
#
#
# Convention : Reuss Voigt Hill
#
# Bulk Modulus (GPa) = 63.99337 66.65233 65.32285
# Shear Modulus (GPa) = 33.50225 34.08911 33.79568
#
# Velocity S-wave (km/s) = 4.25799 4.29512 4.27660
# Velocity P-wave (km/s) = 7.66847 7.78896 7.72895
#
# Compressibility (1/GPa) = 0.01562662
#
# Stress axis : x y z
#
# Youngs Moduli (GPa) = 79.68459 83.67084 105.55093
#
# Poissons Ratio (x) = 0.20889 0.38335
# Poissons Ratio (y) = 0.19894 0.32149
# Poissons Ratio (z) = 0.28941 0.25484
#
# Static dielectric constant tensor:
#      x y z
#    x 1.627510 0.000000 0.000000 
#    y 0.000000 1.649260 0.000000 
#    z 0.000000 0.000000 1.677350 
# 
# From -- ./inp_files/35835.got.cif
#   From: 2010.05.17/outbox.ucp.g08.bks.cvg/sg24_18_cif.got.tgz:35835.got - 2010.06.11 15:20:44.
