data_PCOD9337296
_publ_section_title
;
Structure prediction by ZEFSAII (Michael W. Deem and Ramdas Pophale) SiO2 
 PCOD9337296
Probable space group: P M M 2
;
_chemical_formula_sum "Si O2"
_cell_formula_units_Z 28
_cell_length_a 20.155800
_cell_length_b 7.397800
_cell_length_c 8.233217
_cell_angle_alpha 90.000000
_cell_angle_beta 90.000000
_cell_angle_gamma 90.000000
_cell_volume 1227.643273
_symmetry_space_group_name_H-M "P M M 2"
_symmetry_group_IT_number 25
_symmetry_cell_setting 'orthorhombic'
loop_
_space_group_symop_operation_xyz
x,y,z
-x,-y,z
-x,y,z
x,-y,z
loop_
_atom_site_type_symbol
_atom_site_label
_atom_site_fract_x
_atom_site_fract_y
_atom_site_fract_z
Si Si1 0.072373 0.288010 0.484700
Si Si2 0.072062 0.218399 0.868604
Si Si3 0.656563 0.778675 0.855686
Si Si4 0.576941 0.220670 0.175039
Si Si5 0.209551 0.218604 0.012567
Si Si6 0.785354 0.709218 0.384801
Si Si7 0.355839 0.793901 0.503005
O O1 0.071312 0.500000 0.440931
O O2 0.076242 0.271501 0.679696
O O3 0.141231 0.212012 0.416390
O O4 0.000000 0.211881 0.435214
O O5 0.000000 0.279093 0.931733
O O6 0.072810 0.000000 0.874018
O O7 0.136759 0.283722 0.962254
O O8 0.631839 0.713659 0.680619
O O9 0.655466 0.000000 0.851253
O O10 0.613947 0.721049 0.011107
O O11 0.732651 0.725165 0.889753
O O12 0.500000 0.270097 0.173286
O O13 0.611857 0.286109 0.340651
O O14 0.581387 0.000000 0.174754
O O15 0.227372 0.278065 0.193242
O O16 0.208610 0.000000 0.013617
O O17 0.786275 0.500000 0.435872
O O18 0.723519 0.796456 0.475873
O O19 0.380615 0.000000 0.509902
#
# Coordination Sequence:
#
# PCOD9337296 Si02
#       7
#     4   4   4   4   4   4   4
#     4   9  19  35  51  69  99 137 176 221 271 322
#     4   9  18  32  51  76 103 132 173 224 272 322
#     4   9  17  30  51  78 105 138 175 212 257 313
#     4   9  17  30  51  83 116 139 170 217 261 312
#     4  10  19  33  51  72 103 138 175 217 267 321
#     4  11  22  34  51  76 104 136 181 228 268 314
#     4  10  19  34  57  80 108 144 177 214 270 320
#
# _framework density 22.807928
#
# number of rings (size 3 to 8) (size 9 to 14) (size 15 to 20)
#    0.000    2.429    1.429    1.286    0.000    4.000 
#    0.000    3.571    0.000    0.429    0.000    0.000 
#    0.000    0.000    0.000    0.000    0.000    0.000 
#
# Total GULP energy -156390.251459 kJ/mol
# GULP energy per Si atom -5585.366124 kJ/mol
# Density = 2.275602 g / cm^3
# Si number density = 22.807928 Si / 1000 Ang^3
#
#
#
# Elastic Constant Matrix: (Units=GPa)
#
#
# Indices 1 2 3 4 5 6 
#
# 1 135.7761 4.6778 71.8499 0.0000 0.0000 0.0000
# 2 4.6778 80.4365 -2.7797 0.0000 0.0000 0.0000
# 3 71.8499 -2.7797 159.8426 0.0000 0.0000 0.0000
# 4 0.0000 0.0000 0.0000 8.4398 0.0000 0.0000
# 5 0.0000 0.0000 0.0000 0.0000 8.0954 0.0000
# 6 0.0000 0.0000 0.0000 0.0000 0.0000 -9.4273
#
#
#
# Elastic Compliance Matrix: (Units=1/GPa)
#
#
# Indices 1 2 3 4 5 6 
#
# 1 0.009705 -0.000716 -0.004375 0.000000 0.000000 0.000000
# 2 -0.000716 0.012492 0.000539 0.000000 0.000000 0.000000
# 3 -0.004375 0.000539 0.008232 0.000000 0.000000 0.000000
# 4 0.000000 0.000000 0.000000 0.118487 0.000000 0.000000
# 5 0.000000 0.000000 0.000000 0.000000 0.123527 0.000000
# 6 0.000000 0.000000 0.000000 0.000000 0.000000 -0.106075
#
#
# Mechanical properties :
#
#
# Convention : Reuss Voigt Hill
#
# Bulk Modulus (GPa) = 46.89050 58.17236 52.53143
# Shear Modulus (GPa) = 27.38528 21.57538 24.48033
#
# Velocity S-wave (km/s) = 3.46886 3.07898 3.27972
# Velocity P-wave (km/s) = 6.05371 6.18069 6.11753
#
# Compressibility (1/GPa) = 0.02132628
#
# Stress axis : x y z
#
# Youngs Moduli (GPa) = 103.04218 80.04864 121.47704
#
# Poissons Ratio (x) = 0.05728 0.53144
# Poissons Ratio (y) = 0.07373 -0.06546
# Poissons Ratio (z) = 0.45079 -0.04314
#
# Static dielectric constant tensor:
#      x y z
#    x 1.839340 0.000000 0.000000 
#    y 0.000000 1.846590 0.000000 
#    z 0.000000 0.000000 1.805400 
# 
# From -- ./inp_files/3548.got.cif
#   From: 2010.05.17/outbox.cif.g08.bks.cpg/sg25_2_cif.got.tgz:3548.got - 2010.06.04 01:04:00.
