data_PCOD9337093
_publ_section_title
;
Structure prediction by ZEFSAII (Michael W. Deem and Ramdas Pophale) SiO2 
 PCOD9337093
Probable space group: P M M 2
;
_chemical_formula_sum "Si O2"
_cell_formula_units_Z 32
_cell_length_a 7.668179
_cell_length_b 14.842258
_cell_length_c 16.271130
_cell_angle_alpha 90.000000
_cell_angle_beta 90.000000
_cell_angle_gamma 90.000000
_cell_volume 1851.867601
_symmetry_space_group_name_H-M "P M M 2"
_symmetry_group_IT_number 25
_symmetry_cell_setting 'orthorhombic'
loop_
_space_group_symop_operation_xyz
x,y,z
-x,-y,z
-x,y,z
x,-y,z
loop_
_atom_site_type_symbol
_atom_site_label
_atom_site_fract_x
_atom_site_fract_y
_atom_site_fract_z
Si Si1 0.289992 0.599933 0.771440
Si Si2 0.285699 0.895571 0.352369
Si Si3 0.292072 0.784759 0.508568
Si Si4 0.204701 0.208462 0.833336
Si Si5 0.211093 0.103808 0.672343
Si Si6 0.707892 0.898216 0.995427
Si Si7 0.701750 0.890401 0.172619
Si Si8 0.286893 0.399327 0.581485
O O1 0.500000 0.598424 0.770637
O O2 0.230008 0.500000 0.797443
O O3 0.235949 0.685335 0.824306
O O4 0.233082 0.614065 0.676657
O O5 0.500000 0.894799 0.350838
O O6 0.224313 0.833964 0.427243
O O7 0.223610 0.865504 0.261671
O O8 0.235833 0.000000 0.365762
O O9 0.500000 0.776526 0.497474
O O10 0.263196 0.845703 0.589084
O O11 0.223970 0.684702 0.528195
O O12 0.278065 0.157631 0.752514
O O13 0.266363 0.165744 0.918226
O O14 0.000000 0.192428 0.831223
O O15 0.000000 0.103526 0.674433
O O16 0.270041 0.000000 0.673267
O O17 0.500000 0.905799 0.007294
O O18 0.774168 0.000000 0.978161
O O19 0.779327 0.865086 0.083925
O O20 0.500000 0.859768 0.173945
O O21 0.701097 0.000000 0.172057
O O22 0.500000 0.398187 0.581200
O O23 0.233135 0.500000 0.555947
#
# Coordination Sequence:
#
# PCOD9337093 Si02
#       8
#     4   4   4   4   4   4   4   4
#     4   9  17  31  49  65  84 112 146 185 224 258
#     4   8  13  21  36  62  90 109 133 176 222 255
#     4  10  17  26  44  66  84 108 147 184 210 248
#     4  11  21  31  44  63  89 118 146 180 222 265
#     4  10  21  33  40  52  84 124 148 165 204 257
#     4   9  17  29  46  65  84 113 153 188 217 259
#     4   7  11  22  39  59  84 110 137 176 223 261
#     4   8  14  25  41  61  85 110 137 176 219 249
#
# _framework density 17.279852999999999
#
# number of rings (size 3 to 8) (size 9 to 14) (size 15 to 20)
#    0.000    3.000    1.250    3.375    0.000    2.250 
#    0.000    0.000    0.000    1.125    0.000    2.625 
#    0.000    5.000    0.000    0.000    0.000    0.125 
#
# Total GULP energy -178275.302290 kJ/mol
# GULP energy per Si atom -5571.103197 kJ/mol
# Density = 1.724052 g / cm^3
# Si number density = 17.279853 Si / 1000 Ang^3
#
#
#
# Elastic Constant Matrix: (Units=GPa)
#
#
# Indices 1 2 3 4 5 6 
#
# 1 28.6357 -0.0340 4.1479 0.0000 0.0000 0.0000
# 2 -0.0340 121.5033 88.1285 0.0000 0.0000 0.0000
# 3 4.1479 88.1285 167.7342 0.0000 0.0000 0.0000
# 4 0.0000 0.0000 0.0000 8.8753 0.0000 0.0000
# 5 0.0000 0.0000 0.0000 0.0000 -48.4855 0.0000
# 6 0.0000 0.0000 0.0000 0.0000 0.0000 -2.5579
#
#
#
# Elastic Compliance Matrix: (Units=1/GPa)
#
#
# Indices 1 2 3 4 5 6 
#
# 1 0.035127 0.001034 -0.001412 0.000000 0.000000 0.000000
# 2 0.001034 0.013328 -0.007028 0.000000 0.000000 0.000000
# 3 -0.001412 -0.007028 0.009689 0.000000 0.000000 0.000000
# 4 0.000000 0.000000 0.000000 0.112672 0.000000 0.000000
# 5 0.000000 0.000000 0.000000 0.000000 -0.020625 0.000000
# 6 0.000000 0.000000 0.000000 0.000000 0.000000 -0.390940
#
#
# Mechanical properties :
#
#
# Convention : Reuss Voigt Hill
#
# Bulk Modulus (GPa) = 23.07747 55.81757 39.44752
# Shear Modulus (GPa) = -23.64162 6.60843 -8.51660
#
# Velocity S-wave (km/s) = -3.70288 1.95772 -2.22246
# Velocity P-wave (km/s) = 2.21306 6.12229 4.03639
#
# Compressibility (1/GPa) = 0.04333230
#
# Stress axis : x y z
#
# Youngs Moduli (GPa) = 28.46798 75.02836 103.20501
#
# Poissons Ratio (x) = -0.07757 0.14571
# Poissons Ratio (y) = -0.02943 0.72536
# Poissons Ratio (z) = 0.04019 0.52732
#
# Static dielectric constant tensor:
#      x y z
#    x 1.642800 0.000000 0.000000 
#    y 0.000000 1.587690 0.000000 
#    z 0.000000 0.000000 1.611080 
# 
# From -- ./inp_files/5703.got.cif
#   From: 2010.05.17/outbox.cif.g08.bks.cpg/sg25_3_cif.got.tgz:5703.got - 2010.06.04 01:04:00.
