data_PCOD9337122
_publ_section_title
;
Structure prediction by ZEFSAII (Michael W. Deem and Ramdas Pophale) SiO2 
 PCOD9337122
Probable space group: P M M 2
;
_chemical_formula_sum "Si O2"
_cell_formula_units_Z 32
_cell_length_a 7.907330
_cell_length_b 14.868773
_cell_length_c 16.194097
_cell_angle_alpha 90.000000
_cell_angle_beta 90.000000
_cell_angle_gamma 90.000000
_cell_volume 1903.977147
_symmetry_space_group_name_H-M "P M M 2"
_symmetry_group_IT_number 25
_symmetry_cell_setting 'orthorhombic'
loop_
_space_group_symop_operation_xyz
x,y,z
-x,-y,z
-x,y,z
x,-y,z
loop_
_atom_site_type_symbol
_atom_site_label
_atom_site_fract_x
_atom_site_fract_y
_atom_site_fract_z
Si Si1 0.703924 0.897296 0.899340
Si Si2 0.206958 0.896247 0.217493
Si Si3 0.695277 0.109326 0.719775
Si Si4 0.295658 0.102995 0.540263
Si Si5 0.204010 0.212772 0.379143
Si Si6 0.700960 0.600583 0.130375
Si Si7 0.200152 0.400211 0.318176
Si Si8 0.798677 0.215771 0.058291
O O1 0.500000 0.901499 0.892489
O O2 0.770292 0.866665 0.809056
O O3 0.763221 0.000000 0.915921
O O4 0.746471 0.831910 0.973904
O O5 0.262687 0.847391 0.301499
O O6 0.265966 0.841326 0.137184
O O7 0.000000 0.895701 0.217065
O O8 0.260657 0.000000 0.214692
O O9 0.500000 0.140801 0.719829
O O10 0.769848 0.134038 0.630577
O O11 0.692089 0.000000 0.719507
O O12 0.500000 0.099839 0.546077
O O13 0.249149 0.166525 0.464941
O O14 0.237589 0.000000 0.524885
O O15 0.269428 0.314491 0.367119
O O16 0.000000 0.215978 0.373602
O O17 0.500000 0.599106 0.141978
O O18 0.755645 0.500000 0.104325
O O19 0.780195 0.618863 0.220427
O O20 0.743561 0.681359 0.069360
O O21 0.273097 0.500000 0.333788
O O22 0.000000 0.405020 0.335393
O O23 0.000000 0.213854 0.062740
#
# Coordination Sequence:
#
# PCOD9337122 Si02
#       8
#     4   4   4   4   4   4   4   4
#     4   9  17  30  48  69  93 122 155 191 230 273
#     4   9  17  28  40  57  87 124 154 176 208 258
#     4   7  12  26  46  64  86 118 152 186 228 272
#     4   9  17  29  45  66  91 120 154 189 224 265
#     4  10  18  29  44  64  89 120 152 184 225 270
#     4  10  20  33  49  68  89 114 149 196 240 272
#     4   9  17  31  49  66  86 115 152 190 230 277
#     4  11  20  31  46  66  93 126 157 186 224 272
#
# _framework density 16.806923999999999
#
# number of rings (size 3 to 8) (size 9 to 14) (size 15 to 20)
#    0.000    2.750    1.250    3.000    0.000    2.750 
#    0.000    0.625    0.000    4.500    0.000    0.875 
#    0.000    5.000    0.000    0.000    0.000    0.000 
#
# Total GULP energy -178295.749193 kJ/mol
# GULP energy per Si atom -5571.742162 kJ/mol
# Density = 1.676867 g / cm^3
# Si number density = 16.806924 Si / 1000 Ang^3
#
#
#
# Elastic Constant Matrix: (Units=GPa)
#
#
# Indices 1 2 3 4 5 6 
#
# 1 16.8170 7.0914 2.8886 0.0000 0.0000 0.0000
# 2 7.0914 128.1331 84.0453 0.0000 0.0000 0.0000
# 3 2.8886 84.0453 146.9070 0.0000 0.0000 0.0000
# 4 0.0000 0.0000 0.0000 -42.4659 0.0000 0.0000
# 5 0.0000 0.0000 0.0000 0.0000 24.5700 0.0000
# 6 0.0000 0.0000 0.0000 0.0000 0.0000 13.6538
#
#
#
# Elastic Compliance Matrix: (Units=1/GPa)
#
#
# Indices 1 2 3 4 5 6 
#
# 1 0.061010 -0.004145 0.001172 0.000000 0.000000 0.000000
# 2 -0.004145 0.012774 -0.007226 0.000000 0.000000 0.000000
# 3 0.001172 -0.007226 0.010918 0.000000 0.000000 0.000000
# 4 0.000000 0.000000 0.000000 -0.023548 0.000000 0.000000
# 5 0.000000 0.000000 0.000000 0.000000 0.040700 0.000000
# 6 0.000000 0.000000 0.000000 0.000000 0.000000 0.073240
#
#
# Mechanical properties :
#
#
# Convention : Reuss Voigt Hill
#
# Bulk Modulus (GPa) = 15.55144 53.32306 34.43725
# Shear Modulus (GPa) = 23.04925 12.34038 17.69482
#
# Velocity S-wave (km/s) = 3.70728 2.71263 3.24825
# Velocity P-wave (km/s) = 5.25341 6.45034 5.88240
#
# Compressibility (1/GPa) = 0.06430272
#
# Stress axis : x y z
#
# Youngs Moduli (GPa) = 16.39071 78.28605 91.59070
#
# Poissons Ratio (x) = 0.32451 -0.10733
# Poissons Ratio (y) = 0.06794 0.66186
# Poissons Ratio (z) = -0.01921 0.56572
#
# Static dielectric constant tensor:
#      x y z
#    x 1.615220 0.000000 0.000000 
#    y 0.000000 2.829250 0.000000 
#    z 0.000000 0.000000 1.577910 
# 
# From -- ./inp_files/5685.got.cif
#   From: 2010.05.17/outbox.cif.g08.bks.cpg/sg25_3_cif.got.tgz:5685.got - 2010.06.04 01:04:00.
