data_PCOD9337530
_publ_section_title
;
Structure prediction by ZEFSAII (Michael W. Deem and Ramdas Pophale) SiO2 
 PCOD9337530
Probable space group: P M M 2
;
_chemical_formula_sum "Si O2"
_cell_formula_units_Z 24
_cell_length_a 9.655212
_cell_length_b 8.666603
_cell_length_c 15.732279
_cell_angle_alpha 90.000000
_cell_angle_beta 90.000000
_cell_angle_gamma 90.000000
_cell_volume 1316.443900
_symmetry_space_group_name_H-M "P M M 2"
_symmetry_group_IT_number 25
_symmetry_cell_setting 'orthorhombic'
loop_
_space_group_symop_operation_xyz
x,y,z
-x,-y,z
-x,y,z
x,-y,z
loop_
_atom_site_type_symbol
_atom_site_label
_atom_site_fract_x
_atom_site_fract_y
_atom_site_fract_z
Si Si1 0.158372 0.312183 0.060110
Si Si2 0.160698 0.815231 0.746761
Si Si3 0.160773 0.684826 0.561201
Si Si4 0.838172 0.313894 0.253545
Si Si5 0.660008 0.686871 0.900887
Si Si6 0.660225 0.184727 0.407104
O O1 0.158429 0.500000 0.060127
O O2 0.194461 0.265957 0.156474
O O3 0.000000 0.263575 0.042054
O O4 0.262008 0.260865 0.986732
O O5 0.197650 0.750730 0.653801
O O6 0.258109 0.748853 0.819653
O O7 0.000000 0.770669 0.763395
O O8 0.168854 0.000000 0.745484
O O9 0.168040 0.500000 0.563244
O O10 0.259221 0.748140 0.488082
O O11 0.000000 0.728732 0.543842
O O12 0.826693 0.500000 0.258547
O O13 0.739213 0.240045 0.322790
O O14 0.000000 0.275715 0.269808
O O15 0.500000 0.734954 0.900281
O O16 0.664172 0.500000 0.899207
O O17 0.500000 0.235140 0.406308
O O18 0.663944 0.000000 0.411329
#
# Coordination Sequence:
#
# PCOD9337530 Si02
#       6
#     4   4   4   4   4   4
#     4   8  15  30  53  79 106 137 176 223 268 309
#     4  10  21  37  57  80 106 139 178 218 263 315
#     4  10  21  38  61  85 105 131 173 222 268 315
#     4   9  18  34  57  83 107 135 177 225 269 314
#     4  10  20  33  52  80 111 143 179 218 263 315
#     4  11  24  38  52  76 111 147 179 213 259 315
#
# _framework density 18.230931999999999
#
# number of rings (size 3 to 8) (size 9 to 14) (size 15 to 20)
#    0.000    2.333    0.000    3.500    0.000    8.000 
#    0.000    2.500    0.000    1.000    0.000    0.000 
#    0.000    0.000    0.000    0.000    0.000    0.000 
#
# Total GULP energy -133993.517511 kJ/mol
# GULP energy per Si atom -5583.063230 kJ/mol
# Density = 1.818944 g / cm^3
# Si number density = 18.230932 Si / 1000 Ang^3
#
#
#
# Elastic Constant Matrix: (Units=GPa)
#
#
# Indices 1 2 3 4 5 6 
#
# 1 148.4674 41.9455 142.8306 0.0000 0.0000 0.0000
# 2 41.9455 24.4835 40.5356 0.0000 0.0000 0.0000
# 3 142.8306 40.5356 189.7948 0.0000 0.0000 0.0000
# 4 0.0000 0.0000 0.0000 -87.9471 0.0000 0.0000
# 5 0.0000 0.0000 0.0000 0.0000 -14.3158 0.0000
# 6 0.0000 0.0000 0.0000 0.0000 0.0000 24.7372
#
#
#
# Elastic Compliance Matrix: (Units=1/GPa)
#
#
# Indices 1 2 3 4 5 6 
#
# 1 0.030572 -0.022100 -0.018287 0.000000 0.000000 0.000000
# 2 -0.022100 0.079162 -0.000276 0.000000 0.000000 0.000000
# 3 -0.018287 -0.000276 0.019090 0.000000 0.000000 0.000000
# 4 0.000000 0.000000 0.000000 -0.011370 0.000000 0.000000
# 5 0.000000 0.000000 0.000000 0.000000 -0.069853 0.000000
# 6 0.000000 0.000000 0.000000 0.000000 0.000000 0.040425
#
#
# Mechanical properties :
#
#
# Convention : Reuss Voigt Hill
#
# Bulk Modulus (GPa) = 21.05328 90.37432 55.71380
# Shear Modulus (GPa) = 27.00026 -6.34289 10.32868
#
# Velocity S-wave (km/s) = 3.85257 -1.86728 2.38281
# Velocity P-wave (km/s) = 5.60026 6.71048 6.18035
#
# Compressibility (1/GPa) = 0.04749854
#
# Stress axis : x y z
#
# Youngs Moduli (GPa) = 32.70991 12.63229 52.38432
#
# Poissons Ratio (x) = 0.27917 0.95795
# Poissons Ratio (y) = 0.72288 0.01446
# Poissons Ratio (z) = 0.59816 0.00349
#
# Static dielectric constant tensor:
#      x y z
#    x 1.611210 0.000000 0.000000 
#    y 0.000000 1.615450 0.000000 
#    z 0.000000 0.000000 1.599340 
# 
# From -- ./inp_files/5225.got.cif
#   From: 2010.05.17/outbox.cif.g08.bks.cpg/sg25_3_cif.got.tgz:5225.got - 2010.06.04 01:04:00.
