data_PCOD9337129
_publ_section_title
;
Structure prediction by ZEFSAII (Michael W. Deem and Ramdas Pophale) SiO2 
 PCOD9337129
Probable space group: P M M 2
;
_chemical_formula_sum "Si O2"
_cell_formula_units_Z 32
_cell_length_a 8.988420
_cell_length_b 14.633065
_cell_length_c 15.894332
_cell_angle_alpha 90.000000
_cell_angle_beta 90.000000
_cell_angle_gamma 90.000000
_cell_volume 2090.551831
_symmetry_space_group_name_H-M "P M M 2"
_symmetry_group_IT_number 25
_symmetry_cell_setting 'orthorhombic'
loop_
_space_group_symop_operation_xyz
x,y,z
-x,-y,z
-x,y,z
x,-y,z
loop_
_atom_site_type_symbol
_atom_site_label
_atom_site_fract_x
_atom_site_fract_y
_atom_site_fract_z
Si Si1 0.320209 0.606554 0.220130
Si Si2 0.819338 0.898538 0.989948
Si Si3 0.671420 0.389118 0.407173
Si Si4 0.322933 0.285375 0.733869
Si Si5 0.821449 0.104951 0.792780
Si Si6 0.822166 0.391941 0.889293
Si Si7 0.176448 0.608633 0.580014
Si Si8 0.179426 0.708766 0.063795
O O1 0.500000 0.609357 0.217548
O O2 0.275750 0.500000 0.209768
O O3 0.275989 0.638891 0.314083
O O4 0.252185 0.665592 0.145769
O O5 0.770474 0.812516 0.044712
O O6 0.000000 0.899222 0.992409
O O7 0.767960 0.000000 0.015377
O O8 0.781137 0.884021 0.891707
O O9 0.500000 0.359874 0.419472
O O10 0.670220 0.500000 0.404276
O O11 0.769248 0.362853 0.487083
O O12 0.500000 0.285983 0.733602
O O13 0.261037 0.182517 0.741003
O O14 0.261819 0.339545 0.815344
O O15 0.260114 0.335666 0.651738
O O16 0.000000 0.117507 0.786529
O O17 0.787787 0.000000 0.769279
O O18 0.791598 0.500000 0.886949
O O19 0.000000 0.378613 0.876948
O O20 0.784411 0.350247 0.980387
O O21 0.208632 0.500000 0.589662
O O22 0.000000 0.620804 0.588479
O O23 0.000000 0.707585 0.072547
#
# Coordination Sequence:
#
# PCOD9337129 Si02
#       8
#     4   4   4   4   4   4   4   4
#     4   9  18  31  46  66  96 130 158 187 230 286
#     4   8  14  27  48  69  88 115 153 197 241 280
#     4   8  15  30  49  67  90 121 155 193 238 284
#     4  12  23  32  46  69  98 129 159 194 236 287
#     4   9  17  33  55  71  88 120 160 201 243 284
#     4  10  20  33  46  62  91 129 167 203 234 271
#     4  10  20  33  50  71  95 124 160 201 238 279
#     4  10  18  29  47  69  92 120 159 201 235 272
#
# _framework density 15.306962
#
# number of rings (size 3 to 8) (size 9 to 14) (size 15 to 20)
#    0.000    2.500    1.250    3.750    0.000    4.500 
#    0.000    1.250    0.000    0.375    0.000    0.875 
#    0.000    3.000    0.000    0.000    0.000    0.000 
#
# Total GULP energy -178405.272164 kJ/mol
# GULP energy per Si atom -5575.164755 kJ/mol
# Density = 1.527212 g / cm^3
# Si number density = 15.306962 Si / 1000 Ang^3
#
#
#
# Elastic Constant Matrix: (Units=GPa)
#
#
# Indices 1 2 3 4 5 6 
#
# 1 44.7824 50.6753 53.1264 0.0000 0.0000 0.0000
# 2 50.6753 105.1291 70.6375 0.0000 0.0000 0.0000
# 3 53.1264 70.6375 127.9814 0.0000 0.0000 0.0000
# 4 0.0000 0.0000 0.0000 6.5768 0.0000 0.0000
# 5 0.0000 0.0000 0.0000 0.0000 29.8332 0.0000
# 6 0.0000 0.0000 0.0000 0.0000 0.0000 14.4506
#
#
#
# Elastic Compliance Matrix: (Units=1/GPa)
#
#
# Indices 1 2 3 4 5 6 
#
# 1 0.063149 -0.020387 -0.014962 0.000000 0.000000 0.000000
# 2 -0.020387 0.021701 -0.003515 0.000000 0.000000 0.000000
# 3 -0.014962 -0.003515 0.015964 0.000000 0.000000 0.000000
# 4 0.000000 0.000000 0.000000 0.152050 0.000000 0.000000
# 5 0.000000 0.000000 0.000000 0.000000 0.033520 0.000000
# 6 0.000000 0.000000 0.000000 0.000000 0.000000 0.069201
#
#
# Mechanical properties :
#
#
# Convention : Reuss Voigt Hill
#
# Bulk Modulus (GPa) = 43.31287 69.64127 56.47707
# Shear Modulus (GPa) = 11.33770 17.06902 14.20336
#
# Velocity S-wave (km/s) = 2.72451 3.34296 3.04945
# Velocity P-wave (km/s) = 6.18506 7.77790 7.02676
#
# Compressibility (1/GPa) = 0.02308783
#
# Stress axis : x y z
#
# Youngs Moduli (GPa) = 15.83559 46.08164 62.64023
#
# Poissons Ratio (x) = 0.93945 0.93720
# Poissons Ratio (y) = 0.32284 0.22016
# Poissons Ratio (z) = 0.23693 0.16196
#
# Static dielectric constant tensor:
#      x y z
#    x 1.509550 0.000000 0.000000 
#    y 0.000000 1.509150 0.000000 
#    z 0.000000 0.000000 1.495060 
# 
# From -- ./inp_files/5717.got.cif
#   From: 2010.05.17/outbox.cif.g08.bks.cpg/sg25_3_cif.got.tgz:5717.got - 2010.06.04 01:04:00.
