data_PCOD9337730
_publ_section_title
;
Structure prediction by ZEFSAII (Michael W. Deem and Ramdas Pophale) SiO2 
 PCOD9337730
Probable space group: P M M 2
;
_chemical_formula_sum "Si O2"
_cell_formula_units_Z 32
_cell_length_a 14.256654
_cell_length_b 8.809495
_cell_length_c 13.386493
_cell_angle_alpha 90.000000
_cell_angle_beta 90.000000
_cell_angle_gamma 90.000000
_cell_volume 1681.262159
_symmetry_space_group_name_H-M "P M M 2"
_symmetry_group_IT_number 25
_symmetry_cell_setting 'orthorhombic'
loop_
_space_group_symop_operation_xyz
x,y,z
-x,-y,z
-x,y,z
x,-y,z
loop_
_atom_site_type_symbol
_atom_site_label
_atom_site_fract_x
_atom_site_fract_y
_atom_site_fract_z
Si Si1 0.108001 0.680540 0.089180
Si Si2 0.391167 0.684741 0.412625
Si Si3 0.714102 0.819116 0.003202
Si Si4 0.108898 0.816531 0.520495
Si Si5 0.885962 0.173735 0.298048
Si Si6 0.717025 0.682126 0.611868
Si Si7 0.613426 0.678399 0.192865
Si Si8 0.609299 0.183556 0.800763
O O1 0.110304 0.500000 0.082044
O O2 0.181807 0.752099 0.013484
O O3 0.138500 0.729151 0.201283
O O4 0.000000 0.731759 0.074786
O O5 0.500000 0.729757 0.422916
O O6 0.389200 0.500000 0.409687
O O7 0.335317 0.733780 0.510071
O O8 0.356409 0.735138 0.303155
O O9 0.657457 0.766024 0.100808
O O10 0.719564 0.000000 0.002493
O O11 0.659848 0.769246 0.903530
O O12 0.139384 0.767103 0.408110
O O13 0.177908 0.744370 0.600465
O O14 0.000000 0.775493 0.535191
O O15 0.114914 0.000000 0.521804
O O16 0.000000 0.168360 0.300720
O O17 0.852923 0.000000 0.285385
O O18 0.716560 0.500000 0.614975
O O19 0.662962 0.747024 0.706754
O O20 0.500000 0.688500 0.190592
O O21 0.638178 0.500000 0.183711
O O22 0.500000 0.228629 0.801131
O O23 0.613018 0.000000 0.794892
#
# Coordination Sequence:
#
# PCOD9337730 Si02
#       8
#     4   4   4   4   4   4   4   4
#     4  10  21  36  55  82 117 154 193 238 287 342
#     4   8  16  32  52  78 114 149 179 220 279 343
#     4  11  23  38  59  85 113 148 194 243 290 344
#     4   9  19  36  56  80 116 159 199 238 282 337
#     4   8  15  30  52  78 111 152 194 234 276 327
#     4  11  22  35  58  89 117 148 192 242 291 345
#     4   9  18  34  56  82 115 152 186 226 283 348
#     4  10  23  44  65  84 111 149 194 243 291 344
#
# _framework density 19.03332
#
# number of rings (size 3 to 8) (size 9 to 14) (size 15 to 20)
#    0.000    2.500    0.000    3.375    1.750    4.000 
#    0.000    2.500    0.000    2.250    0.000    0.000 
#    0.000    0.000    0.000    0.000    0.000    0.000 
#
# Total GULP energy -178638.679441 kJ/mol
# GULP energy per Si atom -5582.458733 kJ/mol
# Density = 1.899000 g / cm^3
# Si number density = 19.033320 Si / 1000 Ang^3
#
#
#
# Elastic Constant Matrix: (Units=GPa)
#
#
# Indices 1 2 3 4 5 6 
#
# 1 124.2607 34.9362 91.7075 0.0000 0.0000 0.0000
# 2 34.9362 28.3291 39.6579 0.0000 0.0000 0.0000
# 3 91.7075 39.6579 152.3791 0.0000 0.0000 0.0000
# 4 0.0000 0.0000 0.0000 18.2793 0.0000 0.0000
# 5 0.0000 0.0000 0.0000 0.0000 38.3383 0.0000
# 6 0.0000 0.0000 0.0000 0.0000 0.0000 25.7511
#
#
#
# Elastic Compliance Matrix: (Units=1/GPa)
#
#
# Indices 1 2 3 4 5 6 
#
# 1 0.016061 -0.009872 -0.007097 0.000000 0.000000 0.000000
# 2 -0.009872 0.061599 -0.010091 0.000000 0.000000 0.000000
# 3 -0.007097 -0.010091 0.013460 0.000000 0.000000 0.000000
# 4 0.000000 0.000000 0.000000 0.054707 0.000000 0.000000
# 5 0.000000 0.000000 0.000000 0.000000 0.026084 0.000000
# 6 0.000000 0.000000 0.000000 0.000000 0.000000 0.038833
#
#
# Mechanical properties :
#
#
# Convention : Reuss Voigt Hill
#
# Bulk Modulus (GPa) = 27.02580 70.84134 48.93357
# Shear Modulus (GPa) = 18.03788 25.71823 21.87805
#
# Velocity S-wave (km/s) = 3.08181 3.67988 3.39405
# Velocity P-wave (km/s) = 5.18589 7.44015 6.41285
#
# Compressibility (1/GPa) = 0.03700169
#
# Stress axis : x y z
#
# Youngs Moduli (GPa) = 62.26433 16.23401 74.29544
#
# Poissons Ratio (x) = 0.16026 0.52725
# Poissons Ratio (y) = 0.61465 0.74968
# Poissons Ratio (z) = 0.44187 0.16381
#
# Static dielectric constant tensor:
#      x y z
#    x 1.688780 0.000000 0.000000 
#    y 0.000000 1.638310 0.000000 
#    z 0.000000 0.000000 1.647570 
# 
# From -- ./inp_files/4303.got.cif
#   From: 2010.05.17/outbox.cif.g08.bks.cpg/sg25_3_cif.got.tgz:4303.got - 2010.06.04 01:04:00.
