data_PCOD9337467
_publ_section_title
;
Structure prediction by ZEFSAII (Michael W. Deem and Ramdas Pophale) SiO2 
 PCOD9337467
Probable space group: P M M 2
;
_chemical_formula_sum "Si O2"
_cell_formula_units_Z 32
_cell_length_a 8.933479
_cell_length_b 14.402852
_cell_length_c 15.857710
_cell_angle_alpha 90.000000
_cell_angle_beta 90.000000
_cell_angle_gamma 90.000000
_cell_volume 2040.373105
_symmetry_space_group_name_H-M "P M M 2"
_symmetry_group_IT_number 25
_symmetry_cell_setting 'orthorhombic'
loop_
_space_group_symop_operation_xyz
x,y,z
-x,-y,z
-x,y,z
x,-y,z
loop_
_atom_site_type_symbol
_atom_site_label
_atom_site_fract_x
_atom_site_fract_y
_atom_site_fract_z
Si Si1 0.827520 0.112716 0.653870
Si Si2 0.822163 0.605050 0.074209
Si Si3 0.322561 0.888779 0.478075
Si Si4 0.677427 0.889076 0.157540
Si Si5 0.820949 0.796356 0.992839
Si Si6 0.322083 0.392843 0.257273
Si Si7 0.178467 0.788154 0.318988
Si Si8 0.321384 0.889639 0.830054
O O1 0.740885 0.140557 0.569209
O O2 0.747704 0.140719 0.740581
O O3 0.000000 0.143152 0.651788
O O4 0.826573 0.000000 0.654002
O O5 0.792224 0.500000 0.044011
O O6 0.731988 0.619819 0.160655
O O7 0.000000 0.611212 0.094253
O O8 0.788444 0.687563 0.009777
O O9 0.500000 0.871921 0.473240
O O10 0.238820 0.836942 0.402962
O O11 0.298896 0.000000 0.469380
O O12 0.500000 0.868348 0.156689
O O13 0.752425 0.841046 0.238179
O O14 0.695735 0.000000 0.162529
O O15 0.752603 0.850871 0.072595
O O16 0.749793 0.834729 0.907548
O O17 0.000000 0.808947 0.991128
O O18 0.500000 0.377902 0.262354
O O19 0.289759 0.500000 0.279862
O O20 0.236319 0.317307 0.312325
O O21 0.000000 0.791827 0.315026
O O22 0.500000 0.878596 0.828876
O O23 0.289575 0.000000 0.840971
#
# Coordination Sequence:
#
# PCOD9337467 Si02
#       8
#     4   4   4   4   4   4   4   4
#     4   9  17  31  51  74  99 127 163 208 251 293
#     4   9  18  33  51  71  96 126 162 206 255 301
#     4  10  20  34  52  74 102 135 169 206 248 296
#     4  11  23  36  48  65  96 136 172 206 245 292
#     4  11  21  32  49  73  98 130 167 206 250 297
#     4  10  20  34  53  74  96 126 165 209 254 299
#     4  12  23  34  50  73 100 133 169 207 249 295
#     4  10  20  33  49  70  99 135 170 205 246 293
#
# _framework density 15.683406
#
# number of rings (size 3 to 8) (size 9 to 14) (size 15 to 20)
#    0.000    1.750    1.250    4.125    0.000    8.250 
#    0.000    0.000    0.000    0.000    0.000    0.875 
#    0.000    5.000    0.000    0.000    0.000    0.000 
#
# Total GULP energy -178662.118404 kJ/mol
# GULP energy per Si atom -5583.191200 kJ/mol
# Density = 1.564771 g / cm^3
# Si number density = 15.683406 Si / 1000 Ang^3
#
#
#
# Elastic Constant Matrix: (Units=GPa)
#
#
# Indices 1 2 3 4 5 6 
#
# 1 103.8164 63.7877 68.0990 0.0000 0.0000 0.0000
# 2 63.7877 79.2831 58.2174 0.0000 0.0000 0.0000
# 3 68.0990 58.2174 135.5505 0.0000 0.0000 0.0000
# 4 0.0000 0.0000 0.0000 5.7948 0.0000 0.0000
# 5 0.0000 0.0000 0.0000 0.0000 32.8892 0.0000
# 6 0.0000 0.0000 0.0000 0.0000 0.0000 22.8983
#
#
#
# Elastic Compliance Matrix: (Units=1/GPa)
#
#
# Indices 1 2 3 4 5 6 
#
# 1 0.020997 -0.013361 -0.004810 0.000000 0.000000 0.000000
# 2 -0.013361 0.026926 -0.004852 0.000000 0.000000 0.000000
# 3 -0.004810 -0.004852 0.011878 0.000000 0.000000 0.000000
# 4 0.000000 0.000000 0.000000 0.172569 0.000000 0.000000
# 5 0.000000 0.000000 0.000000 0.000000 0.030405 0.000000
# 6 0.000000 0.000000 0.000000 0.000000 0.000000 0.043671
#
#
# Mechanical properties :
#
#
# Convention : Reuss Voigt Hill
#
# Bulk Modulus (GPa) = 72.70596 77.65092 75.17844
# Shear Modulus (GPa) = 14.00258 20.88618 17.44438
#
# Velocity S-wave (km/s) = 2.99126 3.65326 3.33871
# Velocity P-wave (km/s) = 7.64129 8.21061 7.93106
#
# Compressibility (1/GPa) = 0.01375403
#
# Stress axis : x y z
#
# Youngs Moduli (GPa) = 47.62527 37.13951 84.19174
#
# Poissons Ratio (x) = 0.49623 0.40498
# Poissons Ratio (y) = 0.63634 0.40847
# Poissons Ratio (z) = 0.22909 0.18019
#
# Static dielectric constant tensor:
#      x y z
#    x 1.522470 0.000000 0.000000 
#    y 0.000000 1.525310 0.000000 
#    z 0.000000 0.000000 1.490700 
# 
# From -- ./inp_files/5718.got.cif
#   From: 2010.05.17/outbox.cif.g08.bks.cpg/sg25_3_cif.got.tgz:5718.got - 2010.06.04 01:04:00.
