data_PCOD9337716
_publ_section_title
;
Structure prediction by ZEFSAII (Michael W. Deem and Ramdas Pophale) SiO2 
 PCOD9337716
Probable space group: P M M 2
;
_chemical_formula_sum "Si O2"
_cell_formula_units_Z 28
_cell_length_a 8.579175
_cell_length_b 9.833631
_cell_length_c 18.469912
_cell_angle_alpha 90.000000
_cell_angle_beta 90.000000
_cell_angle_gamma 90.000000
_cell_volume 1558.203806
_symmetry_space_group_name_H-M "P M M 2"
_symmetry_group_IT_number 25
_symmetry_cell_setting 'orthorhombic'
loop_
_space_group_symop_operation_xyz
x,y,z
-x,-y,z
-x,y,z
x,-y,z
loop_
_atom_site_type_symbol
_atom_site_label
_atom_site_fract_x
_atom_site_fract_y
_atom_site_fract_z
Si Si1 0.688372 0.158120 0.405820
Si Si2 0.309803 0.343101 0.110603
Si Si3 0.813469 0.343184 0.534275
Si Si4 0.310009 0.843998 0.241570
Si Si5 0.814443 0.842810 0.819948
Si Si6 0.313735 0.157098 0.662113
Si Si7 0.312442 0.339848 0.948447
O O1 0.500000 0.162893 0.409190
O O2 0.755398 0.260708 0.464297
O O3 0.736660 0.193369 0.323444
O O4 0.732996 0.000000 0.419915
O O5 0.500000 0.340518 0.110986
O O6 0.263401 0.500000 0.120056
O O7 0.254393 0.251916 0.177076
O O8 0.262744 0.297780 0.029835
O O9 0.757948 0.500000 0.534464
O O10 0.755879 0.260022 0.604068
O O11 0.000000 0.344537 0.534348
O O12 0.500000 0.840491 0.241123
O O13 0.263864 0.000000 0.228752
O O14 0.735825 0.805771 0.743605
O O15 0.761921 0.748048 0.885373
O O16 0.000000 0.835268 0.810876
O O17 0.771607 0.000000 0.835477
O O18 0.500000 0.159227 0.656147
O O19 0.261466 0.000000 0.649053
O O20 0.500000 0.326694 0.944416
O O21 0.275675 0.500000 0.940432
#
# Coordination Sequence:
#
# PCOD9337716 Si02
#       7
#     4   4   4   4   4   4   4
#     4   9  18  33  53  77 104 134 170 211 255 304
#     4   8  14  25  42  67  99 132 166 205 250 299
#     4  11  24  38  52  75 106 137 170 207 248 297
#     4   8  14  25  43  70 101 129 161 205 254 300
#     4  10  21  36  54  77 104 134 169 208 251 300
#     4  10  21  38  60  82 102 128 165 207 252 303
#     4   9  18  32  50  74 104 137 173 212 254 301
#
# _framework density 17.96941
#
# number of rings (size 3 to 8) (size 9 to 14) (size 15 to 20)
#    0.000    2.714    0.000    3.429    0.000    6.857 
#    0.000    2.857    0.000    0.857    0.000    0.000 
#    0.000    0.000    0.000    0.000    0.000    0.000 
#
# Total GULP energy -156163.307843 kJ/mol
# GULP energy per Si atom -5577.260994 kJ/mol
# Density = 1.792851 g / cm^3
# Si number density = 17.969410 Si / 1000 Ang^3
#
#
#
# Elastic Constant Matrix: (Units=GPa)
#
#
# Indices 1 2 3 4 5 6 
#
# 1 18.9169 29.7623 32.5642 0.0000 0.0000 0.0000
# 2 29.7623 108.4186 115.5601 0.0000 0.0000 0.0000
# 3 32.5642 115.5601 172.1360 0.0000 0.0000 0.0000
# 4 0.0000 0.0000 0.0000 96.6985 0.0000 0.0000
# 5 0.0000 0.0000 0.0000 0.0000 -38.0302 0.0000
# 6 0.0000 0.0000 0.0000 0.0000 0.0000 20.9910
#
#
#
# Elastic Compliance Matrix: (Units=1/GPa)
#
#
# Indices 1 2 3 4 5 6 
#
# 1 0.093176 -0.023871 -0.001601 0.000000 0.000000 0.000000
# 2 -0.023871 0.038542 -0.021358 0.000000 0.000000 0.000000
# 3 -0.001601 -0.021358 0.020451 0.000000 0.000000 0.000000
# 4 0.000000 0.000000 0.000000 0.010341 0.000000 0.000000
# 5 0.000000 0.000000 0.000000 0.000000 -0.026295 0.000000
# 6 0.000000 0.000000 0.000000 0.000000 0.000000 0.047640
#
#
# Mechanical properties :
#
#
# Convention : Reuss Voigt Hill
#
# Bulk Modulus (GPa) = 17.09198 72.80497 44.94848
# Shear Modulus (GPa) = 16.83395 24.03752 20.43574
#
# Velocity S-wave (km/s) = 3.06406 3.66141 3.37597
# Velocity P-wave (km/s) = 4.69577 7.64713 6.34543
#
# Compressibility (1/GPa) = 0.05850696
#
# Stress axis : x y z
#
# Youngs Moduli (GPa) = 10.73234 25.94598 48.89798
#
# Poissons Ratio (x) = 0.61936 0.07830
# Poissons Ratio (y) = 0.25619 1.04438
# Poissons Ratio (z) = 0.01719 0.55416
#
# Static dielectric constant tensor:
#      x y z
#    x 1.610910 0.000000 0.000000 
#    y 0.000000 1.601870 0.000000 
#    z 0.000000 0.000000 1.602120 
# 
# From -- ./inp_files/6045.got.cif
#   From: 2010.05.17/outbox.cif.g08.bks.cpg/sg25_4_cif.got.tgz:6045.got - 2010.06.04 01:04:00.
