data_PCOD9337389
_publ_section_title
;
Structure prediction by ZEFSAII (Michael W. Deem and Ramdas Pophale) SiO2 
 PCOD9337389
Probable space group: P M M 2
;
_chemical_formula_sum "Si O2"
_cell_formula_units_Z 32
_cell_length_a 7.463493
_cell_length_b 9.537605
_cell_length_c 21.912489
_cell_angle_alpha 90.000000
_cell_angle_beta 90.000000
_cell_angle_gamma 90.000000
_cell_volume 1559.815290
_symmetry_space_group_name_H-M "P M M 2"
_symmetry_group_IT_number 25
_symmetry_cell_setting 'orthorhombic'
loop_
_space_group_symop_operation_xyz
x,y,z
-x,-y,z
-x,y,z
x,-y,z
loop_
_atom_site_type_symbol
_atom_site_label
_atom_site_fract_x
_atom_site_fract_y
_atom_site_fract_z
Si Si1 0.214212 0.841349 0.660410
Si Si2 0.285235 0.158874 0.292071
Si Si3 0.718571 0.337042 0.406867
Si Si4 0.215263 0.168249 0.923008
Si Si5 0.285395 0.658490 0.542163
Si Si6 0.214627 0.340953 0.172035
Si Si7 0.213681 0.169819 0.791715
Si Si8 0.219283 0.163312 0.056466
O O1 0.245562 0.752472 0.600228
O O2 0.282538 0.781653 0.725559
O O3 0.000000 0.850557 0.667561
O O4 0.282893 0.000000 0.652369
O O5 0.500000 0.150310 0.298140
O O6 0.217506 0.238639 0.352366
O O7 0.249800 0.251167 0.232433
O O8 0.216705 0.000000 0.286081
O O9 0.500000 0.334791 0.405664
O O10 0.770409 0.500000 0.397846
O O11 0.776317 0.292515 0.475049
O O12 0.285647 0.220395 0.857380
O O13 0.000000 0.189529 0.922330
O O14 0.243670 0.000000 0.923478
O O15 0.279074 0.216478 0.989485
O O16 0.500000 0.651601 0.538022
O O17 0.218300 0.500000 0.551397
O O18 0.283329 0.500000 0.176959
O O19 0.281107 0.258264 0.112384
O O20 0.000000 0.349298 0.165688
O O21 0.000000 0.197437 0.793460
O O22 0.234709 0.000000 0.790525
O O23 0.000000 0.163701 0.056036
O O24 0.271856 0.000000 0.064370
#
# Coordination Sequence:
#
# PCOD9337389 Si02
#       8
#     4   4   4   4   4   4   4   4
#     4   9  17  28  43  66  95 123 150 183 224 267
#     4  10  20  33  51  74  94 113 143 184 227 268
#     4   8  15  30  50  68  87 113 146 184 223 263
#     4   7   9  15  31  55  80 108 143 180 219 261
#     4   9  18  32  49  68  89 116 151 186 220 263
#     4  10  20  32  46  66  94 127 156 180 214 263
#     4   7  10  18  33  55  84 114 143 178 219 261
#     4   8  13  22  38  60  85 113 146 185 226 263
#
# _framework density 20.515250000000002
#
# number of rings (size 3 to 8) (size 9 to 14) (size 15 to 20)
#    0.000    3.500    0.000    3.750    0.000    2.500 
#    0.000    1.875    0.000    1.500    0.000    4.375 
#    0.000    3.000    0.000    0.000    0.000    0.000 
#
# Total GULP energy -178244.267848 kJ/mol
# GULP energy per Si atom -5570.133370 kJ/mol
# Density = 2.046856 g / cm^3
# Si number density = 20.515250 Si / 1000 Ang^3
#
#
#
# Elastic Constant Matrix: (Units=GPa)
#
#
# Indices 1 2 3 4 5 6 
#
# 1 56.8660 4.0669 6.4604 0.0000 0.0000 0.0000
# 2 4.0669 98.2721 115.3563 0.0000 0.0000 0.0000
# 3 6.4604 115.3563 274.8316 0.0000 0.0000 0.0000
# 4 0.0000 0.0000 0.0000 -217.3254 0.0000 0.0000
# 5 0.0000 0.0000 0.0000 0.0000 23.4392 0.0000
# 6 0.0000 0.0000 0.0000 0.0000 0.0000 8.8049
#
#
#
# Elastic Compliance Matrix: (Units=1/GPa)
#
#
# Indices 1 2 3 4 5 6 
#
# 1 0.017644 -0.000480 -0.000213 0.000000 0.000000 0.000000
# 2 -0.000480 0.020072 -0.008414 0.000000 0.000000 0.000000
# 3 -0.000213 -0.008414 0.007175 0.000000 0.000000 0.000000
# 4 0.000000 0.000000 0.000000 -0.004601 0.000000 0.000000
# 5 0.000000 0.000000 0.000000 0.000000 0.042664 0.000000
# 6 0.000000 0.000000 0.000000 0.000000 0.000000 0.113573
#
#
# Mechanical properties :
#
#
# Convention : Reuss Voigt Hill
#
# Bulk Modulus (GPa) = 37.48486 75.74855 56.61670
# Shear Modulus (GPa) = 22.35816 -16.74385 2.80715
#
# Velocity S-wave (km/s) = 3.30484 -2.85996 1.17102
# Velocity P-wave (km/s) = 5.73358 5.10856 5.43007
#
# Compressibility (1/GPa) = 0.02667744
#
# Stress axis : x y z
#
# Youngs Moduli (GPa) = 56.67734 49.82066 139.37084
#
# Poissons Ratio (x) = 0.02390 0.02975
# Poissons Ratio (y) = 0.02718 1.17262
# Poissons Ratio (z) = 0.01210 0.41917
#
# Static dielectric constant tensor:
#      x y z
#    x 1.816360 0.000000 0.000000 
#    y 0.000000 1.706220 0.000000 
#    z 0.000000 0.000000 1.771360 
# 
# From -- ./inp_files/6547.got.cif
#   From: 2010.05.17/outbox.cif.g08.bks.cpg/sg25_4_cif.got.tgz:6547.got - 2010.06.04 01:04:00.
