data_PCOD9337674
_publ_section_title
;
Structure prediction by ZEFSAII (Michael W. Deem and Ramdas Pophale) SiO2 
 PCOD9337674
Probable space group: P M M 2
;
_chemical_formula_sum "Si O2"
_cell_formula_units_Z 20
_cell_length_a 7.761343
_cell_length_b 9.968092
_cell_length_c 13.566579
_cell_angle_alpha 90.000000
_cell_angle_beta 90.000000
_cell_angle_gamma 90.000000
_cell_volume 1049.588981
_symmetry_space_group_name_H-M "P M M 2"
_symmetry_group_IT_number 25
_symmetry_cell_setting 'orthorhombic'
loop_
_space_group_symop_operation_xyz
x,y,z
-x,-y,z
-x,y,z
x,-y,z
loop_
_atom_site_type_symbol
_atom_site_label
_atom_site_fract_x
_atom_site_fract_y
_atom_site_fract_z
Si Si1 0.207133 0.152543 0.785340
Si Si2 0.199355 0.836721 0.571990
Si Si3 0.793826 0.347532 0.182738
Si Si4 0.705084 0.652071 0.963126
Si Si5 0.788228 0.844817 0.356570
O O1 0.275386 0.201328 0.678275
O O2 0.000000 0.144841 0.775003
O O3 0.269337 0.000000 0.803632
O O4 0.243769 0.250570 0.875019
O O5 0.272999 0.798882 0.465357
O O6 0.000000 0.791174 0.571150
O O7 0.198286 0.000000 0.572432
O O8 0.725565 0.500000 0.190693
O O9 0.759595 0.299271 0.071598
O O10 0.728998 0.249751 0.268122
O O11 0.000000 0.354006 0.194366
O O12 0.500000 0.644374 0.963314
O O13 0.774918 0.500000 0.950290
O O14 0.000000 0.843520 0.358968
O O15 0.738313 0.000000 0.341416
#
# Coordination Sequence:
#
# PCOD9337674 Si02
#       5
#     4   4   4   4   4
#     4   9  17  30  50  74  96 119 151 190 229 272
#     4   7  11  22  41  66  94 118 139 171 220 272
#     4   9  17  29  45  65  89 116 148 188 230 269
#     4  10  21  35  48  63  89 126 162 194 231 274
#     4   8  13  23  42  67  92 116 142 175 218 268
#
# _framework density 19.055078000000002
#
# number of rings (size 3 to 8) (size 9 to 14) (size 15 to 20)
#    0.000    3.400    0.000    3.000    0.000    2.400 
#    0.000    3.000    0.000    4.800    0.000    5.600 
#    0.000    0.000    0.000    0.000    0.000    0.000 
#
# Total GULP energy -111353.065290 kJ/mol
# GULP energy per Si atom -5567.653264 kJ/mol
# Density = 1.901171 g / cm^3
# Si number density = 19.055078 Si / 1000 Ang^3
#
#
#
# Elastic Constant Matrix: (Units=GPa)
#
#
# Indices 1 2 3 4 5 6 
#
# 1 27.0601 4.5237 5.0697 0.0000 0.0000 0.0000
# 2 4.5237 67.0049 102.9246 0.0000 0.0000 0.0000
# 3 5.0697 102.9246 241.3879 0.0000 0.0000 0.0000
# 4 0.0000 0.0000 0.0000 -85.5884 0.0000 0.0000
# 5 0.0000 0.0000 0.0000 0.0000 -38.4078 0.0000
# 6 0.0000 0.0000 0.0000 0.0000 0.0000 1.1751
#
#
#
# Elastic Compliance Matrix: (Units=1/GPa)
#
#
# Indices 1 2 3 4 5 6 
#
# 1 0.037436 -0.003825 0.000845 0.000000 0.000000 0.000000
# 2 -0.003825 0.043645 -0.018529 0.000000 0.000000 0.000000
# 3 0.000845 -0.018529 0.012026 0.000000 0.000000 0.000000
# 4 0.000000 0.000000 0.000000 -0.011684 0.000000 0.000000
# 5 0.000000 0.000000 0.000000 0.000000 -0.026036 0.000000
# 6 0.000000 0.000000 0.000000 0.000000 0.000000 0.850970
#
#
# Mechanical properties :
#
#
# Convention : Reuss Voigt Hill
#
# Bulk Modulus (GPa) = 19.96505 62.27652 41.12078
# Shear Modulus (GPa) = 5.17560 -9.70190 -2.26315
#
# Velocity S-wave (km/s) = 1.64986 -2.25888 -1.09099
# Velocity P-wave (km/s) = 3.75894 5.09411 4.47658
#
# Compressibility (1/GPa) = 0.05008754
#
# Stress axis : x y z
#
# Youngs Moduli (GPa) = 26.71228 22.91224 83.15602
#
# Poissons Ratio (x) = 0.08763 -0.07023
# Poissons Ratio (y) = 0.10217 1.54082
# Poissons Ratio (z) = -0.02256 0.42455
#
# Static dielectric constant tensor:
#      x y z
#    x 1.691820 0.000000 0.000000 
#    y 0.000000 1.683480 0.000000 
#    z 0.000000 0.000000 1.694070 
# 
# From -- ./inp_files/3896.got.cif
#   From: 2010.05.17/outbox.cif.g08.bks.cpg/sg25_2_cif.got.tgz:3896.got - 2010.06.04 01:04:00.
