data_PCOD9337461
_publ_section_title
;
Structure prediction by ZEFSAII (Michael W. Deem and Ramdas Pophale) SiO2 
 PCOD9337461
Probable space group: P M M 2
;
_chemical_formula_sum "Si O2"
_cell_formula_units_Z 28
_cell_length_a 7.467709
_cell_length_b 9.579278
_cell_length_c 18.935960
_cell_angle_alpha 90.000000
_cell_angle_beta 90.000000
_cell_angle_gamma 90.000000
_cell_volume 1354.588832
_symmetry_space_group_name_H-M "P M M 2"
_symmetry_group_IT_number 25
_symmetry_cell_setting 'orthorhombic'
loop_
_space_group_symop_operation_xyz
x,y,z
-x,-y,z
-x,y,z
x,-y,z
loop_
_atom_site_type_symbol
_atom_site_label
_atom_site_fract_x
_atom_site_fract_y
_atom_site_fract_z
Si Si1 0.215797 0.659601 0.789790
Si Si2 0.780400 0.338403 0.482500
Si Si3 0.280513 0.660652 0.059660
Si Si4 0.785330 0.841321 0.350345
Si Si5 0.713201 0.841979 0.926736
Si Si6 0.286356 0.159484 0.192381
Si Si7 0.792055 0.669949 0.636004
O O1 0.277883 0.500000 0.803640
O O2 0.258572 0.762249 0.853293
O O3 0.284442 0.707974 0.712595
O O4 0.000000 0.652871 0.784223
O O5 0.728881 0.500000 0.474327
O O6 0.719299 0.249670 0.415697
O O7 0.717678 0.286615 0.559811
O O8 0.000000 0.335743 0.484228
O O9 0.500000 0.659350 0.059418
O O10 0.223018 0.500000 0.057088
O O11 0.220880 0.740238 0.130470
O O12 0.219435 0.747842 0.991458
O O13 0.747134 0.787178 0.271647
O O14 0.000000 0.846689 0.356857
O O15 0.716342 0.000000 0.353643
O O16 0.500000 0.852174 0.937094
O O17 0.784744 0.000000 0.926378
O O18 0.500000 0.150617 0.183682
O O19 0.215799 0.000000 0.187156
O O20 0.789571 0.500000 0.635143
O O21 0.000000 0.714432 0.636195
#
# Coordination Sequence:
#
# PCOD9337461 Si02
#       7
#     4   4   4   4   4   4   4
#     4   9  17  30  49  72  96 121 152 192 235 276
#     4   8  13  23  41  63  86 114 147 180 215 257
#     4   9  17  30  49  70  88 110 147 191 226 259
#     4   9  17  28  42  63  90 115 141 177 218 257
#     4  10  20  33  49  69  94 124 156 188 225 273
#     4   9  17  30  47  64  84 113 146 177 215 266
#     4   7  11  22  41  64  88 114 145 181 220 261
#
# _framework density 20.670479
#
# number of rings (size 3 to 8) (size 9 to 14) (size 15 to 20)
#    0.000    3.286    0.000    2.571    0.000    3.429 
#    0.000    1.429    0.000    6.000    0.000    4.000 
#    0.000    0.000    0.000    0.000    0.000    0.000 
#
# Total GULP energy -156104.500717 kJ/mol
# GULP energy per Si atom -5575.160740 kJ/mol
# Density = 2.062343 g / cm^3
# Si number density = 20.670479 Si / 1000 Ang^3
#
#
#
# Elastic Constant Matrix: (Units=GPa)
#
#
# Indices 1 2 3 4 5 6 
#
# 1 59.6554 5.7494 2.0812 0.0000 0.0000 0.0000
# 2 5.7494 118.7785 124.8237 0.0000 0.0000 0.0000
# 3 2.0812 124.8237 254.6340 0.0000 0.0000 0.0000
# 4 0.0000 0.0000 0.0000 455.6460 0.0000 0.0000
# 5 0.0000 0.0000 0.0000 0.0000 20.7431 0.0000
# 6 0.0000 0.0000 0.0000 0.0000 0.0000 3.4065
#
#
#
# Elastic Compliance Matrix: (Units=1/GPa)
#
#
# Indices 1 2 3 4 5 6 
#
# 1 0.016878 -0.001386 0.000541 0.000000 0.000000 0.000000
# 2 -0.001386 0.017478 -0.008557 0.000000 0.000000 0.000000
# 3 0.000541 -0.008557 0.008117 0.000000 0.000000 0.000000
# 4 0.000000 0.000000 0.000000 0.002195 0.000000 0.000000
# 5 0.000000 0.000000 0.000000 0.000000 0.048209 0.000000
# 6 0.000000 0.000000 0.000000 0.000000 0.000000 0.293557
#
#
# Mechanical properties :
#
#
# Convention : Reuss Voigt Hill
#
# Bulk Modulus (GPa) = 42.24600 77.59739 59.92169
# Shear Modulus (GPa) = 12.10284 115.98671 64.04477
#
# Velocity S-wave (km/s) = 2.42236 7.49894 5.57234
# Velocity P-wave (km/s) = 5.32034 10.61134 8.39364
#
# Compressibility (1/GPa) = 0.02367088
#
# Stress axis : x y z
#
# Youngs Moduli (GPa) = 59.25006 57.21388 123.19317
#
# Poissons Ratio (x) = 0.07930 -0.06671
# Poissons Ratio (y) = 0.08212 1.05412
# Poissons Ratio (z) = -0.03208 0.48956
#
# Static dielectric constant tensor:
#      x y z
#    x 1.809890 0.000000 0.000000 
#    y 0.000000 1.697120 0.000000 
#    z 0.000000 0.000000 1.746410 
# 
# From -- ./inp_files/6227.got.cif
#   From: 2010.05.17/outbox.cif.g08.bks.cpg/sg25_4_cif.got.tgz:6227.got - 2010.06.04 01:04:00.
