data_PCOD9337244
_publ_section_title
;
Structure prediction by ZEFSAII (Michael W. Deem and Ramdas Pophale) SiO2 
 PCOD9337244
Probable space group: P M M 2
;
_chemical_formula_sum "Si O2"
_cell_formula_units_Z 20
_cell_length_a 7.578315
_cell_length_b 13.711320
_cell_length_c 9.694219
_cell_angle_alpha 90.000000
_cell_angle_beta 90.000000
_cell_angle_gamma 90.000000
_cell_volume 1007.313713
_symmetry_space_group_name_H-M "P M M 2"
_symmetry_group_IT_number 25
_symmetry_cell_setting 'orthorhombic'
loop_
_space_group_symop_operation_xyz
x,y,z
-x,-y,z
-x,y,z
x,-y,z
loop_
_atom_site_type_symbol
_atom_site_label
_atom_site_fract_x
_atom_site_fract_y
_atom_site_fract_z
Si Si1 0.791993 0.292123 0.004690
Si Si2 0.283500 0.500000 0.717572
Si Si3 0.202253 0.500000 0.041248
Si Si4 0.294433 0.710681 0.686287
Si Si5 0.287297 0.891344 0.193571
Si Si6 0.715868 0.891186 0.512183
O O1 0.720215 0.392815 0.073492
O O2 0.768088 0.197269 0.097418
O O3 0.000000 0.308292 0.984218
O O4 0.715727 0.277494 0.851642
O O5 0.500000 0.500000 0.725169
O O6 0.224153 0.602364 0.653013
O O7 0.213290 0.500000 0.874125
O O8 0.000000 0.500000 0.091521
O O9 0.500000 0.707678 0.647649
O O10 0.218049 0.803452 0.607336
O O11 0.500000 0.892780 0.192380
O O12 0.232586 0.876722 0.352609
O O13 0.227193 0.000000 0.149663
O O14 0.500000 0.891951 0.516173
O O15 0.772152 0.000000 0.555583
#
# Coordination Sequence:
#
# PCOD9337244 Si02
#       6
#     4   2   2   4   4   4
#     4  10  19  31  48  70  95 122 155 192 229 271
#     4   8  14  24  41  66  92 116 144 182 225 268
#     4   8  16  30  45  62  90 126 154 182 225 272
#     4   9  16  28  47  69  92 118 150 187 227 270
#     4   9  18  33  50  67  91 124 158 190 228 274
#     4   8  15  29  48  67  88 117 151 185 224 272
#
# _framework density 19.854786000000001
#
# number of rings (size 3 to 8) (size 9 to 14) (size 15 to 20)
#    0.000    3.200    0.000    1.800    0.000    2.000 
#    0.000    4.000    0.000    3.600    0.000    4.200 
#    0.000    0.000    0.000    0.000    0.000    0.000 
#
# Total GULP energy -111364.830955 kJ/mol
# GULP energy per Si atom -5568.241548 kJ/mol
# Density = 1.980960 g / cm^3
# Si number density = 19.854786 Si / 1000 Ang^3
#
#
#
# Elastic Constant Matrix: (Units=GPa)
#
#
# Indices 1 2 3 4 5 6 
#
# 1 45.2867 1.0553 -5.6521 0.0000 0.0000 0.0000
# 2 1.0553 248.7897 86.3216 0.0000 0.0000 0.0000
# 3 -5.6521 86.3216 44.7527 0.0000 0.0000 0.0000
# 4 0.0000 0.0000 0.0000 -48.4736 0.0000 0.0000
# 5 0.0000 0.0000 0.0000 0.0000 -661.4940 0.0000
# 6 0.0000 0.0000 0.0000 0.0000 0.0000 -0.0026
#
#
#
# Elastic Compliance Matrix: (Units=1/GPa)
#
#
# Indices 1 2 3 4 5 6 
#
# 1 0.023345 -0.003392 0.009492 0.000000 0.000000 0.000000
# 2 -0.003392 0.012645 -0.024820 0.000000 0.000000 0.000000
# 3 0.009492 -0.024820 0.071418 0.000000 0.000000 0.000000
# 4 0.000000 0.000000 0.000000 -0.020630 0.000000 0.000000
# 5 0.000000 0.000000 0.000000 0.000000 -0.001512 0.000000
# 6 0.000000 0.000000 0.000000 0.000000 0.000000**********
#
#
# Mechanical properties :
#
#
# Convention : Reuss Voigt Hill
#
# Bulk Modulus (GPa) = 14.29233 55.80876 35.05055
# Shear Modulus (GPa) = -0.01300 -124.85374 -62.43337
#
# Velocity S-wave (km/s) = -0.08100 -7.93851 -5.61367
# Velocity P-wave (km/s) = 2.68427 7.47376 4.93213
#
# Compressibility (1/GPa) = 0.06996758
#
# Stress axis : x y z
#
# Youngs Moduli (GPa) = 42.83537 79.07972 14.00214
#
# Poissons Ratio (x) = 0.26827 -0.13290
# Poissons Ratio (y) = 0.14531 0.34753
# Poissons Ratio (z) = -0.40658 1.96274
#
# Static dielectric constant tensor:
#      x y z
#    x 1.911780 0.000000 0.000000 
#    y 0.000000 1.775630 0.000000 
#    z 0.000000 0.000000 1.639070 
# 
# From -- ./inp_files/1892.got.cif
#   From: 2010.05.17/outbox.cif.g08.bks.cpg/sg25_1_cif.got.tgz:1892.got - 2010.06.04 01:04:00.
