data_PCOD9337914
_publ_section_title
;
Structure prediction by ZEFSAII (Michael W. Deem and Ramdas Pophale) SiO2 
 PCOD9337914
Probable space group: P M C 21
;
_chemical_formula_sum "Si O2"
_cell_formula_units_Z 32
_cell_length_a 8.111037
_cell_length_b 11.836159
_cell_length_c 16.971362
_cell_angle_alpha 90.000000
_cell_angle_beta 90.000000
_cell_angle_gamma 90.000000
_cell_volume 1629.310552
_symmetry_space_group_name_H-M "P M C 21"
_symmetry_group_IT_number 26
_symmetry_cell_setting 'orthorhombic'
loop_
_space_group_symop_operation_xyz
x,y,z
-x,-y,1/2+z
-x,y,z
x,-y,1/2+z
loop_
_atom_site_type_symbol
_atom_site_label
_atom_site_fract_x
_atom_site_fract_y
_atom_site_fract_z
Si Si1 0.700616 0.560835 0.403560
Si Si2 0.812057 0.204283 0.283379
Si Si3 0.189521 0.287519 0.044014
Si Si4 0.302767 0.303524 0.444128
Si Si5 0.696528 0.924433 0.627141
Si Si6 0.302055 0.355905 0.732190
Si Si7 0.297574 0.183329 0.606039
Si Si8 0.684954 0.595353 0.690011
O O1 0.500000 0.560166 0.405353
O O2 0.767087 0.656544 0.461864
O O3 0.755627 0.432936 0.426703
O O4 0.756190 0.601919 0.317169
O O5 0.735403 0.221978 0.369698
O O6 0.733839 0.124387 0.215326
O O7 0.798390 0.329575 0.245368
O O8 0.000000 0.169528 0.292093
O O9 0.219669 0.156313 0.062194
O O10 0.308892 0.347368 0.106053
O O11 0.000000 0.313108 0.064034
O O12 0.500000 0.312021 0.450344
O O13 0.243161 0.247466 0.526098
O O14 0.500000 0.918116 0.616780
O O15 0.750649 0.052856 0.613641
O O16 0.500000 0.340018 0.739960
O O17 0.238827 0.249326 0.684213
O O18 0.271693 0.465979 0.679168
O O19 0.500000 0.186230 0.605462
O O20 0.500000 0.600972 0.724883
#
# Coordination Sequence:
#
# PCOD9337914 Si02
#       8
#     4   4   4   4   4   4   4   4
#     4  10  19  34  58  87 117 146 181 226 283 345
#     4  11  21  34  55  83 115 149 184 231 279 336
#     4  11  22  35  53  80 113 148 185 230 277 332
#     4  10  19  36  60  88 115 145 187 235 286 340
#     4  10  20  38  60  80 106 147 195 240 281 326
#     4   9  17  32  56  86 114 140 176 231 287 332
#     4   9  19  35  58  86 113 141 189 246 283 323
#     4  10  17  32  58  84 109 142 183 227 280 334
#
# _framework density 19.64021
#
# number of rings (size 3 to 8) (size 9 to 14) (size 15 to 20)
#    0.000    2.000    1.250    5.250    0.000    2.500 
#    2.250    1.250    0.000    4.500    0.000    0.000 
#    0.000    0.000    0.000    0.000    0.000    0.000 
#
# Total GULP energy -178341.322897 kJ/mol
# GULP energy per Si atom -5573.166341 kJ/mol
# Density = 1.959551 g / cm^3
# Si number density = 19.640210 Si / 1000 Ang^3
#
#
#
# Elastic Constant Matrix: (Units=GPa)
#
#
# Indices 1 2 3 4 5 6 
#
# 1 31.1960 13.1216 8.1735 0.0000 0.0000 0.0000
# 2 13.1216 146.8816 81.8145 0.0000 0.0000 0.0000
# 3 8.1735 81.8145 100.2342 0.0000 0.0000 0.0000
# 4 0.0000 0.0000 0.0000 21.1689 0.0000 0.0000
# 5 0.0000 0.0000 0.0000 0.0000 -0.6387 0.0000
# 6 0.0000 0.0000 0.0000 0.0000 0.0000 -489.8553
#
#
#
# Elastic Compliance Matrix: (Units=1/GPa)
#
#
# Indices 1 2 3 4 5 6 
#
# 1 0.033322 -0.002683 -0.000527 0.000000 0.000000 0.000000
# 2 -0.002683 0.012700 -0.010148 0.000000 0.000000 0.000000
# 3 -0.000527 -0.010148 0.018302 0.000000 0.000000 0.000000
# 4 0.000000 0.000000 0.000000 0.047239 0.000000 0.000000
# 5 0.000000 0.000000 0.000000 0.000000 -1.565699 0.000000
# 6 0.000000 0.000000 0.000000 0.000000 0.000000 -0.002041
#
#
# Mechanical properties :
#
#
# Convention : Reuss Voigt Hill
#
# Bulk Modulus (GPa) = 26.58939 53.83679 40.21309
# Shear Modulus (GPa) = -3.52877 -82.18486 -42.85682
#
# Velocity S-wave (km/s) = -1.34187 -6.47580 -4.67636
# Velocity P-wave (km/s) = 3.34168 5.33326 2.93912
#
# Compressibility (1/GPa) = 0.03760898
#
# Stress axis : x y z
#
# Youngs Moduli (GPa) = 30.01015 78.73910 54.63780
#
# Poissons Ratio (x) = 0.21128 0.02880
# Poissons Ratio (y) = 0.08052 0.55444
# Poissons Ratio (z) = 0.01582 0.79901
#
# Static dielectric constant tensor:
#      x y z
#    x 1.685990 0.000000 0.000000 
#    y 0.000000 1.714500 0.000000 
#    z 0.000000 0.000000 1.727610 
# 
# From -- ./inp_files/5059.got.cif
#   From: 2010.05.17/outbox.cif.g08.bks.cpg/sg26_3_cif.got.tgz:5059.got - 2010.06.04 01:07:29.
