data_PCOD9337174
_publ_section_title
;
Structure prediction by ZEFSAII (Michael W. Deem and Ramdas Pophale) SiO2 
 PCOD9337174
Probable space group: P M M 2
;
_chemical_formula_sum "Si O2"
_cell_formula_units_Z 32
_cell_length_a 7.660949
_cell_length_b 19.732682
_cell_length_c 10.812202
_cell_angle_alpha 90.000000
_cell_angle_beta 90.000000
_cell_angle_gamma 90.000000
_cell_volume 1634.492150
_symmetry_space_group_name_H-M "P M M 2"
_symmetry_group_IT_number 25
_symmetry_cell_setting 'orthorhombic'
loop_
_space_group_symop_operation_xyz
x,y,z
-x,-y,z
-x,y,z
x,-y,z
loop_
_atom_site_type_symbol
_atom_site_label
_atom_site_fract_x
_atom_site_fract_y
_atom_site_fract_z
Si Si1 0.290650 0.424800 0.559540
Si Si2 0.789594 0.923570 0.814825
Si Si3 0.707871 0.782632 0.921616
Si Si4 0.705602 0.214386 0.424132
Si Si5 0.292991 0.280883 0.174465
Si Si6 0.208033 0.423609 0.272342
Si Si7 0.210758 0.076541 0.531593
Si Si8 0.285538 0.287640 0.671734
O O1 0.500000 0.427315 0.570949
O O2 0.220154 0.500000 0.584535
O O3 0.253623 0.408462 0.415731
O O4 0.229842 0.364896 0.648104
O O5 0.735304 0.862763 0.903465
O O6 0.730189 0.909042 0.673244
O O7 0.000000 0.924615 0.812172
O O8 0.731060 0.000000 0.847205
O O9 0.500000 0.770924 0.921750
O O10 0.777235 0.745719 0.798368
O O11 0.779269 0.750897 0.048192
O O12 0.500000 0.230974 0.423914
O O13 0.780692 0.245844 0.298741
O O14 0.726433 0.134169 0.439332
O O15 0.776235 0.246661 0.550870
O O16 0.500000 0.266558 0.173586
O O17 0.272082 0.361620 0.189151
O O18 0.274931 0.500000 0.245076
O O19 0.000000 0.425355 0.262501
O O20 0.000000 0.077829 0.532289
O O21 0.265930 0.000000 0.500991
O O22 0.500000 0.285636 0.673007
#
# Coordination Sequence:
#
# PCOD9337174 Si02
#       8
#     4   4   4   4   4   4   4   4
#     4   9  16  29  51  75 101 133 165 203 254 302
#     4   9  18  33  52  74 101 131 165 206 251 301
#     4  10  20  34  52  75 103 133 168 210 249 294
#     4  10  18  31  51  74 100 129 165 207 250 296
#     4  10  21  36  52  74 105 137 167 205 253 300
#     4  10  20  33  51  76 103 131 169 212 248 292
#     4   9  18  32  50  75 104 131 165 210 254 297
#     4   9  16  29  49  75 101 125 162 208 248 292
#
# _framework density 19.577945
#
# number of rings (size 3 to 8) (size 9 to 14) (size 15 to 20)
#    0.000    2.500    2.500    1.125    0.000    2.250 
#    0.000    3.125    0.000    6.000    0.000    1.750 
#    0.000    0.000    0.000    0.000    0.000    0.000 
#
# Total GULP energy -178486.008846 kJ/mol
# GULP energy per Si atom -5577.687776 kJ/mol
# Density = 1.953339 g / cm^3
# Si number density = 19.577945 Si / 1000 Ang^3
#
#
#
# Elastic Constant Matrix: (Units=GPa)
#
#
# Indices 1 2 3 4 5 6 
#
# 1 31.7940 -10.4012 11.5758 0.0000 0.0000 0.0000
# 2 -10.4012 145.5665 95.9987 0.0000 0.0000 0.0000
# 3 11.5758 95.9987 137.6219 0.0000 0.0000 0.0000
# 4 0.0000 0.0000 0.0000 31.9757 0.0000 0.0000
# 5 0.0000 0.0000 0.0000 0.0000 -1.4886 0.0000
# 6 0.0000 0.0000 0.0000 0.0000 0.0000 31.7633
#
#
#
# Elastic Compliance Matrix: (Units=1/GPa)
#
#
# Indices 1 2 3 4 5 6 
#
# 1 0.037768 0.008878 -0.009369 0.000000 0.000000 0.000000
# 2 0.008878 0.014809 -0.011077 0.000000 0.000000 0.000000
# 3 -0.009369 -0.011077 0.015781 0.000000 0.000000 0.000000
# 4 0.000000 0.000000 0.000000 0.031274 0.000000 0.000000
# 5 0.000000 0.000000 0.000000 0.000000 -0.671765 0.000000
# 6 0.000000 0.000000 0.000000 0.000000 0.000000 0.031483
#
#
# Mechanical properties :
#
#
# Convention : Reuss Voigt Hill
#
# Bulk Modulus (GPa) = 22.11371 56.59213 39.35292
# Shear Modulus (GPa) = -9.95144 26.97069 8.50962
#
# Velocity S-wave (km/s) = -2.25699 3.71564 2.08710
# Velocity P-wave (km/s) = 2.12784 6.88308 5.09433
#
# Compressibility (1/GPa) = 0.04522081
#
# Stress axis : x y z
#
# Youngs Moduli (GPa) = 26.47748 67.52641 63.36715
#
# Poissons Ratio (x) = -0.59947 0.59371
# Poissons Ratio (y) = -0.23506 0.70191
# Poissons Ratio (z) = 0.24808 0.74798
#
# Static dielectric constant tensor:
#      x y z
#    x 1.712170 0.000000 0.000000 
#    y 0.000000 1.707940 0.000000 
#    z 0.000000 0.000000 1.671190 
# 
# From -- ./inp_files/4436.got.cif
#   From: 2010.05.17/outbox.cif.g08.bks.cpg/sg25_3_cif.got.tgz:4436.got - 2010.06.04 01:04:00.
