data_PCOD9337228
_publ_section_title
;
Structure prediction by ZEFSAII (Michael W. Deem and Ramdas Pophale) SiO2 
 PCOD9337228
Probable space group: P M M 2
;
_chemical_formula_sum "Si O2"
_cell_formula_units_Z 24
_cell_length_a 18.326976
_cell_length_b 7.512772
_cell_length_c 7.882068
_cell_angle_alpha 90.000000
_cell_angle_beta 90.000000
_cell_angle_gamma 90.000000
_cell_volume 1085.253506
_symmetry_space_group_name_H-M "P M M 2"
_symmetry_group_IT_number 25
_symmetry_cell_setting 'orthorhombic'
loop_
_space_group_symop_operation_xyz
x,y,z
-x,-y,z
-x,y,z
x,-y,z
loop_
_atom_site_type_symbol
_atom_site_label
_atom_site_fract_x
_atom_site_fract_y
_atom_site_fract_z
Si Si1 0.083653 0.217424 0.467130
Si Si2 0.190069 0.218029 0.768527
Si Si3 0.185846 0.781928 0.160750
Si Si4 0.500000 0.801941 0.267271
Si Si5 0.349614 0.797996 0.772065
Si Si6 0.500000 0.691451 0.623529
Si Si7 0.344753 0.203428 0.178209
O O1 0.130188 0.273001 0.631678
O O2 0.124433 0.272120 0.294153
O O3 0.000000 0.276014 0.473569
O O4 0.083644 0.000000 0.467796
O O5 0.271642 0.277818 0.714453
O O6 0.192615 0.000000 0.769560
O O7 0.174906 0.272118 0.964025
O O8 0.265887 0.720521 0.225061
O O9 0.188558 0.000000 0.159302
O O10 0.500000 0.822412 0.467762
O O11 0.577382 0.714370 0.223202
O O12 0.500000 0.000000 0.181116
O O13 0.425762 0.708948 0.727546
O O14 0.355043 0.000000 0.706916
O O15 0.342555 0.804122 0.974787
O O16 0.500000 0.500000 0.539032
O O17 0.347086 0.000000 0.246476
#
# Coordination Sequence:
#
# PCOD9337228 Si02
#       7
#     4   4   4   2   4   2   4
#     4   9  16  23  34  57  92 131 159 183 231 293
#     4   8  15  26  42  64  87 118 161 201 232 275
#     4   8  14  24  37  57  87 117 151 197 237 274
#     4  10  19  30  48  70  90 122 159 198 242 284
#     4   9  17  33  54  71  88 121 168 209 240 278
#     4  12  25  34  42  68 104 130 155 194 244 298
#     4   8  15  28  48  71  88 110 160 213 242 273
#
# _framework density 22.114647999999999
#
# number of rings (size 3 to 8) (size 9 to 14) (size 15 to 20)
#    0.000    3.167    0.000    3.250    2.333    2.000 
#    0.000    5.000    0.000    0.000    0.000    0.000 
#    0.000    0.667    0.000    0.333    0.000    0.000 
#
# Total GULP energy -133799.989908 kJ/mol
# GULP energy per Si atom -5574.999579 kJ/mol
# Density = 2.206431 g / cm^3
# Si number density = 22.114648 Si / 1000 Ang^3
#
#
#
# Elastic Constant Matrix: (Units=GPa)
#
#
# Indices 1 2 3 4 5 6 
#
# 1 257.4355 15.0000 99.6638 0.0000 0.0000 0.0000
# 2 15.0000 61.6326 4.0840 0.0000 0.0000 0.0000
# 3 99.6638 4.0840 94.8339 0.0000 0.0000 0.0000
# 4 0.0000 0.0000 0.0000 -66.4192 0.0000 0.0000
# 5 0.0000 0.0000 0.0000 0.0000 44.6523 0.0000
# 6 0.0000 0.0000 0.0000 0.0000 0.0000 -14.5956
#
#
#
# Elastic Compliance Matrix: (Units=1/GPa)
#
#
# Indices 1 2 3 4 5 6 
#
# 1 0.006630 -0.001155 -0.006918 0.000000 0.000000 0.000000
# 2 -0.001155 0.016473 0.000505 0.000000 0.000000 0.000000
# 3 -0.006918 0.000505 0.017793 0.000000 0.000000 0.000000
# 4 0.000000 0.000000 0.000000 -0.015056 0.000000 0.000000
# 5 0.000000 0.000000 0.000000 0.000000 0.022395 0.000000
# 6 0.000000 0.000000 0.000000 0.000000 0.000000 -0.068514
#
#
# Mechanical properties :
#
#
# Convention : Reuss Voigt Hill
#
# Bulk Modulus (GPa) = 38.82110 72.37750 55.59930
# Shear Modulus (GPa) = 1451.35718 12.40445 731.88082
#
# Velocity S-wave (km/s) = 25.64591 2.37093 18.21172
# Velocity P-wave (km/s) = 29.90890 6.34779 21.61986
#
# Compressibility (1/GPa) = 0.02575919
#
# Stress axis : x y z
#
# Youngs Moduli (GPa) = 150.83010 60.70580 56.20109
#
# Poissons Ratio (x) = 0.07013 0.38879
# Poissons Ratio (y) = 0.17424 -0.02836
# Poissons Ratio (z) = 1.04343 -0.03063
#
# Static dielectric constant tensor:
#      x y z
#    x 1.823320 0.000000 0.000000 
#    y 0.000000 1.885840 0.000000 
#    z 0.000000 0.000000 1.759870 
# 
# From -- ./inp_files/3369.got.cif
#   From: 2010.05.17/outbox.cif.g08.bks.cpg/sg25_2_cif.got.tgz:3369.got - 2010.06.04 01:04:00.
