data_PCOD9337739
_publ_section_title
;
Structure prediction by ZEFSAII (Michael W. Deem and Ramdas Pophale) SiO2 
 PCOD9337739
Probable space group: P M M 2
;
_chemical_formula_sum "Si O2"
_cell_formula_units_Z 32
_cell_length_a 9.787488
_cell_length_b 8.499714
_cell_length_c 21.412713
_cell_angle_alpha 90.000000
_cell_angle_beta 90.000000
_cell_angle_gamma 90.000000
_cell_volume 1781.341769
_symmetry_space_group_name_H-M "P M M 2"
_symmetry_group_IT_number 25
_symmetry_cell_setting 'orthorhombic'
loop_
_space_group_symop_operation_xyz
x,y,z
-x,-y,z
-x,y,z
x,-y,z
loop_
_atom_site_type_symbol
_atom_site_label
_atom_site_fract_x
_atom_site_fract_y
_atom_site_fract_z
Si Si1 0.343563 0.810937 0.578480
Si Si2 0.333988 0.683222 0.710508
Si Si3 0.841414 0.190121 0.323844
Si Si4 0.843245 0.808108 0.465365
Si Si5 0.657065 0.688179 0.211791
Si Si6 0.157834 0.188159 0.099784
Si Si7 0.341821 0.307530 0.847175
Si Si8 0.841547 0.689861 0.963129
O O1 0.500000 0.753221 0.573404
O O2 0.289162 0.766298 0.647038
O O3 0.253791 0.751794 0.520758
O O4 0.346751 0.000000 0.575000
O O5 0.500000 0.692427 0.712271
O O6 0.296694 0.500000 0.705909
O O7 0.290199 0.744825 0.778640
O O8 0.805315 0.239105 0.394774
O O9 0.739032 0.255906 0.272759
O O10 0.000000 0.236141 0.311819
O O11 0.837433 0.000000 0.321271
O O12 0.000000 0.761023 0.476353
O O13 0.840346 0.000000 0.465774
O O14 0.500000 0.745539 0.211575
O O15 0.654768 0.500000 0.211033
O O16 0.741022 0.746242 0.151749
O O17 0.000000 0.241941 0.110292
O O18 0.158284 0.000000 0.103125
O O19 0.198543 0.241682 0.030270
O O20 0.500000 0.260540 0.855085
O O21 0.340083 0.500000 0.845407
O O22 0.251193 0.256631 0.905488
O O23 0.832721 0.500000 0.966736
O O24 0.000000 0.731936 0.952193
#
# Coordination Sequence:
#
# PCOD9337739 Si02
#       8
#     4   4   4   4   4   4   4   4
#     4   9  16  26  43  67  91 117 154 196 232 271
#     4   8  14  26  43  62  87 121 157 191 232 281
#     4   9  18  34  56  78  98 126 165 203 241 290
#     4   8  15  29  48  69  94 123 154 189 231 281
#     4  11  24  38  52  75 105 132 160 198 242 286
#     4  10  21  37  56  76  99 130 166 200 237 287
#     4   8  14  26  45  66  88 119 158 194 230 279
#     4   9  17  30  49  72  96 122 154 194 239 284
#
# _framework density 17.963986999999999
#
# number of rings (size 3 to 8) (size 9 to 14) (size 15 to 20)
#    0.000    3.000    0.000    2.625    0.000    4.500 
#    0.000    4.375    0.000    4.125    0.000    0.000 
#    0.000    0.000    0.000    0.000    0.000    0.000 
#
# Total GULP energy -178317.271916 kJ/mol
# GULP energy per Si atom -5572.414747 kJ/mol
# Density = 1.792310 g / cm^3
# Si number density = 17.963987 Si / 1000 Ang^3
#
#
#
# Elastic Constant Matrix: (Units=GPa)
#
#
# Indices 1 2 3 4 5 6 
#
# 1 91.4870 19.6175 114.6611 0.0000 0.0000 0.0000
# 2 19.6175 9.3854 28.0112 0.0000 0.0000 0.0000
# 3 114.6611 28.0112 207.4807 0.0000 0.0000 0.0000
# 4 0.0000 0.0000 0.0000 29.3278 0.0000 0.0000
# 5 0.0000 0.0000 0.0000 0.0000 39.4677 0.0000
# 6 0.0000 0.0000 0.0000 0.0000 0.0000 14.7643
#
#
#
# Elastic Compliance Matrix: (Units=1/GPa)
#
#
# Indices 1 2 3 4 5 6 
#
# 1 0.039894 -0.029456 -0.018070 0.000000 0.000000 0.000000
# 2 -0.029456 0.200203 -0.010750 0.000000 0.000000 0.000000
# 3 -0.018070 -0.010750 0.016257 0.000000 0.000000 0.000000
# 4 0.000000 0.000000 0.000000 0.034097 0.000000 0.000000
# 5 0.000000 0.000000 0.000000 0.000000 0.025337 0.000000
# 6 0.000000 0.000000 0.000000 0.000000 0.000000 0.067731
#
#
# Mechanical properties :
#
#
# Convention : Reuss Voigt Hill
#
# Bulk Modulus (GPa) = 7.15302 70.32587 38.73944
# Shear Modulus (GPa) = 9.14623 26.44949 17.79786
#
# Velocity S-wave (km/s) = 2.25887 3.84130 3.15104
# Velocity P-wave (km/s) = 3.28539 7.67511 5.90344
#
# Compressibility (1/GPa) = 0.13980111
#
# Stress axis : x y z
#
# Youngs Moduli (GPa) = 25.06625 4.99494 61.51091
#
# Poissons Ratio (x) = 0.14713 1.11151
# Poissons Ratio (y) = 0.73836 0.66125
# Poissons Ratio (z) = 0.45295 0.05370
#
# Static dielectric constant tensor:
#      x y z
#    x 1.608200 0.000000 0.000000 
#    y 0.000000 1.622890 0.000000 
#    z 0.000000 0.000000 1.616670 
# 
# From -- ./inp_files/6560.got.cif
#   From: 2010.05.17/outbox.cif.g08.bks.cpg/sg25_4_cif.got.tgz:6560.got - 2010.06.04 01:04:00.
