data_PCOD9337762
_publ_section_title
;
Structure prediction by ZEFSAII (Michael W. Deem and Ramdas Pophale) SiO2 
 PCOD9337762
Probable space group: P M M 2
;
_chemical_formula_sum "Si O2"
_cell_formula_units_Z 24
_cell_length_a 8.833837
_cell_length_b 11.935535
_cell_length_c 12.994844
_cell_angle_alpha 90.000000
_cell_angle_beta 90.000000
_cell_angle_gamma 90.000000
_cell_volume 1370.131788
_symmetry_space_group_name_H-M "P M M 2"
_symmetry_group_IT_number 25
_symmetry_cell_setting 'orthorhombic'
loop_
_space_group_symop_operation_xyz
x,y,z
-x,-y,z
-x,y,z
x,-y,z
loop_
_atom_site_type_symbol
_atom_site_label
_atom_site_fract_x
_atom_site_fract_y
_atom_site_fract_z
Si Si1 0.180615 0.500000 0.411170
Si Si2 0.681478 0.500000 0.639923
Si Si3 0.820426 0.133140 0.529013
Si Si4 0.819026 0.869212 0.916084
Si Si5 0.681587 0.129881 0.138317
Si Si6 0.318246 0.268407 0.339893
Si Si7 0.681239 0.257107 0.724917
O O1 0.237313 0.500000 0.529567
O O2 0.245203 0.389358 0.356936
O O3 0.000000 0.500000 0.409418
O O4 0.500000 0.500000 0.620653
O O5 0.718550 0.386989 0.701814
O O6 0.738734 0.190567 0.432824
O O7 0.753987 0.185337 0.633006
O O8 0.000000 0.155890 0.523712
O O9 0.797418 0.000000 0.527787
O O10 0.743992 0.789635 0.831876
O O11 0.000000 0.860308 0.910610
O O12 0.778042 0.000000 0.895155
O O13 0.762028 0.843187 0.030971
O O14 0.500000 0.137075 0.123988
O O15 0.724280 0.210408 0.232091
O O16 0.717206 0.000000 0.164656
O O17 0.500000 0.277418 0.344501
O O18 0.500000 0.245443 0.722287
#
# Coordination Sequence:
#
# PCOD9337762 Si02
#       7
#     2   2   4   4   4   4   4
#     4  12  24  38  59  84 115 156 195 237 291 345
#     4  10  22  40  59  82 111 150 195 241 287 339
#     4  11  23  36  53  83 120 151 185 235 292 349
#     4  10  21  37  58  85 118 152 187 234 291 347
#     4   9  19  37  61  87 114 148 191 236 285 342
#     4  11  22  38  60  85 115 151 195 241 286 342
#     4  11  22  37  59  83 112 150 195 240 286 344
#
# _framework density 17.516563999999999
#
# number of rings (size 3 to 8) (size 9 to 14) (size 15 to 20)
#    0.000    1.500    1.667    3.750    0.000    7.000 
#    0.000    2.500    0.000    2.000    0.000    0.000 
#    0.000    0.000    0.000    0.000    0.000    0.000 
#
# Total GULP energy -134131.317117 kJ/mol
# GULP energy per Si atom -5588.804880 kJ/mol
# Density = 1.747670 g / cm^3
# Si number density = 17.516564 Si / 1000 Ang^3
#
#
#
# Elastic Constant Matrix: (Units=GPa)
#
#
# Indices 1 2 3 4 5 6 
#
# 1 73.6016 76.8829 67.7281 0.0000 0.0000 0.0000
# 2 76.8829 137.9625 105.6226 0.0000 0.0000 0.0000
# 3 67.7281 105.6226 150.9801 0.0000 0.0000 0.0000
# 4 0.0000 0.0000 0.0000 -17.5429 0.0000 0.0000
# 5 0.0000 0.0000 0.0000 0.0000 439.9806 0.0000
# 6 0.0000 0.0000 0.0000 0.0000 0.0000 30.0961
#
#
#
# Elastic Compliance Matrix: (Units=1/GPa)
#
#
# Indices 1 2 3 4 5 6 
#
# 1 0.033743 -0.015537 -0.004267 0.000000 0.000000 0.000000
# 2 -0.015537 0.022762 -0.008954 0.000000 0.000000 0.000000
# 3 -0.004267 -0.008954 0.014802 0.000000 0.000000 0.000000
# 4 0.000000 0.000000 0.000000 -0.057003 0.000000 0.000000
# 5 0.000000 0.000000 0.000000 0.000000 0.002273 0.000000
# 6 0.000000 0.000000 0.000000 0.000000 0.000000 0.033227
#
#
# Mechanical properties :
#
#
# Convention : Reuss Voigt Hill
#
# Bulk Modulus (GPa) = 72.51700 95.89017 84.20358
# Shear Modulus (GPa) = 44.67586 97.99413 71.33500
#
# Velocity S-wave (km/s) = 5.05572 7.48767 6.38848
# Velocity P-wave (km/s) = 8.69306 11.38486 10.12878
#
# Compressibility (1/GPa) = 0.01378987
#
# Stress axis : x y z
#
# Youngs Moduli (GPa) = 29.63536 43.93318 67.56003
#
# Poissons Ratio (x) = 0.68260 0.28831
# Poissons Ratio (y) = 0.46045 0.60492
# Poissons Ratio (z) = 0.12647 0.39337
#
# Static dielectric constant tensor:
#      x y z
#    x 1.582980 0.000000 0.000000 
#    y 0.000000 1.584230 0.000000 
#    z 0.000000 0.000000 1.558230 
# 
# From -- ./inp_files/3939.got.cif
#   From: 2010.05.17/outbox.cif.g08.bks.cpg/sg25_2_cif.got.tgz:3939.got - 2010.06.04 01:04:00.
