data_PCOD9337845
_publ_section_title
;
Structure prediction by ZEFSAII (Michael W. Deem and Ramdas Pophale) SiO2 
 PCOD9337845
Probable space group: P M M 2
;
_chemical_formula_sum "Si O2"
_cell_formula_units_Z 32
_cell_length_a 7.453169
_cell_length_b 10.397100
_cell_length_c 20.829280
_cell_angle_alpha 90.000000
_cell_angle_beta 90.000000
_cell_angle_gamma 90.000000
_cell_volume 1614.088889
_symmetry_space_group_name_H-M "P M M 2"
_symmetry_group_IT_number 25
_symmetry_cell_setting 'orthorhombic'
loop_
_space_group_symop_operation_xyz
x,y,z
-x,-y,z
-x,y,z
x,-y,z
loop_
_atom_site_type_symbol
_atom_site_label
_atom_site_fract_x
_atom_site_fract_y
_atom_site_fract_z
Si Si1 0.785666 0.856145 0.114390
Si Si2 0.718768 0.853357 0.470194
Si Si3 0.281043 0.647414 0.365960
Si Si4 0.285237 0.645709 0.719111
Si Si5 0.780864 0.147200 0.969320
Si Si6 0.718997 0.853439 0.616727
Si Si7 0.214864 0.645789 0.866503
Si Si8 0.285664 0.643957 0.221095
O O1 0.749815 0.749886 0.167648
O O2 0.000000 0.864820 0.109711
O O3 0.718778 0.000000 0.131014
O O4 0.722580 0.822844 0.042333
O O5 0.500000 0.852113 0.469520
O O6 0.780867 0.749850 0.418353
O O7 0.772808 0.823626 0.543437
O O8 0.773403 0.000000 0.455291
O O9 0.500000 0.650298 0.366708
O O10 0.228936 0.500000 0.380239
O O11 0.222123 0.677739 0.293063
O O12 0.500000 0.640206 0.711231
O O13 0.215904 0.500000 0.709784
O O14 0.217344 0.749289 0.668082
O O15 0.250491 0.683198 0.792831
O O16 0.717242 0.250720 0.917612
O O17 0.000000 0.149251 0.968409
O O18 0.727960 0.000000 0.954763
O O19 0.500000 0.852784 0.617611
O O20 0.774074 0.000000 0.631621
O O21 0.283908 0.500000 0.876018
O O22 0.000000 0.640364 0.874030
O O23 0.500000 0.635187 0.225928
O O24 0.218841 0.500000 0.204627
#
# Coordination Sequence:
#
# PCOD9337845 Si02
#       8
#     4   4   4   4   4   4   4   4
#     4   9  18  32  49  69  91 115 147 186 224 264
#     4   8  13  21  34  54  79 106 138 174 209 246
#     4   8  14  24  37  55  82 113 142 174 211 250
#     4   9  17  28  41  59  84 111 137 167 205 247
#     4   8  15  29  47  65  85 108 137 176 215 249
#     4   8  14  24  37  55  81 110 138 170 207 246
#     4   9  17  29  45  64  84 107 137 171 206 247
#     4   9  18  31  45  65  94 123 150 182 221 265
#
# _framework density 19.825424000000002
#
# number of rings (size 3 to 8) (size 9 to 14) (size 15 to 20)
#    0.000    3.500    0.000    2.250    0.000    2.500 
#    0.000    5.625    0.000    2.250    0.000    0.875 
#    0.000    3.000    0.000    0.000    0.000    0.000 
#
# Total GULP energy -178394.145339 kJ/mol
# GULP energy per Si atom -5574.817042 kJ/mol
# Density = 1.978030 g / cm^3
# Si number density = 19.825424 Si / 1000 Ang^3
#
#
#
# Elastic Constant Matrix: (Units=GPa)
#
#
# Indices 1 2 3 4 5 6 
#
# 1 57.5686 5.5407 4.4797 0.0000 0.0000 0.0000
# 2 5.5407 179.5083 172.5488 0.0000 0.0000 0.0000
# 3 4.4797 172.5488 197.4277 0.0000 0.0000 0.0000
# 4 0.0000 0.0000 0.0000 47.9641 0.0000 0.0000
# 5 0.0000 0.0000 0.0000 0.0000 20.4774 0.0000
# 6 0.0000 0.0000 0.0000 0.0000 0.0000 4.2819
#
#
#
# Elastic Compliance Matrix: (Units=1/GPa)
#
#
# Indices 1 2 3 4 5 6 
#
# 1 0.017429 -0.000987 0.000467 0.000000 0.000000 0.000000
# 2 -0.000987 0.034895 -0.030475 0.000000 0.000000 0.000000
# 3 0.000467 -0.030475 0.031690 0.000000 0.000000 0.000000
# 4 0.000000 0.000000 0.000000 0.020849 0.000000 0.000000
# 5 0.000000 0.000000 0.000000 0.000000 0.048834 0.000000
# 6 0.000000 0.000000 0.000000 0.000000 0.000000 0.233542
#
#
# Mechanical properties :
#
#
# Convention : Reuss Voigt Hill
#
# Bulk Modulus (GPa) = 45.40620 88.84919 67.12770
# Shear Modulus (GPa) = 10.95121 31.34039 21.14580
#
# Velocity S-wave (km/s) = 2.35283 3.98026 3.26943
# Velocity P-wave (km/s) = 5.50762 8.12628 6.94155
#
# Compressibility (1/GPa) = 0.02202342
#
# Stress axis : x y z
#
# Youngs Moduli (GPa) = 57.37486 28.65737 31.55619
#
# Poissons Ratio (x) = 0.02829 -0.01474
# Poissons Ratio (y) = 0.05663 0.96169
# Poissons Ratio (z) = -0.02680 0.87334
#
# Static dielectric constant tensor:
#      x y z
#    x 1.779130 0.000000 0.000000 
#    y 0.000000 1.695720 0.000000 
#    z 0.000000 0.000000 1.668300 
# 
# From -- ./inp_files/5570.got.cif
#   From: 2010.05.17/outbox.cif.g08.bks.cpg/sg25_3_cif.got.tgz:5570.got - 2010.06.04 01:04:00.
