data_PCOD9337721
_publ_section_title
;
Structure prediction by ZEFSAII (Michael W. Deem and Ramdas Pophale) SiO2 
 PCOD9337721
Probable space group: P M M 2
;
_chemical_formula_sum "Si O2"
_cell_formula_units_Z 32
_cell_length_a 14.070226
_cell_length_b 9.224767
_cell_length_c 13.207915
_cell_angle_alpha 90.000000
_cell_angle_beta 90.000000
_cell_angle_gamma 90.000000
_cell_volume 1714.315470
_symmetry_space_group_name_H-M "P M M 2"
_symmetry_group_IT_number 25
_symmetry_cell_setting 'orthorhombic'
loop_
_space_group_symop_operation_xyz
x,y,z
-x,-y,z
-x,y,z
x,-y,z
loop_
_atom_site_type_symbol
_atom_site_label
_atom_site_fract_x
_atom_site_fract_y
_atom_site_fract_z
Si Si1 0.113078 0.827769 0.038490
Si Si2 0.202235 0.672438 0.844935
Si Si3 0.114726 0.667468 0.450185
Si Si4 0.384412 0.164822 0.536244
Si Si5 0.391099 0.326676 0.330778
Si Si6 0.115050 0.167520 0.652250
Si Si7 0.798113 0.326614 0.231433
Si Si8 0.390624 0.328187 0.740657
O O1 0.154531 0.760202 0.141108
O O2 0.000000 0.802386 0.034376
O O3 0.129372 0.000000 0.035117
O O4 0.161621 0.751258 0.942842
O O5 0.185977 0.500000 0.851061
O O6 0.152866 0.736993 0.744736
O O7 0.314858 0.698235 0.828688
O O8 0.142768 0.500000 0.470615
O O9 0.145291 0.767577 0.543658
O O10 0.154487 0.707576 0.340141
O O11 0.000000 0.672546 0.445140
O O12 0.500000 0.162596 0.536963
O O13 0.359648 0.252530 0.435472
O O14 0.358479 0.242729 0.640558
O O15 0.350383 0.000000 0.531999
O O16 0.500000 0.284069 0.307865
O O17 0.389447 0.500000 0.346169
O O18 0.313680 0.293301 0.245451
O O19 0.000000 0.172199 0.654540
O O20 0.144179 0.000000 0.663631
O O21 0.809392 0.500000 0.214932
O O22 0.500000 0.289677 0.764645
O O23 0.388319 0.500000 0.717392
#
# Coordination Sequence:
#
# PCOD9337721 Si02
#       8
#     4   4   4   4   4   4   4   4
#     4  11  25  44  64  86 113 145 184 235 295 354
#     4  11  23  38  61  87 111 146 193 237 283 337
#     4   9  18  33  53  79 111 145 185 235 286 338
#     4   9  17  29  48  77 113 153 193 232 276 327
#     4   9  18  33  53  80 117 157 195 235 278 328
#     4  10  21  36  54  80 116 153 186 227 285 347
#     4  10  21  37  60  86 112 148 196 240 283 334
#     4   9  19  36  56  80 113 151 191 234 279 331
#
# _framework density 18.666343000000001
#
# number of rings (size 3 to 8) (size 9 to 14) (size 15 to 20)
#    0.000    2.250    0.000    2.250    1.750    7.250 
#    0.000    1.875    0.000    3.750    0.000    0.000 
#    0.000    0.000    0.000    0.000    0.000    0.000 
#
# Total GULP energy -178723.291306 kJ/mol
# GULP energy per Si atom -5585.102853 kJ/mol
# Density = 1.862386 g / cm^3
# Si number density = 18.666343 Si / 1000 Ang^3
#
#
#
# Elastic Constant Matrix: (Units=GPa)
#
#
# Indices 1 2 3 4 5 6 
#
# 1 92.6082 64.8883 69.9586 0.0000 0.0000 0.0000
# 2 64.8883 84.3258 82.1214 0.0000 0.0000 0.0000
# 3 69.9586 82.1214 140.3271 0.0000 0.0000 0.0000
# 4 0.0000 0.0000 0.0000 -163.7510 0.0000 0.0000
# 5 0.0000 0.0000 0.0000 0.0000 33.6537 0.0000
# 6 0.0000 0.0000 0.0000 0.0000 0.0000 19.1983
#
#
#
# Elastic Compliance Matrix: (Units=1/GPa)
#
#
# Indices 1 2 3 4 5 6 
#
# 1 0.023856 -0.015752 -0.002675 0.000000 0.000000 0.000000
# 2 -0.015752 0.037974 -0.014370 0.000000 0.000000 0.000000
# 3 -0.002675 -0.014370 0.016869 0.000000 0.000000 0.000000
# 4 0.000000 0.000000 0.000000 -0.006107 0.000000 0.000000
# 5 0.000000 0.000000 0.000000 0.000000 0.029714 0.000000
# 6 0.000000 0.000000 0.000000 0.000000 0.000000 0.052088
#
#
# Mechanical properties :
#
#
# Convention : Reuss Voigt Hill
#
# Bulk Modulus (GPa) = 76.30335 83.46641 79.88488
# Shear Modulus (GPa) = 22.28583 -15.49362 3.39610
#
# Velocity S-wave (km/s) = 3.45904 -2.88415 1.35030
# Velocity P-wave (km/s) = 7.54450 5.80697 6.73203
#
# Compressibility (1/GPa) = 0.01310558
#
# Stress axis : x y z
#
# Youngs Moduli (GPa) = 41.91832 26.33347 59.27966
#
# Poissons Ratio (x) = 0.41481 0.15855
# Poissons Ratio (y) = 0.66031 0.85185
# Poissons Ratio (z) = 0.11212 0.37841
#
# Static dielectric constant tensor:
#      x y z
#    x 1.696520 0.000000 0.000000 
#    y 0.000000 1.629680 0.000000 
#    z 0.000000 0.000000 1.591290 
# 
# From -- ./inp_files/4240.got.cif
#   From: 2010.05.17/outbox.cif.g08.bks.cpg/sg25_3_cif.got.tgz:4240.got - 2010.06.04 01:04:00.
