data_PCOD9337347
_publ_section_title
;
Structure prediction by ZEFSAII (Michael W. Deem and Ramdas Pophale) SiO2 
 PCOD9337347
Probable space group: P M M 2
;
_chemical_formula_sum "Si O2"
_cell_formula_units_Z 25
_cell_length_a 7.522908
_cell_length_b 21.708039
_cell_length_c 7.696846
_cell_angle_alpha 90.000000
_cell_angle_beta 90.000000
_cell_angle_gamma 90.000000
_cell_volume 1256.953296
_symmetry_space_group_name_H-M "P M M 2"
_symmetry_group_IT_number 25
_symmetry_cell_setting 'orthorhombic'
loop_
_space_group_symop_operation_xyz
x,y,z
-x,-y,z
-x,y,z
x,-y,z
loop_
_atom_site_type_symbol
_atom_site_label
_atom_site_fract_x
_atom_site_fract_y
_atom_site_fract_z
Si Si1 0.291829 0.846981 0.421190
Si Si2 0.788046 0.292939 0.406032
Si Si3 0.795552 0.391320 0.112295
Si Si4 0.290764 0.697563 0.810857
Si Si5 0.500000 0.500000 0.103296
Si Si6 0.717821 0.836040 0.810553
Si Si7 0.282063 0.929342 0.108394
O O1 0.500000 0.861817 0.436412
O O2 0.279082 0.775732 0.363372
O O3 0.218251 0.849922 0.615773
O O4 0.218595 0.894093 0.280737
O O5 0.736868 0.343322 0.263405
O O6 0.731916 0.309543 0.602986
O O7 0.000000 0.289396 0.405173
O O8 0.656511 0.446294 0.103551
O O9 0.000000 0.410558 0.149194
O O10 0.795280 0.353867 0.930784
O O11 0.500000 0.695056 0.848198
O O12 0.225308 0.766521 0.856163
O O13 0.500000 0.834359 0.807848
O O14 0.772849 0.887618 0.945840
O O15 0.500000 0.929184 0.109021
O O16 0.225382 0.000000 0.099107
#
# Coordination Sequence:
#
# PCOD9337347 Si02
#       7
#     4   4   4   4   1   4   4
#     4   9  17  29  48  74 103 137 183 236 290 349
#     4  10  21  36  59  89 117 147 191 250 300 347
#     4  11  24  42  63  90 122 158 202 243 288 350
#     4  10  19  35  62  89 115 153 196 246 305 351
#     4  12  26  44  66  90 124 170 196 232 290 346
#     4   8  15  26  43  71 102 135 181 233 287 346
#     4   9  16  25  40  67 104 143 183 232 289 346
#
# _framework density 19.889362999999999
#
# number of rings (size 3 to 8) (size 9 to 14) (size 15 to 20)
#    0.000    2.400    0.800    3.120    2.240    1.920 
#    0.000    4.800    0.000    2.400    0.000    0.000 
#    0.000    0.000    0.000    0.000    0.000    0.000 
#
# Total GULP energy -139292.965207 kJ/mol
# GULP energy per Si atom -5571.718608 kJ/mol
# Density = 1.984409 g / cm^3
# Si number density = 19.889363 Si / 1000 Ang^3
#
#
#
# Elastic Constant Matrix: (Units=GPa)
#
#
# Indices 1 2 3 4 5 6 
#
# 1 -51.6494 -264.3055 -127.1800 0.0000 0.0000 0.0000
# 2 -264.3055 -532.5550 -251.4513 0.0000 0.0000 0.0000
# 3 -127.1800 -251.4513 -85.7069 0.0000 0.0000 0.0000
# 4 0.0000 0.0000 0.0000 -3.9843 0.0000 0.0000
# 5 0.0000 0.0000 0.0000 0.0000 13.5783 0.0000
# 6 0.0000 0.0000 0.0000 0.0000 0.0000 -70.1453
#
#
#
# Elastic Compliance Matrix: (Units=1/GPa)
#
#
# Indices 1 2 3 4 5 6 
#
# 1 0.012602 -0.006684 0.000910 0.000000 0.000000 0.000000
# 2 -0.006684 0.008419 -0.014783 0.000000 0.000000 0.000000
# 3 0.000910 -0.014783 0.030352 0.000000 0.000000 0.000000
# 4 0.000000 0.000000 0.000000 -0.250984 0.000000 0.000000
# 5 0.000000 0.000000 0.000000 0.000000 0.073647 0.000000
# 6 0.000000 0.000000 0.000000 0.000000 0.000000 -0.014256
#
#
# Mechanical properties :
#
#
# Convention : Reuss Voigt Hill
#
# Bulk Modulus (GPa) = 97.46374 -217.30941 -59.92284
# Shear Modulus (GPa) = -52.25418 -13.90857 -33.08138
#
# Velocity S-wave (km/s) = -5.13122 -2.64729 -4.08274
# Velocity P-wave (km/s) = 3.74211 10.90140 7.24007
#
# Compressibility (1/GPa) = 0.01026023
#
# Stress axis : x y z
#
# Youngs Moduli (GPa) = 79.35234 118.77222 32.94686
#
# Poissons Ratio (x) = 0.79390 -0.03000
# Poissons Ratio (y) = 0.53041 0.48705
# Poissons Ratio (z) = -0.07225 1.75579
#
# Static dielectric constant tensor:
#      x y z
#    x 1.763070 0.000000 0.000000 
#    y 0.000000 1.657010 0.000000 
#    z 0.000000 0.000000 1.715280 
# 
# From -- ./inp_files/2151.got.cif
#   From: 2010.05.17/outbox.cif.g08.bks.cpg/sg25_2_cif.got.tgz:2151.got - 2010.06.04 01:04:00.
