data_PCOD9337919
_publ_section_title
;
Structure prediction by ZEFSAII (Michael W. Deem and Ramdas Pophale) SiO2 
 PCOD9337919
Probable space group: P M C 21
;
_chemical_formula_sum "Si O2"
_cell_formula_units_Z 28
_cell_length_a 18.193095
_cell_length_b 9.366658
_cell_length_c 8.859644
_cell_angle_alpha 90.000000
_cell_angle_beta 90.000000
_cell_angle_gamma 90.000000
_cell_volume 1509.758634
_symmetry_space_group_name_H-M "P M C 21"
_symmetry_group_IT_number 26
_symmetry_cell_setting 'orthorhombic'
loop_
_space_group_symop_operation_xyz
x,y,z
-x,-y,1/2+z
-x,y,z
x,-y,1/2+z
loop_
_atom_site_type_symbol
_atom_site_label
_atom_site_fract_x
_atom_site_fract_y
_atom_site_fract_z
Si Si1 0.079817 0.210839 0.104580
Si Si2 0.715909 0.612856 0.933753
Si Si3 0.414705 0.173777 0.386381
Si Si4 0.241369 0.327136 0.086599
Si Si5 0.127860 0.001335 0.858264
Si Si6 0.656184 0.060713 0.094571
Si Si7 0.219489 0.855539 0.112834
O O1 0.153624 0.301776 0.072794
O O2 0.091865 0.125474 0.261655
O O3 0.000000 0.283882 0.104984
O O4 0.080011 0.088059 0.976855
O O5 0.724528 0.449868 0.981989
O O6 0.762738 0.697434 0.060600
O O7 0.636821 0.692959 0.935101
O O8 0.744323 0.638471 0.763518
O O9 0.500000 0.201777 0.412408
O O10 0.397015 0.137623 0.212700
O O11 0.388494 0.030756 0.473383
O O12 0.285539 0.182378 0.047338
O O13 0.159081 0.114768 0.738101
O O14 0.192468 0.931056 0.958049
O O15 0.708377 0.939313 0.168231
#
# Coordination Sequence:
#
# PCOD9337919 Si02
#       7
#     4   4   4   4   4   4   4
#     4  11  22  36  57  88 122 151 191 251 303 338
#     4  10  23  37  58  83 111 158 194 234 284 349
#     4  10  21  38  58  89 120 146 187 242 299 347
#     4  11  22  38  58  84 114 153 205 234 282 353
#     4  10  18  33  60  83 115 145 192 245 292 346
#     4  10  19  34  62  87 112 149 190 239 289 342
#     4  10  17  34  58  86 107 146 197 243 275 341
#
# _framework density 18.546009000000002
#
# number of rings (size 3 to 8) (size 9 to 14) (size 15 to 20)
#    0.000    1.714    4.286    2.571    2.000    1.143 
#    0.000    4.286    0.000    0.000    0.000    0.000 
#    0.000    0.000    0.000    0.000    0.000    0.000 
#
# Total GULP energy -156035.917171 kJ/mol
# GULP energy per Si atom -5572.711328 kJ/mol
# Density = 1.850380 g / cm^3
# Si number density = 18.546009 Si / 1000 Ang^3
#
#
#
# Elastic Constant Matrix: (Units=GPa)
#
#
# Indices 1 2 3 4 5 6 
#
# 1 123.5959 34.2568 28.3861 0.0000 0.0000 0.0000
# 2 34.2568 78.7268 19.4013 0.0000 0.0000 0.0000
# 3 28.3861 19.4013 58.9742 0.0000 0.0000 0.0000
# 4 0.0000 0.0000 0.0000 24.2154 0.0000 0.0000
# 5 0.0000 0.0000 0.0000 0.0000 -1.1424 0.0000
# 6 0.0000 0.0000 0.0000 0.0000 0.0000 13.6206
#
#
#
# Elastic Compliance Matrix: (Units=1/GPa)
#
#
# Indices 1 2 3 4 5 6 
#
# 1 0.009867 -0.003399 -0.003631 0.000000 0.000000 0.000000
# 2 -0.003399 0.014993 -0.003297 0.000000 0.000000 0.000000
# 3 -0.003631 -0.003297 0.019789 0.000000 0.000000 0.000000
# 4 0.000000 0.000000 0.000000 0.041296 0.000000 0.000000
# 5 0.000000 0.000000 0.000000 0.000000 -0.875337 0.000000
# 6 0.000000 0.000000 0.000000 0.000000 0.000000 0.073418
#
#
# Mechanical properties :
#
#
# Convention : Reuss Voigt Hill
#
# Bulk Modulus (GPa) = 41.67304 47.26504 44.46904
# Shear Modulus (GPa) = -7.27461 19.28890 6.00715
#
# Velocity S-wave (km/s) = -1.98267 3.22849 1.80169
# Velocity P-wave (km/s) = 4.15663 6.27998 5.32521
#
# Compressibility (1/GPa) = 0.02399633
#
# Stress axis : x y z
#
# Youngs Moduli (GPa) = 101.34983 66.69592 50.53338
#
# Poissons Ratio (x) = 0.22667 0.18349
# Poissons Ratio (y) = 0.34444 0.16659
# Poissons Ratio (z) = 0.36802 0.21988
#
# Static dielectric constant tensor:
#      x y z
#    x 1.688480 0.000000 0.000000 
#    y 0.000000 1.628520 0.000000 
#    z 0.000000 0.000000 1.664040 
# 
# From -- ./inp_files/2400.got.cif
#   From: 2010.05.17/outbox.cif.g08.bks.cpg/sg26_2_cif.got.tgz:2400.got - 2010.06.04 01:07:29.
