data_PCOD9337490
_publ_section_title
;
Structure prediction by ZEFSAII (Michael W. Deem and Ramdas Pophale) SiO2 
 PCOD9337490
Probable space group: P M M 2
;
_chemical_formula_sum "Si O2"
_cell_formula_units_Z 32
_cell_length_a 11.414461
_cell_length_b 15.448849
_cell_length_c 7.549289
_cell_angle_alpha 90.000000
_cell_angle_beta 90.000000
_cell_angle_gamma 90.000000
_cell_volume 1331.243769
_symmetry_space_group_name_H-M "P M M 2"
_symmetry_group_IT_number 25
_symmetry_cell_setting 'orthorhombic'
loop_
_space_group_symop_operation_xyz
x,y,z
-x,-y,z
-x,y,z
x,-y,z
loop_
_atom_site_type_symbol
_atom_site_label
_atom_site_fract_x
_atom_site_fract_y
_atom_site_fract_z
Si Si1 0.625861 0.651064 0.255810
Si Si2 0.373051 0.843899 0.344935
Si Si3 0.625848 0.128155 0.749674
Si Si4 0.874305 0.103435 0.346338
Si Si5 0.125370 0.597683 0.372457
Si Si6 0.125610 0.135987 0.771232
Si Si7 0.624964 0.330614 0.840057
Si Si8 0.874037 0.662556 0.750585
O O1 0.500000 0.606944 0.296306
O O2 0.628106 0.740118 0.365263
O O3 0.750362 0.605854 0.278870
O O4 0.621590 0.676813 0.050938
O O5 0.500000 0.864979 0.259628
O O6 0.373246 0.888242 0.538196
O O7 0.247032 0.864617 0.261300
O O8 0.500000 0.098523 0.820453
O O9 0.749422 0.097921 0.828362
O O10 0.627593 0.232658 0.768087
O O11 0.873361 0.127613 0.556020
O O12 0.000000 0.136222 0.274440
O O13 0.874070 0.000000 0.335877
O O14 0.121738 0.500000 0.445587
O O15 0.125452 0.662253 0.537427
O O16 0.000000 0.610604 0.274436
O O17 0.126488 0.238214 0.815269
O O18 0.000000 0.099966 0.831664
O O19 0.500000 0.370582 0.781537
O O20 0.747619 0.376710 0.796690
O O21 0.000000 0.623151 0.805443
#
# Coordination Sequence:
#
# PCOD9337490 Si02
#       8
#     4   4   4   4   4   4   4   4
#     4  10  20  33  50  73 100 128 160 198 240 287
#     4   9  17  29  46  68  93 122 156 195 238 282
#     4   8  13  23  40  61  85 112 143 181 224 267
#     4   9  16  25  39  63  94 124 154 191 236 282
#     4  10  21  36  53  73  97 127 162 198 238 285
#     4   8  13  22  38  60  85 112 142 180 225 268
#     4   9  17  29  47  72  98 122 152 194 240 284
#     4   9  17  31  51  72  94 121 157 199 239 283
#
# _framework density 24.037672000000001
#
# number of rings (size 3 to 8) (size 9 to 14) (size 15 to 20)
#    0.000    3.000    0.000    2.250    0.000    4.000 
#    0.000    0.625    0.000    2.250    0.000    7.875 
#    0.000   45.000    0.000    0.000    0.000    0.000 
#
# Total GULP energy -178147.018235 kJ/mol
# GULP energy per Si atom -5567.094320 kJ/mol
# Density = 2.398296 g / cm^3
# Si number density = 24.037672 Si / 1000 Ang^3
#
#
#
# Elastic Constant Matrix: (Units=GPa)
#
#
# Indices 1 2 3 4 5 6 
#
# 1 355.3233 20.4368 18.1694 0.0000 0.0000 0.0000
# 2 20.4368 31.3466 0.9161 0.0000 0.0000 0.0000
# 3 18.1694 0.9161 42.2861 0.0000 0.0000 0.0000
# 4 0.0000 0.0000 0.0000 -11.4610 0.0000 0.0000
# 5 0.0000 0.0000 0.0000 0.0000 15.6227 0.0000
# 6 0.0000 0.0000 0.0000 0.0000 0.0000 56.0627
#
#
#
# Elastic Compliance Matrix: (Units=1/GPa)
#
#
# Indices 1 2 3 4 5 6 
#
# 1 0.002988 -0.001912 -0.001242 0.000000 0.000000 0.000000
# 2 -0.001912 0.033145 0.000103 0.000000 0.000000 0.000000
# 3 -0.001242 0.000103 0.024180 0.000000 0.000000 0.000000
# 4 0.000000 0.000000 0.000000 -0.087253 0.000000 0.000000
# 5 0.000000 0.000000 0.000000 0.000000 0.064009 0.000000
# 6 0.000000 0.000000 0.000000 0.000000 0.000000 0.017837
#
#
# Mechanical properties :
#
#
# Convention : Reuss Voigt Hill
#
# Bulk Modulus (GPa) = 18.44636 56.44449 37.44542
# Shear Modulus (GPa) = 63.22874 38.00715 50.61795
#
# Velocity S-wave (km/s) = 5.13431 3.98068 4.59385
# Velocity P-wave (km/s) = 6.54513 6.68285 6.61435
#
# Compressibility (1/GPa) = 0.05421125
#
# Stress axis : x y z
#
# Youngs Moduli (GPa) = 334.69252 30.17071 41.35643
#
# Poissons Ratio (x) = 0.05768 0.05138
# Poissons Ratio (y) = 0.63981 -0.00427
# Poissons Ratio (z) = 0.41582 -0.00312
#
# Static dielectric constant tensor:
#      x y z
#    x 2.071500 0.000000 0.000000 
#    y 0.000000 1.818630 0.000000 
#    z 0.000000 0.000000 1.876340 
# 
# From -- ./inp_files/2883.got.cif
#   From: 2010.05.17/outbox.cif.g08.bks.cpg/sg25_2_cif.got.tgz:2883.got - 2010.06.04 01:04:00.
