data_PCOD9337737
_publ_section_title
;
Structure prediction by ZEFSAII (Michael W. Deem and Ramdas Pophale) SiO2 
 PCOD9337737
Probable space group: P M M 2
;
_chemical_formula_sum "Si O2"
_cell_formula_units_Z 26
_cell_length_a 7.267557
_cell_length_b 19.746527
_cell_length_c 7.342988
_cell_angle_alpha 90.000000
_cell_angle_beta 90.000000
_cell_angle_gamma 90.000000
_cell_volume 1053.784942
_symmetry_space_group_name_H-M "P M M 2"
_symmetry_group_IT_number 25
_symmetry_cell_setting 'orthorhombic'
loop_
_space_group_symop_operation_xyz
x,y,z
-x,-y,z
-x,y,z
x,-y,z
loop_
_atom_site_type_symbol
_atom_site_label
_atom_site_fract_x
_atom_site_fract_y
_atom_site_fract_z
Si Si1 0.281922 0.424077 0.084140
Si Si2 0.218957 0.575976 0.656652
Si Si3 0.777359 0.215538 0.090267
Si Si4 0.203520 0.682907 0.381216
Si Si5 0.500000 0.187986 0.822316
Si Si6 0.220378 0.072658 0.221319
Si Si7 0.218944 0.922192 0.655045
O O1 0.500000 0.420414 0.114075
O O2 0.219414 0.500000 0.130826
O O3 0.192574 0.369419 0.213176
O O4 0.245742 0.414139 0.870933
O O5 0.289019 0.500000 0.610399
O O6 0.293817 0.638487 0.539204
O O7 0.000000 0.574721 0.619673
O O8 0.718322 0.252153 0.278265
O O9 0.662313 0.237052 0.916073
O O10 0.712153 0.137930 0.116952
O O11 0.000000 0.220995 0.074079
O O12 0.000000 0.703766 0.445277
O O13 0.660119 0.136919 0.738416
O O14 0.000000 0.072599 0.195526
O O15 0.291498 0.000000 0.159631
O O16 0.249382 0.078987 0.436807
O O17 0.000000 0.911788 0.689544
O O18 0.261580 0.000000 0.714017
#
# Coordination Sequence:
#
# PCOD9337737 Si02
#       7
#     4   4   4   4   2   4   4
#     4  10  21  36  58  90 125 159 198 248 305 364
#     4   9  18  35  61  91 117 151 203 252 303 367
#     4  10  23  41  58  85 120 158 208 253 301 367
#     4  10  21  39  60  84 120 162 204 255 307 358
#     4  12  23  36  56  84 121 160 192 236 302 366
#     4   8  16  36  63  85 112 152 197 251 306 357
#     4   9  19  37  61  89 117 148 194 251 309 368
#
# _framework density 24.672965000000001
#
# number of rings (size 3 to 8) (size 9 to 14) (size 15 to 20)
#    0.000    2.462    0.000    2.538    1.077    4.000 
#    2.769    3.846    0.000    0.000    0.000    0.000 
#    0.000    0.000    0.000    0.000    0.000    0.000 
#
# Total GULP energy -144805.192371 kJ/mol
# GULP energy per Si atom -5569.430476 kJ/mol
# Density = 2.461681 g / cm^3
# Si number density = 24.672965 Si / 1000 Ang^3
#
#
#
# Elastic Constant Matrix: (Units=GPa)
#
#
# Indices 1 2 3 4 5 6 
#
# 1 132.2932 -8.7201 -4.2623 0.0000 0.0000 0.0000
# 2 -8.7201 58.4061 8.7198 0.0000 0.0000 0.0000
# 3 -4.2623 8.7198 52.9118 0.0000 0.0000 0.0000
# 4 0.0000 0.0000 0.0000 50.3540 0.0000 0.0000
# 5 0.0000 0.0000 0.0000 0.0000 17.0324 0.0000
# 6 0.0000 0.0000 0.0000 0.0000 0.0000 5.9213
#
#
#
# Elastic Compliance Matrix: (Units=1/GPa)
#
#
# Indices 1 2 3 4 5 6 
#
# 1 0.007644 0.001076 0.000438 0.000000 0.000000 0.000000
# 2 0.001076 0.017705 -0.002831 0.000000 0.000000 0.000000
# 3 0.000438 -0.002831 0.019401 0.000000 0.000000 0.000000
# 4 0.000000 0.000000 0.000000 0.019859 0.000000 0.000000
# 5 0.000000 0.000000 0.000000 0.000000 0.058712 0.000000
# 6 0.000000 0.000000 0.000000 0.000000 0.000000 0.168881
#
#
# Mechanical properties :
#
#
# Convention : Reuss Voigt Hill
#
# Bulk Modulus (GPa) = 23.74369 26.12066 24.93218
# Shear Modulus (GPa) = 16.18782 31.18645 23.68714
#
# Velocity S-wave (km/s) = 2.56421 3.55912 3.10182
# Velocity P-wave (km/s) = 4.29083 5.24400 4.79118
#
# Compressibility (1/GPa) = 0.04211644
#
# Stress axis : x y z
#
# Youngs Moduli (GPa) = 130.82152 56.48189 51.54306
#
# Poissons Ratio (x) = -0.06076 -0.02260
# Poissons Ratio (y) = -0.14074 0.14592
# Poissons Ratio (z) = -0.05736 0.15990
#
# Static dielectric constant tensor:
#      x y z
#    x 1.992460 0.000000 0.000000 
#    y 0.000000 1.961460 0.000000 
#    z 0.000000 0.000000 1.965570 
# 
# From -- ./inp_files/2227.got.cif
#   From: 2010.05.17/outbox.cif.g08.bks.cpg/sg25_2_cif.got.tgz:2227.got - 2010.06.04 01:04:00.
