data_PCOD9337102
_publ_section_title
;
Structure prediction by ZEFSAII (Michael W. Deem and Ramdas Pophale) SiO2 
 PCOD9337102
Probable space group: P M M 2
;
_chemical_formula_sum "Si O2"
_cell_formula_units_Z 32
_cell_length_a 7.601992
_cell_length_b 15.362777
_cell_length_c 12.697810
_cell_angle_alpha 90.000000
_cell_angle_beta 90.000000
_cell_angle_gamma 90.000000
_cell_volume 1482.948125
_symmetry_space_group_name_H-M "P M M 2"
_symmetry_group_IT_number 25
_symmetry_cell_setting 'orthorhombic'
loop_
_space_group_symop_operation_xyz
x,y,z
-x,-y,z
-x,y,z
x,-y,z
loop_
_atom_site_type_symbol
_atom_site_label
_atom_site_fract_x
_atom_site_fract_y
_atom_site_fract_z
Si Si1 0.284930 0.904700 0.334890
Si Si2 0.794895 0.905214 0.861497
Si Si3 0.708117 0.599735 0.607302
Si Si4 0.284425 0.723499 0.419638
Si Si5 0.787310 0.287528 0.811198
Si Si6 0.299941 0.869441 0.099104
Si Si7 0.711199 0.592755 0.244235
Si Si8 0.206488 0.681565 0.043738
O O1 0.500000 0.901172 0.330898
O O2 0.227082 0.823157 0.405271
O O3 0.225594 0.895531 0.212714
O O4 0.299657 0.765038 0.093889
O O5 0.723171 0.813745 0.815015
O O6 0.000000 0.906918 0.832178
O O7 0.717612 0.000000 0.832182
O O8 0.786366 0.897679 0.989153
O O9 0.500000 0.591661 0.586336
O O10 0.778205 0.500000 0.608451
O O11 0.777960 0.665287 0.517447
O O12 0.729107 0.651216 0.716654
O O13 0.500000 0.724952 0.423142
O O14 0.226741 0.671896 0.315326
O O15 0.000000 0.284456 0.807440
O O16 0.734251 0.328183 0.923855
O O17 0.500000 0.901106 0.094394
O O18 0.233781 0.000000 0.374320
O O19 0.500000 0.593917 0.248809
O O20 0.772017 0.500000 0.287305
O O21 0.764561 0.603838 0.123644
O O22 0.000000 0.702808 0.040459
#
# Coordination Sequence:
#
# PCOD9337102 Si02
#       8
#     4   4   4   4   4   4   4   4
#     4   9  16  26  46  77 108 137 170 207 254 312
#     4   9  18  33  52  76 109 148 183 214 260 322
#     4  10  21  37  58  80 100 132 181 232 276 321
#     4   9  17  33  53  75 106 139 171 213 268 324
#     4   9  20  37  55  76 104 140 179 219 267 318
#     4  10  17  28  48  76 109 143 182 220 256 304
#     4  10  19  32  53  79 105 137 174 213 265 327
#     4  10  20  34  51  74 108 145 177 212 266 325
#
# _framework density 21.578637000000001
#
# number of rings (size 3 to 8) (size 9 to 14) (size 15 to 20)
#    0.000    2.500    1.250    2.250    0.000    5.750 
#    0.000    3.750    0.000    2.250    0.000    0.000 
#    0.000    0.000    0.000    0.000    0.000    0.000 
#
# Total GULP energy -178459.648166 kJ/mol
# GULP energy per Si atom -5576.864005 kJ/mol
# Density = 2.152952 g / cm^3
# Si number density = 21.578637 Si / 1000 Ang^3
#
#
#
# Elastic Constant Matrix: (Units=GPa)
#
#
# Indices 1 2 3 4 5 6 
#
# 1 43.8614 7.8468 -3.8857 0.0000 0.0000 0.0000
# 2 7.8468 197.2403 87.6026 0.0000 0.0000 0.0000
# 3 -3.8857 87.6026 110.8189 0.0000 0.0000 0.0000
# 4 0.0000 0.0000 0.0000 3.9027 0.0000 0.0000
# 5 0.0000 0.0000 0.0000 0.0000 30.5611 0.0000
# 6 0.0000 0.0000 0.0000 0.0000 0.0000 13.7487
#
#
#
# Elastic Compliance Matrix: (Units=1/GPa)
#
#
# Indices 1 2 3 4 5 6 
#
# 1 0.023368 -0.001993 0.002395 0.000000 0.000000 0.000000
# 2 -0.001993 0.007983 -0.006381 0.000000 0.000000 0.000000
# 3 0.002395 -0.006381 0.014152 0.000000 0.000000 0.000000
# 4 0.000000 0.000000 0.000000 0.256231 0.000000 0.000000
# 5 0.000000 0.000000 0.000000 0.000000 0.032721 0.000000
# 6 0.000000 0.000000 0.000000 0.000000 0.000000 0.072734
#
#
# Mechanical properties :
#
#
# Convention : Reuss Voigt Hill
#
# Bulk Modulus (GPa) = 29.81076 59.44978 44.63027
# Shear Modulus (GPa) = 11.61905 26.99965 19.30935
#
# Velocity S-wave (km/s) = 2.32297 3.54110 2.99463
# Velocity P-wave (km/s) = 4.58692 6.65802 5.71704
#
# Compressibility (1/GPa) = 0.03354494
#
# Stress axis : x y z
#
# Youngs Moduli (GPa) = 42.79372 125.26384 70.66345
#
# Poissons Ratio (x) = 0.24971 -0.16925
# Poissons Ratio (y) = 0.08531 0.45087
# Poissons Ratio (z) = -0.10250 0.79926
#
# Static dielectric constant tensor:
#      x y z
#    x 1.823710 0.000000 0.000000 
#    y 0.000000 1.821520 0.000000 
#    z 0.000000 0.000000 1.759410 
# 
# From -- ./inp_files/4400.got.cif
#   From: 2010.05.17/outbox.cif.g08.bks.cpg/sg25_3_cif.got.tgz:4400.got - 2010.06.04 01:04:00.
