data_PCOD9337132
_publ_section_title
;
Structure prediction by ZEFSAII (Michael W. Deem and Ramdas Pophale) SiO2 
 PCOD9337132
Probable space group: P M M 2
;
_chemical_formula_sum "Si O2"
_cell_formula_units_Z 32
_cell_length_a 7.632990
_cell_length_b 20.236438
_cell_length_c 10.713416
_cell_angle_alpha 90.000000
_cell_angle_beta 90.000000
_cell_angle_gamma 90.000000
_cell_volume 1654.842755
_symmetry_space_group_name_H-M "P M M 2"
_symmetry_group_IT_number 25
_symmetry_cell_setting 'orthorhombic'
loop_
_space_group_symop_operation_xyz
x,y,z
-x,-y,z
-x,y,z
x,-y,z
loop_
_atom_site_type_symbol
_atom_site_label
_atom_site_fract_x
_atom_site_fract_y
_atom_site_fract_z
Si Si1 0.705885 0.851114 0.642260
Si Si2 0.714518 0.923640 0.395176
Si Si3 0.796619 0.571186 0.224190
Si Si4 0.714922 0.923043 0.890813
Si Si5 0.709448 0.428719 0.514683
Si Si6 0.793378 0.283952 0.533112
Si Si7 0.709757 0.853503 0.143714
Si Si8 0.211186 0.286655 0.246062
O O1 0.500000 0.867036 0.643403
O O2 0.778516 0.884845 0.516916
O O3 0.776346 0.882787 0.769123
O O4 0.722580 0.772808 0.622788
O O5 0.500000 0.920751 0.394056
O O6 0.776845 0.890010 0.267827
O O7 0.763839 0.000000 0.400924
O O8 0.717782 0.500000 0.186350
O O9 0.789923 0.572391 0.375590
O O10 0.721304 0.643207 0.192484
O O11 0.000000 0.570205 0.185176
O O12 0.500000 0.922240 0.891996
O O13 0.766533 0.000000 0.886465
O O14 0.775158 0.886952 0.017089
O O15 0.500000 0.428395 0.500398
O O16 0.759711 0.500000 0.572053
O O17 0.759617 0.359223 0.575319
O O18 0.723565 0.276806 0.389686
O O19 0.000000 0.273953 0.526603
O O20 0.500000 0.861725 0.142876
O O21 0.746272 0.776247 0.162673
O O22 0.000000 0.292334 0.254257
#
# Coordination Sequence:
#
# PCOD9337132 Si02
#       8
#     4   4   4   4   4   4   4   4
#     4  10  18  30  49  71  93 120 155 198 243 285
#     4   9  16  26  44  69  91 114 149 190 233 283
#     4   8  14  25  40  60  90 128 162 191 232 282
#     4   9  18  32  50  72  96 121 154 199 246 290
#     4   9  16  25  40  65  96 127 159 195 234 278
#     4  10  19  30  45  66  96 130 161 197 238 282
#     4  10  18  29  47  70  94 122 155 194 236 285
#     4   9  17  28  43  65  94 125 155 193 235 277
#
# _framework density 19.337185000000002
#
# number of rings (size 3 to 8) (size 9 to 14) (size 15 to 20)
#    0.000    2.750    1.250    2.250    0.000    5.750 
#    0.000    0.625    0.000    4.500    0.000    0.875 
#    0.000    5.000    0.000    0.000    0.000    0.000 
#
# Total GULP energy -178319.719245 kJ/mol
# GULP energy per Si atom -5572.491226 kJ/mol
# Density = 1.929317 g / cm^3
# Si number density = 19.337185 Si / 1000 Ang^3
#
#
#
# Elastic Constant Matrix: (Units=GPa)
#
#
# Indices 1 2 3 4 5 6 
#
# 1 38.0393 -10.3716 7.8593 0.0000 0.0000 0.0000
# 2 -10.3716 194.7979 86.4923 0.0000 0.0000 0.0000
# 3 7.8593 86.4923 113.3222 0.0000 0.0000 0.0000
# 4 0.0000 0.0000 0.0000 19.6899 0.0000 0.0000
# 5 0.0000 0.0000 0.0000 0.0000 1.8250 0.0000
# 6 0.0000 0.0000 0.0000 0.0000 0.0000 40.1921
#
#
#
# Elastic Compliance Matrix: (Units=1/GPa)
#
#
# Indices 1 2 3 4 5 6 
#
# 1 0.028238 0.003589 -0.004698 0.000000 0.000000 0.000000
# 2 0.003589 0.008221 -0.006524 0.000000 0.000000 0.000000
# 3 -0.004698 -0.006524 0.014129 0.000000 0.000000 0.000000
# 4 0.000000 0.000000 0.000000 0.050787 0.000000 0.000000
# 5 0.000000 0.000000 0.000000 0.000000 0.547939 0.000000
# 6 0.000000 0.000000 0.000000 0.000000 0.000000 0.024881
#
#
# Mechanical properties :
#
#
# Convention : Reuss Voigt Hill
#
# Bulk Modulus (GPa) = 28.30941 57.12436 42.71688
# Shear Modulus (GPa) = 7.13028 29.82005 18.47517
#
# Velocity S-wave (km/s) = 1.92233 3.93123 3.09434
# Velocity P-wave (km/s) = 4.42705 7.08600 5.90805
#
# Compressibility (1/GPa) = 0.03532395
#
# Stress axis : x y z
#
# Youngs Moduli (GPa) = 35.41340 121.63610 70.77440
#
# Poissons Ratio (x) = -0.43660 0.33250
# Poissons Ratio (y) = -0.12711 0.46171
# Poissons Ratio (z) = 0.16637 0.79352
#
# Static dielectric constant tensor:
#      x y z
#    x 1.714380 0.000000 0.000000 
#    y 0.000000 1.725650 0.000000 
#    z 0.000000 0.000000 1.646010 
# 
# From -- ./inp_files/4480.got.cif
#   From: 2010.05.17/outbox.cif.g08.bks.cpg/sg25_3_cif.got.tgz:4480.got - 2010.06.04 01:04:00.
