data_PCOD9337518
_publ_section_title
;
Structure prediction by ZEFSAII (Michael W. Deem and Ramdas Pophale) SiO2 
 PCOD9337518
Probable space group: P M M 2
;
_chemical_formula_sum "Si O2"
_cell_formula_units_Z 32
_cell_length_a 16.195645
_cell_length_b 9.360243
_cell_length_c 11.986383
_cell_angle_alpha 90.000000
_cell_angle_beta 90.000000
_cell_angle_gamma 90.000000
_cell_volume 1817.077801
_symmetry_space_group_name_H-M "P M M 2"
_symmetry_group_IT_number 25
_symmetry_cell_setting 'orthorhombic'
loop_
_space_group_symop_operation_xyz
x,y,z
-x,-y,z
-x,y,z
x,-y,z
loop_
_atom_site_type_symbol
_atom_site_label
_atom_site_fract_x
_atom_site_fract_y
_atom_site_fract_z
Si Si1 0.098333 0.670992 0.075510
Si Si2 0.778303 0.171242 0.656989
Si Si3 0.402191 0.342834 0.266782
Si Si4 0.142112 0.167965 0.303350
Si Si5 0.093218 0.338552 0.514289
Si Si6 0.685005 0.163639 0.436723
Si Si7 0.595188 0.674138 0.024499
Si Si8 0.760223 0.328400 0.890884
O O1 0.105246 0.500000 0.098528
O O2 0.127876 0.761266 0.183057
O O3 0.000000 0.699389 0.053086
O O4 0.162420 0.702062 0.974156
O O5 0.858086 0.238994 0.598924
O O6 0.709171 0.204061 0.562550
O O7 0.766945 0.244234 0.775525
O O8 0.784245 0.000000 0.665351
O O9 0.500000 0.356633 0.257837
O O10 0.362963 0.500000 0.272267
O O11 0.381046 0.260244 0.377369
O O12 0.379319 0.273295 0.148335
O O13 0.094347 0.263072 0.394020
O O14 0.234762 0.174365 0.355114
O O15 0.118361 0.000000 0.302672
O O16 0.128452 0.500000 0.507165
O O17 0.000000 0.349449 0.553036
O O18 0.658717 0.000000 0.437800
O O19 0.500000 0.718662 0.997614
O O20 0.592721 0.500000 0.031083
O O21 0.671081 0.710150 0.944410
O O22 0.760972 0.500000 0.871966
#
# Coordination Sequence:
#
# PCOD9337518 Si02
#       8
#     4   4   4   4   4   4   4   4
#     4  10  21  35  51  75 107 141 177 215 259 315
#     4  10  22  38  53  72 101 136 175 217 259 309
#     4   9  17  30  52  82 109 131 161 204 253 308
#     4  10  20  33  51  77 107 137 172 214 261 313
#     4  10  20  34  54  78 102 131 170 216 264 313
#     4   9  19  34  50  71 101 136 169 205 255 311
#     4   8  15  30  53  80 106 131 165 212 264 314
#     4  10  20  35  55  76 101 138 180 223 267 306
#
# _framework density 17.610695
#
# number of rings (size 3 to 8) (size 9 to 14) (size 15 to 20)
#    0.000    2.500    0.000    3.750    0.000    8.000 
#    0.000    2.500    0.000    3.375    0.000    0.000 
#    0.000    0.000    0.000    0.000    0.000    0.000 
#
# Total GULP energy -178180.137622 kJ/mol
# GULP energy per Si atom -5568.129301 kJ/mol
# Density = 1.757061 g / cm^3
# Si number density = 17.610695 Si / 1000 Ang^3
#
#
#
# Elastic Constant Matrix: (Units=GPa)
#
#
# Indices 1 2 3 4 5 6 
#
# 1 45.3550 29.5500 60.3123 0.0000 0.0000 0.0000
# 2 29.5500 45.5196 68.4949 0.0000 0.0000 0.0000
# 3 60.3123 68.4949 167.5279 0.0000 0.0000 0.0000
# 4 0.0000 0.0000 0.0000 2550.1555 0.0000 0.0000
# 5 0.0000 0.0000 0.0000 0.0000 1.2098 0.0000
# 6 0.0000 0.0000 0.0000 0.0000 0.0000 63.3459
#
#
#
# Elastic Compliance Matrix: (Units=1/GPa)
#
#
# Indices 1 2 3 4 5 6 
#
# 1 0.044891 -0.012535 -0.011036 0.000000 0.000000 0.000000
# 2 -0.012535 0.060594 -0.020261 0.000000 0.000000 0.000000
# 3 -0.011036 -0.020261 0.018226 0.000000 0.000000 0.000000
# 4 0.000000 0.000000 0.000000 0.000392 0.000000 0.000000
# 5 0.000000 0.000000 0.000000 0.000000 0.826603 0.000000
# 6 0.000000 0.000000 0.000000 0.000000 0.000000 0.015786
#
#
# Mechanical properties :
#
#
# Convention : Reuss Voigt Hill
#
# Bulk Modulus (GPa) = 27.74263 63.90186 45.82225
# Shear Modulus (GPa) = 4.68966 529.61191 267.15079
#
# Velocity S-wave (km/s) = 1.63363 17.36047 12.32994
# Velocity P-wave (km/s) = 4.39839 20.93353 15.12545
#
# Compressibility (1/GPa) = 0.03604560
#
# Stress axis : x y z
#
# Youngs Moduli (GPa) = 22.27606 16.50322 54.86565
#
# Poissons Ratio (x) = 0.20688 0.60551
# Poissons Ratio (y) = 0.27924 1.11165
# Poissons Ratio (z) = 0.24584 0.33438
#
# Static dielectric constant tensor:
#      x y z
#    x 1.634540 0.000000 0.000000 
#    y 0.000000 1.544060 0.000000 
#    z 0.000000 0.000000 1.587560 
# 
# From -- ./inp_files/5075.got.cif
#   From: 2010.05.17/outbox.cif.g08.bks.cpg/sg25_3_cif.got.tgz:5075.got - 2010.06.04 01:04:00.
