data_PCOD9337663
_publ_section_title
;
Structure prediction by ZEFSAII (Michael W. Deem and Ramdas Pophale) SiO2 
 PCOD9337663
Probable space group: P M M 2
;
_chemical_formula_sum "Si O2"
_cell_formula_units_Z 24
_cell_length_a 11.656842
_cell_length_b 7.955321
_cell_length_c 14.468354
_cell_angle_alpha 90.000000
_cell_angle_beta 90.000000
_cell_angle_gamma 90.000000
_cell_volume 1341.707182
_symmetry_space_group_name_H-M "P M M 2"
_symmetry_group_IT_number 25
_symmetry_cell_setting 'orthorhombic'
loop_
_space_group_symop_operation_xyz
x,y,z
-x,-y,z
-x,y,z
x,-y,z
loop_
_atom_site_type_symbol
_atom_site_label
_atom_site_fract_x
_atom_site_fract_y
_atom_site_fract_z
Si Si1 0.135863 0.309965 0.216150
Si Si2 0.500000 0.696551 0.494417
Si Si3 0.729863 0.808305 0.391808
Si Si4 0.861699 0.000000 0.086721
Si Si5 0.139340 0.000000 0.872532
Si Si6 0.867596 0.698878 0.562601
Si Si7 0.500000 0.197402 0.707192
Si Si8 0.750228 0.304872 0.759102
O O1 0.146198 0.500000 0.179820
O O2 0.213300 0.290141 0.307111
O O3 0.171168 0.167315 0.143085
O O4 0.000000 0.283437 0.239599
O O5 0.611610 0.740204 0.434188
O O6 0.500000 0.783443 0.595142
O O7 0.500000 0.000000 0.728214
O O8 0.817529 0.798931 0.477155
O O9 0.713242 0.000000 0.362010
O O10 0.825963 0.000000 0.980352
O O11 0.000000 0.000000 0.085057
O O12 0.191292 0.166701 0.824560
O O13 0.000000 0.000000 0.864521
O O14 0.856866 0.500000 0.540146
O O15 0.798609 0.728338 0.656181
O O16 0.000000 0.737582 0.578671
O O17 0.500000 0.500000 0.515559
O O18 0.614191 0.278477 0.749567
O O19 0.776488 0.500000 0.783004
#
# Coordination Sequence:
#
# PCOD9337663 Si02
#       8
#     4   2   4   2   2   4   2   4
#     4  10  20  37  62  90 120 156 196 239 295 359
#     4  12  24  38  54  80 117 161 210 248 286 344
#     4  12  23  35  54  83 118 157 200 243 290 346
#     4   9  20  40  62  89 120 150 192 247 304 361
#     4  11  24  41  64  93 124 157 199 253 312 371
#     4  10  21  35  51  78 118 160 196 233 285 349
#     4  12  22  40  62  85 118 164 216 257 299 352
#     4  11  23  40  61  88 122 162 204 251 302 360
#
# _framework density 17.887657999999998
#
# number of rings (size 3 to 8) (size 9 to 14) (size 15 to 20)
#    0.000    1.167    3.333    4.000    1.167    4.000 
#    0.000    1.667    0.000    2.000    0.000    0.000 
#    0.000    0.000    0.000    0.000    0.000    0.000 
#
# Total GULP energy -134055.005179 kJ/mol
# GULP energy per Si atom -5585.625216 kJ/mol
# Density = 1.784695 g / cm^3
# Si number density = 17.887658 Si / 1000 Ang^3
#
#
#
# Elastic Constant Matrix: (Units=GPa)
#
#
# Indices 1 2 3 4 5 6 
#
# 1 88.2129 22.0183 32.5125 0.0000 0.0000 0.0000
# 2 22.0183 110.9745 56.6128 0.0000 0.0000 0.0000
# 3 32.5125 56.6128 97.0539 0.0000 0.0000 0.0000
# 4 0.0000 0.0000 0.0000 6.3611 0.0000 0.0000
# 5 0.0000 0.0000 0.0000 0.0000 -8.7176 0.0000
# 6 0.0000 0.0000 0.0000 0.0000 0.0000 18.5822
#
#
#
# Elastic Compliance Matrix: (Units=1/GPa)
#
#
# Indices 1 2 3 4 5 6 
#
# 1 0.012953 -0.000507 -0.004043 0.000000 0.000000 0.000000
# 2 -0.000507 0.012848 -0.007325 0.000000 0.000000 0.000000
# 3 -0.004043 -0.007325 0.015931 0.000000 0.000000 0.000000
# 4 0.000000 0.000000 0.000000 0.157206 0.000000 0.000000
# 5 0.000000 0.000000 0.000000 0.000000 -0.114710 0.000000
# 6 0.000000 0.000000 0.000000 0.000000 0.000000 0.053815
#
#
# Mechanical properties :
#
#
# Convention : Reuss Voigt Hill
#
# Bulk Modulus (GPa) = 55.61277 57.61426 56.61352
# Shear Modulus (GPa) = 29.79973 15.58498 22.69235
#
# Velocity S-wave (km/s) = 4.08602 2.95493 3.56561
# Velocity P-wave (km/s) = 7.30878 6.62729 6.97636
#
# Compressibility (1/GPa) = 0.01798148
#
# Stress axis : x y z
#
# Youngs Moduli (GPa) = 77.20175 77.83096 62.77240
#
# Poissons Ratio (x) = 0.03949 0.25380
# Poissons Ratio (y) = 0.03917 0.45979
# Poissons Ratio (z) = 0.31215 0.57008
#
# Static dielectric constant tensor:
#      x y z
#    x 1.614930 0.000000 0.000000 
#    y 0.000000 1.629850 0.000000 
#    z 0.000000 0.000000 1.582530 
# 
# From -- ./inp_files/4577.got.cif
#   From: 2010.05.17/outbox.cif.g08.bks.cpg/sg25_3_cif.got.tgz:4577.got - 2010.06.04 01:04:00.
