data_PCOD9337451
_publ_section_title
;
Structure prediction by ZEFSAII (Michael W. Deem and Ramdas Pophale) SiO2 
 PCOD9337451
Probable space group: P M M 2
;
_chemical_formula_sum "Si O2"
_cell_formula_units_Z 24
_cell_length_a 19.770029
_cell_length_b 7.447328
_cell_length_c 7.784055
_cell_angle_alpha 90.000000
_cell_angle_beta 90.000000
_cell_angle_gamma 90.000000
_cell_volume 1146.076702
_symmetry_space_group_name_H-M "P M M 2"
_symmetry_group_IT_number 25
_symmetry_cell_setting 'orthorhombic'
loop_
_space_group_symop_operation_xyz
x,y,z
-x,-y,z
-x,y,z
x,-y,z
loop_
_atom_site_type_symbol
_atom_site_label
_atom_site_fract_x
_atom_site_fract_y
_atom_site_fract_z
Si Si1 0.576623 0.284799 0.038080
Si Si2 0.423186 0.213211 0.433694
Si Si3 0.174027 0.720157 0.703088
Si Si4 0.923168 0.718856 0.399816
Si Si5 0.674128 0.291655 0.743551
Si Si6 0.923396 0.281398 0.007973
O O1 0.500000 0.215407 0.010986
O O2 0.573324 0.500000 0.016213
O O3 0.595477 0.250307 0.235892
O O4 0.629677 0.213174 0.899279
O O5 0.500000 0.282692 0.460701
O O6 0.370809 0.285388 0.571977
O O7 0.424946 0.000000 0.456599
O O8 0.174203 0.500000 0.698380
O O9 0.132534 0.778938 0.535352
O O10 0.251226 0.783667 0.712375
O O11 0.131609 0.776147 0.870223
O O12 0.922993 0.500000 0.400881
O O13 0.000000 0.772837 0.446338
O O14 0.909728 0.774995 0.203755
O O15 0.685277 0.500000 0.789440
O O16 0.923195 0.500000 0.007315
O O17 0.000000 0.226559 0.961744
#
# Coordination Sequence:
#
# PCOD9337451 Si02
#       6
#     4   4   4   4   4   4
#     4   9  18  33  52  72  95 125 161 201 244 290
#     4  10  21  36  54  74  95 124 163 204 244 288
#     4   9  16  24  36  58  89 123 155 187 228 280
#     4   8  13  21  34  53  80 118 159 192 224 267
#     4  10  20  32  49  75 104 132 160 195 244 297
#     4   8  13  21  33  50  77 117 160 194 224 265
#
# _framework density 20.941009000000001
#
# number of rings (size 3 to 8) (size 9 to 14) (size 15 to 20)
#    0.000    3.000    0.000    2.500    0.000    5.667 
#    0.000    6.667    0.000    0.000    0.000    0.000 
#    0.000    2.667    0.000    5.333    0.000    9.333 
#
# Total GULP energy -133960.777905 kJ/mol
# GULP energy per Si atom -5581.699079 kJ/mol
# Density = 2.089335 g / cm^3
# Si number density = 20.941009 Si / 1000 Ang^3
#
#
#
# Elastic Constant Matrix: (Units=GPa)
#
#
# Indices 1 2 3 4 5 6 
#
# 1 184.3770 -2.2820 137.5722 0.0000 0.0000 0.0000
# 2 -2.2820 61.8674 -10.2310 0.0000 0.0000 0.0000
# 3 137.5722 -10.2310 147.6519 0.0000 0.0000 0.0000
# 4 0.0000 0.0000 0.0000 170.3122 0.0000 0.0000
# 5 0.0000 0.0000 0.0000 0.0000 -613.1018 0.0000
# 6 0.0000 0.0000 0.0000 0.0000 0.0000 -13.7740
#
#
#
# Elastic Compliance Matrix: (Units=1/GPa)
#
#
# Indices 1 2 3 4 5 6 
#
# 1 0.018071 -0.002142 -0.016986 0.000000 0.000000 0.000000
# 2 -0.002142 0.016605 0.003147 0.000000 0.000000 0.000000
# 3 -0.016986 0.003147 0.022817 0.000000 0.000000 0.000000
# 4 0.000000 0.000000 0.000000 0.005872 0.000000 0.000000
# 5 0.000000 0.000000 0.000000 0.000000 -0.001631 0.000000
# 6 0.000000 0.000000 0.000000 0.000000 0.000000 -0.072600
#
#
# Mechanical properties :
#
#
# Convention : Reuss Voigt Hill
#
# Bulk Modulus (GPa) = 39.16963 71.55717 55.36340
# Shear Modulus (GPa) = 168.88169 -73.39024 47.74572
#
# Velocity S-wave (km/s) = 8.99008 -5.92640 4.78013
# Velocity P-wave (km/s) = 11.24755 3.54749 7.54727
#
# Compressibility (1/GPa) = 0.02552998
#
# Stress axis : x y z
#
# Youngs Moduli (GPa) = 55.33681 60.22298 43.82676
#
# Poissons Ratio (x) = 0.12902 0.74444
# Poissons Ratio (y) = 0.11855 -0.13791
# Poissons Ratio (z) = 0.93995 -0.18951
#
# Static dielectric constant tensor:
#      x y z
#    x 1.774160 0.000000 0.000000 
#    y 0.000000 1.762540 0.000000 
#    z 0.000000 0.000000 1.713810 
# 
# From -- ./inp_files/3346.got.cif
#   From: 2010.05.17/outbox.cif.g08.bks.cpg/sg25_2_cif.got.tgz:3346.got - 2010.06.04 01:04:00.
