data_PCOD9337202
_publ_section_title
;
Structure prediction by ZEFSAII (Michael W. Deem and Ramdas Pophale) SiO2 
 PCOD9337202
Probable space group: P M M 2
;
_chemical_formula_sum "Si O2"
_cell_formula_units_Z 24
_cell_length_a 17.544697
_cell_length_b 7.626547
_cell_length_c 9.819210
_cell_angle_alpha 90.000000
_cell_angle_beta 90.000000
_cell_angle_gamma 90.000000
_cell_volume 1313.863874
_symmetry_space_group_name_H-M "P M M 2"
_symmetry_group_IT_number 25
_symmetry_cell_setting 'orthorhombic'
loop_
_space_group_symop_operation_xyz
x,y,z
-x,-y,z
-x,y,z
x,-y,z
loop_
_atom_site_type_symbol
_atom_site_label
_atom_site_fract_x
_atom_site_fract_y
_atom_site_fract_z
Si Si1 0.330070 0.194029 0.423050
Si Si2 0.594717 0.500000 0.958954
Si Si3 0.086766 0.211989 0.413183
Si Si4 0.588130 0.500000 0.278291
Si Si5 0.790321 0.787495 0.634908
Si Si6 0.209516 0.294124 0.206994
Si Si7 0.279649 0.209394 0.914705
O O1 0.386934 0.330564 0.360569
O O2 0.287670 0.260296 0.557347
O O3 0.263101 0.189102 0.310690
O O4 0.361266 0.000000 0.444727
O O5 0.500000 0.500000 0.937551
O O6 0.612134 0.500000 0.120997
O O7 0.643232 0.671505 0.909097
O O8 0.139859 0.275206 0.539882
O O9 0.125817 0.263019 0.269553
O O10 0.000000 0.273590 0.424247
O O11 0.086351 0.000000 0.418570
O O12 0.500000 0.500000 0.269271
O O13 0.776934 0.738071 0.790861
O O14 0.794782 0.000000 0.631329
O O15 0.225918 0.500000 0.224575
O O16 0.233627 0.241344 0.055373
O O17 0.297009 0.000000 0.904257
#
# Coordination Sequence:
#
# PCOD9337202 Si02
#       7
#     4   2   4   2   4   4   4
#     4  10  18  35  55  77 105 140 182 226 274 328
#     4  11  24  39  55  85 116 144 189 238 289 339
#     4   9  18  35  58  85 115 149 189 234 285 336
#     4  11  22  35  53  83 110 136 181 232 287 337
#     4   8  18  33  56  83 109 145 189 230 273 333
#     4  11  19  33  55  80 111 144 189 231 269 327
#     4  11  20  37  59  83 113 151 193 232 279 334
#
# _framework density 18.266735000000001
#
# number of rings (size 3 to 8) (size 9 to 14) (size 15 to 20)
#    0.000    2.000    3.333    2.500    0.000    1.667 
#    1.500    4.167    0.000    6.000    0.000    0.000 
#    0.000    0.000    0.000    0.000    0.000    0.000 
#
# Total GULP energy -133623.880462 kJ/mol
# GULP energy per Si atom -5567.661686 kJ/mol
# Density = 1.822516 g / cm^3
# Si number density = 18.266735 Si / 1000 Ang^3
#
#
#
# Elastic Constant Matrix: (Units=GPa)
#
#
# Indices 1 2 3 4 5 6 
#
# 1 81.5245 24.6849 32.0484 0.0000 0.0000 0.0000
# 2 24.6849 88.7588 4.6549 0.0000 0.0000 0.0000
# 3 32.0484 4.6549 108.5699 0.0000 0.0000 0.0000
# 4 0.0000 0.0000 0.0000 47.2072 0.0000 0.0000
# 5 0.0000 0.0000 0.0000 0.0000 23.1606 0.0000
# 6 0.0000 0.0000 0.0000 0.0000 0.0000 22.1996
#
#
#
# Elastic Compliance Matrix: (Units=1/GPa)
#
#
# Indices 1 2 3 4 5 6 
#
# 1 0.015168 -0.003993 -0.004306 0.000000 0.000000 0.000000
# 2 -0.003993 0.012343 0.000649 0.000000 0.000000 0.000000
# 3 -0.004306 0.000649 0.010454 0.000000 0.000000 0.000000
# 4 0.000000 0.000000 0.000000 0.021183 0.000000 0.000000
# 5 0.000000 0.000000 0.000000 0.000000 0.043177 0.000000
# 6 0.000000 0.000000 0.000000 0.000000 0.000000 0.045046
#
#
# Mechanical properties :
#
#
# Convention : Reuss Voigt Hill
#
# Bulk Modulus (GPa) = 44.11911 44.62553 44.37232
# Shear Modulus (GPa) = 29.37293 33.01115 31.19204
#
# Velocity S-wave (km/s) = 4.01434 4.25570 4.13678
# Velocity P-wave (km/s) = 6.75956 6.97359 6.86741
#
# Compressibility (1/GPa) = 0.02266591
#
# Stress axis : x y z
#
# Youngs Moduli (GPa) = 65.92829 81.01879 95.65758
#
# Poissons Ratio (x) = 0.32347 0.41192
# Poissons Ratio (y) = 0.26322 -0.06212
# Poissons Ratio (z) = 0.28390 -0.05261
#
# Static dielectric constant tensor:
#      x y z
#    x 1.647800 0.000000 0.000000 
#    y 0.000000 1.642380 0.000000 
#    z 0.000000 0.000000 1.673170 
# 
# From -- ./inp_files/3389.got.cif
#   From: 2010.05.17/outbox.cif.g08.bks.cpg/sg25_2_cif.got.tgz:3389.got - 2010.06.04 01:04:00.
