data_PCOD9337223
_publ_section_title
;
Structure prediction by ZEFSAII (Michael W. Deem and Ramdas Pophale) SiO2 
 PCOD9337223
Probable space group: P M M 2
;
_chemical_formula_sum "Si O2"
_cell_formula_units_Z 32
_cell_length_a 13.776860
_cell_length_b 14.433437
_cell_length_c 9.847358
_cell_angle_alpha 90.000000
_cell_angle_beta 90.000000
_cell_angle_gamma 90.000000
_cell_volume 1958.121938
_symmetry_space_group_name_H-M "P M M 2"
_symmetry_group_IT_number 25
_symmetry_cell_setting 'orthorhombic'
loop_
_space_group_symop_operation_xyz
x,y,z
-x,-y,z
-x,y,z
x,-y,z
loop_
_atom_site_type_symbol
_atom_site_label
_atom_site_fract_x
_atom_site_fract_y
_atom_site_fract_z
Si Si1 0.191674 0.888855 0.376370
Si Si2 0.882534 0.605094 0.354782
Si Si3 0.885087 0.104848 0.083575
Si Si4 0.214979 0.762749 0.871068
Si Si5 0.615110 0.109239 0.950304
Si Si6 0.115030 0.388568 0.042699
Si Si7 0.607491 0.111309 0.272967
Si Si8 0.885401 0.751620 0.582403
O O1 0.145199 0.860804 0.232292
O O2 0.303595 0.856540 0.365345
O O3 0.133925 0.845455 0.499707
O O4 0.188791 0.000000 0.383831
O O5 0.848281 0.500000 0.376948
O O6 0.859250 0.632889 0.200001
O O7 0.852502 0.672916 0.475063
O O8 0.000000 0.603810 0.357622
O O9 0.000000 0.102532 0.079391
O O10 0.846659 0.000000 0.071104
O O11 0.847161 0.165539 0.961337
O O12 0.320267 0.812518 0.877162
O O13 0.174964 0.753059 0.719859
O O14 0.189514 0.666088 0.946687
O O15 0.500000 0.119055 0.923806
O O16 0.639476 0.000000 0.920871
O O17 0.629530 0.124833 0.112862
O O18 0.120069 0.500000 0.026151
O O19 0.000000 0.362618 0.019692
O O20 0.500000 0.148729 0.302911
O O21 0.603340 0.000000 0.289063
O O22 0.000000 0.739760 0.611358
#
# Coordination Sequence:
#
# PCOD9337223 Si02
#       8
#     4   4   4   4   4   4   4   4
#     4  10  19  32  47  66  95 133 172 205 245 297
#     4   8  16  33  53  70  93 129 170 209 249 294
#     4  10  19  30  46  67  93 130 173 210 245 294
#     4  12  21  32  50  75 104 132 172 212 261 311
#     4   9  18  34  55  77 101 131 171 222 274 315
#     4   9  18  33  54  79 105 135 174 217 255 299
#     4   8  14  28  51  74  91 114 160 218 263 293
#     4  11  23  33  44  69 106 143 170 199 248 307
#
# _framework density 16.342189999999999
#
# number of rings (size 3 to 8) (size 9 to 14) (size 15 to 20)
#    0.000    2.375    1.250    4.125    0.000    3.250 
#    0.000    1.875    0.000    1.875    0.000    0.000 
#    0.000    1.500    0.000    0.000    0.000    0.000 
#
# Total GULP energy -178258.701838 kJ/mol
# GULP energy per Si atom -5570.584432 kJ/mol
# Density = 1.630499 g / cm^3
# Si number density = 16.342190 Si / 1000 Ang^3
#
#
#
# Elastic Constant Matrix: (Units=GPa)
#
#
# Indices 1 2 3 4 5 6 
#
# 1 67.4872 23.4042 26.4224 0.0000 0.0000 0.0000
# 2 23.4042 69.5627 37.6515 0.0000 0.0000 0.0000
# 3 26.4224 37.6515 87.5615 0.0000 0.0000 0.0000
# 4 0.0000 0.0000 0.0000 353.4040 0.0000 0.0000
# 5 0.0000 0.0000 0.0000 0.0000 18.5303 0.0000
# 6 0.0000 0.0000 0.0000 0.0000 0.0000 16.6614
#
#
#
# Elastic Compliance Matrix: (Units=1/GPa)
#
#
# Indices 1 2 3 4 5 6 
#
# 1 0.017607 -0.003973 -0.003605 0.000000 0.000000 0.000000
# 2 -0.003973 0.019633 -0.007243 0.000000 0.000000 0.000000
# 3 -0.003605 -0.007243 0.015623 0.000000 0.000000 0.000000
# 4 0.000000 0.000000 0.000000 0.002830 0.000000 0.000000
# 5 0.000000 0.000000 0.000000 0.000000 0.053966 0.000000
# 6 0.000000 0.000000 0.000000 0.000000 0.000000 0.060019
#
#
# Mechanical properties :
#
#
# Convention : Reuss Voigt Hill
#
# Bulk Modulus (GPa) = 43.06459 44.39639 43.73049
# Shear Modulus (GPa) = 24.14785 86.86136 55.50460
#
# Velocity S-wave (km/s) = 3.84818 7.29842 5.83419
# Velocity P-wave (km/s) = 6.79364 9.91203 8.49712
#
# Compressibility (1/GPa) = 0.02322094
#
# Stress axis : x y z
#
# Youngs Moduli (GPa) = 56.79680 50.93572 64.00870
#
# Poissons Ratio (x) = 0.20235 0.23073
# Poissons Ratio (y) = 0.22563 0.46363
# Poissons Ratio (z) = 0.20474 0.36894
#
# Static dielectric constant tensor:
#      x y z
#    x 1.575860 0.000000 0.000000 
#    y 0.000000 1.581870 0.000000 
#    z 0.000000 0.000000 1.533420 
# 
# From -- ./inp_files/3293.got.cif
#   From: 2010.05.17/outbox.cif.g08.bks.cpg/sg25_2_cif.got.tgz:3293.got - 2010.06.04 01:04:00.
