data_PCOD9337961
_publ_section_title
;
Structure prediction by ZEFSAII (Michael W. Deem and Ramdas Pophale) SiO2 
 PCOD9337961
Probable space group: P M C 21
;
_chemical_formula_sum "Si O2"
_cell_formula_units_Z 32
_cell_length_a 7.478857
_cell_length_b 12.691439
_cell_length_c 14.520844
_cell_angle_alpha 90.000000
_cell_angle_beta 90.000000
_cell_angle_gamma 90.000000
_cell_volume 1378.281592
_symmetry_space_group_name_H-M "P M C 21"
_symmetry_group_IT_number 26
_symmetry_cell_setting 'orthorhombic'
loop_
_space_group_symop_operation_xyz
x,y,z
-x,-y,1/2+z
-x,y,z
x,-y,1/2+z
loop_
_atom_site_type_symbol
_atom_site_label
_atom_site_fract_x
_atom_site_fract_y
_atom_site_fract_z
Si Si1 0.204241 0.569222 0.405200
Si Si2 0.284161 0.055866 0.940015
Si Si3 0.290484 0.159633 0.232675
Si Si4 0.794521 0.609000 0.029378
Si Si5 0.797491 0.077730 0.727051
Si Si6 0.220246 0.315356 0.720089
Si Si7 0.716992 0.260340 0.054277
Si Si8 0.716585 0.173164 0.441967
O O1 0.287832 0.463534 0.448995
O O2 0.279265 0.632072 0.316718
O O3 0.208260 0.646931 0.492597
O O4 0.000000 0.544227 0.377693
O O5 0.500000 0.054857 0.928818
O O6 0.207166 0.072591 0.838552
O O7 0.233495 0.941965 0.979312
O O8 0.235051 0.152463 0.002929
O O9 0.500000 0.181826 0.239760
O O10 0.218362 0.241425 0.157985
O O11 0.219854 0.172015 0.335711
O O12 0.279065 0.037054 0.200609
O O13 0.720908 0.614243 0.133046
O O14 0.000000 0.573210 0.038575
O O15 0.791733 0.728690 0.995454
O O16 0.717693 0.193619 0.706578
O O17 0.000000 0.078312 0.693594
O O18 0.000000 0.310046 0.721125
O O19 0.500000 0.270491 0.053975
O O20 0.500000 0.181020 0.444449
#
# Coordination Sequence:
#
# PCOD9337961 Si02
#       8
#     4   4   4   4   4   4   4   4
#     4  10  21  39  59  79 111 149 186 234 281 325
#     4   9  18  33  53  79 111 144 178 223 278 330
#     4   9  20  36  54  80 118 153 182 226 281 335
#     4  10  22  38  58  81 108 148 190 229 279 336
#     4  10  18  31  53  79 111 147 185 227 272 327
#     4   9  19  36  54  79 111 141 179 229 280 325
#     4  10  20  35  57  83 111 147 187 227 275 333
#     4   9  19  36  54  78 113 145 179 227 278 325
#
# _framework density 23.217317999999999
#
# number of rings (size 3 to 8) (size 9 to 14) (size 15 to 20)
#    0.000    2.500    1.250    1.125    1.750    4.000 
#    0.000    2.500    0.000    0.000    0.000    0.000 
#    0.000    0.000    0.000    0.000    0.000    0.000 
#
# Total GULP energy -178576.948167 kJ/mol
# GULP energy per Si atom -5580.529630 kJ/mol
# Density = 2.316447 g / cm^3
# Si number density = 23.217318 Si / 1000 Ang^3
#
#
#
# Elastic Constant Matrix: (Units=GPa)
#
#
# Indices 1 2 3 4 5 6 
#
# 1 58.2169 -1.1779 -0.5144 0.0000 0.0000 0.0000
# 2 -1.1779 85.2500 22.4585 0.0000 0.0000 0.0000
# 3 -0.5144 22.4585 65.7704 0.0000 0.0000 0.0000
# 4 0.0000 0.0000 0.0000 29.1353 0.0000 0.0000
# 5 0.0000 0.0000 0.0000 0.0000 17.5829 0.0000
# 6 0.0000 0.0000 0.0000 0.0000 0.0000 14.4450
#
#
#
# Elastic Compliance Matrix: (Units=1/GPa)
#
#
# Indices 1 2 3 4 5 6 
#
# 1 0.017182 0.000222 0.000059 0.000000 0.000000 0.000000
# 2 0.000222 0.012893 -0.004401 0.000000 0.000000 0.000000
# 3 0.000059 -0.004401 0.016708 0.000000 0.000000 0.000000
# 4 0.000000 0.000000 0.000000 0.034323 0.000000 0.000000
# 5 0.000000 0.000000 0.000000 0.000000 0.056873 0.000000
# 6 0.000000 0.000000 0.000000 0.000000 0.000000 0.069228
#
#
# Mechanical properties :
#
#
# Convention : Reuss Voigt Hill
#
# Bulk Modulus (GPa) = 25.94564 27.86328 26.90446
# Shear Modulus (GPa) = 21.90160 24.79741 23.34950
#
# Velocity S-wave (km/s) = 3.07470 3.27166 3.17471
# Velocity P-wave (km/s) = 4.87898 5.12824 5.00516
#
# Compressibility (1/GPa) = 0.03854211
#
# Stress axis : x y z
#
# Youngs Moduli (GPa) = 58.19992 77.56395 59.85316
#
# Poissons Ratio (x) = -0.01722 -0.00351
# Poissons Ratio (y) = -0.01292 0.26339
# Poissons Ratio (z) = -0.00341 0.34133
#
# Static dielectric constant tensor:
#      x y z
#    x 1.877050 0.000000 0.000000 
#    y 0.000000 1.856120 0.000000 
#    z 0.000000 0.000000 1.885070 
# 
# From -- ./inp_files/4312.got.cif
#   From: 2010.05.17/outbox.cif.g08.bks.cpg/sg26_3_cif.got.tgz:4312.got - 2010.06.04 01:07:29.
