data_PCOD9337599
_publ_section_title
;
Structure prediction by ZEFSAII (Michael W. Deem and Ramdas Pophale) SiO2 
 PCOD9337599
Probable space group: P M M 2
;
_chemical_formula_sum "Si O2"
_cell_formula_units_Z 24
_cell_length_a 7.888800
_cell_length_b 9.810770
_cell_length_c 17.309862
_cell_angle_alpha 90.000000
_cell_angle_beta 90.000000
_cell_angle_gamma 90.000000
_cell_volume 1339.700273
_symmetry_space_group_name_H-M "P M M 2"
_symmetry_group_IT_number 25
_symmetry_cell_setting 'orthorhombic'
loop_
_space_group_symop_operation_xyz
x,y,z
-x,-y,z
-x,y,z
x,-y,z
loop_
_atom_site_type_symbol
_atom_site_label
_atom_site_fract_x
_atom_site_fract_y
_atom_site_fract_z
Si Si1 0.794697 0.154687 0.106550
Si Si2 0.199783 0.343011 0.791904
Si Si3 0.000000 0.838967 0.535708
Si Si4 0.000000 0.664651 0.381497
Si Si5 0.297921 0.842657 0.933918
Si Si6 0.198653 0.349335 0.238987
Si Si7 0.308731 0.158309 0.651581
O O1 0.728151 0.246240 0.176885
O O2 0.000000 0.150174 0.109369
O O3 0.732113 0.000000 0.114669
O O4 0.744447 0.202330 0.021112
O O5 0.258707 0.500000 0.797755
O O6 0.225059 0.259756 0.870872
O O7 0.288134 0.258612 0.723751
O O8 0.000000 0.345007 0.774050
O O9 0.165535 0.812482 0.588206
O O10 0.000000 0.746129 0.460104
O O11 0.000000 0.000000 0.515469
O O12 0.835462 0.697763 0.327273
O O13 0.000000 0.500000 0.391269
O O14 0.500000 0.844957 0.924408
O O15 0.235744 0.000000 0.924460
O O16 0.275897 0.500000 0.237891
O O17 0.000000 0.364352 0.214438
O O18 0.500000 0.169777 0.620598
O O19 0.284246 0.000000 0.677023
#
# Coordination Sequence:
#
# PCOD9337599 Si02
#       7
#     4   4   2   2   4   4   4
#     4   9  16  27  46  71  95 123 167 216 257 302
#     4  11  23  37  54  78 106 138 180 227 271 321
#     4  10  20  34  56  85 110 137 176 221 268 323
#     4   8  16  30  50  77 106 135 170 213 260 317
#     4  10  21  35  50  71 103 143 182 221 269 321
#     4   7  13  26  44  69  97 126 161 204 254 304
#     4  10  21  38  59  82 110 144 181 222 271 326
#
# _framework density 17.914456000000001
#
# number of rings (size 3 to 8) (size 9 to 14) (size 15 to 20)
#    0.500    2.167    0.833    1.500    0.000    6.333 
#    0.000    1.667    0.000    1.000    0.000    7.000 
#    0.000    0.000    0.000    0.000    0.000    0.000 
#
# Total GULP energy -133614.573439 kJ/mol
# GULP energy per Si atom -5567.273893 kJ/mol
# Density = 1.787368 g / cm^3
# Si number density = 17.914456 Si / 1000 Ang^3
#
#
#
# Elastic Constant Matrix: (Units=GPa)
#
#
# Indices 1 2 3 4 5 6 
#
# 1 58.9336 26.6928 29.9463 0.0000 0.0000 0.0000
# 2 26.6928 91.3682 91.0035 0.0000 0.0000 0.0000
# 3 29.9463 91.0035 140.2185 0.0000 0.0000 0.0000
# 4 0.0000 0.0000 0.0000 203.5900 0.0000 0.0000
# 5 0.0000 0.0000 0.0000 0.0000 -5.8352 0.0000
# 6 0.0000 0.0000 0.0000 0.0000 0.0000 8.4570
#
#
#
# Elastic Compliance Matrix: (Units=1/GPa)
#
#
# Indices 1 2 3 4 5 6 
#
# 1 0.019643 -0.004413 -0.001331 0.000000 0.000000 0.000000
# 2 -0.004413 0.031945 -0.019791 0.000000 0.000000 0.000000
# 3 -0.001331 -0.019791 0.020260 0.000000 0.000000 0.000000
# 4 0.000000 0.000000 0.000000 0.004912 0.000000 0.000000
# 5 0.000000 0.000000 0.000000 0.000000 -0.171375 0.000000
# 6 0.000000 0.000000 0.000000 0.000000 0.000000 0.118246
#
#
# Mechanical properties :
#
#
# Convention : Reuss Voigt Hill
#
# Bulk Modulus (GPa) = 48.12316 65.08948 56.60632
# Shear Modulus (GPa) = 61.25376 50.76753 56.01065
#
# Velocity S-wave (km/s) = 5.85377 5.32920 5.59763
# Velocity P-wave (km/s) = 8.52114 8.61856 8.56999
#
# Compressibility (1/GPa) = 0.02078001
#
# Stress axis : x y z
#
# Youngs Moduli (GPa) = 50.90770 31.30340 49.35752
#
# Poissons Ratio (x) = 0.13813 0.06571
# Poissons Ratio (y) = 0.22464 0.97681
# Poissons Ratio (z) = 0.06777 0.61951
#
# Static dielectric constant tensor:
#      x y z
#    x 1.640130 0.000000 0.000000 
#    y 0.000000 1.623950 0.000000 
#    z 0.000000 0.000000 1.596350 
# 
# From -- ./inp_files/5992.got.cif
#   From: 2010.05.17/outbox.cif.g08.bks.cpg/sg25_3_cif.got.tgz:5992.got - 2010.06.04 01:04:00.
