data_PCOD9337706
_publ_section_title
;
Structure prediction by ZEFSAII (Michael W. Deem and Ramdas Pophale) SiO2 
 PCOD9337706
Probable space group: P M M 2
;
_chemical_formula_sum "Si O2"
_cell_formula_units_Z 32
_cell_length_a 7.847422
_cell_length_b 10.248037
_cell_length_c 20.967201
_cell_angle_alpha 90.000000
_cell_angle_beta 90.000000
_cell_angle_gamma 90.000000
_cell_volume 1686.196374
_symmetry_space_group_name_H-M "P M M 2"
_symmetry_group_IT_number 25
_symmetry_cell_setting 'orthorhombic'
loop_
_space_group_symop_operation_xyz
x,y,z
-x,-y,z
-x,y,z
x,-y,z
loop_
_atom_site_type_symbol
_atom_site_label
_atom_site_fract_x
_atom_site_fract_y
_atom_site_fract_z
Si Si1 0.205288 0.648481 0.995310
Si Si2 0.708303 0.850776 0.599920
Si Si3 0.203812 0.852300 0.099448
Si Si4 0.291881 0.149318 0.744952
Si Si5 0.297063 0.852213 0.242763
Si Si6 0.704050 0.352163 0.494767
Si Si7 0.705537 0.351192 0.851322
Si Si8 0.797033 0.647902 0.351560
O O1 0.269287 0.500000 0.004465
O O2 0.247865 0.689021 0.923146
O O3 0.000000 0.644008 0.000647
O O4 0.271096 0.749466 0.047988
O O5 0.500000 0.849920 0.598955
O O6 0.759360 0.817472 0.672439
O O7 0.769932 0.748990 0.547192
O O8 0.760648 0.000000 0.586616
O O9 0.235506 0.811889 0.172444
O O10 0.000000 0.858766 0.090754
O O11 0.272036 0.000000 0.091490
O O12 0.500000 0.150517 0.745809
O O13 0.231613 0.251369 0.797727
O O14 0.239600 0.000000 0.758295
O O15 0.500000 0.859205 0.240174
O O16 0.250781 0.749835 0.297159
O O17 0.230978 0.000000 0.255269
O O18 0.500000 0.358102 0.502794
O O19 0.771505 0.500000 0.502473
O O20 0.737583 0.310875 0.422029
O O21 0.500000 0.353960 0.847350
O O22 0.767424 0.500000 0.841717
O O23 0.730334 0.500000 0.339748
O O24 0.000000 0.640751 0.353261
#
# Coordination Sequence:
#
# PCOD9337706 Si02
#       8
#     4   4   4   4   4   4   4   4
#     4   9  18  32  48  66  91 123 156 189 228 277
#     4   8  14  25  42  65  92 120 151 189 233 280
#     4   9  18  33  51  70  94 124 157 193 233 279
#     4   8  14  25  41  63  91 120 150 187 232 279
#     4  10  21  36  54  77 103 129 159 198 243 289
#     4   9  17  29  46  69  95 121 153 196 241 282
#     4   9  17  28  43  65  91 117 149 191 233 272
#     4  10  21  36  53  73  99 132 167 201 239 286
#
# _framework density 18.977623999999999
#
# number of rings (size 3 to 8) (size 9 to 14) (size 15 to 20)
#    0.000    3.000    0.000    1.500    0.000    4.000 
#    0.000    5.000    0.000    0.750    0.000    5.250 
#    0.000    0.000    0.000    0.000    0.000    0.000 
#
# Total GULP energy -178410.063073 kJ/mol
# GULP energy per Si atom -5575.314471 kJ/mol
# Density = 1.893443 g / cm^3
# Si number density = 18.977624 Si / 1000 Ang^3
#
#
#
# Elastic Constant Matrix: (Units=GPa)
#
#
# Indices 1 2 3 4 5 6 
#
# 1 20.2811 4.9359 -0.2815 0.0000 0.0000 0.0000
# 2 4.9359 125.0482 141.7296 0.0000 0.0000 0.0000
# 3 -0.2815 141.7296 194.1804 0.0000 0.0000 0.0000
# 4 0.0000 0.0000 0.0000 44.5439 0.0000 0.0000
# 5 0.0000 0.0000 0.0000 0.0000 36.5538 0.0000
# 6 0.0000 0.0000 0.0000 0.0000 0.0000 2.0460
#
#
#
# Elastic Compliance Matrix: (Units=1/GPa)
#
#
# Indices 1 2 3 4 5 6 
#
# 1 0.052474 -0.012489 0.009192 0.000000 0.000000 0.000000
# 2 -0.012489 0.049265 -0.035976 0.000000 0.000000 0.000000
# 3 0.009192 -0.035976 0.031422 0.000000 0.000000 0.000000
# 4 0.000000 0.000000 0.000000 0.022450 0.000000 0.000000
# 5 0.000000 0.000000 0.000000 0.000000 0.027357 0.000000
# 6 0.000000 0.000000 0.000000 0.000000 0.000000 0.488750
#
#
# Mechanical properties :
#
#
# Convention : Reuss Voigt Hill
#
# Bulk Modulus (GPa) = 18.31032 70.25307 44.28170
# Shear Modulus (GPa) = 6.50643 29.50379 18.00511
#
# Velocity S-wave (km/s) = 1.85362 3.94720 3.08353
# Velocity P-wave (km/s) = 3.77499 7.60744 6.00515
#
# Compressibility (1/GPa) = 0.05461400
#
# Stress axis : x y z
#
# Youngs Moduli (GPa) = 19.05695 20.29822 31.82508
#
# Poissons Ratio (x) = 0.25351 -0.29253
# Poissons Ratio (y) = 0.23801 1.14495
# Poissons Ratio (z) = -0.17517 0.73025
#
# Static dielectric constant tensor:
#      x y z
#    x 1.688970 0.000000 0.000000 
#    y 0.000000 1.666620 0.000000 
#    z 0.000000 0.000000 1.630980 
# 
# From -- ./inp_files/5561.got.cif
#   From: 2010.05.17/outbox.cif.g08.bks.cpg/sg25_3_cif.got.tgz:5561.got - 2010.06.04 01:04:00.
