data_PCOD9337401
_publ_section_title
;
Structure prediction by ZEFSAII (Michael W. Deem and Ramdas Pophale) SiO2 
 PCOD9337401
Probable space group: P M M 2
;
_chemical_formula_sum "Si O2"
_cell_formula_units_Z 32
_cell_length_a 7.436178
_cell_length_b 9.542639
_cell_length_c 21.852255
_cell_angle_alpha 90.000000
_cell_angle_beta 90.000000
_cell_angle_gamma 90.000000
_cell_volume 1550.652670
_symmetry_space_group_name_H-M "P M M 2"
_symmetry_group_IT_number 25
_symmetry_cell_setting 'orthorhombic'
loop_
_space_group_symop_operation_xyz
x,y,z
-x,-y,z
-x,y,z
x,-y,z
loop_
_atom_site_type_symbol
_atom_site_label
_atom_site_fract_x
_atom_site_fract_y
_atom_site_fract_z
Si Si1 0.288836 0.329398 0.046100
Si Si2 0.279640 0.662687 0.180205
Si Si3 0.715970 0.661191 0.915152
Si Si4 0.214488 0.659198 0.781768
Si Si5 0.215333 0.658623 0.416027
Si Si6 0.219338 0.837758 0.530853
Si Si7 0.780663 0.161724 0.667587
Si Si8 0.284695 0.158758 0.295750
O O1 0.500000 0.292044 0.047320
O O2 0.278445 0.500000 0.044464
O O3 0.216322 0.289372 0.112710
O O4 0.216587 0.279409 0.980207
O O5 0.500000 0.663636 0.179125
O O6 0.227812 0.500000 0.189674
O O7 0.218341 0.759756 0.235610
O O8 0.500000 0.655726 0.920197
O O9 0.782984 0.500000 0.911414
O O10 0.755455 0.725234 0.848975
O O11 0.286737 0.500000 0.781798
O O12 0.283812 0.746049 0.724177
O O13 0.000000 0.650331 0.774595
O O14 0.284418 0.500000 0.409992
O O15 0.283019 0.738855 0.476338
O O16 0.249707 0.750529 0.356037
O O17 0.000000 0.649861 0.422459
O O18 0.274335 0.792829 0.599268
O O19 0.000000 0.837114 0.530068
O O20 0.273274 0.000000 0.521414
O O21 0.000000 0.164657 0.668109
O O22 0.727655 0.000000 0.675190
O O23 0.500000 0.150346 0.289384
O O24 0.215628 0.000000 0.301161
#
# Coordination Sequence:
#
# PCOD9337401 Si02
#       8
#     4   4   4   4   4   4   4   4
#     4   7  10  18  35  58  79 102 137 176 210 247
#     4   8  13  23  41  63  84 107 140 183 222 252
#     4   8  13  22  37  57  81 109 139 169 205 253
#     4   9  16  24  37  60  85 105 131 173 216 246
#     4  10  20  32  48  71  95 118 146 182 224 267
#     4   8  14  26  44  64  85 110 142 179 215 252
#     4   8  14  25  41  60  82 110 142 172 205 249
#     4  10  20  32  47  68  93 122 153 182 217 264
#
# _framework density 20.636471
#
# number of rings (size 3 to 8) (size 9 to 14) (size 15 to 20)
#    0.000    3.500    0.000    3.000    0.000    2.000 
#    0.000    2.500    0.000    2.625    0.000    8.750 
#    0.000    0.000    0.000    0.000    0.000    0.000 
#
# Total GULP energy -178290.211913 kJ/mol
# GULP energy per Si atom -5571.569122 kJ/mol
# Density = 2.058950 g / cm^3
# Si number density = 20.636471 Si / 1000 Ang^3
#
#
#
# Elastic Constant Matrix: (Units=GPa)
#
#
# Indices 1 2 3 4 5 6 
#
# 1 64.3902 4.4637 4.8621 0.0000 0.0000 0.0000
# 2 4.4637 97.1002 113.4210 0.0000 0.0000 0.0000
# 3 4.8621 113.4210 264.3299 0.0000 0.0000 0.0000
# 4 0.0000 0.0000 0.0000 -463.5999 0.0000 0.0000
# 5 0.0000 0.0000 0.0000 0.0000 16.8748 0.0000
# 6 0.0000 0.0000 0.0000 0.0000 0.0000 1.0972
#
#
#
# Elastic Compliance Matrix: (Units=1/GPa)
#
#
# Indices 1 2 3 4 5 6 
#
# 1 0.015580 -0.000765 0.000042 0.000000 0.000000 0.000000
# 2 -0.000765 0.020685 -0.008862 0.000000 0.000000 0.000000
# 3 0.000042 -0.008862 0.007585 0.000000 0.000000 0.000000
# 4 0.000000 0.000000 0.000000 -0.002157 0.000000 0.000000
# 5 0.000000 0.000000 0.000000 0.000000 0.059260 0.000000
# 6 0.000000 0.000000 0.000000 0.000000 0.000000 0.911411
#
#
# Mechanical properties :
#
#
# Convention : Reuss Voigt Hill
#
# Bulk Modulus (GPa) = 40.51817 74.59043 57.55430
# Shear Modulus (GPa) = 4.80880 -68.92068 -32.05594
#
# Velocity S-wave (km/s) = 1.52817 -5.78533 -3.94555
# Velocity P-wave (km/s) = 4.77395 2.89884 2.68210
#
# Compressibility (1/GPa) = 0.02468028
#
# Stress axis : x y z
#
# Youngs Moduli (GPa) = 64.18404 48.34457 131.84288
#
# Poissons Ratio (x) = 0.03697 -0.00548
# Poissons Ratio (y) = 0.04909 1.16833
# Poissons Ratio (z) = -0.00267 0.42841
#
# Static dielectric constant tensor:
#      x y z
#    x 1.823780 0.000000 0.000000 
#    y 0.000000 1.742200 0.000000 
#    z 0.000000 0.000000 1.765690 
# 
# From -- ./inp_files/6375.got.cif
#   From: 2010.05.17/outbox.cif.g08.bks.cpg/sg25_4_cif.got.tgz:6375.got - 2010.06.04 01:04:00.
