data_PCOD9337846
_publ_section_title
;
Structure prediction by ZEFSAII (Michael W. Deem and Ramdas Pophale) SiO2 
 PCOD9337846
Probable space group: P M M 2
;
_chemical_formula_sum "Si O2"
_cell_formula_units_Z 20
_cell_length_a 7.475043
_cell_length_b 13.836416
_cell_length_c 9.442520
_cell_angle_alpha 90.000000
_cell_angle_beta 90.000000
_cell_angle_gamma 90.000000
_cell_volume 976.619113
_symmetry_space_group_name_H-M "P M M 2"
_symmetry_group_IT_number 25
_symmetry_cell_setting 'orthorhombic'
loop_
_space_group_symop_operation_xyz
x,y,z
-x,-y,z
-x,y,z
x,-y,z
loop_
_atom_site_type_symbol
_atom_site_label
_atom_site_fract_x
_atom_site_fract_y
_atom_site_fract_z
Si Si1 0.287687 0.183794 0.178740
Si Si2 0.706857 0.396078 0.832085
Si Si3 0.281618 0.000000 0.680931
Si Si4 0.280355 0.000000 0.356225
Si Si5 0.213523 0.395758 0.164236
Si Si6 0.280186 0.811946 0.853465
O O1 0.500000 0.169787 0.168886
O O2 0.219869 0.096701 0.275057
O O3 0.260030 0.293282 0.233575
O O4 0.219830 0.178655 0.016825
O O5 0.500000 0.397749 0.786804
O O6 0.788005 0.500000 0.790761
O O7 0.782130 0.291499 0.792136
O O8 0.710408 0.393242 0.004228
O O9 0.223880 0.000000 0.518773
O O10 0.224827 0.096173 0.763178
O O11 0.500000 0.000000 0.682670
O O12 0.500000 0.000000 0.356310
O O13 0.269584 0.500000 0.227466
O O14 0.000000 0.397159 0.151068
O O15 0.500000 0.809061 0.854890
#
# Coordination Sequence:
#
# PCOD9337846 Si02
#       6
#     4   4   2   2   4   4
#     4   9  16  27  43  63  86 111 139 169 204 247
#     4   8  13  22  37  58  83 109 135 164 201 244
#     4   9  15  23  37  59  84 106 132 169 208 240
#     4   9  17  27  40  59  84 112 140 173 210 246
#     4   9  16  25  39  62  88 110 135 170 209 245
#     4   8  13  21  36  57  80 105 131 161 198 240
#
# _framework density 20.478812999999999
#
# number of rings (size 3 to 8) (size 9 to 14) (size 15 to 20)
#    0.000    3.400    0.000    2.400    0.000    3.600 
#    0.000    0.500    0.000    1.200    0.000   16.800 
#    0.000   12.800    0.000    0.000    0.000    0.000 
#
# Total GULP energy -111361.952172 kJ/mol
# GULP energy per Si atom -5568.097609 kJ/mol
# Density = 2.043220 g / cm^3
# Si number density = 20.478813 Si / 1000 Ang^3
#
#
#
# Elastic Constant Matrix: (Units=GPa)
#
#
# Indices 1 2 3 4 5 6 
#
# 1 58.4262 0.6718 4.2211 0.0000 0.0000 0.0000
# 2 0.6718 279.5051 86.2347 0.0000 0.0000 0.0000
# 3 4.2211 86.2347 62.6140 0.0000 0.0000 0.0000
# 4 0.0000 0.0000 0.0000 -9.6953 0.0000 0.0000
# 5 0.0000 0.0000 0.0000 0.0000 -41.6610 0.0000
# 6 0.0000 0.0000 0.0000 0.0000 0.0000 154.6538
#
#
#
# Elastic Compliance Matrix: (Units=1/GPa)
#
#
# Indices 1 2 3 4 5 6 
#
# 1 0.017248 0.000552 -0.001923 0.000000 0.000000 0.000000
# 2 0.000552 0.006239 -0.008630 0.000000 0.000000 0.000000
# 3 -0.001923 -0.008630 0.027986 0.000000 0.000000 0.000000
# 4 0.000000 0.000000 0.000000 -0.103143 0.000000 0.000000
# 5 0.000000 0.000000 0.000000 0.000000 -0.024003 0.000000
# 6 0.000000 0.000000 0.000000 0.000000 0.000000 0.006466
#
#
# Mechanical properties :
#
#
# Convention : Reuss Voigt Hill
#
# Bulk Modulus (GPa) = 31.77473 64.75561 48.26517
# Shear Modulus (GPa) = -129.14798 41.28735 -43.93031
#
# Velocity S-wave (km/s) = -7.94991 4.49497 -4.63661
# Velocity P-wave (km/s) = 8.28966 7.65697 2.24604
#
# Compressibility (1/GPa) = 0.03147155
#
# Stress axis : x y z
#
# Youngs Moduli (GPa) = 57.97718 160.28418 35.73255
#
# Poissons Ratio (x) = -0.08843 0.06870
# Poissons Ratio (y) = -0.03199 0.30836
# Poissons Ratio (z) = 0.11147 1.38321
#
# Static dielectric constant tensor:
#      x y z
#    x 1.762150 0.000000 0.000000 
#    y 0.000000 1.805660 0.000000 
#    z 0.000000 0.000000 1.659510 
# 
# From -- ./inp_files/1871.got.cif
#   From: 2010.05.17/outbox.cif.g08.bks.cpg/sg25_1_cif.got.tgz:1871.got - 2010.06.04 01:04:00.
