data_PCOD9337965
_publ_section_title
;
Structure prediction by ZEFSAII (Michael W. Deem and Ramdas Pophale) SiO2 
 PCOD9337965
Probable space group: P M C 21
;
_chemical_formula_sum "Si O2"
_cell_formula_units_Z 32
_cell_length_a 7.759319
_cell_length_b 10.972924
_cell_length_c 14.396803
_cell_angle_alpha 90.000000
_cell_angle_beta 90.000000
_cell_angle_gamma 90.000000
_cell_volume 1225.778614
_symmetry_space_group_name_H-M "P M C 21"
_symmetry_group_IT_number 26
_symmetry_cell_setting 'orthorhombic'
loop_
_space_group_symop_operation_xyz
x,y,z
-x,-y,1/2+z
-x,y,z
x,-y,1/2+z
loop_
_atom_site_type_symbol
_atom_site_label
_atom_site_fract_x
_atom_site_fract_y
_atom_site_fract_z
Si Si1 0.293591 0.440960 0.469170
Si Si2 0.701209 0.970475 0.812342
Si Si3 0.799921 0.795936 0.425369
Si Si4 0.703406 0.805947 0.077262
Si Si5 0.797640 0.427112 0.142363
Si Si6 0.790660 0.662160 0.253131
Si Si7 0.704613 0.292155 0.308180
Si Si8 0.200034 0.932994 0.601406
O O1 0.500000 0.450072 0.468452
O O2 0.241880 0.315809 0.522825
O O3 0.233727 0.550771 0.534156
O O4 0.226597 0.407766 0.366691
O O5 0.500000 0.982411 0.838183
O O6 0.771540 0.837633 0.842181
O O7 0.711481 0.957183 0.700390
O O8 0.794109 0.083483 0.859705
O O9 0.724973 0.692021 0.356769
O O10 0.726589 0.839139 0.524540
O O11 0.000000 0.765485 0.442484
O O12 0.500000 0.821122 0.061330
O O13 0.737948 0.771348 0.184469
O O14 0.792341 0.932781 0.054505
O O15 0.722274 0.543202 0.199129
O O16 0.732335 0.312234 0.199290
O O17 0.000000 0.427751 0.155222
O O18 0.000000 0.657905 0.256053
O O19 0.500000 0.288084 0.323478
O O20 0.000000 0.901657 0.619617
#
# Coordination Sequence:
#
# PCOD9337965 Si02
#       8
#     4   4   4   4   4   4   4   4
#     4   9  19  37  61  86 114 152 196 240 290 343
#     4  11  23  39  60  87 119 154 194 243 289 340
#     4  10  21  37  58  83 116 156 191 231 287 348
#     4  10  18  31  55  84 111 146 190 238 282 330
#     4  10  21  37  60  88 116 148 191 245 291 340
#     4   9  18  35  56  79 110 144 183 235 287 334
#     4  10  22  41  61  83 118 158 194 239 291 345
#     4  11  22  35  53  82 120 160 191 227 287 350
#
# _framework density 26.105853
#
# number of rings (size 3 to 8) (size 9 to 14) (size 15 to 20)
#    0.000    2.000    1.250    2.250    0.000    4.500 
#    2.250    0.000    0.000    0.000    0.000    0.000 
#    0.000    0.000    0.000    0.000    0.000    0.000 
#
# Total GULP energy -178934.264061 kJ/mol
# GULP energy per Si atom -5591.695752 kJ/mol
# Density = 2.604644 g / cm^3
# Si number density = 26.105853 Si / 1000 Ang^3
#
#
#
# Elastic Constant Matrix: (Units=GPa)
#
#
# Indices 1 2 3 4 5 6 
#
# 1 55.0722 -3.3147 -8.5568 0.0000 0.0000 0.0000
# 2 -3.3147 78.5247 23.8850 0.0000 0.0000 0.0000
# 3 -8.5568 23.8850 144.2570 0.0000 0.0000 0.0000
# 4 0.0000 0.0000 0.0000 55.4259 0.0000 0.0000
# 5 0.0000 0.0000 0.0000 0.0000 112.5883 0.0000
# 6 0.0000 0.0000 0.0000 0.0000 0.0000 18.0027
#
#
#
# Elastic Compliance Matrix: (Units=1/GPa)
#
#
# Indices 1 2 3 4 5 6 
#
# 1 0.018343 0.000467 0.001011 0.000000 0.000000 0.000000
# 2 0.000467 0.013422 -0.002195 0.000000 0.000000 0.000000
# 3 0.001011 -0.002195 0.007355 0.000000 0.000000 0.000000
# 4 0.000000 0.000000 0.000000 0.018042 0.000000 0.000000
# 5 0.000000 0.000000 0.000000 0.000000 0.008882 0.000000
# 6 0.000000 0.000000 0.000000 0.000000 0.000000 0.055547
#
#
# Mechanical properties :
#
#
# Convention : Reuss Voigt Hill
#
# Bulk Modulus (GPa) = 26.53466 33.54233 30.03849
# Shear Modulus (GPa) = 36.87637 54.92606 45.90122
#
# Velocity S-wave (km/s) = 3.76250 4.59189 4.19773
# Velocity P-wave (km/s) = 5.39087 6.40237 5.91827
#
# Compressibility (1/GPa) = 0.03768656
#
# Stress axis : x y z
#
# Youngs Moduli (GPa) = 54.51630 74.50394 135.95451
#
# Poissons Ratio (x) = -0.03478 -0.13742
# Poissons Ratio (y) = -0.02545 0.29837
# Poissons Ratio (z) = -0.05510 0.16351
#
# Static dielectric constant tensor:
#      x y z
#    x 1.795530 0.000000 0.000000 
#    y 0.000000 2.108770 0.000000 
#    z 0.000000 0.000000 2.128500 
# 
# From -- ./inp_files/4205.got.cif
#   From: 2010.05.17/outbox.cif.g08.bks.cpg/sg26_3_cif.got.tgz:4205.got - 2010.06.04 01:07:29.
