data_PCOD9337927
_publ_section_title
;
Structure prediction by ZEFSAII (Michael W. Deem and Ramdas Pophale) SiO2 
 PCOD9337927
Probable space group: P M C 21
;
_chemical_formula_sum "Si O2"
_cell_formula_units_Z 24
_cell_length_a 8.518174
_cell_length_b 7.883636
_cell_length_c 14.202760
_cell_angle_alpha 90.000000
_cell_angle_beta 90.000000
_cell_angle_gamma 90.000000
_cell_volume 953.774747
_symmetry_space_group_name_H-M "P M C 21"
_symmetry_group_IT_number 26
_symmetry_cell_setting 'orthorhombic'
loop_
_space_group_symop_operation_xyz
x,y,z
-x,-y,1/2+z
-x,y,z
x,-y,1/2+z
loop_
_atom_site_type_symbol
_atom_site_label
_atom_site_fract_x
_atom_site_fract_y
_atom_site_fract_z
Si Si1 0.816415 0.397653 0.093960
Si Si2 0.813745 0.300229 0.363717
Si Si3 0.819292 0.220115 0.909146
Si Si4 0.185853 0.110580 0.541668
Si Si5 0.680779 0.912151 0.707732
Si Si6 0.319585 0.610177 0.243524
O O1 0.708461 0.254983 0.142184
O O2 0.781830 0.570502 0.150178
O O3 0.000000 0.353748 0.110743
O O4 0.792877 0.375495 0.982833
O O5 0.787939 0.134600 0.297018
O O6 0.722523 0.448579 0.310430
O O7 0.000000 0.337323 0.366054
O O8 0.758967 0.253338 0.468481
O O9 0.799165 0.057837 0.975598
O O10 0.716975 0.238357 0.815972
O O11 0.000000 0.227999 0.878021
O O12 0.272412 0.065248 0.638211
O O13 0.000000 0.132361 0.559934
O O14 0.500000 0.922840 0.735696
O O15 0.500000 0.610907 0.216575
#
# Coordination Sequence:
#
# PCOD9337927 Si02
#       6
#     4   4   4   4   4   4
#     4   9  17  32  53  72  95 131 173 208 239 289
#     4  10  19  34  55  75  99 133 172 209 243 289
#     4   9  18  34  54  75  98 128 168 209 247 291
#     4   9  19  35  55  76  97 129 172 210 245 291
#     4  10  18  29  49  75 103 132 162 201 250 301
#     4  11  21  32  50  77 106 133 163 203 252 301
#
# _framework density 25.163173
#
# number of rings (size 3 to 8) (size 9 to 14) (size 15 to 20)
#    0.000    2.333    0.000    7.000    0.000    4.667 
#    0.000    1.667    0.000    4.000    0.000    0.000 
#    0.000    0.000    0.000    0.000    0.000    0.000 
#
# Total GULP energy -134266.702983 kJ/mol
# GULP energy per Si atom -5594.445958 kJ/mol
# Density = 2.510590 g / cm^3
# Si number density = 25.163173 Si / 1000 Ang^3
#
#
#
# Elastic Constant Matrix: (Units=GPa)
#
#
# Indices 1 2 3 4 5 6 
#
# 1 58.3782 1.5578 32.8155 0.0000 0.0000 0.0000
# 2 1.5578 74.6367 -6.1658 0.0000 0.0000 0.0000
# 3 32.8155 -6.1658 141.3630 0.0000 0.0000 0.0000
# 4 0.0000 0.0000 0.0000 49.9042 0.0000 0.0000
# 5 0.0000 0.0000 0.0000 0.0000 -297.9962 0.0000
# 6 0.0000 0.0000 0.0000 0.0000 0.0000 26.7841
#
#
#
# Elastic Compliance Matrix: (Units=1/GPa)
#
#
# Indices 1 2 3 4 5 6 
#
# 1 0.019747 -0.000794 -0.004619 0.000000 0.000000 0.000000
# 2 -0.000794 0.013479 0.000772 0.000000 0.000000 0.000000
# 3 -0.004619 0.000772 0.008180 0.000000 0.000000 0.000000
# 4 0.000000 0.000000 0.000000 0.020038 0.000000 0.000000
# 5 0.000000 0.000000 0.000000 0.000000 -0.003356 0.000000
# 6 0.000000 0.000000 0.000000 0.000000 0.000000 0.037336
#
#
# Mechanical properties :
#
#
# Convention : Reuss Voigt Hill
#
# Bulk Modulus (GPa) = 31.12830 36.75475 33.94152
# Shear Modulus (GPa) = 43.32286 -27.85022 7.73632
#
# Velocity S-wave (km/s) = 4.15381 -3.33045 1.75532
# Velocity P-wave (km/s) = 5.95004 0.38846 4.19834
#
# Compressibility (1/GPa) = 0.03212511
#
# Stress axis : x y z
#
# Youngs Moduli (GPa) = 50.64038 74.19172 122.25210
#
# Poissons Ratio (x) = 0.05889 0.56464
# Poissons Ratio (y) = 0.04019 -0.09440
# Poissons Ratio (z) = 0.23389 -0.05729
#
# Static dielectric constant tensor:
#      x y z
#    x 1.828970 0.000000 0.000000 
#    y 0.000000 2.233970 0.000000 
#    z 0.000000 0.000000 1.971010 
# 
# From -- ./inp_files/4863.got.cif
#   From: 2010.05.17/outbox.cif.g08.bks.cpg/sg26_3_cif.got.tgz:4863.got - 2010.06.04 01:07:29.
