data_PCOD9337504
_publ_section_title
;
Structure prediction by ZEFSAII (Michael W. Deem and Ramdas Pophale) SiO2 
 PCOD9337504
Probable space group: P M M 2
;
_chemical_formula_sum "Si O2"
_cell_formula_units_Z 32
_cell_length_a 8.696663
_cell_length_b 9.691925
_cell_length_c 21.446295
_cell_angle_alpha 90.000000
_cell_angle_beta 90.000000
_cell_angle_gamma 90.000000
_cell_volume 1807.652564
_symmetry_space_group_name_H-M "P M M 2"
_symmetry_group_IT_number 25
_symmetry_cell_setting 'orthorhombic'
loop_
_space_group_symop_operation_xyz
x,y,z
-x,-y,z
-x,y,z
x,-y,z
loop_
_atom_site_type_symbol
_atom_site_label
_atom_site_fract_x
_atom_site_fract_y
_atom_site_fract_z
Si Si1 0.678114 0.832235 0.366290
Si Si2 0.185595 0.339846 0.990210
Si Si3 0.687922 0.840528 0.503014
Si Si4 0.182956 0.839301 0.235616
Si Si5 0.187871 0.159045 0.872111
Si Si6 0.685413 0.660384 0.620353
Si Si7 0.185548 0.660149 0.754103
Si Si8 0.316349 0.340017 0.124104
O O1 0.500000 0.790501 0.359471
O O2 0.737047 0.787904 0.434494
O O3 0.768139 0.789932 0.304583
O O4 0.681280 0.000000 0.368836
O O5 0.231531 0.500000 0.979355
O O6 0.236514 0.242179 0.933786
O O7 0.000000 0.336694 0.992429
O O8 0.249136 0.295437 0.057300
O O9 0.500000 0.839138 0.501366
O O10 0.737985 0.750116 0.561552
O O11 0.734867 0.000000 0.510674
O O12 0.257261 0.751022 0.180949
O O13 0.000000 0.833557 0.230121
O O14 0.231586 0.000000 0.230159
O O15 0.236898 0.242403 0.810540
O O16 0.000000 0.159285 0.872078
O O17 0.237843 0.000000 0.872079
O O18 0.500000 0.668373 0.623230
O O19 0.728149 0.500000 0.611552
O O20 0.751941 0.705434 0.686906
O O21 0.232583 0.500000 0.764439
O O22 0.000000 0.662406 0.752457
O O23 0.500000 0.334330 0.121431
O O24 0.269115 0.500000 0.133150
#
# Coordination Sequence:
#
# PCOD9337504 Si02
#       8
#     4   4   4   4   4   4   4   4
#     4   8  14  27  47  68  91 122 159 196 235 282
#     4   9  17  31  51  71  92 122 157 191 232 284
#     4   8  14  26  45  66  88 119 157 192 229 277
#     4  10  20  33  51  75 101 130 164 201 242 289
#     4   9  17  29  47  71  95 118 150 193 233 271
#     4   9  17  29  45  66  91 118 151 192 233 272
#     4   9  17  30  47  65  88 121 156 186 223 276
#     4  10  21  36  53  74 100 130 164 201 241 286
#
# _framework density 17.702515999999999
#
# number of rings (size 3 to 8) (size 9 to 14) (size 15 to 20)
#    0.000    3.000    0.000    1.875    0.000    4.000 
#    0.000    3.125    0.000    6.750    0.000    0.000 
#    0.000    0.000    0.000    0.000    0.000    0.000 
#
# Total GULP energy -178335.175879 kJ/mol
# GULP energy per Si atom -5572.974246 kJ/mol
# Density = 1.766222 g / cm^3
# Si number density = 17.702516 Si / 1000 Ang^3
#
#
#
# Elastic Constant Matrix: (Units=GPa)
#
#
# Indices 1 2 3 4 5 6 
#
# 1 6.5934 17.3876 29.1672 0.0000 0.0000 0.0000
# 2 17.3876 72.3036 96.4975 0.0000 0.0000 0.0000
# 3 29.1672 96.4975 210.5924 0.0000 0.0000 0.0000
# 4 0.0000 0.0000 0.0000 37.5775 0.0000 0.0000
# 5 0.0000 0.0000 0.0000 0.0000 30.8263 0.0000
# 6 0.0000 0.0000 0.0000 0.0000 0.0000 13.9595
#
#
#
# Elastic Compliance Matrix: (Units=1/GPa)
#
#
# Indices 1 2 3 4 5 6 
#
# 1 0.505662 -0.072423 -0.036849 0.000000 0.000000 0.000000
# 2 -0.072423 0.045977 -0.011037 0.000000 0.000000 0.000000
# 3 -0.036849 -0.011037 0.014909 0.000000 0.000000 0.000000
# 4 0.000000 0.000000 0.000000 0.026612 0.000000 0.000000
# 5 0.000000 0.000000 0.000000 0.000000 0.032440 0.000000
# 6 0.000000 0.000000 0.000000 0.000000 0.000000 0.071636
#
#
# Mechanical properties :
#
#
# Convention : Reuss Voigt Hill
#
# Bulk Modulus (GPa) = 3.06814 63.95489 33.51151
# Shear Modulus (GPa) = 4.77785 26.23513 15.50649
#
# Velocity S-wave (km/s) = 1.64464 3.85385 2.96285
# Velocity P-wave (km/s) = 2.31157 7.48391 5.53860
#
# Compressibility (1/GPa) = 0.32593090
#
# Stress axis : x y z
#
# Youngs Moduli (GPa) = 1.97761 21.75010 67.07152
#
# Poissons Ratio (x) = 1.57520 2.47152
# Poissons Ratio (y) = 0.14322 0.74026
# Poissons Ratio (z) = 0.07287 0.24005
#
# Static dielectric constant tensor:
#      x y z
#    x 1.601720 0.000000 0.000000 
#    y 0.000000 1.598580 0.000000 
#    z 0.000000 0.000000 1.596810 
# 
# From -- ./inp_files/6570.got.cif
#   From: 2010.05.17/outbox.cif.g08.bks.cpg/sg25_4_cif.got.tgz:6570.got - 2010.06.04 01:04:00.
