data_PCOD9337327
_publ_section_title
;
Structure prediction by ZEFSAII (Michael W. Deem and Ramdas Pophale) SiO2 
 PCOD9337327
Probable space group: P M M 2
;
_chemical_formula_sum "Si O2"
_cell_formula_units_Z 24
_cell_length_a 8.397390
_cell_length_b 13.010811
_cell_length_c 12.213320
_cell_angle_alpha 90.000000
_cell_angle_beta 90.000000
_cell_angle_gamma 90.000000
_cell_volume 1334.388922
_symmetry_space_group_name_H-M "P M M 2"
_symmetry_group_IT_number 25
_symmetry_cell_setting 'orthorhombic'
loop_
_space_group_symop_operation_xyz
x,y,z
-x,-y,z
-x,y,z
x,-y,z
loop_
_atom_site_type_symbol
_atom_site_label
_atom_site_fract_x
_atom_site_fract_y
_atom_site_fract_z
Si Si1 0.809375 0.882210 0.961820
Si Si2 0.307543 0.117213 0.719057
Si Si3 0.694333 0.380318 0.337249
Si Si4 0.307299 0.304660 0.572532
Si Si5 0.809007 0.500000 0.962122
Si Si6 0.191264 0.500000 0.709483
Si Si7 0.309219 0.694367 0.100599
O O1 0.749455 0.852763 0.840455
O O2 0.000000 0.880607 0.960998
O O3 0.755945 0.000000 0.982272
O O4 0.748345 0.801157 0.049858
O O5 0.500000 0.117369 0.719616
O O6 0.252650 0.199248 0.629272
O O7 0.253813 0.000000 0.698289
O O8 0.500000 0.380179 0.337323
O O9 0.743626 0.500000 0.338912
O O10 0.747334 0.324454 0.448264
O O11 0.746734 0.327341 0.224649
O O12 0.500000 0.303722 0.571026
O O13 0.253248 0.399826 0.646698
O O14 0.755100 0.500000 0.835851
O O15 0.000000 0.500000 0.963143
O O16 0.749140 0.399162 0.024869
O O17 0.000000 0.500000 0.707646
O O18 0.500000 0.693181 0.100869
#
# Coordination Sequence:
#
# PCOD9337327 Si02
#       7
#     4   4   4   4   2   2   4
#     4  10  21  37  56  78 108 145 179 217 271 326
#     4   9  18  33  55  83 109 135 174 220 262 313
#     4   9  17  33  54  77 106 140 176 216 262 312
#     4  10  19  34  56  77 103 140 175 211 262 318
#     4  11  23  36  51  76 112 145 174 217 272 325
#     4  11  23  34  47  74 108 135 168 219 266 311
#     4  11  21  35  56  80 106 139 182 226 267 313
#
# _framework density 17.985759999999999
#
# number of rings (size 3 to 8) (size 9 to 14) (size 15 to 20)
#    0.000    2.000    1.667    2.500    0.000    5.667 
#    0.000    3.333    0.000    3.000    0.000    2.333 
#    0.000    0.000    0.000    0.000    0.000    0.000 
#
# Total GULP energy -133993.264994 kJ/mol
# GULP energy per Si atom -5583.052708 kJ/mol
# Density = 1.794482 g / cm^3
# Si number density = 17.985760 Si / 1000 Ang^3
#
#
#
# Elastic Constant Matrix: (Units=GPa)
#
#
# Indices 1 2 3 4 5 6 
#
# 1 15.7489 16.2017 20.7767 0.0000 0.0000 0.0000
# 2 16.2017 125.9302 108.6802 0.0000 0.0000 0.0000
# 3 20.7767 108.6802 200.7898 0.0000 0.0000 0.0000
# 4 0.0000 0.0000 0.0000 19.4231 0.0000 0.0000
# 5 0.0000 0.0000 0.0000 0.0000 -15.5971 0.0000
# 6 0.0000 0.0000 0.0000 0.0000 0.0000 45.1847
#
#
#
# Elastic Compliance Matrix: (Units=1/GPa)
#
#
# Indices 1 2 3 4 5 6 
#
# 1 0.075568 -0.005581 -0.004799 0.000000 0.000000 0.000000
# 2 -0.005581 0.015314 -0.007711 0.000000 0.000000 0.000000
# 3 -0.004799 -0.007711 0.009651 0.000000 0.000000 0.000000
# 4 0.000000 0.000000 0.000000 0.051485 0.000000 0.000000
# 5 0.000000 0.000000 0.000000 0.000000 -0.064115 0.000000
# 6 0.000000 0.000000 0.000000 0.000000 0.000000 0.022131
#
#
# Mechanical properties :
#
#
# Convention : Reuss Voigt Hill
#
# Bulk Modulus (GPa) = 15.53976 70.42067 42.98022
# Shear Modulus (GPa) = 29.82088 22.92283 26.37186
#
# Velocity S-wave (km/s) = 4.07631 3.57389 3.83334
# Velocity P-wave (km/s) = 5.55102 7.50125 6.59858
#
# Compressibility (1/GPa) = 0.06435105
#
# Stress axis : x y z
#
# Youngs Moduli (GPa) = 13.23304 65.29943 103.61849
#
# Poissons Ratio (x) = 0.36444 0.49722
# Poissons Ratio (y) = 0.07385 0.79905
# Poissons Ratio (z) = 0.06350 0.50355
#
# Static dielectric constant tensor:
#      x y z
#    x 1.611300 0.000000 0.000000 
#    y 0.000000 1.594280 0.000000 
#    z 0.000000 0.000000 1.604030 
# 
# From -- ./inp_files/3982.got.cif
#   From: 2010.05.17/outbox.cif.g08.bks.cpg/sg25_2_cif.got.tgz:3982.got - 2010.06.04 01:04:00.
