data_PCOD9337873
_publ_section_title
;
Structure prediction by ZEFSAII (Michael W. Deem and Ramdas Pophale) SiO2 
 PCOD9337873
Probable space group: P M M 2
;
_chemical_formula_sum "Si O2"
_cell_formula_units_Z 32
_cell_length_a 9.000000
_cell_length_b 15.000000
_cell_length_c 12.000000
_cell_angle_alpha 90.000000
_cell_angle_beta 90.000000
_cell_angle_gamma 90.000000
_cell_volume 1620.000000
_symmetry_space_group_name_H-M "P M M 2"
_symmetry_group_IT_number 25
_symmetry_cell_setting 'orthorhombic'
loop_
_space_group_symop_operation_xyz
x,y,z
-x,-y,z
-x,y,z
x,-y,z
loop_
_atom_site_type_symbol
_atom_site_label
_atom_site_fract_x
_atom_site_fract_y
_atom_site_fract_z
Si Si1 0.324046 0.158536 0.969390
Si Si2 0.828817 0.601170 0.213109
Si Si3 0.175220 0.741596 0.579778
Si Si4 0.828111 0.900174 0.749140
Si Si5 0.170915 0.899012 0.190497
Si Si6 0.330242 0.601476 0.734759
Si Si7 0.674494 0.245461 0.342301
Si Si8 0.824960 0.648483 0.959190
O O1 0.500000 0.171451 0.975505
O O2 0.276982 0.111781 0.855021
O O3 0.238093 0.252187 0.969321
O O4 0.264668 0.107632 0.077350
O O5 0.813218 0.500000 0.251794
O O6 0.716991 0.666198 0.273933
O O7 0.000000 0.630384 0.233854
O O8 0.806771 0.604877 0.080082
O O9 0.203582 0.828875 0.654322
O O10 0.228140 0.660473 0.656233
O O11 0.266776 0.744317 0.466873
O O12 0.000000 0.736148 0.555655
O O13 0.000000 0.886124 0.786471
O O14 0.816113 0.000000 0.705039
O O15 0.239333 0.833431 0.280371
O O16 0.000000 0.873941 0.165693
O O17 0.173228 0.000000 0.231654
O O18 0.500000 0.635684 0.734823
O O19 0.331034 0.500000 0.695734
O O20 0.265666 0.604744 0.859312
O O21 0.500000 0.229323 0.339328
O O22 0.000000 0.648582 0.931808
#
# Coordination Sequence:
#
# PCOD9337873 Si02
#       8
#     4   4   4   4   4   4   4   4
#     4  12  23  36  61  96 132 166 202 251 314 373
#     4  10  22  41  66  94 125 164 211 258 305 369
#     4  11  24  43  67  90 120 166 214 262 309 368
#     4  10  22  41  65  93 124 162 207 253 307 371
#     4  11  24  43  67  93 125 167 213 258 307 370
#     4  11  24  41  63  94 131 166 204 258 319 371
#     4  12  26  43  65  92 126 165 207 263 320 372
#     4  11  21  37  64  94 127 167 208 251 307 373
#
# _framework density 19.753086
#
# number of rings (size 3 to 8) (size 9 to 14) (size 15 to 20)
#    0.000    1.000    2.500    4.500    0.000    6.500 
#    0.000    1.250    0.000    0.000    0.000    0.000 
#    0.000    0.000    0.000    0.000    0.000    0.000 
#
# Total GULP energy -178915.459931 kJ/mol
# GULP energy per Si atom -5591.108123 kJ/mol
# Density = 1.970813 g / cm^3
# Si number density = 19.753086 Si / 1000 Ang^3
#
#
#
# Elastic Constant Matrix: (Units=GPa)
#
#
# Indices 1 2 3 4 5 6 
#
# 1 12.0718 7.0857 2.8917 0.0000 0.0000 0.0000
# 2 7.0857 83.8067 9.8587 0.0000 0.0000 0.0000
# 3 2.8917 9.8587 50.5582 0.0000 0.0000 0.0000
# 4 0.0000 0.0000 0.0000-1960.0468 0.0000 0.0000
# 5 0.0000 0.0000 0.0000 0.0000 62.9585 0.0000
# 6 0.0000 0.0000 0.0000 0.0000 0.0000 29.4514
#
#
#
# Elastic Compliance Matrix: (Units=1/GPa)
#
#
# Indices 1 2 3 4 5 6 
#
# 1 0.087820 -0.006995 -0.003659 0.000000 0.000000 0.000000
# 2 -0.006995 0.012769 -0.002090 0.000000 0.000000 0.000000
# 3 -0.003659 -0.002090 0.020396 0.000000 0.000000 0.000000
# 4 0.000000 0.000000 0.000000 -0.000510 0.000000 0.000000
# 5 0.000000 0.000000 0.000000 0.000000 0.015883 0.000000
# 6 0.000000 0.000000 0.000000 0.000000 0.000000 0.033954
#
#
# Mechanical properties :
#
#
# Convention : Reuss Voigt Hill
#
# Bulk Modulus (GPa) = 10.47137 20.67876 15.57506
# Shear Modulus (GPa) = 21.96521 -365.08734 -171.56107
#
# Velocity S-wave (km/s) = 3.33827 -13.60980 -9.32959
# Velocity P-wave (km/s) = 4.49125 15.37783 10.39967
#
# Compressibility (1/GPa) = 0.09549852
#
# Stress axis : x y z
#
# Youngs Moduli (GPa) = 11.38693 78.31190 49.02930
#
# Poissons Ratio (x) = 0.54776 0.17939
# Poissons Ratio (y) = 0.07965 0.10247
# Poissons Ratio (z) = 0.04166 0.16367
#
# Static dielectric constant tensor:
#      x y z
#    x 1.658130 0.000000 0.000000 
#    y 0.000000 1.732840 0.000000 
#    z 0.000000 0.000000 1.658260 
# 
# From -- ./inp_files/4264.got.cif
#   From: 2010.05.17/outbox.ucp.g08.bks.cvg/sg25_3_cif.got.tgz:4264.got - 2010.06.11 15:23:09.
