data_PCOD9337274
_publ_section_title
;
Structure prediction by ZEFSAII (Michael W. Deem and Ramdas Pophale) SiO2 
 PCOD9337274
Probable space group: P M M 2
;
_chemical_formula_sum "Si O2"
_cell_formula_units_Z 29
_cell_length_a 15.628377
_cell_length_b 7.456909
_cell_length_c 12.889558
_cell_angle_alpha 90.000000
_cell_angle_beta 90.000000
_cell_angle_gamma 90.000000
_cell_volume 1502.141164
_symmetry_space_group_name_H-M "P M M 2"
_symmetry_group_IT_number 25
_symmetry_cell_setting 'orthorhombic'
loop_
_space_group_symop_operation_xyz
x,y,z
-x,-y,z
-x,y,z
x,-y,z
loop_
_atom_site_type_symbol
_atom_site_label
_atom_site_fract_x
_atom_site_fract_y
_atom_site_fract_z
Si Si1 0.728636 0.708406 0.491830
Si Si2 0.125178 0.292885 0.160978
Si Si3 0.402706 0.711830 0.659198
Si Si4 0.404987 0.783088 0.314533
Si Si5 0.681469 0.782835 0.105566
Si Si6 0.095280 0.718325 0.401115
Si Si7 0.000000 0.000000 0.080180
Si Si8 0.597853 0.216289 0.895047
O O1 0.743324 0.500000 0.518885
O O2 0.668730 0.788298 0.581994
O O3 0.669974 0.716581 0.389119
O O4 0.822437 0.784058 0.465366
O O5 0.098499 0.500000 0.151279
O O6 0.225438 0.281518 0.138267
O O7 0.107436 0.233757 0.280049
O O8 0.073942 0.157566 0.088986
O O9 0.500000 0.785253 0.647393
O O10 0.408791 0.500000 0.636222
O O11 0.376136 0.731342 0.778999
O O12 0.500000 0.723124 0.346619
O O13 0.384448 0.730813 0.196357
O O14 0.403595 0.000000 0.319843
O O15 0.683042 0.000000 0.104284
O O16 0.653662 0.720506 0.991745
O O17 0.096993 0.500000 0.404023
O O18 0.000000 0.775613 0.434544
O O19 0.500000 0.277480 0.909102
O O20 0.597568 0.000000 0.897853
#
# Coordination Sequence:
#
# PCOD9337274 Si02
#       8
#     4   4   4   4   4   4   1   4
#     4  10  19  32  50  72 102 138 176 219 273 329
#     4  11  21  34  54  81 111 144 185 226 273 338
#     4   9  18  32  49  71  99 134 180 230 275 321
#     4  10  20  31  46  71 107 145 176 212 265 333
#     4  10  19  33  51  76 108 143 179 222 278 333
#     4   9  17  31  50  74 102 134 175 223 270 325
#     4  12  22  36  56  78 110 150 182 232 280 326
#     4   9  18  33  54  76 102 140 185 228 270 321
#
# _framework density 19.305774
#
# number of rings (size 3 to 8) (size 9 to 14) (size 15 to 20)
#    0.000    2.207    2.759    1.034    0.000    3.586 
#    0.000    1.379    0.000    2.483    1.793    0.000 
#    0.000    0.000    0.000    0.000    0.000    0.000 
#
# Total GULP energy -161584.749520 kJ/mol
# GULP energy per Si atom -5571.887914 kJ/mol
# Density = 1.926183 g / cm^3
# Si number density = 19.305774 Si / 1000 Ang^3
#
#
#
# Elastic Constant Matrix: (Units=GPa)
#
#
# Indices 1 2 3 4 5 6 
#
# 1 150.6681 2.2661 61.5831 0.0000 0.0000 0.0000
# 2 2.2661 69.6988 -3.1056 0.0000 0.0000 0.0000
# 3 61.5831 -3.1056 92.3556 0.0000 0.0000 0.0000
# 4 0.0000 0.0000 0.0000 13.0723 0.0000 0.0000
# 5 0.0000 0.0000 0.0000 0.0000 32.4884 0.0000
# 6 0.0000 0.0000 0.0000 0.0000 0.0000 -85.8443
#
#
#
# Elastic Compliance Matrix: (Units=1/GPa)
#
#
# Indices 1 2 3 4 5 6 
#
# 1 0.009146 -0.000570 -0.006118 0.000000 0.000000 0.000000
# 2 -0.000570 0.014404 0.000864 0.000000 0.000000 0.000000
# 3 -0.006118 0.000864 0.014936 0.000000 0.000000 0.000000
# 4 0.000000 0.000000 0.000000 0.076497 0.000000 0.000000
# 5 0.000000 0.000000 0.000000 0.000000 0.030780 0.000000
# 6 0.000000 0.000000 0.000000 0.000000 0.000000 -0.011649
#
#
# Mechanical properties :
#
#
# Convention : Reuss Voigt Hill
#
# Bulk Modulus (GPa) = 37.25775 48.24553 42.75164
# Shear Modulus (GPa) = 32.31867 8.74188 20.53027
#
# Velocity S-wave (km/s) = 4.09594 2.13025 3.26456
# Velocity P-wave (km/s) = 6.45830 5.57629 6.03344
#
# Compressibility (1/GPa) = 0.02684005
#
# Stress axis : x y z
#
# Youngs Moduli (GPa) = 109.33397 69.42279 66.95123
#
# Poissons Ratio (x) = 0.03957 0.40960
# Poissons Ratio (y) = 0.06232 -0.05787
# Poissons Ratio (z) = 0.66890 -0.06001
#
# Static dielectric constant tensor:
#      x y z
#    x 1.676070 0.000000 0.000000 
#    y 0.000000 1.731210 0.000000 
#    z 0.000000 0.000000 1.657340 
# 
# From -- ./inp_files/4877.got.cif
#   From: 2010.05.17/outbox.cif.g08.bks.cpg/sg25_3_cif.got.tgz:4877.got - 2010.06.04 01:04:00.
