data_PCOD9337075
_publ_section_title
;
Structure prediction by ZEFSAII (Michael W. Deem and Ramdas Pophale) SiO2 
 PCOD9337075
Probable space group: I 21 21 21
;
_chemical_formula_sum "Si O2"
_cell_formula_units_Z 20
_cell_length_a 9.000000
_cell_length_b 12.000000
_cell_length_c 18.000000
_cell_angle_alpha 90.000000
_cell_angle_beta 90.000000
_cell_angle_gamma 90.000000
_cell_volume 1944.000000
_symmetry_space_group_name_H-M "I 21 21 21"
_symmetry_group_IT_number 24
_symmetry_cell_setting 'orthorhombic'
loop_
_space_group_symop_operation_xyz
x,y,z
-x,1/2-y,z
x,-y,1/2-z
1/2-x,y,-z
1/2+x,1/2+y,1/2+z
1/2-x,-y,1/2+z
1/2+x,1/2-y,-z
-x,1/2+y,1/2-z
loop_
_atom_site_type_symbol
_atom_site_label
_atom_site_fract_x
_atom_site_fract_y
_atom_site_fract_z
Si Si1 0.256003 0.746264 0.673029
Si Si2 0.079059 0.021679 0.980639
Si Si3 0.106170 0.346699 0.447653
Si Si4 0.000000 0.250000 0.046325
Si Si5 0.500000 0.750000 0.798509
Si Si6 0.500525 0.568386 0.324834
O O1 0.359584 0.732733 0.600738
O O2 0.367581 0.779054 0.740660
O O3 0.136035 0.844517 0.667886
O O4 0.155443 0.634991 0.679674
O O5 0.022259 0.992617 0.898247
O O6 0.250000 0.996424 0.000000
O O7 0.044794 0.150090 0.993260
O O8 0.976787 0.961376 0.040012
O O9 0.250000 0.344884 0.500000
O O10 0.000000 0.250000 0.479707
O O11 0.094493 0.323924 0.358954
O O12 0.517707 0.500000 0.250000
#
# Coordination Sequence:
#
# PCOD9337075 Si02
#       6
#     8   8   8   4   4   8
#     4  10  23  46  65  98 133 180 222 283 339 417
#     4  12  26  43  70 101 137 180 227 291 345 405
#     4  10  25  44  71 103 132 179 231 282 344 414
#     4  11  24  44  72  93 140 174 240 277 342 418
#     4   9  24  44  70  91 136 176 222 281 342 402
#     4  11  26  40  67  99 135 175 225 278 350 406
#
# _framework density 10.288066000000001
#
# number of rings (size 3 to 8) (size 9 to 14) (size 15 to 20)
#    0.600    0.800    2.000    1.800    8.400    0.000 
#    0.000    4.000    0.000    0.000    0.000    0.000 
#    0.000    0.000    0.000    0.000    0.000    0.000 
#
# Total GULP energy -111384.344850 kJ/mol
# GULP energy per Si atom -5569.217243 kJ/mol
# Density = 1.026465 g / cm^3
# Si number density = 10.288066 Si / 1000 Ang^3
#
#
#
# Elastic Constant Matrix: (Units=GPa)
#
#
# Indices 1 2 3 4 5 6 
#
# 1 109.2395 15.7135 14.3668 0.0000 0.0000 0.0000
# 2 15.7135 19.3759 15.1103 0.0000 0.0000 0.0000
# 3 14.3668 15.1103 124.2346 0.0000 0.0000 0.0000
# 4 0.0000 0.0000 0.0000 29.4426 0.0000 0.0000
# 5 0.0000 0.0000 0.0000 0.0000 61.5372 0.0000
# 6 0.0000 0.0000 0.0000 0.0000 0.0000 18.8236
#
#
#
# Elastic Compliance Matrix: (Units=1/GPa)
#
#
# Indices 1 2 3 4 5 6 
#
# 1 0.010367 -0.008256 -0.000195 0.000000 0.000000 0.000000
# 2 -0.008256 0.063593 -0.006780 0.000000 0.000000 0.000000
# 3 -0.000195 -0.006780 0.008896 0.000000 0.000000 0.000000
# 4 0.000000 0.000000 0.000000 0.033964 0.000000 0.000000
# 5 0.000000 0.000000 0.000000 0.000000 0.016250 0.000000
# 6 0.000000 0.000000 0.000000 0.000000 0.000000 0.053125
#
#
# Mechanical properties :
#
#
# Convention : Reuss Voigt Hill
#
# Bulk Modulus (GPa) = 19.08546 38.13681 28.61113
# Shear Modulus (GPa) = 21.35629 35.80464 28.58046
#
# Velocity S-wave (km/s) = 3.22516 4.17598 3.73099
# Velocity P-wave (km/s) = 4.81296 6.46734 5.70049
#
# Compressibility (1/GPa) = 0.05239590
#
# Stress axis : x y z
#
# Youngs Moduli (GPa) = 96.45646 15.72493 112.40450
#
# Poissons Ratio (x) = 0.12982 0.02189
# Poissons Ratio (y) = 0.79633 0.76210
# Poissons Ratio (z) = 0.01879 0.10661
#
# Static dielectric constant tensor:
#      x y z
#    x 1.723660 0.000000 0.000000 
#    y 0.000000 1.854910 0.000000 
#    z 0.000000 0.000000 1.712010 
# 
# From -- ./inp_files/29279.got.cif
#   From: 2010.05.17/outbox.ucp.g08.bks.cvg/sg24_15_cif.got.tgz:29279.got - 2010.06.11 15:20:44.
