data_PCOD9337358
_publ_section_title
;
Structure prediction by ZEFSAII (Michael W. Deem and Ramdas Pophale) SiO2 
 PCOD9337358
Probable space group: P M M 2
;
_chemical_formula_sum "Si O2"
_cell_formula_units_Z 32
_cell_length_a 9.173138
_cell_length_b 13.934362
_cell_length_c 14.311440
_cell_angle_alpha 90.000000
_cell_angle_beta 90.000000
_cell_angle_gamma 90.000000
_cell_volume 1829.314387
_symmetry_space_group_name_H-M "P M M 2"
_symmetry_group_IT_number 25
_symmetry_cell_setting 'orthorhombic'
loop_
_space_group_symop_operation_xyz
x,y,z
-x,-y,z
-x,y,z
x,-y,z
loop_
_atom_site_type_symbol
_atom_site_label
_atom_site_fract_x
_atom_site_fract_y
_atom_site_fract_z
Si Si1 0.831880 0.246305 0.108000
Si Si2 0.326559 0.108916 0.471185
Si Si3 0.671251 0.384919 0.967990
Si Si4 0.825794 0.612843 0.770711
Si Si5 0.659965 0.885652 0.760140
Si Si6 0.673780 0.890741 0.248367
Si Si7 0.159322 0.114168 0.930270
Si Si8 0.171392 0.768431 0.619592
O O1 0.754606 0.194941 0.195128
O O2 0.000000 0.272543 0.128237
O O3 0.747589 0.332027 0.055220
O O4 0.832052 0.164092 0.028912
O O5 0.500000 0.112639 0.489368
O O6 0.304239 0.116408 0.359942
O O7 0.250693 0.195591 0.526098
O O8 0.278074 0.000000 0.499466
O O9 0.500000 0.360427 0.964204
O O10 0.684834 0.500000 0.978700
O O11 0.747995 0.360910 0.868496
O O12 0.798880 0.500000 0.754340
O O13 0.780718 0.675117 0.680106
O O14 0.000000 0.626856 0.783100
O O15 0.500000 0.847177 0.735043
O O16 0.709868 0.856520 0.863179
O O17 0.784663 0.852246 0.691061
O O18 0.652885 0.000000 0.758053
O O19 0.500000 0.884347 0.230536
O O20 0.720040 0.000000 0.220342
O O21 0.000000 0.139125 0.888269
O O22 0.164808 0.000000 0.940473
O O23 0.000000 0.760792 0.602909
#
# Coordination Sequence:
#
# PCOD9337358 Si02
#       8
#     4   4   4   4   4   4   4   4
#     4  11  21  32  51  77 103 133 169 209 256 309
#     4   9  19  36  55  75 102 136 171 208 253 303
#     4  10  21  36  54  77 104 135 174 218 260 305
#     4   9  19  36  54  73 102 137 170 208 257 310
#     4  10  20  31  43  63  94 131 165 196 236 290
#     4   9  19  36  56  77 103 136 173 213 257 305
#     4   9  18  31  44  63  96 132 162 195 237 288
#     4  11  21  31  49  75  98 126 166 209 254 302
#
# _framework density 17.492892000000001
#
# number of rings (size 3 to 8) (size 9 to 14) (size 15 to 20)
#    0.000    2.250    0.000    3.750    0.000    9.500 
#    0.000    2.500    0.000    0.750    0.000    3.500 
#    0.000    0.000    0.000    0.000    0.000    0.000 
#
# Total GULP energy -178371.343133 kJ/mol
# GULP energy per Si atom -5574.104473 kJ/mol
# Density = 1.745308 g / cm^3
# Si number density = 17.492892 Si / 1000 Ang^3
#
#
#
# Elastic Constant Matrix: (Units=GPa)
#
#
# Indices 1 2 3 4 5 6 
#
# 1 57.6886 46.0147 39.0230 0.0000 0.0000 0.0000
# 2 46.0147 91.9114 42.6973 0.0000 0.0000 0.0000
# 3 39.0230 42.6973 65.3916 0.0000 0.0000 0.0000
# 4 0.0000 0.0000 0.0000 36.8498 0.0000 0.0000
# 5 0.0000 0.0000 0.0000 0.0000 30.5168 0.0000
# 6 0.0000 0.0000 0.0000 0.0000 0.0000 22.8739
#
#
#
# Elastic Compliance Matrix: (Units=1/GPa)
#
#
# Indices 1 2 3 4 5 6 
#
# 1 0.035951 -0.011529 -0.013926 0.000000 0.000000 0.000000
# 2 -0.011529 0.019314 -0.005731 0.000000 0.000000 0.000000
# 3 -0.013926 -0.005731 0.027345 0.000000 0.000000 0.000000
# 4 0.000000 0.000000 0.000000 0.027137 0.000000 0.000000
# 5 0.000000 0.000000 0.000000 0.000000 0.032769 0.000000
# 6 0.000000 0.000000 0.000000 0.000000 0.000000 0.043718
#
#
# Mechanical properties :
#
#
# Convention : Reuss Voigt Hill
#
# Bulk Modulus (GPa) = 49.41295 52.27352 50.84323
# Shear Modulus (GPa) = 19.58078 23.86522 21.72300
#
# Velocity S-wave (km/s) = 3.34931 3.69762 3.52777
# Velocity P-wave (km/s) = 6.57768 6.94100 6.76178
#
# Compressibility (1/GPa) = 0.02023761
#
# Stress axis : x y z
#
# Youngs Moduli (GPa) = 27.81588 51.77478 36.56969
#
# Poissons Ratio (x) = 0.59692 0.50927
# Poissons Ratio (y) = 0.32069 0.20959
# Poissons Ratio (z) = 0.38736 0.29673
#
# Static dielectric constant tensor:
#      x y z
#    x 1.619280 0.000000 0.000000 
#    y 0.000000 1.614580 0.000000 
#    z 0.000000 0.000000 1.594300 
# 
# From -- ./inp_files/5711.got.cif
#   From: 2010.05.17/outbox.cif.g08.bks.cpg/sg25_3_cif.got.tgz:5711.got - 2010.06.04 01:04:00.
