data_PCOD9337697
_publ_section_title
;
Structure prediction by ZEFSAII (Michael W. Deem and Ramdas Pophale) SiO2 
 PCOD9337697
Probable space group: P M M 2
;
_chemical_formula_sum "Si O2"
_cell_formula_units_Z 32
_cell_length_a 9.210086
_cell_length_b 14.996830
_cell_length_c 12.713897
_cell_angle_alpha 90.000000
_cell_angle_beta 90.000000
_cell_angle_gamma 90.000000
_cell_volume 1756.070077
_symmetry_space_group_name_H-M "P M M 2"
_symmetry_group_IT_number 25
_symmetry_cell_setting 'orthorhombic'
loop_
_space_group_symop_operation_xyz
x,y,z
-x,-y,z
-x,y,z
x,-y,z
loop_
_atom_site_type_symbol
_atom_site_label
_atom_site_fract_x
_atom_site_fract_y
_atom_site_fract_z
Si Si1 0.825010 0.894958 0.764570
Si Si2 0.324839 0.244773 0.615138
Si Si3 0.673329 0.396065 0.779828
Si Si4 0.325516 0.103528 0.209968
Si Si5 0.676490 0.748630 0.374118
Si Si6 0.326185 0.604820 0.205032
Si Si7 0.833617 0.608611 0.992378
Si Si8 0.832694 0.891470 0.998802
O O1 0.748095 0.836492 0.676848
O O2 0.000000 0.886090 0.759378
O O3 0.791101 0.000000 0.753127
O O4 0.780356 0.864659 0.882641
O O5 0.500000 0.234081 0.615968
O O6 0.290563 0.333851 0.681329
O O7 0.274642 0.250918 0.494458
O O8 0.500000 0.391452 0.797607
O O9 0.710228 0.500000 0.760744
O O10 0.753903 0.364664 0.885294
O O11 0.500000 0.107686 0.202920
O O12 0.278408 0.165122 0.306696
O O13 0.259856 0.135879 0.099382
O O14 0.284098 0.000000 0.225541
O O15 0.500000 0.748527 0.377327
O O16 0.719453 0.663030 0.305078
O O17 0.500000 0.614399 0.191276
O O18 0.295520 0.500000 0.220838
O O19 0.248279 0.635949 0.098434
O O20 0.831257 0.500000 0.992714
O O21 0.000000 0.638107 0.992616
O O22 0.000000 0.863871 0.011796
O O23 0.831248 0.000000 0.996749
#
# Coordination Sequence:
#
# PCOD9337697 Si02
#       8
#     4   4   4   4   4   4   4   4
#     4   9  19  36  55  75 103 136 165 201 254 308
#     4  10  21  35  52  75 100 131 175 218 250 290
#     4   9  18  33  52  74 102 134 167 207 255 304
#     4   9  17  30  49  71  96 126 156 191 238 287
#     4   9  19  34  49  70  99 128 164 205 242 286
#     4   9  17  31  52  74  98 130 163 199 247 299
#     4   9  17  30  50  76 103 129 161 203 251 304
#     4   8  15  30  51  73  97 124 155 193 239 292
#
# _framework density 18.222508999999999
#
# number of rings (size 3 to 8) (size 9 to 14) (size 15 to 20)
#    0.000    3.000    0.000    1.125    0.000    4.750 
#    0.000   10.625    0.000    1.500    0.000    3.500 
#    0.000    0.000    0.000    0.000    0.000    0.000 
#
# Total GULP energy -178446.392667 kJ/mol
# GULP energy per Si atom -5576.449771 kJ/mol
# Density = 1.818103 g / cm^3
# Si number density = 18.222509 Si / 1000 Ang^3
#
#
#
# Elastic Constant Matrix: (Units=GPa)
#
#
# Indices 1 2 3 4 5 6 
#
# 1 21.7028 35.2710 53.8670 0.0000 0.0000 0.0000
# 2 35.2710 95.9027 88.1512 0.0000 0.0000 0.0000
# 3 53.8670 88.1512 219.9104 0.0000 0.0000 0.0000
# 4 0.0000 0.0000 0.0000 32.2998 0.0000 0.0000
# 5 0.0000 0.0000 0.0000 0.0000 -2.5645 0.0000
# 6 0.0000 0.0000 0.0000 0.0000 0.0000 12.5337
#
#
#
# Elastic Compliance Matrix: (Units=1/GPa)
#
#
# Indices 1 2 3 4 5 6 
#
# 1 0.184536 -0.041675 -0.028497 0.000000 0.000000 0.000000
# 2 -0.041675 0.025922 -0.000183 0.000000 0.000000 0.000000
# 3 -0.028497 -0.000183 0.011601 0.000000 0.000000 0.000000
# 4 0.000000 0.000000 0.000000 0.030960 0.000000 0.000000
# 5 0.000000 0.000000 0.000000 0.000000 -0.389942 0.000000
# 6 0.000000 0.000000 0.000000 0.000000 0.000000 0.079785
#
#
# Mechanical properties :
#
#
# Convention : Reuss Voigt Hill
#
# Bulk Modulus (GPa) = 12.29253 76.89937 44.59595
# Shear Modulus (GPa) = 45.17234 19.13559 32.15396
#
# Velocity S-wave (km/s) = 4.98429 3.24405 4.20517
# Velocity P-wave (km/s) = 6.31543 7.50491 6.93571
#
# Compressibility (1/GPa) = 0.08135025
#
# Stress axis : x y z
#
# Youngs Moduli (GPa) = 5.41900 38.57665 86.20129
#
# Poissons Ratio (x) = 1.60769 2.45644
# Poissons Ratio (y) = 0.22584 0.01575
# Poissons Ratio (z) = 0.15442 0.00705
#
# Static dielectric constant tensor:
#      x y z
#    x 1.604940 0.000000 0.000000 
#    y 0.000000 1.654600 0.000000 
#    z 0.000000 0.000000 1.602890 
# 
# From -- ./inp_files/4226.got.cif
#   From: 2010.05.17/outbox.cif.g08.bks.cpg/sg25_3_cif.got.tgz:4226.got - 2010.06.04 01:04:00.
