data_PCOD9337640
_publ_section_title
;
Structure prediction by ZEFSAII (Michael W. Deem and Ramdas Pophale) SiO2 
 PCOD9337640
Probable space group: P M M 2
;
_chemical_formula_sum "Si O2"
_cell_formula_units_Z 25
_cell_length_a 7.633853
_cell_length_b 17.611955
_cell_length_c 7.329372
_cell_angle_alpha 90.000000
_cell_angle_beta 90.000000
_cell_angle_gamma 90.000000
_cell_volume 985.412631
_symmetry_space_group_name_H-M "P M M 2"
_symmetry_group_IT_number 25
_symmetry_cell_setting 'orthorhombic'
loop_
_space_group_symop_operation_xyz
x,y,z
-x,-y,z
-x,y,z
x,-y,z
loop_
_atom_site_type_symbol
_atom_site_label
_atom_site_fract_x
_atom_site_fract_y
_atom_site_fract_z
Si Si1 0.791290 0.919511 0.375000
Si Si2 0.297241 0.084157 0.800447
Si Si3 0.196183 0.397439 0.235966
Si Si4 0.291155 0.754697 0.725171
Si Si5 0.793951 0.580654 0.813373
Si Si6 0.500000 0.500000 0.388654
Si Si7 0.706157 0.763293 0.310235
O O1 0.707835 0.916188 0.576850
O O2 0.737062 0.849042 0.252818
O O3 0.000000 0.917214 0.400080
O O4 0.741160 0.000000 0.291999
O O5 0.500000 0.083067 0.859911
O O6 0.222447 0.170321 0.834024
O O7 0.219863 0.000000 0.850375
O O8 0.344970 0.433335 0.362441
O O9 0.206992 0.306889 0.214179
O O10 0.000000 0.416418 0.297666
O O11 0.226468 0.425009 0.031030
O O12 0.500000 0.765945 0.725052
O O13 0.266843 0.665901 0.771090
O O14 0.225179 0.760570 0.517881
O O15 0.713766 0.500000 0.739569
O O16 0.000000 0.579568 0.769251
O O17 0.500000 0.748919 0.307177
#
# Coordination Sequence:
#
# PCOD9337640 Si02
#       7
#     4   4   4   4   4   1   4
#     4   9  16  26  45  74 107 142 180 223 273 326
#     4   8  14  27  46  71 103 139 176 217 265 327
#     4  11  23  40  62  85 110 142 188 234 275 334
#     4   9  19  32  53  81 111 140 179 227 275 325
#     4  10  22  39  55  76 104 141 185 225 272 333
#     4  12  22  40  64  84 106 144 182 234 284 334
#     4  10  20  36  54  82 114 148 187 228 278 334
#
# _framework density 25.370082
#
# number of rings (size 3 to 8) (size 9 to 14) (size 15 to 20)
#    0.000    2.400    1.600    2.160    1.120    4.480 
#    1.440    0.000    0.000    0.960    0.000    4.480 
#    0.000    0.000    0.000    0.000    0.000    0.000 
#
# Total GULP energy -139193.745357 kJ/mol
# GULP energy per Si atom -5567.749814 kJ/mol
# Density = 2.531234 g / cm^3
# Si number density = 25.370082 Si / 1000 Ang^3
#
#
#
# Elastic Constant Matrix: (Units=GPa)
#
#
# Indices 1 2 3 4 5 6 
#
# 1 84.2127 25.8380 -6.3192 0.0000 0.0000 0.0000
# 2 25.8380 305.1298 18.8302 0.0000 0.0000 0.0000
# 3 -6.3192 18.8302 55.8494 0.0000 0.0000 0.0000
# 4 0.0000 0.0000 0.0000 -20.6177 0.0000 0.0000
# 5 0.0000 0.0000 0.0000 0.0000 1.1191 0.0000
# 6 0.0000 0.0000 0.0000 0.0000 0.0000 43.5601
#
#
#
# Elastic Compliance Matrix: (Units=1/GPa)
#
#
# Indices 1 2 3 4 5 6 
#
# 1 0.012364 -0.001157 0.001789 0.000000 0.000000 0.000000
# 2 -0.001157 0.003455 -0.001296 0.000000 0.000000 0.000000
# 3 0.001789 -0.001296 0.018545 0.000000 0.000000 0.000000
# 4 0.000000 0.000000 0.000000 -0.048502 0.000000 0.000000
# 5 0.000000 0.000000 0.000000 0.000000 0.893592 0.000000
# 6 0.000000 0.000000 0.000000 0.000000 0.000000 0.022957
#
#
# Mechanical properties :
#
#
# Convention : Reuss Voigt Hill
#
# Bulk Modulus (GPa) = 30.27027 57.98778 44.12902
# Shear Modulus (GPa) = 5.46597 31.93515 18.70056
#
# Velocity S-wave (km/s) = 1.46941 3.55177 2.71792
# Velocity P-wave (km/s) = 3.85179 6.30289 5.22316
#
# Compressibility (1/GPa) = 0.03303572
#
# Stress axis : x y z
#
# Youngs Moduli (GPa) = 80.87961 289.41261 53.92381
#
# Poissons Ratio (x) = 0.33496 -0.09648
# Poissons Ratio (y) = 0.09361 0.06988
# Poissons Ratio (z) = -0.14471 0.37506
#
# Static dielectric constant tensor:
#      x y z
#    x 1.956280 0.000000 0.000000 
#    y 0.000000 2.145430 0.000000 
#    z 0.000000 0.000000 1.998870 
# 
# From -- ./inp_files/2140.got.cif
#   From: 2010.05.17/outbox.cif.g08.bks.cpg/sg25_2_cif.got.tgz:2140.got - 2010.06.04 01:04:00.
