data_PCOD9337963
_publ_section_title
;
Structure prediction by ZEFSAII (Michael W. Deem and Ramdas Pophale) SiO2 
 PCOD9337963
Probable space group: P M C 21
;
_chemical_formula_sum "Si O2"
_cell_formula_units_Z 32
_cell_length_a 7.601461
_cell_length_b 11.174325
_cell_length_c 14.478321
_cell_angle_alpha 90.000000
_cell_angle_beta 90.000000
_cell_angle_gamma 90.000000
_cell_volume 1229.805897
_symmetry_space_group_name_H-M "P M C 21"
_symmetry_group_IT_number 26
_symmetry_cell_setting 'orthorhombic'
loop_
_space_group_symop_operation_xyz
x,y,z
-x,-y,1/2+z
-x,y,z
x,-y,1/2+z
loop_
_atom_site_type_symbol
_atom_site_label
_atom_site_fract_x
_atom_site_fract_y
_atom_site_fract_z
Si Si1 0.211793 0.309198 0.562170
Si Si2 0.212051 0.054711 0.119326
Si Si3 0.708167 0.831508 0.890950
Si Si4 0.294954 0.927622 0.293622
Si Si5 0.794984 0.200145 0.959747
Si Si6 0.203387 0.701382 0.716726
Si Si7 0.784477 0.543493 0.449073
Si Si8 0.215652 0.440803 0.736354
O O1 0.259142 0.196202 0.498221
O O2 0.272028 0.425740 0.503203
O O3 0.274099 0.336377 0.666469
O O4 0.000000 0.308220 0.565851
O O5 0.271686 0.947719 0.185160
O O6 0.276839 0.086214 0.016492
O O7 0.273611 0.177358 0.171130
O O8 0.000000 0.043040 0.120905
O O9 0.500000 0.830198 0.875749
O O10 0.780176 0.953744 0.845642
O O11 0.787234 0.726519 0.826779
O O12 0.500000 0.920589 0.312920
O O13 0.214977 0.818623 0.350127
O O14 0.000000 0.202801 0.982696
O O15 0.724024 0.328637 0.989480
O O16 0.273924 0.570195 0.696369
O O17 0.000000 0.698062 0.688524
O O18 0.728047 0.553128 0.342429
O O19 0.000000 0.541670 0.451078
O O20 0.000000 0.439809 0.737391
#
# Coordination Sequence:
#
# PCOD9337963 Si02
#       8
#     4   4   4   4   4   4   4   4
#     4  10  18  31  54  80 107 141 176 212 263 325
#     4   9  18  33  57  86 107 136 186 236 277 318
#     4  10  20  34  51  73 103 137 177 223 266 308
#     4  10  22  39  57  77 107 147 185 228 277 329
#     4  10  20  36  58  83 113 145 181 231 279 324
#     4   9  15  29  54  80 106 136 174 218 262 317
#     4   9  17  31  52  82 114 139 170 220 272 317
#     4   9  16  27  49  81 109 137 171 208 260 322
#
# _framework density 26.020367
#
# number of rings (size 3 to 8) (size 9 to 14) (size 15 to 20)
#    0.000    2.500    1.250    1.500    0.000    5.000 
#    2.250    1.250    0.000    1.500    0.000    0.000 
#    0.000    0.000    0.000    0.000    0.000    0.000 
#
# Total GULP energy -178744.671621 kJ/mol
# GULP energy per Si atom -5585.770988 kJ/mol
# Density = 2.596114 g / cm^3
# Si number density = 26.020367 Si / 1000 Ang^3
#
#
#
# Elastic Constant Matrix: (Units=GPa)
#
#
# Indices 1 2 3 4 5 6 
#
# 1 63.6687 -6.4235 -7.4710 0.0000 0.0000 0.0000
# 2 -6.4235 69.4588 6.0079 0.0000 0.0000 0.0000
# 3 -7.4710 6.0079 132.4140 0.0000 0.0000 0.0000
# 4 0.0000 0.0000 0.0000 47.1266 0.0000 0.0000
# 5 0.0000 0.0000 0.0000 0.0000 -21.9579 0.0000
# 6 0.0000 0.0000 0.0000 0.0000 0.0000 7.7757
#
#
#
# Elastic Compliance Matrix: (Units=1/GPa)
#
#
# Indices 1 2 3 4 5 6 
#
# 1 0.015946 0.001402 0.000836 0.000000 0.000000 0.000000
# 2 0.001402 0.014577 -0.000582 0.000000 0.000000 0.000000
# 3 0.000836 -0.000582 0.007626 0.000000 0.000000 0.000000
# 4 0.000000 0.000000 0.000000 0.021219 0.000000 0.000000
# 5 0.000000 0.000000 0.000000 0.000000 -0.045542 0.000000
# 6 0.000000 0.000000 0.000000 0.000000 0.000000 0.128606
#
#
# Mechanical properties :
#
#
# Convention : Reuss Voigt Hill
#
# Bulk Modulus (GPa) = 24.11909 27.75201 25.93555
# Shear Modulus (GPa) = 32.69249 24.81743 28.75496
#
# Velocity S-wave (km/s) = 3.54845 3.09167 3.32790
# Velocity P-wave (km/s) = 5.10667 4.84078 4.97550
#
# Compressibility (1/GPa) = 0.04146094
#
# Stress axis : x y z
#
# Youngs Moduli (GPa) = 62.71210 68.60085 131.13611
#
# Poissons Ratio (x) = -0.09620 -0.10964
# Poissons Ratio (y) = -0.08794 0.07636
# Poissons Ratio (z) = -0.05243 0.03994
#
# Static dielectric constant tensor:
#      x y z
#    x 1.971100 0.000000 0.000000 
#    y 0.000000 2.073700 0.000000 
#    z 0.000000 0.000000 2.104480 
# 
# From -- ./inp_files/4293.got.cif
#   From: 2010.05.17/outbox.cif.g08.bks.cpg/sg26_3_cif.got.tgz:4293.got - 2010.06.04 01:07:29.
