data_PCOD9337817
_publ_section_title
;
Structure prediction by ZEFSAII (Michael W. Deem and Ramdas Pophale) SiO2 
 PCOD9337817
Probable space group: P M M 2
;
_chemical_formula_sum "Si O2"
_cell_formula_units_Z 28
_cell_length_a 7.586034
_cell_length_b 9.697065
_cell_length_c 18.842046
_cell_angle_alpha 90.000000
_cell_angle_beta 90.000000
_cell_angle_gamma 90.000000
_cell_volume 1386.063577
_symmetry_space_group_name_H-M "P M M 2"
_symmetry_group_IT_number 25
_symmetry_cell_setting 'orthorhombic'
loop_
_space_group_symop_operation_xyz
x,y,z
-x,-y,z
-x,y,z
x,-y,z
loop_
_atom_site_type_symbol
_atom_site_label
_atom_site_fract_x
_atom_site_fract_y
_atom_site_fract_z
Si Si1 0.289539 0.844089 0.927240
Si Si2 0.703609 0.832103 0.774174
Si Si3 0.284992 0.158645 0.353536
Si Si4 0.711801 0.155897 0.193828
Si Si5 0.208273 0.345686 0.060598
Si Si6 0.284224 0.341560 0.485451
Si Si7 0.283927 0.840433 0.619038
O O1 0.500000 0.855575 0.917444
O O2 0.218137 0.793249 0.850702
O O3 0.223433 0.000000 0.941994
O O4 0.263237 0.743789 0.992816
O O5 0.500000 0.784340 0.773123
O O6 0.779400 0.794441 0.697330
O O7 0.702368 0.000000 0.774742
O O8 0.500000 0.161265 0.353856
O O9 0.227226 0.193446 0.273335
O O10 0.225770 0.261592 0.414705
O O11 0.233976 0.000000 0.368313
O O12 0.500000 0.148938 0.197034
O O13 0.754870 0.262842 0.132638
O O14 0.774991 0.000000 0.177246
O O15 0.285417 0.500000 0.061177
O O16 0.000000 0.357921 0.055355
O O17 0.500000 0.340662 0.485227
O O18 0.227830 0.500000 0.486588
O O19 0.228512 0.257255 0.555090
O O20 0.500000 0.839994 0.621023
O O21 0.232508 0.000000 0.606978
#
# Coordination Sequence:
#
# PCOD9337817 Si02
#       7
#     4   4   4   4   4   4   4
#     4   9  17  31  52  74  93 116 152 196 236 275
#     4   7  11  21  38  60  83 108 142 183 223 263
#     4   8  14  25  40  58  81 109 142 180 221 265
#     4   9  18  33  53  74  92 114 151 196 236 275
#     4  11  24  37  47  65  95 126 154 185 225 277
#     4   9  15  20  28  48  80 115 148 179 211 251
#     4   8  12  19  32  49  74 111 147 175 210 257
#
# _framework density 20.201094999999999
#
# number of rings (size 3 to 8) (size 9 to 14) (size 15 to 20)
#    0.000    3.286    0.000    3.857    0.000    5.714 
#    0.000    2.143    0.000    2.571    0.000    0.000 
#    0.000    1.143    0.000   10.857    0.000   14.857 
#
# Total GULP energy -156061.084087 kJ/mol
# GULP energy per Si atom -5573.610146 kJ/mol
# Density = 2.015512 g / cm^3
# Si number density = 20.201095 Si / 1000 Ang^3
#
#
#
# Elastic Constant Matrix: (Units=GPa)
#
#
# Indices 1 2 3 4 5 6 
#
# 1 43.5889 5.0163 6.6079 0.0000 0.0000 0.0000
# 2 5.0163 140.6942 139.9582 0.0000 0.0000 0.0000
# 3 6.6079 139.9582 228.1311 0.0000 0.0000 0.0000
# 4 0.0000 0.0000 0.0000 -6.4580 0.0000 0.0000
# 5 0.0000 0.0000 0.0000 0.0000 -43.6618 0.0000
# 6 0.0000 0.0000 0.0000 0.0000 0.0000 13.8456
#
#
#
# Elastic Compliance Matrix: (Units=1/GPa)
#
#
# Indices 1 2 3 4 5 6 
#
# 1 0.023052 -0.000405 -0.000419 0.000000 0.000000 0.000000
# 2 -0.000405 0.018245 -0.011182 0.000000 0.000000 0.000000
# 3 -0.000419 -0.011182 0.011256 0.000000 0.000000 0.000000
# 4 0.000000 0.000000 0.000000 -0.154846 0.000000 0.000000
# 5 0.000000 0.000000 0.000000 0.000000 -0.022903 0.000000
# 6 0.000000 0.000000 0.000000 0.000000 0.000000 0.072225
#
#
# Mechanical properties :
#
#
# Convention : Reuss Voigt Hill
#
# Bulk Modulus (GPa) = 35.03732 79.50878 57.27305
# Shear Modulus (GPa) = -257.12124 10.13393 -123.49365
#
# Velocity S-wave (km/s) = -11.29412 2.24219 -7.82719
# Velocity P-wave (km/s) = 12.35695 6.79318 7.29887
#
# Compressibility (1/GPa) = 0.02854100
#
# Stress axis : x y z
#
# Youngs Moduli (GPa) = 43.38059 54.80868 88.84478
#
# Poissons Ratio (x) = 0.02218 0.03727
# Poissons Ratio (y) = 0.01755 0.99344
# Poissons Ratio (z) = 0.01820 0.61286
#
# Static dielectric constant tensor:
#      x y z
#    x 1.753860 0.000000 0.000000 
#    y 0.000000 1.689800 0.000000 
#    z 0.000000 0.000000 1.742560 
# 
# From -- ./inp_files/6405.got.cif
#   From: 2010.05.17/outbox.cif.g08.bks.cpg/sg25_4_cif.got.tgz:6405.got - 2010.06.04 01:04:00.
