data_PCOD9337083
_publ_section_title
;
Structure prediction by ZEFSAII (Michael W. Deem and Ramdas Pophale) SiO2 
 PCOD9337083
Probable space group: I 21 21 21
;
_chemical_formula_sum "Si O2"
_cell_formula_units_Z 18
_cell_length_a 9.000000
_cell_length_b 21.000000
_cell_length_c 9.000000
_cell_angle_alpha 90.000000
_cell_angle_beta 90.000000
_cell_angle_gamma 90.000000
_cell_volume 1701.000000
_symmetry_space_group_name_H-M "I 21 21 21"
_symmetry_group_IT_number 24
_symmetry_cell_setting 'orthorhombic'
loop_
_space_group_symop_operation_xyz
x,y,z
-x,1/2-y,z
x,-y,1/2-z
1/2-x,y,-z
1/2+x,1/2+y,1/2+z
1/2-x,-y,1/2+z
1/2+x,1/2-y,-z
-x,1/2+y,1/2-z
loop_
_atom_site_type_symbol
_atom_site_label
_atom_site_fract_x
_atom_site_fract_y
_atom_site_fract_z
Si Si1 0.663439 0.225214 0.726362
Si Si2 0.964324 0.432743 0.595525
Si Si3 0.581603 0.423574 0.054861
Si Si4 0.750000 0.328668 0.500000
Si Si5 0.250000 0.377935 0.500000
Si Si6 0.750000 0.143633 0.000000
O O1 0.500000 0.250000 0.768132
O O2 0.746140 0.283264 0.643923
O O3 0.658434 0.169399 0.604641
O O4 0.745965 0.191182 0.860395
O O5 0.913745 0.423909 0.765470
O O6 0.929019 0.500686 0.522416
O O7 0.886640 0.376543 0.505880
O O8 0.140122 0.421603 0.593193
O O9 0.416940 0.392533 0.006104
O O10 0.750000 0.400902 0.000000
#
# Coordination Sequence:
#
# PCOD9337083 Si02
#       6
#     8   8   8   4   4   4
#     4  11  25  43  70 103 144 198 244 304 376 444
#     4  11  23  46  75 107 145 193 251 314 372 457
#     4  11  26  46  73 113 151 193 245 314 387 446
#     4  11  24  44  71 103 136 192 247 296 364 451
#     4  11  21  46  72 104 144 191 255 308 368 459
#     4  12  27  50  69 113 152 195 246 312 384 450
#
# _framework density 10.582011
#
# number of rings (size 3 to 8) (size 9 to 14) (size 15 to 20)
#    0.000    0.889    5.556    0.667    3.111    1.778 
#    0.000    0.000    0.000    0.000    0.000    0.000 
#    0.000    0.000    0.000    0.000    0.000    0.000 
#
# Total GULP energy -100243.098356 kJ/mol
# GULP energy per Si atom -5569.061020 kJ/mol
# Density = 1.055793 g / cm^3
# Si number density = 10.582011 Si / 1000 Ang^3
#
#
#
# Elastic Constant Matrix: (Units=GPa)
#
#
# Indices 1 2 3 4 5 6 
#
# 1 151.5058 53.9953 28.1465 -0.0003 0.0003 0.0005
# 2 53.9953 111.8529 41.5531 0.0000 -0.0001 -0.0007
# 3 28.1465 41.5531 74.8724 -0.0005 -0.0011 -0.0053
# 4 -0.0003 0.0000 -0.0005 24.1404 0.0000 0.0006
# 5 0.0003 -0.0001 -0.0011 0.0000 36.7478 -0.0009
# 6 0.0005 -0.0007 -0.0053 0.0006 -0.0009 50.7101
#
#
#
# Elastic Compliance Matrix: (Units=1/GPa)
#
#
# Indices 1 2 3 4 5 6 
#
# 1 0.008042 -0.003476 -0.001094 0.000000 0.000000 0.000000
# 2 -0.003476 0.012765 -0.005777 0.000000 0.000000 0.000000
# 3 -0.001094 -0.005777 0.016974 0.000000 0.000000 0.000002
# 4 0.000000 0.000000 0.000000 0.041424 0.000000 -0.000001
# 5 0.000000 0.000000 0.000000 0.000000 0.027213 0.000000
# 6 0.000000 0.000000 0.000002 -0.000001 0.000000 0.019720
#
#
# Mechanical properties :
#
#
# Convention : Reuss Voigt Hill
#
# Bulk Modulus (GPa) = 58.52893 65.06899 61.79896
# Shear Modulus (GPa) = 32.78083 36.62207 34.70145
#
# Velocity S-wave (km/s) = 3.93987 4.16431 4.05364
# Velocity P-wave (km/s) = 6.95785 7.34397 7.15351
#
# Compressibility (1/GPa) = 0.01708557
#
# Stress axis : x y z
#
# Youngs Moduli (GPa) = 124.33997 78.34193 58.91412
#
# Poissons Ratio (x) = 0.27230 0.06447
# Poissons Ratio (y) = 0.43219 0.34038
# Poissons Ratio (z) = 0.13607 0.45262
#
# Static dielectric constant tensor:
#      x y z
#    x 1.835400 0.000000 0.000000 
#    y 0.000000 1.766790 0.000000 
#    z 0.000000 0.000000 1.755910 
# 
# From -- ./inp_files/9105.got.cif
#   From: 2010.05.17/outbox.ucp.g08.bks.cvg/sg24_5_cif.got.tgz:9105.got - 2010.06.11 15:20:44.
