data_PCOD9337675
_publ_section_title
;
Structure prediction by ZEFSAII (Michael W. Deem and Ramdas Pophale) SiO2 
 PCOD9337675
Probable space group: P M M 2
;
_chemical_formula_sum "Si O2"
_cell_formula_units_Z 32
_cell_length_a 9.487618
_cell_length_b 7.487450
_cell_length_c 21.941325
_cell_angle_alpha 90.000000
_cell_angle_beta 90.000000
_cell_angle_gamma 90.000000
_cell_volume 1558.669280
_symmetry_space_group_name_H-M "P M M 2"
_symmetry_group_IT_number 25
_symmetry_cell_setting 'orthorhombic'
loop_
_space_group_symop_operation_xyz
x,y,z
-x,-y,z
-x,y,z
x,-y,z
loop_
_atom_site_type_symbol
_atom_site_label
_atom_site_fract_x
_atom_site_fract_y
_atom_site_fract_z
Si Si1 0.330687 0.785512 0.238440
Si Si2 0.340280 0.213639 0.500823
Si Si3 0.837817 0.218194 0.987398
Si Si4 0.664156 0.781608 0.105338
Si Si5 0.670790 0.787208 0.369566
Si Si6 0.158595 0.288371 0.619460
Si Si7 0.338109 0.781297 0.868772
Si Si8 0.839625 0.788831 0.754067
O O1 0.500000 0.758374 0.237905
O O2 0.282226 0.721156 0.172114
O O3 0.278708 0.714960 0.304006
O O4 0.308471 0.000000 0.239165
O O5 0.500000 0.281566 0.509306
O O6 0.281129 0.281991 0.435647
O O7 0.248993 0.245333 0.560369
O O8 0.349637 0.000000 0.493812
O O9 0.750641 0.273618 0.927906
O O10 0.000000 0.275594 0.984941
O O11 0.837912 0.000000 0.987652
O O12 0.758960 0.276012 0.048910
O O13 0.500000 0.729261 0.097558
O O14 0.664677 0.000000 0.106068
O O15 0.500000 0.767485 0.370711
O O16 0.699594 0.000000 0.367918
O O17 0.148436 0.500000 0.621973
O O18 0.216761 0.232337 0.685388
O O19 0.000000 0.212684 0.614063
O O20 0.500000 0.723418 0.871772
O O21 0.260173 0.719268 0.807332
O O22 0.339730 0.000000 0.868550
O O23 0.000000 0.715286 0.755964
O O24 0.851244 0.000000 0.765012
#
# Coordination Sequence:
#
# PCOD9337675 Si02
#       8
#     4   4   4   4   4   4   4   4
#     4   7   9  14  26  44  66  94 129 167 204 242
#     4   9  17  29  47  70  92 115 147 187 227 266
#     4   9  15  21  29  43  67 100 134 166 202 244
#     4   8  12  17  26  41  62  92 131 169 201 237
#     4   7  10  18  33  54  78 102 132 172 214 253
#     4  10  21  35  49  66  90 120 150 179 216 265
#     4   9  16  25  38  56  76  98 129 171 212 249
#     4   9  17  30  47  64  82 107 140 177 216 257
#
# _framework density 20.530334
#
# number of rings (size 3 to 8) (size 9 to 14) (size 15 to 20)
#    0.000    3.500    0.000    3.375    0.000    4.500 
#    0.000    1.250    0.000    0.750    0.000    3.500 
#    0.000    0.000    0.000    1.125    0.000   19.500 
#
# Total GULP energy -178252.155051 kJ/mol
# GULP energy per Si atom -5570.379845 kJ/mol
# Density = 2.048361 g / cm^3
# Si number density = 20.530334 Si / 1000 Ang^3
#
#
#
# Elastic Constant Matrix: (Units=GPa)
#
#
# Indices 1 2 3 4 5 6 
#
# 1 89.4667 4.0241 109.0840 0.0000 0.0000 0.0000
# 2 4.0241 54.2371 4.3064 0.0000 0.0000 0.0000
# 3 109.0840 4.3064 272.2455 0.0000 0.0000 0.0000
# 4 0.0000 0.0000 0.0000 -40.8081 0.0000 0.0000
# 5 0.0000 0.0000 0.0000 0.0000 -20.4565 0.0000
# 6 0.0000 0.0000 0.0000 0.0000 0.0000 1.6361
#
#
#
# Elastic Compliance Matrix: (Units=1/GPa)
#
#
# Indices 1 2 3 4 5 6 
#
# 1 0.021900 -0.000929 -0.008760 0.000000 0.000000 0.000000
# 2 -0.000929 0.018500 0.000080 0.000000 0.000000 0.000000
# 3 -0.008760 0.000080 0.007182 0.000000 0.000000 0.000000
# 4 0.000000 0.000000 0.000000 -0.024505 0.000000 0.000000
# 5 0.000000 0.000000 0.000000 0.000000 -0.048884 0.000000
# 6 0.000000 0.000000 0.000000 0.000000 0.000000 0.611223
#
#
# Mechanical properties :
#
#
# Convention : Reuss Voigt Hill
#
# Bulk Modulus (GPa) = 35.25766 72.30871 53.78318
# Shear Modulus (GPa) = 8.14213 7.97662 8.05937
#
# Velocity S-wave (km/s) = 1.99362 1.97325 1.98346
# Velocity P-wave (km/s) = 4.74448 6.36306 5.61242
#
# Compressibility (1/GPa) = 0.02836263
#
# Stress axis : x y z
#
# Youngs Moduli (GPa) = 45.66112 54.05354 139.23610
#
# Poissons Ratio (x) = 0.05023 1.21977
# Poissons Ratio (y) = 0.04243 -0.01110
# Poissons Ratio (z) = 0.40001 -0.00431
#
# Static dielectric constant tensor:
#      x y z
#    x 1.692600 0.000000 0.000000 
#    y 0.000000 1.765830 0.000000 
#    z 0.000000 0.000000 1.776230 
# 
# From -- ./inp_files/6502.got.cif
#   From: 2010.05.17/outbox.cif.g08.bks.cpg/sg25_4_cif.got.tgz:6502.got - 2010.06.04 01:04:00.
