data_PCOD9337373
_publ_section_title
;
Structure prediction by ZEFSAII (Michael W. Deem and Ramdas Pophale) SiO2 
 PCOD9337373
Probable space group: P M M 2
;
_chemical_formula_sum "Si O2"
_cell_formula_units_Z 28
_cell_length_a 10.047620
_cell_length_b 7.520014
_cell_length_c 18.425274
_cell_angle_alpha 90.000000
_cell_angle_beta 90.000000
_cell_angle_gamma 90.000000
_cell_volume 1392.181331
_symmetry_space_group_name_H-M "P M M 2"
_symmetry_group_IT_number 25
_symmetry_cell_setting 'orthorhombic'
loop_
_space_group_symop_operation_xyz
x,y,z
-x,-y,z
-x,y,z
x,-y,z
loop_
_atom_site_type_symbol
_atom_site_label
_atom_site_fract_x
_atom_site_fract_y
_atom_site_fract_z
Si Si1 0.151430 0.214433 0.307260
Si Si2 0.148613 0.212845 0.470945
Si Si3 0.349981 0.712626 0.599777
Si Si4 0.152364 0.717234 0.052754
Si Si5 0.345917 0.283047 0.761042
Si Si6 0.650854 0.289125 0.177180
Si Si7 0.152045 0.283136 0.887622
O O1 0.182218 0.276166 0.389467
O O2 0.262677 0.267210 0.249894
O O3 0.000000 0.274229 0.288629
O O4 0.148356 0.000000 0.307500
O O5 0.252607 0.251216 0.533692
O O6 0.000000 0.278710 0.489102
O O7 0.141587 0.000000 0.465703
O O8 0.500000 0.780194 0.586407
O O9 0.358699 0.500000 0.605494
O O10 0.305095 0.775233 0.679796
O O11 0.152100 0.500000 0.054231
O O12 0.259192 0.782148 0.111039
O O13 0.000000 0.771888 0.069650
O O14 0.184481 0.770895 0.970123
O O15 0.500000 0.232542 0.771525
O O16 0.341648 0.500000 0.762286
O O17 0.252045 0.220273 0.825736
O O18 0.500000 0.217876 0.181878
O O19 0.639327 0.500000 0.164695
O O20 0.154805 0.500000 0.887340
O O21 0.000000 0.230145 0.872356
#
# Coordination Sequence:
#
# PCOD9337373 Si02
#       7
#     4   4   4   4   4   4   4
#     4   9  19  36  54  69  88 118 155 192 231 277
#     4   9  19  35  52  70  91 116 152 195 233 274
#     4   9  18  31  46  68  98 127 155 188 227 274
#     4   8  14  25  40  59  87 122 155 187 225 268
#     4   8  14  24  37  56  86 121 151 181 221 267
#     4  10  20  31  45  70 100 125 152 188 229 273
#     4   8  13  21  35  57  84 115 152 189 222 259
#
# _framework density 20.112324000000001
#
# number of rings (size 3 to 8) (size 9 to 14) (size 15 to 20)
#    0.000    3.286    0.000    3.000    0.000    4.000 
#    0.000    8.571    0.000    0.000    0.000    1.000 
#    0.000    5.714    0.000    0.000    0.000    0.000 
#
# Total GULP energy -156118.176063 kJ/mol
# GULP energy per Si atom -5575.649145 kJ/mol
# Density = 2.006655 g / cm^3
# Si number density = 20.112324 Si / 1000 Ang^3
#
#
#
# Elastic Constant Matrix: (Units=GPa)
#
#
# Indices 1 2 3 4 5 6 
#
# 1 169.4820 5.2070 156.2408 0.0000 0.0000 0.0000
# 2 5.2070 48.8909 2.8123 0.0000 0.0000 0.0000
# 3 156.2408 2.8123 197.7505 0.0000 0.0000 0.0000
# 4 0.0000 0.0000 0.0000 53.7153 0.0000 0.0000
# 5 0.0000 0.0000 0.0000 0.0000 162.2137 0.0000
# 6 0.0000 0.0000 0.0000 0.0000 0.0000 31.0309
#
#
#
# Elastic Compliance Matrix: (Units=1/GPa)
#
#
# Indices 1 2 3 4 5 6 
#
# 1 0.021808 -0.001333 -0.017211 0.000000 0.000000 0.000000
# 2 -0.001333 0.020552 0.000761 0.000000 0.000000 0.000000
# 3 -0.017211 0.000761 0.018644 0.000000 0.000000 0.000000
# 4 0.000000 0.000000 0.000000 0.018617 0.000000 0.000000
# 5 0.000000 0.000000 0.000000 0.000000 0.006165 0.000000
# 6 0.000000 0.000000 0.000000 0.000000 0.000000 0.032226
#
#
# Mechanical properties :
#
#
# Convention : Reuss Voigt Hill
#
# Bulk Modulus (GPa) = 39.31162 82.73818 61.02490
# Shear Modulus (GPa) = 30.85332 66.18286 48.51809
#
# Velocity S-wave (km/s) = 3.92094 5.74265 4.91690
# Velocity P-wave (km/s) = 6.33142 9.23028 7.91470
#
# Compressibility (1/GPa) = 0.02543777
#
# Stress axis : x y z
#
# Youngs Moduli (GPa) = 45.85516 48.65735 53.63524
#
# Poissons Ratio (x) = 0.06484 0.92313
# Poissons Ratio (y) = 0.06111 -0.04079
# Poissons Ratio (z) = 0.78922 -0.03701
#
# Static dielectric constant tensor:
#      x y z
#    x 1.695440 0.000000 0.000000 
#    y 0.000000 1.776440 0.000000 
#    z 0.000000 0.000000 1.700780 
# 
# From -- ./inp_files/6212.got.cif
#   From: 2010.05.17/outbox.cif.g08.bks.cpg/sg25_4_cif.got.tgz:6212.got - 2010.06.04 01:04:00.
