data_PCOD9337072
_publ_section_title
;
Structure prediction by ZEFSAII (Michael W. Deem and Ramdas Pophale) SiO2 
 PCOD9337072
Probable space group: I 21 21 21
;
_chemical_formula_sum "Si O2"
_cell_formula_units_Z 30
_cell_length_a 21.000000
_cell_length_b 12.000000
_cell_length_c 12.000000
_cell_angle_alpha 90.000000
_cell_angle_beta 90.000000
_cell_angle_gamma 90.000000
_cell_volume 3024.000000
_symmetry_space_group_name_H-M "I 21 21 21"
_symmetry_group_IT_number 24
_symmetry_cell_setting 'orthorhombic'
loop_
_space_group_symop_operation_xyz
x,y,z
-x,1/2-y,z
x,-y,1/2-z
1/2-x,y,-z
1/2+x,1/2+y,1/2+z
1/2-x,-y,1/2+z
1/2+x,1/2-y,-z
-x,1/2+y,1/2-z
loop_
_atom_site_type_symbol
_atom_site_label
_atom_site_fract_x
_atom_site_fract_y
_atom_site_fract_z
Si Si1 0.674654 0.332800 0.019436
Si Si2 0.519807 0.873752 0.096788
Si Si3 0.856536 0.146120 0.150982
Si Si4 0.107320 0.602961 0.100327
Si Si5 0.190284 0.252136 0.561337
Si Si6 0.384976 0.500000 0.250000
Si Si7 0.209288 0.662147 0.696200
Si Si8 0.386211 0.036737 0.375030
O O1 0.677839 0.266101 0.135013
O O2 0.640702 0.448561 0.037839
O O3 0.750000 0.350067 0.000000
O O4 0.639945 0.254586 0.928039
O O5 0.500000 0.750000 0.128231
O O6 0.574283 0.914009 0.180120
O O7 0.461678 0.956674 0.114404
O O8 0.543553 0.874239 0.969551
O O9 0.886051 0.153206 0.275316
O O10 0.780112 0.133773 0.159815
O O11 0.883184 0.029887 0.105211
O O12 0.160687 0.661711 0.025334
O O13 0.250000 0.196871 0.500000
O O14 0.211144 0.313694 0.673250
O O15 0.140679 0.157677 0.595359
O O16 0.337888 0.563011 0.332356
O O17 0.368234 0.000000 0.250000
#
# Coordination Sequence:
#
# PCOD9337072 Si02
#       8
#     8   8   8   8   8   4   8   8
#     4  10  23  42  65  97 133 170 214 269 326 395
#     4  12  25  42  62  92 128 176 221 272 324 391
#     4  10  23  43  65  98 135 171 210 273 335 397
#     4  11  22  42  64  93 136 168 218 265 329 394
#     4  12  23  38  68 101 127 173 212 269 341 402
#     4  12  22  34  62 100 128 162 214 272 334 390
#     4  11  21  37  65 101 134 164 209 277 344 389
#     4  12  24  45  66  95 133 175 224 275 327 386
#
# _framework density 9.9206350000000008
#
# number of rings (size 3 to 8) (size 9 to 14) (size 15 to 20)
#    0.000    0.800    6.000    2.000    0.000    0.533 
#    0.000    5.333    0.000    0.000    0.000    0.000 
#    0.000    0.000    0.000    0.000    0.000    0.000 
#
# Total GULP energy -167372.201899 kJ/mol
# GULP energy per Si atom -5579.073397 kJ/mol
# Density = 0.989806 g / cm^3
# Si number density = 9.920635 Si / 1000 Ang^3
#
#
#
# Elastic Constant Matrix: (Units=GPa)
#
#
# Indices 1 2 3 4 5 6 
#
# 1 26.1307 18.5769 10.3899 0.0000 0.0000 0.0000
# 2 18.5769 80.8061 27.7047 0.0000 0.0000 0.0000
# 3 10.3899 27.7047 89.1543 0.0000 0.0000 0.0000
# 4 0.0000 0.0000 0.0000 26.7642 0.0000 0.0000
# 5 0.0000 0.0000 0.0000 0.0000 8.4714 0.0000
# 6 0.0000 0.0000 0.0000 0.0000 0.0000 33.6075
#
#
#
# Elastic Compliance Matrix: (Units=1/GPa)
#
#
# Indices 1 2 3 4 5 6 
#
# 1 0.046174 -0.009816 -0.002331 0.000000 0.000000 0.000000
# 2 -0.009816 0.015938 -0.003809 0.000000 0.000000 0.000000
# 3 -0.002331 -0.003809 0.012672 0.000000 0.000000 0.000000
# 4 0.000000 0.000000 0.000000 0.037363 0.000000 0.000000
# 5 0.000000 0.000000 0.000000 0.000000 0.118044 0.000000
# 6 0.000000 0.000000 0.000000 0.000000 0.000000 0.029755
#
#
# Mechanical properties :
#
#
# Convention : Reuss Voigt Hill
#
# Bulk Modulus (GPa) = 23.32484 34.38157 28.85321
# Shear Modulus (GPa) = 16.33193 23.06326 19.69759
#
# Velocity S-wave (km/s) = 2.87214 3.41308 3.15423
# Velocity P-wave (km/s) = 4.77285 5.73569 5.27628
#
# Compressibility (1/GPa) = 0.04287276
#
# Stress axis : x y z
#
# Youngs Moduli (GPa) = 21.65699 62.74382 78.91611
#
# Poissons Ratio (x) = 0.61590 0.18393
# Poissons Ratio (y) = 0.21259 0.30057
# Poissons Ratio (z) = 0.05048 0.23897
#
# Static dielectric constant tensor:
#      x y z
#    x 1.736430 0.000000 0.000000 
#    y 0.000000 1.782240 0.000000 
#    z 0.000000 0.000000 1.695720 
# 
# From -- ./inp_files/22241.got.cif
#   From: 2010.05.17/outbox.ucp.g08.bks.cvg/sg24_12_cif.got.tgz:22241.got - 2010.06.11 15:20:44.
