data_PCOD9337982
_publ_section_title
;
Structure prediction by ZEFSAII (Michael W. Deem and Ramdas Pophale) SiO2 
 PCOD9337982
Probable space group: P M C 21
;
_chemical_formula_sum "Si O2"
_cell_formula_units_Z 26
_cell_length_a 29.510073
_cell_length_b 7.982124
_cell_length_c 5.310275
_cell_angle_alpha 90.000000
_cell_angle_beta 90.000000
_cell_angle_gamma 90.000000
_cell_volume 1250.851536
_symmetry_space_group_name_H-M "P M C 21"
_symmetry_group_IT_number 26
_symmetry_cell_setting 'orthorhombic'
loop_
_space_group_symop_operation_xyz
x,y,z
-x,-y,1/2+z
-x,y,z
x,-y,1/2+z
loop_
_atom_site_type_symbol
_atom_site_label
_atom_site_fract_x
_atom_site_fract_y
_atom_site_fract_z
Si Si1 0.595511 0.610427 0.139150
Si Si2 0.175160 0.169065 0.229231
Si Si3 0.500000 0.612080 0.245923
Si Si4 0.694578 0.385516 0.707388
Si Si5 0.051937 0.557115 0.456919
Si Si6 0.069465 0.088386 0.187213
Si Si7 0.787255 0.796546 0.229427
O O1 0.594965 0.463563 0.355034
O O2 0.547923 0.702366 0.194146
O O3 0.644252 0.693967 0.184619
O O4 0.123884 0.110141 0.190394
O O5 0.183707 0.260944 0.490116
O O6 0.204447 0.997117 0.246514
O O7 0.192669 0.270377 0.990491
O O8 0.500000 0.534318 0.528060
O O9 0.697982 0.512583 0.470025
O O10 0.735635 0.255859 0.696401
O O11 0.073638 0.553121 0.180092
O O12 0.051696 0.739024 0.577709
O O13 0.000000 0.501337 0.411179
O O14 0.056087 0.045350 0.472172
#
# Coordination Sequence:
#
# PCOD9337982 Si02
#       7
#     4   4   2   4   4   4   4
#     4   8  14  23  36  54  83 116 150 189 233 288
#     4  10  19  35  54  69  94 128 167 216 247 281
#     4   8  12  20  34  52  74 112 152 184 228 284
#     4  10  19  30  43  67  98 127 157 197 247 309
#     4  10  23  43  62  87 124 155 178 219 281 336
#     4  12  21  38  65  88 114 144 192 235 268 310
#     4  10  18  33  51  67  94 131 161 203 256 286
#
# _framework density 20.785838999999999
#
# number of rings (size 3 to 8) (size 9 to 14) (size 15 to 20)
#    0.000    2.154    3.077    1.846    0.000    0.615 
#    0.000    4.615    0.000    0.000    0.000    0.000 
#    0.000    4.923    0.000    0.000    0.000   19.077 
#
# Total GULP energy -144824.076109 kJ/mol
# GULP energy per Si atom -5570.156773 kJ/mol
# Density = 2.073853 g / cm^3
# Si number density = 20.785839 Si / 1000 Ang^3
#
#
#
# Elastic Constant Matrix: (Units=GPa)
#
#
# Indices 1 2 3 4 5 6 
#
# 1 98.3495 15.3073 -17.4537 0.0000 0.0000 0.0000
# 2 15.3073 28.1395 -3.1217 0.0000 0.0000 0.0000
# 3 -17.4537 -3.1217 78.6967 0.0000 0.0000 0.0000
# 4 0.0000 0.0000 0.0000 17.1146 0.0000 0.0000
# 5 0.0000 0.0000 0.0000 0.0000 -8.1495 0.0000
# 6 0.0000 0.0000 0.0000 0.0000 0.0000 36.8681
#
#
#
# Elastic Compliance Matrix: (Units=1/GPa)
#
#
# Indices 1 2 3 4 5 6 
#
# 1 0.011514 -0.006006 0.002315 0.000000 0.000000 0.000000
# 2 -0.006006 0.038828 0.000208 0.000000 0.000000 0.000000
# 3 0.002315 0.000208 0.013229 0.000000 0.000000 0.000000
# 4 0.000000 0.000000 0.000000 0.058429 0.000000 0.000000
# 5 0.000000 0.000000 0.000000 0.000000 -0.122707 0.000000
# 6 0.000000 0.000000 0.000000 0.000000 0.000000 0.027124
#
#
# Mechanical properties :
#
#
# Convention : Reuss Voigt Hill
#
# Bulk Modulus (GPa) = 17.66656 21.62771 19.64713
# Shear Modulus (GPa) = 95.69308 23.19689 59.44498
#
# Velocity S-wave (km/s) = 6.79246 3.34428 5.35359
# Velocity P-wave (km/s) = 8.36866 5.03387 6.90559
#
# Compressibility (1/GPa) = 0.05660411
#
# Stress axis : x y z
#
# Youngs Moduli (GPa) = 86.85434 25.75489 75.59287
#
# Poissons Ratio (x) = 0.15469 -0.17502
# Poissons Ratio (y) = 0.52167 -0.01573
# Poissons Ratio (z) = -0.20109 -0.00536
#
# Static dielectric constant tensor:
#      x y z
#    x 1.799570 0.000000 0.000000 
#    y 0.000000 1.827300 0.000000 
#    z 0.000000 0.000000 1.948330 
# 
# From -- ./inp_files/1045.got.cif
#   From: 2010.05.17/outbox.cif.g08.bks.cpg/sg26_1_cif.got.tgz:1045.got - 2010.06.04 01:07:29.
