data_PCOD9337603
_publ_section_title
;
Structure prediction by ZEFSAII (Michael W. Deem and Ramdas Pophale) SiO2 
 PCOD9337603
Probable space group: P M M 2
;
_chemical_formula_sum "Si O2"
_cell_formula_units_Z 20
_cell_length_a 11.187568
_cell_length_b 13.137809
_cell_length_c 6.519726
_cell_angle_alpha 90.000000
_cell_angle_beta 90.000000
_cell_angle_gamma 90.000000
_cell_volume 958.270185
_symmetry_space_group_name_H-M "P M M 2"
_symmetry_group_IT_number 25
_symmetry_cell_setting 'orthorhombic'
loop_
_space_group_symop_operation_xyz
x,y,z
-x,-y,z
-x,y,z
x,-y,z
loop_
_atom_site_type_symbol
_atom_site_label
_atom_site_fract_x
_atom_site_fract_y
_atom_site_fract_z
Si Si1 0.870835 0.685611 0.140560
Si Si2 0.640077 0.889349 0.071068
Si Si3 0.824042 0.881964 0.386940
Si Si4 0.637658 0.620782 0.398219
Si Si5 0.236226 0.254973 0.750034
O O1 0.877400 0.803415 0.220509
O O2 0.748752 0.642881 0.242645
O O3 0.000000 0.639174 0.198824
O O4 0.853013 0.683064 0.896144
O O5 0.500000 0.888977 0.071854
O O6 0.685744 0.806078 0.914594
O O7 0.685839 0.000000 0.998576
O O8 0.687612 0.879887 0.303257
O O9 0.830759 0.825817 0.603498
O O10 0.862603 0.000000 0.387857
O O11 0.500000 0.651823 0.338784
O O12 0.634233 0.500000 0.429167
O O13 0.680708 0.677087 0.604549
#
# Coordination Sequence:
#
# PCOD9337603 Si02
#       5
#     4   4   4   4   4
#     4  10  23  41  60  87 123 160 198 242 294 352
#     4   9  17  29  48  79 119 160 199 238 284 340
#     4   9  19  35  54  80 117 159 200 241 285 337
#     4  10  23  43  66  91 117 149 194 248 304 360
#     4  10  20  34  58  86 117 153 197 245 292 348
#
# _framework density 20.870943
#
# number of rings (size 3 to 8) (size 9 to 14) (size 15 to 20)
#    0.000    2.400    0.000    1.200    0.000   14.400 
#    0.000    4.000    0.000    0.000    0.000    0.000 
#    0.000    0.000    0.000    0.000    0.000    0.000 
#
# Total GULP energy -111338.207252 kJ/mol
# GULP energy per Si atom -5566.910363 kJ/mol
# Density = 2.082344 g / cm^3
# Si number density = 20.870943 Si / 1000 Ang^3
#
#
#
# Elastic Constant Matrix: (Units=GPa)
#
#
# Indices 1 2 3 4 5 6 
#
# 1 141.1715 29.3966 43.9859 0.0000 0.0000 0.0000
# 2 29.3966 85.1124 22.6238 0.0000 0.0000 0.0000
# 3 43.9859 22.6238 106.9193 0.0000 0.0000 0.0000
# 4 0.0000 0.0000 0.0000 14.1289 0.0000 0.0000
# 5 0.0000 0.0000 0.0000 0.0000 -20.4036 0.0000
# 6 0.0000 0.0000 0.0000 0.0000 0.0000 -6.3528
#
#
#
# Elastic Compliance Matrix: (Units=1/GPa)
#
#
# Indices 1 2 3 4 5 6 
#
# 1 0.008471 -0.002119 -0.003037 0.000000 0.000000 0.000000
# 2 -0.002119 0.012979 -0.001875 0.000000 0.000000 0.000000
# 3 -0.003037 -0.001875 0.010999 0.000000 0.000000 0.000000
# 4 0.000000 0.000000 0.000000 0.070777 0.000000 0.000000
# 5 0.000000 0.000000 0.000000 0.000000 -0.049011 0.000000
# 6 0.000000 0.000000 0.000000 0.000000 0.000000 -0.157411
#
#
# Mechanical properties :
#
#
# Convention : Reuss Voigt Hill
#
# Bulk Modulus (GPa) = 54.38034 58.35729 56.36882
# Shear Modulus (GPa) = -60.23644 13.28763 -23.47440
#
# Velocity S-wave (km/s) = -5.37811 2.52594 -3.35735
# Velocity P-wave (km/s) = 3.52892 6.04392 3.46955
#
# Compressibility (1/GPa) = 0.01838900
#
# Stress axis : x y z
#
# Youngs Moduli (GPa) = 118.05165 77.04621 90.91915
#
# Poissons Ratio (x) = 0.16323 0.27608
# Poissons Ratio (y) = 0.25010 0.17046
# Poissons Ratio (z) = 0.35847 0.14445
#
# Static dielectric constant tensor:
#      x y z
#    x 1.855050 0.000000 0.000000 
#    y 0.000000 1.812410 0.000000 
#    z 0.000000 0.000000 1.735180 
# 
# From -- ./inp_files/553.got.cif
#   From: 2010.05.17/outbox.cif.g08.bks.cpg/sg25_1_cif.got.tgz:553.got - 2010.06.04 01:04:00.
