data_PCOD9337207
_publ_section_title
;
Structure prediction by ZEFSAII (Michael W. Deem and Ramdas Pophale) SiO2 
 PCOD9337207
Probable space group: P M M 2
;
_chemical_formula_sum "Si O2"
_cell_formula_units_Z 28
_cell_length_a 11.484464
_cell_length_b 13.778119
_cell_length_c 7.148617
_cell_angle_alpha 90.000000
_cell_angle_beta 90.000000
_cell_angle_gamma 90.000000
_cell_volume 1131.156490
_symmetry_space_group_name_H-M "P M M 2"
_symmetry_group_IT_number 25
_symmetry_cell_setting 'orthorhombic'
loop_
_space_group_symop_operation_xyz
x,y,z
-x,-y,z
-x,y,z
x,-y,z
loop_
_atom_site_type_symbol
_atom_site_label
_atom_site_fract_x
_atom_site_fract_y
_atom_site_fract_z
Si Si1 0.628829 0.387442 0.830580
Si Si2 0.626595 0.133450 0.372783
Si Si3 0.626640 0.110068 0.926588
Si Si4 0.874273 0.171937 0.420993
Si Si5 0.183065 0.391595 0.508021
Si Si6 0.873058 0.881881 0.986749
Si Si7 0.372982 0.348752 0.241108
O O1 0.500000 0.370741 0.747847
O O2 0.631015 0.500000 0.893910
O O3 0.729521 0.377384 0.681902
O O4 0.641287 0.328340 0.021526
O O5 0.500000 0.103283 0.450850
O O6 0.628318 0.102648 0.154463
O O7 0.752250 0.116675 0.467688
O O8 0.623899 0.249186 0.354854
O O9 0.500000 0.154529 0.876734
O O10 0.755417 0.150008 0.881380
O O11 0.624599 0.000000 0.853814
O O12 0.875088 0.285616 0.481509
O O13 0.871123 0.165059 0.193534
O O14 0.000000 0.128208 0.475855
O O15 0.127691 0.500000 0.532877
O O16 0.263138 0.401099 0.324161
O O17 0.000000 0.857452 0.904028
O O18 0.867965 0.000000 0.006664
O O19 0.500000 0.394846 0.263017
#
# Coordination Sequence:
#
# PCOD9337207 Si02
#       7
#     4   4   4   4   4   4   4
#     4   9  17  28  43  65  90 116 150 189 226 264
#     4   8  14  24  39  61  87 115 149 187 225 266
#     4   8  12  18  30  51  81 113 142 175 217 264
#     4   9  17  28  42  62  89 120 152 185 223 268
#     4  10  19  29  43  63  89 121 153 184 221 266
#     4   8  13  22  37  57  81 109 143 183 222 259
#     4   9  16  27  44  65  90 118 149 189 231 266
#
# _framework density 24.753425
#
# number of rings (size 3 to 8) (size 9 to 14) (size 15 to 20)
#    0.000    3.286    0.000    0.857    0.000    2.286 
#    0.000    0.000    0.000    3.429    0.000    5.000 
#    0.000    1.143    0.000   33.714    0.000    0.857 
#
# Total GULP energy -155968.689041 kJ/mol
# GULP energy per Si atom -5570.310323 kJ/mol
# Density = 2.469709 g / cm^3
# Si number density = 24.753425 Si / 1000 Ang^3
#
#
#
# Elastic Constant Matrix: (Units=GPa)
#
#
# Indices 1 2 3 4 5 6 
#
# 1 255.9646 20.8363 25.9351 0.0000 0.0000 0.0000
# 2 20.8363 111.0628 -9.8375 0.0000 0.0000 0.0000
# 3 25.9351 -9.8375 86.0752 0.0000 0.0000 0.0000
# 4 0.0000 0.0000 0.0000 15.7817 0.0000 0.0000
# 5 0.0000 0.0000 0.0000 0.0000 -16.2887 0.0000
# 6 0.0000 0.0000 0.0000 0.0000 0.0000 11.7560
#
#
#
# Elastic Compliance Matrix: (Units=1/GPa)
#
#
# Indices 1 2 3 4 5 6 
#
# 1 0.004115 -0.000891 -0.001342 0.000000 0.000000 0.000000
# 2 -0.000891 0.009289 0.001330 0.000000 0.000000 0.000000
# 3 -0.001342 0.001330 0.012174 0.000000 0.000000 0.000000
# 4 0.000000 0.000000 0.000000 0.063364 0.000000 0.000000
# 5 0.000000 0.000000 0.000000 0.000000 -0.061392 0.000000
# 6 0.000000 0.000000 0.000000 0.000000 0.000000 0.085063
#
#
# Mechanical properties :
#
#
# Convention : Reuss Voigt Hill
#
# Bulk Modulus (GPa) = 42.06465 58.55227 50.30846
# Shear Modulus (GPa) = 40.86877 29.99438 35.43157
#
# Velocity S-wave (km/s) = 4.06770 3.48476 3.78746
# Velocity P-wave (km/s) = 6.25236 6.31641 6.28446
#
# Compressibility (1/GPa) = 0.02377293
#
# Stress axis : x y z
#
# Youngs Moduli (GPa) = 242.99759 107.65572 82.14191
#
# Poissons Ratio (x) = 0.09591 0.11022
# Poissons Ratio (y) = 0.21649 -0.10925
# Poissons Ratio (z) = 0.32605 -0.14319
#
# Static dielectric constant tensor:
#      x y z
#    x 2.043060 0.000000 0.000000 
#    y 0.000000 2.114020 0.000000 
#    z 0.000000 0.000000 1.904130 
# 
# From -- ./inp_files/2830.got.cif
#   From: 2010.05.17/outbox.cif.g08.bks.cpg/sg25_2_cif.got.tgz:2830.got - 2010.06.04 01:04:00.
