data_PCOD9337809
_publ_section_title
;
Structure prediction by ZEFSAII (Michael W. Deem and Ramdas Pophale) SiO2 
 PCOD9337809
Probable space group: P M M 2
;
_chemical_formula_sum "Si O2"
_cell_formula_units_Z 20
_cell_length_a 13.199405
_cell_length_b 8.443323
_cell_length_c 9.422455
_cell_angle_alpha 90.000000
_cell_angle_beta 90.000000
_cell_angle_gamma 90.000000
_cell_volume 1050.102833
_symmetry_space_group_name_H-M "P M M 2"
_symmetry_group_IT_number 25
_symmetry_cell_setting 'orthorhombic'
loop_
_space_group_symop_operation_xyz
x,y,z
-x,-y,z
-x,y,z
x,-y,z
loop_
_atom_site_type_symbol
_atom_site_label
_atom_site_fract_x
_atom_site_fract_y
_atom_site_fract_z
Si Si1 0.884288 0.308737 0.720140
Si Si2 0.114023 0.692919 0.392406
Si Si3 0.306570 0.310132 0.214885
Si Si4 0.500000 0.193301 0.714142
Si Si5 0.305278 0.810737 0.894895
Si Si6 0.500000 0.810066 0.387626
O O1 0.879430 0.500000 0.726328
O O2 0.865513 0.261236 0.555980
O O3 0.799488 0.239596 0.821888
O O4 0.000000 0.262636 0.756285
O O5 0.113390 0.500000 0.390189
O O6 0.202218 0.747187 0.288055
O O7 0.000000 0.744862 0.354365
O O8 0.306989 0.500000 0.218911
O O9 0.400952 0.248609 0.305495
O O10 0.313686 0.255753 0.053001
O O11 0.600513 0.244979 0.797911
O O12 0.500000 0.246275 0.550943
O O13 0.500000 0.000000 0.712903
O O14 0.310291 0.000000 0.902233
O O15 0.500000 0.000000 0.387921
#
# Coordination Sequence:
#
# PCOD9337809 Si02
#       6
#     4   4   4   2   4   2
#     4   9  18  35  58  82 109 143 184 230 278 326
#     4   8  16  33  57  82 108 141 183 231 279 325
#     4  11  22  36  56  84 114 144 182 226 274 328
#     4   9  21  39  58  78 104 143 184 225 276 330
#     4  11  22  37  56  80 113 149 184 224 274 329
#     4  11  22  39  60  80 106 141 182 227 278 330
#
# _framework density 19.045755
#
# number of rings (size 3 to 8) (size 9 to 14) (size 15 to 20)
#    0.000    2.200    0.000    4.500    0.000    2.000 
#    0.000    7.500    0.000    4.200    0.000    0.000 
#    0.000    0.000    0.000    0.000    0.000    0.000 
#
# Total GULP energy -111696.935912 kJ/mol
# GULP energy per Si atom -5584.846796 kJ/mol
# Density = 1.900241 g / cm^3
# Si number density = 19.045755 Si / 1000 Ang^3
#
#
#
# Elastic Constant Matrix: (Units=GPa)
#
#
# Indices 1 2 3 4 5 6 
#
# 1 177.4125 34.0067 135.5479 0.0000 0.0000 0.0000
# 2 34.0067 34.1852 34.5345 0.0000 0.0000 0.0000
# 3 135.5479 34.5345 189.2368 0.0000 0.0000 0.0000
# 4 0.0000 0.0000 0.0000 27.5866 0.0000 0.0000
# 5 0.0000 0.0000 0.0000 0.0000 4599.3304 0.0000
# 6 0.0000 0.0000 0.0000 0.0000 0.0000 17.6774
#
#
#
# Elastic Compliance Matrix: (Units=1/GPa)
#
#
# Indices 1 2 3 4 5 6 
#
# 1 0.012947 -0.004304 -0.008488 0.000000 0.000000 0.000000
# 2 -0.004304 0.037295 -0.003723 0.000000 0.000000 0.000000
# 3 -0.008488 -0.003723 0.012044 0.000000 0.000000 0.000000
# 4 0.000000 0.000000 0.000000 0.036249 0.000000 0.000000
# 5 0.000000 0.000000 0.000000 0.000000 0.000217 0.000000
# 6 0.000000 0.000000 0.000000 0.000000 0.000000 0.056570
#
#
# Mechanical properties :
#
#
# Convention : Reuss Voigt Hill
#
# Bulk Modulus (GPa) = 34.18229 89.89029 62.03629
# Shear Modulus (GPa) = 25.23918 942.03524 483.63721
#
# Velocity S-wave (km/s) = 3.64426 22.26411 15.95261
# Velocity P-wave (km/s) = 5.97444 26.61241 19.28619
#
# Compressibility (1/GPa) = 0.02925491
#
# Stress axis : x y z
#
# Youngs Moduli (GPa) = 77.23934 26.81303 83.03091
#
# Poissons Ratio (x) = 0.11541 0.70477
# Poissons Ratio (y) = 0.33247 0.30912
# Poissons Ratio (z) = 0.65561 0.09982
#
# Static dielectric constant tensor:
#      x y z
#    x 1.626970 0.000000 0.000000 
#    y 0.000000 1.661020 0.000000 
#    z 0.000000 0.000000 1.630020 
# 
# From -- ./inp_files/2538.got.cif
#   From: 2010.05.17/outbox.cif.g08.bks.cpg/sg25_2_cif.got.tgz:2538.got - 2010.06.04 01:04:00.
