data_PCOD9337233
_publ_section_title
;
Structure prediction by ZEFSAII (Michael W. Deem and Ramdas Pophale) SiO2 
 PCOD9337233
Probable space group: P M M 2
;
_chemical_formula_sum "Si O2"
_cell_formula_units_Z 32
_cell_length_a 8.885652
_cell_length_b 14.145161
_cell_length_c 14.446695
_cell_angle_alpha 90.000000
_cell_angle_beta 90.000000
_cell_angle_gamma 90.000000
_cell_volume 1815.790332
_symmetry_space_group_name_H-M "P M M 2"
_symmetry_group_IT_number 25
_symmetry_cell_setting 'orthorhombic'
loop_
_space_group_symop_operation_xyz
x,y,z
-x,-y,z
-x,y,z
x,-y,z
loop_
_atom_site_type_symbol
_atom_site_label
_atom_site_fract_x
_atom_site_fract_y
_atom_site_fract_z
Si Si1 0.325764 0.255662 0.514270
Si Si2 0.334133 0.387633 0.341244
Si Si3 0.325418 0.736217 0.030451
Si Si4 0.317556 0.607155 0.672715
Si Si5 0.834440 0.612669 0.167311
Si Si6 0.181317 0.111199 0.164284
Si Si7 0.180675 0.889451 0.374580
Si Si8 0.819523 0.607944 0.877351
O O1 0.500000 0.228102 0.530005
O O2 0.322710 0.339768 0.439498
O O3 0.266310 0.306527 0.606962
O O4 0.244352 0.171677 0.459208
O O5 0.500000 0.362655 0.302465
O O6 0.328698 0.500000 0.350624
O O7 0.202202 0.359110 0.272043
O O8 0.500000 0.752761 0.012327
O O9 0.295674 0.653566 0.104726
O O10 0.252727 0.825861 0.083249
O O11 0.245251 0.691921 0.940516
O O12 0.500000 0.611530 0.677287
O O13 0.280065 0.500000 0.638315
O O14 0.247887 0.615595 0.774539
O O15 0.834820 0.500000 0.162436
O O16 0.000000 0.646916 0.137712
O O17 0.231740 0.138157 0.269611
O O18 0.000000 0.120953 0.161594
O O19 0.216013 0.000000 0.152510
O O20 0.000000 0.881678 0.374621
O O21 0.219606 0.000000 0.385977
O O22 0.781599 0.500000 0.911438
O O23 0.000000 0.613671 0.875642
#
# Coordination Sequence:
#
# PCOD9337233 Si02
#       8
#     4   4   4   4   4   4   4   4
#     4  10  19  30  49  76 102 132 169 207 251 302
#     4   9  17  29  44  66  99 134 165 198 241 298
#     4  12  23  33  51  77 103 133 169 210 258 311
#     4   9  18  34  54  76 105 138 170 208 257 311
#     4  10  20  32  45  65  97 135 172 209 248 294
#     4   9  19  37  58  78 104 139 176 215 260 308
#     4   9  19  35  53  74 102 137 175 214 257 303
#     4  10  21  37  56  78 104 135 174 218 260 306
#
# _framework density 17.623180999999999
#
# number of rings (size 3 to 8) (size 9 to 14) (size 15 to 20)
#    0.000    2.250    0.000    4.125    0.000    8.500 
#    0.000    1.250    0.000    4.500    0.000    3.500 
#    0.000    0.000    0.000    0.000    0.000    0.000 
#
# Total GULP energy -178329.101438 kJ/mol
# GULP energy per Si atom -5572.784420 kJ/mol
# Density = 1.758307 g / cm^3
# Si number density = 17.623181 Si / 1000 Ang^3
#
#
#
# Elastic Constant Matrix: (Units=GPa)
#
#
# Indices 1 2 3 4 5 6 
#
# 1 43.8131 37.5344 27.6113 0.0000 0.0000 0.0000
# 2 37.5344 106.1932 62.7752 0.0000 0.0000 0.0000
# 3 27.6113 62.7752 84.3732 0.0000 0.0000 0.0000
# 4 0.0000 0.0000 0.0000 35.9988 0.0000 0.0000
# 5 0.0000 0.0000 0.0000 0.0000 24.7289 0.0000
# 6 0.0000 0.0000 0.0000 0.0000 0.0000 24.7828
#
#
#
# Elastic Compliance Matrix: (Units=1/GPa)
#
#
# Indices 1 2 3 4 5 6 
#
# 1 0.033418 -0.009545 -0.003834 0.000000 0.000000 0.000000
# 2 -0.009545 0.019537 -0.011412 0.000000 0.000000 0.000000
# 3 -0.003834 -0.011412 0.021598 0.000000 0.000000 0.000000
# 4 0.000000 0.000000 0.000000 0.027779 0.000000 0.000000
# 5 0.000000 0.000000 0.000000 0.000000 0.040439 0.000000
# 6 0.000000 0.000000 0.000000 0.000000 0.000000 0.040351
#
#
# Mechanical properties :
#
#
# Convention : Reuss Voigt Hill
#
# Bulk Modulus (GPa) = 40.04912 54.46903 47.25907
# Shear Modulus (GPa) = 20.74467 24.19934 22.47200
#
# Velocity S-wave (km/s) = 3.43465 3.70963 3.57478
# Velocity P-wave (km/s) = 6.20513 7.02305 6.62672
#
# Compressibility (1/GPa) = 0.02496934
#
# Stress axis : x y z
#
# Youngs Moduli (GPa) = 29.92416 51.18593 46.30125
#
# Poissons Ratio (x) = 0.48857 0.17754
# Poissons Ratio (y) = 0.28562 0.52839
# Poissons Ratio (z) = 0.11474 0.58413
#
# Static dielectric constant tensor:
#      x y z
#    x 1.628110 0.000000 0.000000 
#    y 0.000000 1.619980 0.000000 
#    z 0.000000 0.000000 1.600600 
# 
# From -- ./inp_files/5742.got.cif
#   From: 2010.05.17/outbox.cif.g08.bks.cpg/sg25_3_cif.got.tgz:5742.got - 2010.06.04 01:04:00.
