data_PCOD9337916
_publ_section_title
;
Structure prediction by ZEFSAII (Michael W. Deem and Ramdas Pophale) SiO2 
 PCOD9337916
Probable space group: P M C 21
;
_chemical_formula_sum "Si O2"
_cell_formula_units_Z 32
_cell_length_a 15.477350
_cell_length_b 6.583888
_cell_length_c 15.607058
_cell_angle_alpha 90.000000
_cell_angle_beta 90.000000
_cell_angle_gamma 90.000000
_cell_volume 1590.376986
_symmetry_space_group_name_H-M "P M C 21"
_symmetry_group_IT_number 26
_symmetry_cell_setting 'orthorhombic'
loop_
_space_group_symop_operation_xyz
x,y,z
-x,-y,1/2+z
-x,y,z
x,-y,1/2+z
loop_
_atom_site_type_symbol
_atom_site_label
_atom_site_fract_x
_atom_site_fract_y
_atom_site_fract_z
Si Si1 0.398801 0.614965 0.598440
Si Si2 0.094080 0.177622 0.929305
Si Si3 0.174002 0.433745 0.377268
Si Si4 0.725260 0.026043 0.161645
Si Si5 0.341931 0.315752 0.908190
Si Si6 0.899816 0.101548 0.258724
Si Si7 0.592343 0.251661 0.734540
Si Si8 0.251886 0.058643 0.480095
O O1 0.500000 0.685686 0.597345
O O2 0.328487 0.772455 0.636877
O O3 0.370622 0.584879 0.498675
O O4 0.397031 0.423038 0.662116
O O5 0.104025 0.418701 0.919967
O O6 0.103710 0.064371 0.836748
O O7 0.170744 0.095116 0.987276
O O8 0.000000 0.121493 0.962588
O O9 0.254638 0.586178 0.368581
O O10 0.128984 0.318810 0.298641
O O11 0.215612 0.252376 0.431964
O O12 0.823261 0.052825 0.192623
O O13 0.670088 0.906977 0.231452
O O14 0.720582 0.892984 0.075503
O O15 0.407063 0.339537 0.830284
O O16 0.322809 0.079319 0.932168
O O17 0.000000 0.105965 0.229283
O O18 0.500000 0.148803 0.717995
#
# Coordination Sequence:
#
# PCOD9337916 Si02
#       8
#     4   4   4   4   4   4   4   4
#     4  10  22  39  59  87 122 155 191 239 291 346
#     4   9  18  33  51  74 103 134 178 233 282 332
#     4  10  17  33  56  77 103 142 186 228 285 343
#     4  11  21  37  56  78 114 151 187 235 286 343
#     4  10  20  36  57  84 116 149 188 235 287 342
#     4  10  21  35  54  80 108 144 190 239 288 338
#     4  11  22  36  58  85 113 151 194 233 283 347
#     4   9  20  33  53  79 105 144 185 226 281 339
#
# _framework density 20.121015
#
# number of rings (size 3 to 8) (size 9 to 14) (size 15 to 20)
#    0.000    2.000    0.000    4.875    0.000    1.000 
#    0.000    0.000    0.000    7.500    0.000    0.000 
#    0.000    0.000    0.000    0.000    0.000    0.000 
#
# Total GULP energy -178229.200178 kJ/mol
# GULP energy per Si atom -5569.662506 kJ/mol
# Density = 2.007522 g / cm^3
# Si number density = 20.121015 Si / 1000 Ang^3
#
#
#
# Elastic Constant Matrix: (Units=GPa)
#
#
# Indices 1 2 3 4 5 6 
#
# 1 134.4659 15.6455 36.4528 0.0000 0.0000 0.0000
# 2 15.6455 49.0311 18.8211 0.0000 0.0000 0.0000
# 3 36.4528 18.8211 94.5726 0.0000 0.0000 0.0000
# 4 0.0000 0.0000 0.0000 16.6190 0.0000 0.0000
# 5 0.0000 0.0000 0.0000 0.0000 9.9896 0.0000
# 6 0.0000 0.0000 0.0000 0.0000 0.0000 19.6507
#
#
#
# Elastic Compliance Matrix: (Units=1/GPa)
#
#
# Indices 1 2 3 4 5 6 
#
# 1 0.008413 -0.001559 -0.002933 0.000000 0.000000 0.000000
# 2 -0.001559 0.022371 -0.003851 0.000000 0.000000 0.000000
# 3 -0.002933 -0.003851 0.012471 0.000000 0.000000 0.000000
# 4 0.000000 0.000000 0.000000 0.060172 0.000000 0.000000
# 5 0.000000 0.000000 0.000000 0.000000 0.100104 0.000000
# 6 0.000000 0.000000 0.000000 0.000000 0.000000 0.050889
#
#
# Mechanical properties :
#
#
# Convention : Reuss Voigt Hill
#
# Bulk Modulus (GPa) = 37.63723 46.65649 42.14686
# Shear Modulus (GPa) = 17.85957 23.06188 20.46073
#
# Velocity S-wave (km/s) = 2.98251 3.38917 3.19232
# Velocity P-wave (km/s) = 5.53231 6.20915 5.88048
#
# Compressibility (1/GPa) = 0.02656944
#
# Stress axis : x y z
#
# Youngs Moduli (GPa) = 118.86047 44.70074 80.18790
#
# Poissons Ratio (x) = 0.06968 0.23516
# Poissons Ratio (y) = 0.18529 0.30882
# Poissons Ratio (z) = 0.34857 0.17215
#
# Static dielectric constant tensor:
#      x y z
#    x 1.765280 0.000000 0.000000 
#    y 0.000000 1.721010 0.000000 
#    z 0.000000 0.000000 1.730590 
# 
# From -- ./inp_files/5252.got.cif
#   From: 2010.05.17/outbox.cif.g08.bks.cpg/sg26_3_cif.got.tgz:5252.got - 2010.06.04 01:07:29.
