data_PCOD9337585
_publ_section_title
;
Structure prediction by ZEFSAII (Michael W. Deem and Ramdas Pophale) SiO2 
 PCOD9337585
Probable space group: P M M 2
;
_chemical_formula_sum "Si O2"
_cell_formula_units_Z 32
_cell_length_a 7.640801
_cell_length_b 16.157249
_cell_length_c 12.201588
_cell_angle_alpha 90.000000
_cell_angle_beta 90.000000
_cell_angle_gamma 90.000000
_cell_volume 1506.338802
_symmetry_space_group_name_H-M "P M M 2"
_symmetry_group_IT_number 25
_symmetry_cell_setting 'orthorhombic'
loop_
_space_group_symop_operation_xyz
x,y,z
-x,-y,z
-x,y,z
x,-y,z
loop_
_atom_site_type_symbol
_atom_site_label
_atom_site_fract_x
_atom_site_fract_y
_atom_site_fract_z
Si Si1 0.215395 0.250436 0.498270
Si Si2 0.290366 0.152220 0.867693
Si Si3 0.711567 0.342987 0.870889
Si Si4 0.206648 0.090316 0.629386
Si Si5 0.791996 0.409103 0.632696
Si Si6 0.208781 0.091340 0.108874
Si Si7 0.710885 0.591708 0.105639
Si Si8 0.790632 0.752609 0.247591
O O1 0.276637 0.168814 0.562832
O O2 0.276568 0.332684 0.561301
O O3 0.272565 0.249079 0.372386
O O4 0.000000 0.250877 0.500933
O O5 0.500000 0.153007 0.863408
O O6 0.227882 0.247591 0.867885
O O7 0.225924 0.107642 0.758483
O O8 0.237078 0.109388 0.980601
O O9 0.500000 0.342293 0.873133
O O10 0.766019 0.388727 0.760532
O O11 0.772652 0.385734 0.982865
O O12 0.000000 0.087315 0.604901
O O13 0.281895 0.000000 0.602627
O O14 0.718903 0.500000 0.607180
O O15 0.000000 0.412033 0.612819
O O16 0.279339 0.169107 0.178245
O O17 0.000000 0.088987 0.126982
O O18 0.278975 0.000000 0.136932
O O19 0.500000 0.588996 0.101627
O O20 0.773440 0.500000 0.138027
O O21 0.756922 0.666644 0.185685
O O22 0.000000 0.762105 0.252737
#
# Coordination Sequence:
#
# PCOD9337585 Si02
#       8
#     4   4   4   4   4   4   4   4
#     4   9  19  36  55  78 108 141 178 222 267 310
#     4  11  21  34  56  83 110 142 179 220 268 323
#     4  10  20  35  56  80 108 142 176 216 268 322
#     4  10  20  35  57  82 109 143 179 217 267 324
#     4  10  20  34  55  81 108 140 176 216 264 318
#     4  10  21  36  55  81 112 144 179 222 272 323
#     4  10  21  38  58  80 110 145 179 221 274 328
#     4  10  21  37  58  81 107 143 186 230 268 312
#
# _framework density 21.243559999999999
#
# number of rings (size 3 to 8) (size 9 to 14) (size 15 to 20)
#    0.000    2.000    2.500    1.125    0.000    5.000 
#    0.000    5.000    0.000    0.000    0.000    1.750 
#    0.000    0.000    0.000    0.000    0.000    0.000 
#
# Total GULP energy -178788.984365 kJ/mol
# GULP energy per Si atom -5587.155761 kJ/mol
# Density = 2.119521 g / cm^3
# Si number density = 21.243560 Si / 1000 Ang^3
#
#
#
# Elastic Constant Matrix: (Units=GPa)
#
#
# Indices 1 2 3 4 5 6 
#
# 1 40.5719 7.8170 -6.0539 0.0000 0.0000 0.0000
# 2 7.8170 239.1906 108.4711 0.0000 0.0000 0.0000
# 3 -6.0539 108.4711 165.2324 0.0000 0.0000 0.0000
# 4 0.0000 0.0000 0.0000 6.9566 0.0000 0.0000
# 5 0.0000 0.0000 0.0000 0.0000 65.4676 0.0000
# 6 0.0000 0.0000 0.0000 0.0000 0.0000 3.0425
#
#
#
# Elastic Compliance Matrix: (Units=1/GPa)
#
#
# Indices 1 2 3 4 5 6 
#
# 1 0.025302 -0.001776 0.002093 0.000000 0.000000 0.000000
# 2 -0.001776 0.006078 -0.004055 0.000000 0.000000 0.000000
# 3 0.002093 -0.004055 0.008791 0.000000 0.000000 0.000000
# 4 0.000000 0.000000 0.000000 0.143748 0.000000 0.000000
# 5 0.000000 0.000000 0.000000 0.000000 0.015275 0.000000
# 6 0.000000 0.000000 0.000000 0.000000 0.000000 0.328674
#
#
# Mechanical properties :
#
#
# Convention : Reuss Voigt Hill
#
# Bulk Modulus (GPa) = 30.58618 73.94038 52.26328
# Shear Modulus (GPa) = 9.15347 37.41073 23.28210
#
# Velocity S-wave (km/s) = 2.07802 4.20103 3.31412
# Velocity P-wave (km/s) = 4.49296 7.64284 6.26896
#
# Compressibility (1/GPa) = 0.03269450
#
# Stress axis : x y z
#
# Youngs Moduli (GPa) = 39.52240 164.53628 113.75624
#
# Poissons Ratio (x) = 0.29222 -0.23809
# Poissons Ratio (y) = 0.07019 0.46127
# Poissons Ratio (z) = -0.08272 0.66718
#
# Static dielectric constant tensor:
#      x y z
#    x 1.786770 0.000000 0.000000 
#    y 0.000000 1.782140 0.000000 
#    z 0.000000 0.000000 1.711710 
# 
# From -- ./inp_files/4161.got.cif
#   From: 2010.05.17/outbox.cif.g08.bks.cpg/sg25_3_cif.got.tgz:4161.got - 2010.06.04 01:04:00.
