data_PCOD9337503
_publ_section_title
;
Structure prediction by ZEFSAII (Michael W. Deem and Ramdas Pophale) SiO2 
 PCOD9337503
Probable space group: P M M 2
;
_chemical_formula_sum "Si O2"
_cell_formula_units_Z 32
_cell_length_a 9.021180
_cell_length_b 9.589212
_cell_length_c 21.403691
_cell_angle_alpha 90.000000
_cell_angle_beta 90.000000
_cell_angle_gamma 90.000000
_cell_volume 1851.547854
_symmetry_space_group_name_H-M "P M M 2"
_symmetry_group_IT_number 25
_symmetry_cell_setting 'orthorhombic'
loop_
_space_group_symop_operation_xyz
x,y,z
-x,-y,z
-x,y,z
x,-y,z
loop_
_atom_site_type_symbol
_atom_site_label
_atom_site_fract_x
_atom_site_fract_y
_atom_site_fract_z
Si Si1 0.818995 0.339483 0.287210
Si Si2 0.821503 0.162869 0.166799
Si Si3 0.180963 0.838685 0.406482
Si Si4 0.677263 0.664647 0.914586
Si Si5 0.324177 0.834326 0.672399
Si Si6 0.823352 0.335410 0.784015
Si Si7 0.322294 0.836196 0.036127
Si Si8 0.829036 0.830467 0.544428
O O1 0.771335 0.500000 0.286704
O O2 0.772874 0.256569 0.225101
O O3 0.770841 0.257758 0.349431
O O4 0.000000 0.338257 0.287651
O O5 0.752747 0.208091 0.100902
O O6 0.000000 0.169984 0.162695
O O7 0.781730 0.000000 0.177316
O O8 0.226648 0.788185 0.475626
O O9 0.000000 0.839250 0.407601
O O10 0.226605 0.000000 0.397136
O O11 0.500000 0.683511 0.907128
O O12 0.705525 0.500000 0.923805
O O13 0.756631 0.709084 0.850805
O O14 0.725551 0.749241 0.975681
O O15 0.500000 0.815182 0.675873
O O16 0.245721 0.751266 0.727637
O O17 0.264592 0.788150 0.604489
O O18 0.292326 0.000000 0.678423
O O19 0.787991 0.500000 0.776323
O O20 0.000000 0.319962 0.784585
O O21 0.500000 0.821672 0.042156
O O22 0.288795 0.000000 0.026827
O O23 0.000000 0.785574 0.552291
O O24 0.829428 0.000000 0.542454
#
# Coordination Sequence:
#
# PCOD9337503 Si02
#       8
#     4   4   4   4   4   4   4   4
#     4   9  16  25  39  63  93 120 149 190 235 274
#     4   9  17  29  45  65  90 120 152 186 227 276
#     4   8  13  23  41  62  84 116 156 193 233 282
#     4   9  18  33  51  69  92 124 158 191 232 284
#     4  10  20  33  51  75 101 130 164 201 242 289
#     4  10  21  36  53  74 100 130 164 201 241 286
#     4   9  18  32  49  69  93 120 152 191 231 273
#     4   8  14  26  45  68  93 121 155 196 239 282
#
# _framework density 17.282838999999999
#
# number of rings (size 3 to 8) (size 9 to 14) (size 15 to 20)
#    0.000    3.000    0.000    1.875    0.000    4.500 
#    0.000    1.875    0.000    3.000    0.000    3.500 
#    0.000    0.000    0.000    0.000    0.000    0.000 
#
# Total GULP energy -178336.385036 kJ/mol
# GULP energy per Si atom -5573.012032 kJ/mol
# Density = 1.724350 g / cm^3
# Si number density = 17.282839 Si / 1000 Ang^3
#
#
#
# Elastic Constant Matrix: (Units=GPa)
#
#
# Indices 1 2 3 4 5 6 
#
# 1 18.0311 30.1358 50.2301 0.0000 0.0000 0.0000
# 2 30.1358 66.2342 92.1516 0.0000 0.0000 0.0000
# 3 50.2301 92.1516 217.2755 0.0000 0.0000 0.0000
# 4 0.0000 0.0000 0.0000 -17.4442 0.0000 0.0000
# 5 0.0000 0.0000 0.0000 0.0000 -95.2739 0.0000
# 6 0.0000 0.0000 0.0000 0.0000 0.0000 14.4698
#
#
#
# Elastic Compliance Matrix: (Units=1/GPa)
#
#
# Indices 1 2 3 4 5 6 
#
# 1 0.282023 -0.091742 -0.026289 0.000000 0.000000 0.000000
# 2 -0.091742 0.066675 -0.007070 0.000000 0.000000 0.000000
# 3 -0.026289 -0.007070 0.013678 0.000000 0.000000 0.000000
# 4 0.000000 0.000000 0.000000 -0.057326 0.000000 0.000000
# 5 0.000000 0.000000 0.000000 0.000000 -0.010496 0.000000
# 6 0.000000 0.000000 0.000000 0.000000 0.000000 0.069110
#
#
# Mechanical properties :
#
#
# Convention : Reuss Voigt Hill
#
# Bulk Modulus (GPa) = 8.91452 71.84174 40.37813
# Shear Modulus (GPa) = 7.67748 -11.04810 -1.68531
#
# Velocity S-wave (km/s) = 2.10995 -2.53109 -0.98856
# Velocity P-wave (km/s) = 3.33243 5.75470 4.70222
#
# Compressibility (1/GPa) = 0.11217654
#
# Stress axis : x y z
#
# Youngs Moduli (GPa) = 3.54581 14.99810 73.10868
#
# Poissons Ratio (x) = 1.37595 1.92193
# Poissons Ratio (y) = 0.32530 0.51685
# Poissons Ratio (z) = 0.09321 0.10603
#
# Static dielectric constant tensor:
#      x y z
#    x 1.576070 0.000000 0.000000 
#    y 0.000000 1.577450 0.000000 
#    z 0.000000 0.000000 1.578590 
# 
# From -- ./inp_files/6584.got.cif
#   From: 2010.05.17/outbox.cif.g08.bks.cpg/sg25_4_cif.got.tgz:6584.got - 2010.06.04 01:04:00.
