data_PCOD9337886
_publ_section_title
;
Structure prediction by ZEFSAII (Michael W. Deem and Ramdas Pophale) SiO2 
 PCOD9337886
Probable space group: P M C 21
;
_chemical_formula_sum "Si O2"
_cell_formula_units_Z 26
_cell_length_a 24.080795
_cell_length_b 9.280784
_cell_length_c 5.496383
_cell_angle_alpha 90.000000
_cell_angle_beta 90.000000
_cell_angle_gamma 90.000000
_cell_volume 1228.379255
_symmetry_space_group_name_H-M "P M C 21"
_symmetry_group_IT_number 26
_symmetry_cell_setting 'orthorhombic'
loop_
_space_group_symop_operation_xyz
x,y,z
-x,-y,1/2+z
-x,y,z
x,-y,1/2+z
loop_
_atom_site_type_symbol
_atom_site_label
_atom_site_fract_x
_atom_site_fract_y
_atom_site_fract_z
Si Si1 0.935996 0.177636 0.375000
Si Si2 0.227851 0.818163 0.217438
Si Si3 0.820953 0.500592 0.681486
Si Si4 0.894178 0.852627 0.374483
Si Si5 0.500000 0.409518 0.339460
Si Si6 0.732513 0.237399 0.217172
Si Si7 0.621516 0.593294 0.786223
O O1 0.918663 0.231027 0.642278
O O2 0.000000 0.207674 0.324257
O O3 0.926364 0.004249 0.398738
O O4 0.899502 0.218892 0.139809
O O5 0.214646 0.646788 0.187697
O O6 0.169042 0.883539 0.299608
O O7 0.268275 0.830602 0.448130
O O8 0.246885 0.857434 0.945748
O O9 0.853535 0.500286 0.431575
O O10 0.776970 0.631475 0.688673
O O11 0.500000 0.474128 0.614768
O O12 0.440030 0.336681 0.302689
O O13 0.672930 0.299388 0.287221
O O14 0.625687 0.506662 0.529001
#
# Coordination Sequence:
#
# PCOD9337886 Si02
#       7
#     4   4   4   4   2   4   4
#     4  10  19  33  50  66  85 106 128 152 192 245
#     4  10  18  26  38  60  83 104 135 165 195 238
#     4   8  14  23  34  49  73 101 128 158 186 219
#     4  10  18  29  45  65  87 105 127 162 194 229
#     4   8  16  24  34  52  72  96 144 192 214 238
#     4  10  17  26  38  54  81 112 140 169 202 236
#     4  10  16  25  38  53  74 108 146 184 217 238
#
# _framework density 21.166101999999999
#
# number of rings (size 3 to 8) (size 9 to 14) (size 15 to 20)
#    0.000    2.462    0.000    6.923    0.000    0.000 
#    0.000    0.000    0.000    0.000    0.000    0.000 
#    0.000  188.308    0.000    0.000    0.000   61.538 
#
# Total GULP energy -144900.004314 kJ/mol
# GULP energy per Si atom -5573.077089 kJ/mol
# Density = 2.111793 g / cm^3
# Si number density = 21.166102 Si / 1000 Ang^3
#
#
#
# Elastic Constant Matrix: (Units=GPa)
#
#
# Indices 1 2 3 4 5 6 
#
# 1 101.6248 -2.5449 6.7872 0.0000 0.0000 0.0000
# 2 -2.5449 49.7012 5.6770 0.0000 0.0000 0.0000
# 3 6.7872 5.6770 199.2642 0.0000 0.0000 0.0000
# 4 0.0000 0.0000 0.0000 -3.3816 0.0000 0.0000
# 5 0.0000 0.0000 0.0000 0.0000 32.3418 0.0000
# 6 0.0000 0.0000 0.0000 0.0000 0.0000 17.4798
#
#
#
# Elastic Compliance Matrix: (Units=1/GPa)
#
#
# Indices 1 2 3 4 5 6 
#
# 1 0.009877 0.000546 -0.000352 0.000000 0.000000 0.000000
# 2 0.000546 0.020216 -0.000595 0.000000 0.000000 0.000000
# 3 -0.000352 -0.000595 0.005047 0.000000 0.000000 0.000000
# 4 0.000000 0.000000 0.000000 -0.295717 0.000000 0.000000
# 5 0.000000 0.000000 0.000000 0.000000 0.030920 0.000000
# 6 0.000000 0.000000 0.000000 0.000000 0.000000 0.057209
#
#
# Mechanical properties :
#
#
# Convention : Reuss Voigt Hill
#
# Bulk Modulus (GPa) = 29.12087 41.15877 35.13982
# Shear Modulus (GPa) = -31.21097 31.99941 0.39422
#
# Velocity S-wave (km/s) = -3.84418 3.89244 0.43203
# Velocity P-wave (km/s) = 2.43219 6.29994 4.10936
#
# Compressibility (1/GPa) = 0.03433963
#
# Stress axis : x y z
#
# Youngs Moduli (GPa) = 101.24230 49.46556 198.12218
#
# Poissons Ratio (x) = -0.02701 0.06974
# Poissons Ratio (y) = -0.05528 0.11779
# Poissons Ratio (z) = 0.03564 0.02941
#
# Static dielectric constant tensor:
#      x y z
#    x 1.743750 0.000000 0.000000 
#    y 0.000000 1.840090 0.000000 
#    z 0.000000 0.000000 1.909240 
# 
# From -- ./inp_files/891.got.cif
#   From: 2010.05.17/outbox.cif.g08.bks.cpg/sg26_1_cif.got.tgz:891.got - 2010.06.04 01:07:29.
