data_PCOD9337240
_publ_section_title
;
Structure prediction by ZEFSAII (Michael W. Deem and Ramdas Pophale) SiO2 
 PCOD9337240
Probable space group: P M M 2
;
_chemical_formula_sum "Si O2"
_cell_formula_units_Z 32
_cell_length_a 8.831287
_cell_length_b 14.618769
_cell_length_c 16.108966
_cell_angle_alpha 90.000000
_cell_angle_beta 90.000000
_cell_angle_gamma 90.000000
_cell_volume 2079.708502
_symmetry_space_group_name_H-M "P M M 2"
_symmetry_group_IT_number 25
_symmetry_cell_setting 'orthorhombic'
loop_
_space_group_symop_operation_xyz
x,y,z
-x,-y,z
-x,y,z
x,-y,z
loop_
_atom_site_type_symbol
_atom_site_label
_atom_site_fract_x
_atom_site_fract_y
_atom_site_fract_z
Si Si1 0.180716 0.104445 0.665540
Si Si2 0.818203 0.716347 0.414918
Si Si3 0.815222 0.394348 0.252475
Si Si4 0.680894 0.104664 0.481948
Si Si5 0.317100 0.281660 0.736915
Si Si6 0.175035 0.611136 0.070217
Si Si7 0.682398 0.607216 0.570279
Si Si8 0.682150 0.394377 0.897636
O O1 0.254539 0.118097 0.574823
O O2 0.246166 0.182102 0.724825
O O3 0.000000 0.113675 0.658006
O O4 0.215001 0.000000 0.691537
O O5 0.769000 0.667689 0.329577
O O6 0.753336 0.818020 0.424886
O O7 0.758731 0.657590 0.492878
O O8 0.000000 0.718610 0.417211
O O9 0.767513 0.500000 0.265113
O O10 0.765196 0.361048 0.161118
O O11 0.000000 0.395190 0.249848
O O12 0.500000 0.115571 0.484534
O O13 0.716067 0.000000 0.457330
O O14 0.500000 0.274409 0.737973
O O15 0.276327 0.342538 0.656233
O O16 0.267271 0.332490 0.820750
O O17 0.177936 0.500000 0.072757
O O18 0.000000 0.639299 0.062522
O O19 0.262678 0.638804 0.987577
O O20 0.500000 0.614059 0.561551
O O21 0.722344 0.500000 0.572876
O O22 0.500000 0.395377 0.897086
O O23 0.733327 0.500000 0.886325
#
# Coordination Sequence:
#
# PCOD9337240 Si02
#       8
#     4   4   4   4   4   4   4   4
#     4  10  20  33  49  69  91 115 149 196 240 272
#     4  11  20  30  47  70  94 121 155 195 234 272
#     4   8  15  28  45  66  94 125 154 185 226 274
#     4  10  20  34  50  66  88 120 155 191 234 282
#     4  10  19  31  47  66  92 127 158 185 226 276
#     4   8  14  27  46  65  87 119 156 191 227 268
#     4  10  20  32  44  61  91 130 164 188 216 264
#     4   9  17  29  45  67  95 124 154 189 227 267
#
# _framework density 15.386771
#
# number of rings (size 3 to 8) (size 9 to 14) (size 15 to 20)
#    0.000    2.500    1.250    2.625    0.000    4.250 
#    0.000    1.250    0.000    5.250    0.000    0.875 
#    0.000    1.000    0.000    0.000    0.000    0.000 
#
# Total GULP energy -178379.771565 kJ/mol
# GULP energy per Si atom -5574.367861 kJ/mol
# Density = 1.535175 g / cm^3
# Si number density = 15.386771 Si / 1000 Ang^3
#
#
#
# Elastic Constant Matrix: (Units=GPa)
#
#
# Indices 1 2 3 4 5 6 
#
# 1 22.4328 32.8812 34.2853 0.0000 0.0000 0.0000
# 2 32.8812 107.9366 76.3360 0.0000 0.0000 0.0000
# 3 34.2853 76.3360 146.5462 0.0000 0.0000 0.0000
# 4 0.0000 0.0000 0.0000 9.8327 0.0000 0.0000
# 5 0.0000 0.0000 0.0000 0.0000 27.0029 0.0000
# 6 0.0000 0.0000 0.0000 0.0000 0.0000 22.4256
#
#
#
# Elastic Compliance Matrix: (Units=1/GPa)
#
#
# Indices 1 2 3 4 5 6 
#
# 1 0.090079 -0.019849 -0.010735 0.000000 0.000000 0.000000
# 2 -0.019849 0.019042 -0.005275 0.000000 0.000000 0.000000
# 3 -0.010735 -0.005275 0.012083 0.000000 0.000000 0.000000
# 4 0.000000 0.000000 0.000000 0.101701 0.000000 0.000000
# 5 0.000000 0.000000 0.000000 0.000000 0.037033 0.000000
# 6 0.000000 0.000000 0.000000 0.000000 0.000000 0.044592
#
#
# Mechanical properties :
#
#
# Convention : Reuss Voigt Hill
#
# Bulk Modulus (GPa) = 20.20798 62.65784 41.43291
# Shear Modulus (GPa) = 12.73094 20.74645 16.73870
#
# Velocity S-wave (km/s) = 2.87957 3.67595 3.30185
# Velocity P-wave (km/s) = 4.92115 7.66988 6.44379
#
# Compressibility (1/GPa) = 0.04948539
#
# Stress axis : x y z
#
# Youngs Moduli (GPa) = 11.10143 52.51491 82.75908
#
# Poissons Ratio (x) = 1.04236 0.88843
# Poissons Ratio (y) = 0.22035 0.43658
# Poissons Ratio (z) = 0.11918 0.27703
#
# Static dielectric constant tensor:
#      x y z
#    x 1.520260 0.000000 0.000000 
#    y 0.000000 1.506940 0.000000 
#    z 0.000000 0.000000 1.506660 
# 
# From -- ./inp_files/5726.got.cif
#   From: 2010.05.17/outbox.cif.g08.bks.cpg/sg25_3_cif.got.tgz:5726.got - 2010.06.04 01:04:00.
