data_PCOD9337397
_publ_section_title
;
Structure prediction by ZEFSAII (Michael W. Deem and Ramdas Pophale) SiO2 
 PCOD9337397
Probable space group: P M M 2
;
_chemical_formula_sum "Si O2"
_cell_formula_units_Z 32
_cell_length_a 7.413592
_cell_length_b 9.646850
_cell_length_c 21.051786
_cell_angle_alpha 90.000000
_cell_angle_beta 90.000000
_cell_angle_gamma 90.000000
_cell_volume 1505.577631
_symmetry_space_group_name_H-M "P M M 2"
_symmetry_group_IT_number 25
_symmetry_cell_setting 'orthorhombic'
loop_
_space_group_symop_operation_xyz
x,y,z
-x,-y,z
-x,y,z
x,-y,z
loop_
_atom_site_type_symbol
_atom_site_label
_atom_site_fract_x
_atom_site_fract_y
_atom_site_fract_z
Si Si1 0.213120 0.843981 0.463630
Si Si2 0.284083 0.156752 0.843963
Si Si3 0.220875 0.340893 0.346399
Si Si4 0.215875 0.656797 0.967140
Si Si5 0.219559 0.158854 0.227617
Si Si6 0.280032 0.658825 0.727625
Si Si7 0.219963 0.840954 0.083722
Si Si8 0.716975 0.343157 0.583782
O O1 0.283880 0.747324 0.407038
O O2 0.232917 0.766407 0.530495
O O3 0.000000 0.855835 0.451499
O O4 0.287524 0.000000 0.464308
O O5 0.500000 0.147774 0.837367
O O6 0.249840 0.250284 0.905437
O O7 0.216253 0.235497 0.781144
O O8 0.214741 0.000000 0.850930
O O9 0.279047 0.500000 0.349513
O O10 0.278099 0.263879 0.281978
O O11 0.000000 0.341919 0.346758
O O12 0.285288 0.500000 0.960424
O O13 0.283652 0.736325 0.029744
O O14 0.000000 0.647774 0.973856
O O15 0.000000 0.159591 0.227759
O O16 0.273987 0.000000 0.241441
O O17 0.275943 0.193711 0.155708
O O18 0.500000 0.660925 0.727981
O O19 0.227095 0.500000 0.742182
O O20 0.222728 0.691089 0.655492
O O21 0.000000 0.839571 0.083287
O O22 0.273702 0.000000 0.069990
O O23 0.500000 0.347569 0.585464
O O24 0.779520 0.500000 0.568098
#
# Coordination Sequence:
#
# PCOD9337397 Si02
#       8
#     4   4   4   4   4   4   4   4
#     4  10  20  32  46  67  97 130 161 194 233 277
#     4  10  20  33  51  74  96 121 156 195 234 278
#     4   9  16  25  39  60  87 120 156 194 235 275
#     4  10  20  32  47  69  97 128 160 194 234 279
#     4   8  13  22  37  58  85 117 152 189 230 276
#     4   8  15  30  51  72  94 120 151 190 234 277
#     4   8  14  25  41  61  88 122 155 189 232 277
#     4   9  18  33  53  75  96 120 153 192 234 281
#
# _framework density 21.254301000000002
#
# number of rings (size 3 to 8) (size 9 to 14) (size 15 to 20)
#    0.000    3.000    0.000    3.000    0.000    5.000 
#    0.000    4.375    0.000    0.750    0.000    0.875 
#    0.000    1.000    0.000    0.000    0.000    0.000 
#
# Total GULP energy -178669.002409 kJ/mol
# GULP energy per Si atom -5583.406325 kJ/mol
# Density = 2.120593 g / cm^3
# Si number density = 21.254301 Si / 1000 Ang^3
#
#
#
# Elastic Constant Matrix: (Units=GPa)
#
#
# Indices 1 2 3 4 5 6 
#
# 1 69.2736 7.5074 1.3478 0.0000 0.0000 0.0000
# 2 7.5074 225.8732 164.4782 0.0000 0.0000 0.0000
# 3 1.3478 164.4782 187.8491 0.0000 0.0000 0.0000
# 4 0.0000 0.0000 0.0000 43.9369 0.0000 0.0000
# 5 0.0000 0.0000 0.0000 0.0000 21.3894 0.0000
# 6 0.0000 0.0000 0.0000 0.0000 0.0000 5.2430
#
#
#
# Elastic Compliance Matrix: (Units=1/GPa)
#
#
# Indices 1 2 3 4 5 6 
#
# 1 0.014540 -0.001124 0.000880 0.000000 0.000000 0.000000
# 2 -0.001124 0.012303 -0.010764 0.000000 0.000000 0.000000
# 3 0.000880 -0.010764 0.014742 0.000000 0.000000 0.000000
# 4 0.000000 0.000000 0.000000 0.022760 0.000000 0.000000
# 5 0.000000 0.000000 0.000000 0.000000 0.046752 0.000000
# 6 0.000000 0.000000 0.000000 0.000000 0.000000 0.190731
#
#
# Mechanical properties :
#
#
# Convention : Reuss Voigt Hill
#
# Bulk Modulus (GPa) = 51.10253 92.18476 71.64365
# Shear Modulus (GPa) = 15.13463 34.75803 24.94633
#
# Velocity S-wave (km/s) = 2.67137 4.04832 3.42966
# Velocity P-wave (km/s) = 5.79746 8.08198 7.03309
#
# Compressibility (1/GPa) = 0.01956850
#
# Stress axis : x y z
#
# Youngs Moduli (GPa) = 68.77485 81.28020 67.83220
#
# Poissons Ratio (x) = 0.09135 -0.05967
# Poissons Ratio (y) = 0.07730 0.73017
# Poissons Ratio (z) = -0.06050 0.87493
#
# Static dielectric constant tensor:
#      x y z
#    x 1.851700 0.000000 0.000000 
#    y 0.000000 1.735660 0.000000 
#    z 0.000000 0.000000 1.727760 
# 
# From -- ./inp_files/6360.got.cif
#   From: 2010.05.17/outbox.cif.g08.bks.cpg/sg25_4_cif.got.tgz:6360.got - 2010.06.04 01:04:00.
