data_PCOD9337431
_publ_section_title
;
Structure prediction by ZEFSAII (Michael W. Deem and Ramdas Pophale) SiO2 
 PCOD9337431
Probable space group: P M M 2
;
_chemical_formula_sum "Si O2"
_cell_formula_units_Z 32
_cell_length_a 8.896016
_cell_length_b 14.696605
_cell_length_c 15.932100
_cell_angle_alpha 90.000000
_cell_angle_beta 90.000000
_cell_angle_gamma 90.000000
_cell_volume 2082.982402
_symmetry_space_group_name_H-M "P M M 2"
_symmetry_group_IT_number 25
_symmetry_cell_setting 'orthorhombic'
loop_
_space_group_symop_operation_xyz
x,y,z
-x,-y,z
-x,y,z
x,-y,z
loop_
_atom_site_type_symbol
_atom_site_label
_atom_site_fract_x
_atom_site_fract_y
_atom_site_fract_z
Si Si1 0.318136 0.893416 0.243460
Si Si2 0.180904 0.603717 0.666546
Si Si3 0.673259 0.110373 0.056795
Si Si4 0.320239 0.784285 0.729910
Si Si5 0.819272 0.791898 0.401169
Si Si6 0.182533 0.399057 0.470488
Si Si7 0.179055 0.893336 0.883162
Si Si8 0.680686 0.893028 0.560785
O O1 0.500000 0.889359 0.247012
O O2 0.273060 0.861976 0.149604
O O3 0.247476 0.834613 0.317026
O O4 0.276302 0.000000 0.254222
O O5 0.219140 0.500000 0.690960
O O6 0.258074 0.682598 0.719138
O O7 0.224284 0.614859 0.568253
O O8 0.000000 0.612983 0.671287
O O9 0.500000 0.139266 0.045613
O O10 0.673139 0.000000 0.059664
O O11 0.768495 0.136908 0.975867
O O12 0.500000 0.783637 0.734467
O O13 0.254432 0.834362 0.810803
O O14 0.276410 0.840409 0.645895
O O15 0.769099 0.687475 0.416711
O O16 0.761573 0.849230 0.480956
O O17 0.000000 0.794713 0.398725
O O18 0.234325 0.500000 0.444349
O O19 0.000000 0.400336 0.468919
O O20 0.000000 0.887674 0.876802
O O21 0.222998 0.000000 0.873195
O O22 0.500000 0.884270 0.549953
O O23 0.715575 0.000000 0.567900
#
# Coordination Sequence:
#
# PCOD9337431 Si02
#       8
#     4   4   4   4   4   4   4   4
#     4   9  18  32  48  66  94 130 159 185 227 284
#     4   9  17  32  52  69  90 122 158 199 245 287
#     4   8  15  30  50  68  88 120 159 194 231 278
#     4  11  21  32  48  69  95 127 162 198 234 281
#     4  11  20  29  46  70  92 118 157 199 234 273
#     4   8  15  29  47  65  88 119 153 192 238 282
#     4  10  20  32  48  71  98 126 157 197 240 282
#     4  10  21  34  44  58  89 131 164 188 222 270
#
# _framework density 15.362588000000001
#
# number of rings (size 3 to 8) (size 9 to 14) (size 15 to 20)
#    0.000    2.500    1.250    3.375    0.000    4.500 
#    0.000    1.250    0.000    1.500    0.000    0.875 
#    0.000    3.000    0.000    0.000    0.000    0.000 
#
# Total GULP energy -178393.978929 kJ/mol
# GULP energy per Si atom -5574.811842 kJ/mol
# Density = 1.532762 g / cm^3
# Si number density = 15.362588 Si / 1000 Ang^3
#
#
#
# Elastic Constant Matrix: (Units=GPa)
#
#
# Indices 1 2 3 4 5 6 
#
# 1 29.8232 38.4202 45.3348 0.0000 0.0000 0.0000
# 2 38.4202 113.3608 75.9996 0.0000 0.0000 0.0000
# 3 45.3348 75.9996 138.2244 0.0000 0.0000 0.0000
# 4 0.0000 0.0000 0.0000 6.6617 0.0000 0.0000
# 5 0.0000 0.0000 0.0000 0.0000 19.5200 0.0000
# 6 0.0000 0.0000 0.0000 0.0000 0.0000 17.4162
#
#
#
# Elastic Compliance Matrix: (Units=1/GPa)
#
#
# Indices 1 2 3 4 5 6 
#
# 1 0.080578 -0.015191 -0.018075 0.000000 0.000000 0.000000
# 2 -0.015191 0.016836 -0.004274 0.000000 0.000000 0.000000
# 3 -0.018075 -0.004274 0.015513 0.000000 0.000000 0.000000
# 4 0.000000 0.000000 0.000000 0.150113 0.000000 0.000000
# 5 0.000000 0.000000 0.000000 0.000000 0.051230 0.000000
# 6 0.000000 0.000000 0.000000 0.000000 0.000000 0.057418
#
#
# Mechanical properties :
#
#
# Convention : Reuss Voigt Hill
#
# Bulk Modulus (GPa) = 26.42364 66.76863 46.59613
# Shear Modulus (GPa) = 10.88415 16.82984 13.85699
#
# Velocity S-wave (km/s) = 2.66462 3.31344 3.00658
# Velocity P-wave (km/s) = 5.16762 7.62854 6.51533
#
# Compressibility (1/GPa) = 0.03784490
#
# Stress axis : x y z
#
# Youngs Moduli (GPa) = 12.41030 59.39817 64.46183
#
# Poissons Ratio (x) = 0.90234 1.16518
# Poissons Ratio (y) = 0.18853 0.27552
# Poissons Ratio (z) = 0.22432 0.25388
#
# Static dielectric constant tensor:
#      x y z
#    x 1.514410 0.000000 0.000000 
#    y 0.000000 1.506650 0.000000 
#    z 0.000000 0.000000 1.497130 
# 
# From -- ./inp_files/5716.got.cif
#   From: 2010.05.17/outbox.cif.g08.bks.cpg/sg25_3_cif.got.tgz:5716.got - 2010.06.04 01:04:00.
