data_PCOD9337308
_publ_section_title
;
Structure prediction by ZEFSAII (Michael W. Deem and Ramdas Pophale) SiO2 
 PCOD9337308
Probable space group: P M M 2
;
_chemical_formula_sum "Si O2"
_cell_formula_units_Z 32
_cell_length_a 8.147459
_cell_length_b 15.134420
_cell_length_c 12.660449
_cell_angle_alpha 90.000000
_cell_angle_beta 90.000000
_cell_angle_gamma 90.000000
_cell_volume 1561.122826
_symmetry_space_group_name_H-M "P M M 2"
_symmetry_group_IT_number 25
_symmetry_cell_setting 'orthorhombic'
loop_
_space_group_symop_operation_xyz
x,y,z
-x,-y,z
-x,y,z
x,-y,z
loop_
_atom_site_type_symbol
_atom_site_label
_atom_site_fract_x
_atom_site_fract_y
_atom_site_fract_z
Si Si1 0.189351 0.222845 0.983690
Si Si2 0.200779 0.402300 0.891103
Si Si3 0.808858 0.364216 0.653191
Si Si4 0.301552 0.791194 0.374468
Si Si5 0.188685 0.842787 0.601885
Si Si6 0.690347 0.902146 0.814365
Si Si7 0.306040 0.404675 0.423846
Si Si8 0.696073 0.100537 0.171766
O O1 0.259238 0.320584 0.962061
O O2 0.203886 0.171261 0.872814
O O3 0.000000 0.231793 0.014222
O O4 0.271981 0.160736 0.069953
O O5 0.247091 0.500000 0.928206
O O6 0.253376 0.390739 0.768785
O O7 0.000000 0.397023 0.888981
O O8 0.802999 0.258653 0.641484
O O9 0.717039 0.400067 0.550594
O O10 0.000000 0.391551 0.645341
O O11 0.500000 0.786845 0.370767
O O12 0.253439 0.839657 0.482957
O O13 0.239338 0.689052 0.380036
O O14 0.240867 0.846503 0.274270
O O15 0.288305 0.896170 0.688844
O O16 0.000000 0.871925 0.603393
O O17 0.500000 0.887619 0.841633
O O18 0.738378 0.000000 0.850912
O O19 0.500000 0.405098 0.400798
O O20 0.237030 0.500000 0.387588
O O21 0.500000 0.093685 0.183977
O O22 0.760648 0.000000 0.162261
#
# Coordination Sequence:
#
# PCOD9337308 Si02
#       8
#     4   4   4   4   4   4   4   4
#     4  11  22  38  59  84 112 141 182 236 285 326
#     4   9  17  31  52  78 110 147 182 217 267 329
#     4   9  16  29  49  74 107 147 185 217 258 317
#     4   9  19  36  56  78 108 145 185 229 278 333
#     4  10  19  33  54  83 116 146 181 227 276 323
#     4  11  23  37  55  80 112 151 187 220 273 342
#     4   9  17  29  47  75 109 143 181 224 271 321
#     4  10  22  41  62  81 104 142 191 236 282 340
#
# _framework density 20.498066000000001
#
# number of rings (size 3 to 8) (size 9 to 14) (size 15 to 20)
#    0.000    2.250    1.250    1.875    0.000    5.000 
#    0.000    1.875    0.000    3.000    0.000    0.000 
#    0.000    0.000    0.000    0.000    0.000    0.000 
#
# Total GULP energy -178530.843682 kJ/mol
# GULP energy per Si atom -5579.088865 kJ/mol
# Density = 2.045141 g / cm^3
# Si number density = 20.498066 Si / 1000 Ang^3
#
#
#
# Elastic Constant Matrix: (Units=GPa)
#
#
# Indices 1 2 3 4 5 6 
#
# 1 11.2129 13.0205 -2.1692 0.0000 0.0000 0.0000
# 2 13.0205 144.6115 63.1015 0.0000 0.0000 0.0000
# 3 -2.1692 63.1015 102.5607 0.0000 0.0000 0.0000
# 4 0.0000 0.0000 0.0000 10.6094 0.0000 0.0000
# 5 0.0000 0.0000 0.0000 0.0000 68.3039 0.0000
# 6 0.0000 0.0000 0.0000 0.0000 0.0000 8.7249
#
#
#
# Elastic Compliance Matrix: (Units=1/GPa)
#
#
# Indices 1 2 3 4 5 6 
#
# 1 0.108471 -0.014719 0.011350 0.000000 0.000000 0.000000
# 2 -0.014719 0.011450 -0.007356 0.000000 0.000000 0.000000
# 3 0.011350 -0.007356 0.014516 0.000000 0.000000 0.000000
# 4 0.000000 0.000000 0.000000 0.094256 0.000000 0.000000
# 5 0.000000 0.000000 0.000000 0.000000 0.014640 0.000000
# 6 0.000000 0.000000 0.000000 0.000000 0.000000 0.114615
#
#
# Mechanical properties :
#
#
# Convention : Reuss Voigt Hill
#
# Bulk Modulus (GPa) = 8.85054 45.14341 26.99697
# Shear Modulus (GPa) = 11.98863 29.82313 20.90588
#
# Velocity S-wave (km/s) = 2.42103 3.81848 3.19704
# Velocity P-wave (km/s) = 3.48458 6.44299 5.17950
#
# Compressibility (1/GPa) = 0.11298749
#
# Stress axis : x y z
#
# Youngs Moduli (GPa) = 9.21905 87.33417 68.88774
#
# Poissons Ratio (x) = 1.28550 -0.78191
# Poissons Ratio (y) = 0.13570 0.50675
# Poissons Ratio (z) = -0.10464 0.64245
#
# Static dielectric constant tensor:
#      x y z
#    x 1.684880 0.000000 0.000000 
#    y 0.000000 1.773670 0.000000 
#    z 0.000000 0.000000 1.703360 
# 
# From -- ./inp_files/4159.got.cif
#   From: 2010.05.17/outbox.cif.g08.bks.cpg/sg25_3_cif.got.tgz:4159.got - 2010.06.04 01:04:00.
