data_PCOD9337015
_publ_section_title
;
Structure prediction by ZEFSAII (Michael W. Deem and Ramdas Pophale) SiO2 
 PCOD9337015
Probable space group: I 21 21 21
;
_chemical_formula_sum "Si O2"
_cell_formula_units_Z 20
_cell_length_a 18.159847
_cell_length_b 5.194992
_cell_length_c 7.904431
_cell_angle_alpha 90.000000
_cell_angle_beta 90.000000
_cell_angle_gamma 90.000000
_cell_volume 745.706075
_symmetry_space_group_name_H-M "I 21 21 21"
_symmetry_group_IT_number 24
_symmetry_cell_setting 'orthorhombic'
loop_
_space_group_symop_operation_xyz
x,y,z
-x,1/2-y,z
x,-y,1/2-z
1/2-x,y,-z
1/2+x,1/2+y,1/2+z
1/2-x,-y,1/2+z
1/2+x,1/2-y,-z
-x,1/2+y,1/2-z
loop_
_atom_site_type_symbol
_atom_site_label
_atom_site_fract_x
_atom_site_fract_y
_atom_site_fract_z
Si Si1 0.630047 0.500000 0.750000
Si Si2 0.750000 0.341786 0.000000
Si Si3 0.156058 0.500000 0.750000
Si Si4 0.942861 0.500000 0.750000
Si Si5 0.000000 0.250000 0.072011
O O1 0.688457 0.486860 0.595401
O O2 0.572023 0.277977 0.808849
O O3 0.708538 0.142005 0.119203
O O4 0.105047 0.746701 0.785322
O O5 0.985297 0.534657 0.571356
#
# Coordination Sequence:
#
# PCOD9337015 Si02
#       5
#     4   4   4   4   4
#     4  12  31  59  91 147 188 258 318 408 477 583
#     4  12  30  56  98 134 204 248 338 392 504 570
#     4  12  29  55  97 136 187 256 320 406 479 587
#     4  12  28  58  94 135 185 256 316 404 478 582
#     4  12  30  56  98 134 198 242 334 392 496 566
#
# _framework density 26.820215000000001
#
# number of rings (size 3 to 8) (size 9 to 14) (size 15 to 20)
#    0.000    0.000    4.000    2.400    5.600    8.000 
#    0.000    0.000    0.000    0.000    0.000    0.000 
#    0.000    0.000    0.000    0.000    0.000    0.000 
#
# Total GULP energy -55737.856167 kJ/mol
# GULP energy per Si atom -5573.785617 kJ/mol
# Density = 2.675917 g / cm^3
# Si number density = 26.820215 Si / 1000 Ang^3
#
#
#
# Elastic Constant Matrix: (Units=GPa)
#
#
# Indices 1 2 3 4 5 6 
#
# 1 240.8608 98.8188 116.0567 0.0000 0.0000 0.0000
# 2 98.8188 164.3975 78.3415 0.0000 0.0000 0.0000
# 3 116.0567 78.3415 173.5085 0.0000 0.0000 0.0000
# 4 0.0000 0.0000 0.0000 48.0898 0.0000 0.0000
# 5 0.0000 0.0000 0.0000 0.0000 90.8472 0.0000
# 6 0.0000 0.0000 0.0000 0.0000 0.0000 54.6952
#
#
#
# Elastic Compliance Matrix: (Units=1/GPa)
#
#
# Indices 1 2 3 4 5 6 
#
# 1 0.006824 -0.002455 -0.003456 0.000000 0.000000 0.000000
# 2 -0.002455 0.008634 -0.002256 0.000000 0.000000 0.000000
# 3 -0.003456 -0.002256 0.009094 0.000000 0.000000 0.000000
# 4 0.000000 0.000000 0.000000 0.020794 0.000000 0.000000
# 5 0.000000 0.000000 0.000000 0.000000 0.011007 0.000000
# 6 0.000000 0.000000 0.000000 0.000000 0.000000 0.018283
#
#
# Mechanical properties :
#
#
# Convention : Reuss Voigt Hill
#
# Bulk Modulus (GPa) = 121.69614 129.46674 125.58144
# Shear Modulus (GPa) = 53.35574 57.76310 55.55942
#
# Velocity S-wave (km/s) = 4.46509 4.64585 4.55637
# Velocity P-wave (km/s) = 8.48858 8.78382 8.63746
#
# Compressibility (1/GPa) = 0.00821719
#
# Stress axis : x y z
#
# Youngs Moduli (GPa) = 146.53368 115.82577 109.96488
#
# Poissons Ratio (x) = 0.28436 0.38006
# Poissons Ratio (y) = 0.35976 0.24809
# Poissons Ratio (z) = 0.50645 0.26131
#
# Static dielectric constant tensor:
#      x y z
#    x 2.223020 0.000000 0.000000 
#    y 0.000000 2.069960 0.000000 
#    z 0.000000 0.000000 2.190150 
# 
# From -- ./inp_files/629.got.cif
#   From: 2010.05.17/outbox.cif.g08.bks.cpg/sg24_1_cif.got.tgz:629.got - 2010.06.04 00:33:39.
