data_PCOD9337574
_publ_section_title
;
Structure prediction by ZEFSAII (Michael W. Deem and Ramdas Pophale) SiO2 
 PCOD9337574
Probable space group: P M M 2
;
_chemical_formula_sum "Si O2"
_cell_formula_units_Z 28
_cell_length_a 8.031702
_cell_length_b 9.377680
_cell_length_c 18.543102
_cell_angle_alpha 90.000000
_cell_angle_beta 90.000000
_cell_angle_gamma 90.000000
_cell_volume 1396.642915
_symmetry_space_group_name_H-M "P M M 2"
_symmetry_group_IT_number 25
_symmetry_cell_setting 'orthorhombic'
loop_
_space_group_symop_operation_xyz
x,y,z
-x,-y,z
-x,y,z
x,-y,z
loop_
_atom_site_type_symbol
_atom_site_label
_atom_site_fract_x
_atom_site_fract_y
_atom_site_fract_z
Si Si1 0.701087 0.163481 0.377080
Si Si2 0.801204 0.336956 0.956611
Si Si3 0.703876 0.664366 0.235483
Si Si4 0.301243 0.663070 0.796464
Si Si5 0.201073 0.662935 0.518936
Si Si6 0.199934 0.838214 0.657465
Si Si7 0.300057 0.838155 0.095699
O O1 0.500000 0.159508 0.374460
O O2 0.757849 0.247991 0.305888
O O3 0.751574 0.248099 0.448477
O O4 0.761232 0.000000 0.378198
O O5 0.737713 0.500000 0.966293
O O6 0.749551 0.289210 0.876595
O O7 0.000000 0.340628 0.959517
O O8 0.739143 0.237003 0.020314
O O9 0.500000 0.663848 0.235293
O O10 0.757796 0.500000 0.237950
O O11 0.760556 0.743156 0.162757
O O12 0.500000 0.659408 0.793133
O O13 0.237680 0.500000 0.786892
O O14 0.238468 0.763193 0.732966
O O15 0.262298 0.500000 0.515135
O O16 0.262779 0.743151 0.590753
O O17 0.000000 0.657898 0.522531
O O18 0.000000 0.844886 0.650508
O O19 0.264697 0.000000 0.654478
O O20 0.500000 0.844900 0.102493
O O21 0.235587 0.000000 0.098629
#
# Coordination Sequence:
#
# PCOD9337574 Si02
#       7
#     4   4   4   4   4   4   4
#     4  10  20  34  54  81 112 144 179 221 269 320
#     4  10  21  37  57  80 107 141 180 221 266 317
#     4   9  17  31  53  79 107 141 180 222 268 317
#     4  10  21  37  58  83 109 139 177 220 266 317
#     4  10  21  37  57  80 107 142 183 224 267 317
#     4  10  21  37  57  80 107 141 179 219 267 321
#     4  10  20  34  54  80 109 141 178 221 269 320
#
# _framework density 20.048072999999999
#
# number of rings (size 3 to 8) (size 9 to 14) (size 15 to 20)
#    0.000    2.143    0.000    3.000    0.000    8.000 
#    0.000    0.714    0.000    4.286    0.000    0.000 
#    0.000    0.000    0.000    0.000    0.000    0.000 
#
# Total GULP energy -156426.270379 kJ/mol
# GULP energy per Si atom -5586.652514 kJ/mol
# Density = 2.000244 g / cm^3
# Si number density = 20.048073 Si / 1000 Ang^3
#
#
#
# Elastic Constant Matrix: (Units=GPa)
#
#
# Indices 1 2 3 4 5 6 
#
# 1 12.7855 12.4363 2.1050 0.0000 0.0000 0.0000
# 2 12.4363 206.7880 143.0131 0.0000 0.0000 0.0000
# 3 2.1050 143.0131 202.9488 0.0000 0.0000 0.0000
# 4 0.0000 0.0000 0.0000 13.0200 0.0000 0.0000
# 5 0.0000 0.0000 0.0000 0.0000 36.9322 0.0000
# 6 0.0000 0.0000 0.0000 0.0000 0.0000 18.9956
#
#
#
# Elastic Compliance Matrix: (Units=1/GPa)
#
#
# Indices 1 2 3 4 5 6 
#
# 1 0.085970 -0.008882 0.005368 0.000000 0.000000 0.000000
# 2 -0.008882 0.010351 -0.007202 0.000000 0.000000 0.000000
# 3 0.005368 -0.007202 0.009947 0.000000 0.000000 0.000000
# 4 0.000000 0.000000 0.000000 0.076805 0.000000 0.000000
# 5 0.000000 0.000000 0.000000 0.000000 0.027077 0.000000
# 6 0.000000 0.000000 0.000000 0.000000 0.000000 0.052644
#
#
# Mechanical properties :
#
#
# Convention : Reuss Voigt Hill
#
# Bulk Modulus (GPa) = 11.78774 81.95900 46.87337
# Shear Modulus (GPa) = 15.99978 31.45407 23.72692
#
# Velocity S-wave (km/s) = 2.82808 3.96527 3.44394
# Velocity P-wave (km/s) = 4.06897 7.86985 6.26462
#
# Compressibility (1/GPa) = 0.08483388
#
# Stress axis : x y z
#
# Youngs Moduli (GPa) = 11.63198 96.61098 100.53660
#
# Poissons Ratio (x) = 0.85814 -0.53963
# Poissons Ratio (y) = 0.10332 0.72405
# Poissons Ratio (z) = -0.06243 0.69577
#
# Static dielectric constant tensor:
#      x y z
#    x 1.722600 0.000000 0.000000 
#    y 0.000000 1.702370 0.000000 
#    z 0.000000 0.000000 1.662560 
# 
# From -- ./inp_files/6028.got.cif
#   From: 2010.05.17/outbox.cif.g08.bks.cpg/sg25_4_cif.got.tgz:6028.got - 2010.06.04 01:04:00.
