data_PCOD9337077
_publ_section_title
;
Structure prediction by ZEFSAII (Michael W. Deem and Ramdas Pophale) SiO2 
 PCOD9337077
Probable space group: I 21 21 21
;
_chemical_formula_sum "Si O2"
_cell_formula_units_Z 30
_cell_length_a 9.000000
_cell_length_b 18.000000
_cell_length_c 18.000000
_cell_angle_alpha 90.000000
_cell_angle_beta 90.000000
_cell_angle_gamma 90.000000
_cell_volume 2916.000000
_symmetry_space_group_name_H-M "I 21 21 21"
_symmetry_group_IT_number 24
_symmetry_cell_setting 'orthorhombic'
loop_
_space_group_symop_operation_xyz
x,y,z
-x,1/2-y,z
x,-y,1/2-z
1/2-x,y,-z
1/2+x,1/2+y,1/2+z
1/2-x,-y,1/2+z
1/2+x,1/2-y,-z
-x,1/2+y,1/2-z
loop_
_atom_site_type_symbol
_atom_site_label
_atom_site_fract_x
_atom_site_fract_y
_atom_site_fract_z
Si Si1 0.750000 0.703841 0.000000
Si Si2 0.525046 0.959219 0.117440
Si Si3 0.800288 0.959744 0.414943
Si Si4 0.655757 0.790943 0.576197
Si Si5 0.825011 0.268641 0.231808
Si Si6 0.851310 0.797059 0.861376
Si Si7 0.552798 0.430139 0.545360
Si Si8 0.269435 0.932847 0.801103
O O1 0.772199 0.754813 0.928845
O O2 0.605214 0.651822 0.983922
O O3 0.609210 0.880121 0.115031
O O4 0.402499 0.949315 0.180404
O O5 0.650693 0.021186 0.130112
O O6 0.449137 0.971540 0.035534
O O7 0.750000 0.953605 0.500000
O O8 0.865699 0.877800 0.398579
O O9 0.906592 0.032375 0.417326
O O10 0.500000 0.750000 0.561481
O O11 0.750000 0.788654 0.500000
O O12 0.725171 0.747239 0.647018
O O13 0.746745 0.211730 0.288147
O O14 0.794513 0.352410 0.262515
O O15 0.000000 0.250000 0.233228
O O16 0.000000 0.750000 0.846866
O O17 0.660527 0.435944 0.616481
O O18 0.328013 0.000000 0.750000
#
# Coordination Sequence:
#
# PCOD9337077 Si02
#       8
#     4   8   8   8   8   8   8   8
#     4  12  22  36  66 102 140 184 228 268 332 430
#     4  11  23  44  65 101 137 182 223 279 340 424
#     4   9  23  42  68 100 132 169 234 289 345 412
#     4  10  24  52  73 102 130 178 244 302 361 416
#     4  11  26  45  65  99 139 176 227 293 346 407
#     4  12  23  39  66  99 145 179 227 267 338 423
#     4  11  20  43  65  94 136 177 225 276 339 410
#     4  12  26  44  64  98 134 177 232 274 350 421
#
# _framework density 10.288066000000001
#
# number of rings (size 3 to 8) (size 9 to 14) (size 15 to 20)
#    0.000    1.067    5.333    0.000    8.400    2.133 
#    8.400    0.667    0.000    0.000    0.000    0.000 
#    0.000    0.000    0.000    0.000    0.000    0.000 
#
# Total GULP energy -167162.585986 kJ/mol
# GULP energy per Si atom -5572.086200 kJ/mol
# Density = 1.026465 g / cm^3
# Si number density = 10.288066 Si / 1000 Ang^3
#
#
#
# Elastic Constant Matrix: (Units=GPa)
#
#
# Indices 1 2 3 4 5 6 
#
# 1 66.8103 37.2240 41.3383 0.0000 0.0000 0.0000
# 2 37.2240 94.0966 26.3640 0.0000 0.0000 0.0000
# 3 41.3383 26.3640 121.1150 0.0000 0.0000 0.0000
# 4 0.0000 0.0000 0.0000 28.9410 0.0000 0.0000
# 5 0.0000 0.0000 0.0000 0.0000 28.5393 0.0000
# 6 0.0000 0.0000 0.0000 0.0000 0.0000 35.3198
#
#
#
# Elastic Compliance Matrix: (Units=1/GPa)
#
#
# Indices 1 2 3 4 5 6 
#
# 1 0.022892 -0.007313 -0.006221 0.000000 0.000000 0.000000
# 2 -0.007313 0.013654 -0.000476 0.000000 0.000000 0.000000
# 3 -0.006221 -0.000476 0.010484 0.000000 0.000000 0.000000
# 4 0.000000 0.000000 0.000000 0.034553 0.000000 0.000000
# 5 0.000000 0.000000 0.000000 0.000000 0.035039 0.000000
# 6 0.000000 0.000000 0.000000 0.000000 0.000000 0.028313
#
#
# Mechanical properties :
#
#
# Convention : Reuss Voigt Hill
#
# Bulk Modulus (GPa) = 52.60823 54.65272 53.63048
# Shear Modulus (GPa) = 27.88768 30.36638 29.12703
#
# Velocity S-wave (km/s) = 3.68549 3.84579 3.76649
# Velocity P-wave (km/s) = 6.61313 6.80728 6.71091
#
# Compressibility (1/GPa) = 0.01900843
#
# Stress axis : x y z
#
# Youngs Moduli (GPa) = 43.68431 73.24066 95.38593
#
# Poissons Ratio (x) = 0.53558 0.59344
# Poissons Ratio (y) = 0.31945 0.04542
# Poissons Ratio (z) = 0.27178 0.03488
#
# Static dielectric constant tensor:
#      x y z
#    x 1.784040 0.000000 0.000000 
#    y 0.000000 1.743100 0.000000 
#    z 0.000000 0.000000 1.746260 
# 
# From -- ./inp_files/29699.got.cif
#   From: 2010.05.17/outbox.ucp.g08.bks.cvg/sg24_15_cif.got.tgz:29699.got - 2010.06.11 15:20:44.
