data_PCOD9337332
_publ_section_title
;
Structure prediction by ZEFSAII (Michael W. Deem and Ramdas Pophale) SiO2 
 PCOD9337332
Probable space group: P M M 2
;
_chemical_formula_sum "Si O2"
_cell_formula_units_Z 28
_cell_length_a 20.281969
_cell_length_b 8.026059
_cell_length_c 8.239851
_cell_angle_alpha 90.000000
_cell_angle_beta 90.000000
_cell_angle_gamma 90.000000
_cell_volume 1341.318211
_symmetry_space_group_name_H-M "P M M 2"
_symmetry_group_IT_number 25
_symmetry_cell_setting 'orthorhombic'
loop_
_space_group_symop_operation_xyz
x,y,z
-x,-y,z
-x,y,z
x,-y,z
loop_
_atom_site_type_symbol
_atom_site_label
_atom_site_fract_x
_atom_site_fract_y
_atom_site_fract_z
Si Si1 0.788524 0.203276 0.332590
Si Si2 0.344841 0.798952 0.839689
Si Si3 0.574726 0.301334 0.519566
Si Si4 0.348272 0.201297 0.194700
Si Si5 0.928147 0.697398 0.846898
Si Si6 0.209097 0.799476 0.701598
Si Si7 0.071537 0.196283 0.215198
O O1 0.727393 0.257545 0.223140
O O2 0.773877 0.248053 0.517840
O O3 0.860940 0.267532 0.286483
O O4 0.790702 0.000000 0.321751
O O5 0.386151 0.752705 0.680769
O O6 0.269125 0.741058 0.814198
O O7 0.343359 0.000000 0.843873
O O8 0.370630 0.741108 0.015736
O O9 0.500000 0.234324 0.523156
O O10 0.572213 0.500000 0.522702
O O11 0.609940 0.251918 0.351486
O O12 0.348285 0.000000 0.193772
O O13 0.928353 0.500000 0.876694
O O14 0.863595 0.739742 0.745989
O O15 0.000000 0.742598 0.773522
O O16 0.923731 0.785990 0.021099
O O17 0.207369 0.000000 0.710430
O O18 0.000000 0.268343 0.264569
O O19 0.070260 0.000000 0.256388
#
# Coordination Sequence:
#
# PCOD9337332 Si02
#       7
#     4   4   4   4   4   4   4
#     4   9  17  32  56  84 112 142 184 239 290 339
#     4  10  21  39  66  95 121 154 198 249 301 351
#     4  11  25  43  62  88 125 163 197 238 289 352
#     4  10  20  38  64  91 120 155 198 247 296 347
#     4  10  21  35  49  71 108 151 193 238 288 343
#     4  10  19  34  58  84 111 145 188 240 293 346
#     4   9  17  31  52  77 105 141 188 239 289 342
#
# _framework density 20.874987999999998
#
# number of rings (size 3 to 8) (size 9 to 14) (size 15 to 20)
#    0.000    2.143    1.429    1.714    0.000    6.571 
#    0.000    7.143    0.000    1.714    0.000    0.000 
#    0.000    0.000    0.000    0.000    0.000    0.000 
#
# Total GULP energy -156228.877082 kJ/mol
# GULP energy per Si atom -5579.602753 kJ/mol
# Density = 2.082748 g / cm^3
# Si number density = 20.874988 Si / 1000 Ang^3
#
#
#
# Elastic Constant Matrix: (Units=GPa)
#
#
# Indices 1 2 3 4 5 6 
#
# 1 145.0246 11.9559 77.3873 0.0000 0.0000 0.0000
# 2 11.9559 19.7744 14.0805 0.0000 0.0000 0.0000
# 3 77.3873 14.0805 139.2332 0.0000 0.0000 0.0000
# 4 0.0000 0.0000 0.0000 -13.0926 0.0000 0.0000
# 5 0.0000 0.0000 0.0000 0.0000 15.7184 0.0000
# 6 0.0000 0.0000 0.0000 0.0000 0.0000 30.5914
#
#
#
# Elastic Compliance Matrix: (Units=1/GPa)
#
#
# Indices 1 2 3 4 5 6 
#
# 1 0.009893 -0.002226 -0.005273 0.000000 0.000000 0.000000
# 2 -0.002226 0.054996 -0.004324 0.000000 0.000000 0.000000
# 3 -0.005273 -0.004324 0.010551 0.000000 0.000000 0.000000
# 4 0.000000 0.000000 0.000000 -0.076379 0.000000 0.000000
# 5 0.000000 0.000000 0.000000 0.000000 0.063620 0.000000
# 6 0.000000 0.000000 0.000000 0.000000 0.000000 0.032689
#
#
# Mechanical properties :
#
#
# Convention : Reuss Voigt Hill
#
# Bulk Modulus (GPa) = 19.30836 56.76439 38.03637
# Shear Modulus (GPa) = 36.68903 20.01734 28.35319
#
# Velocity S-wave (km/s) = 4.19687 3.09999 3.68943
# Velocity P-wave (km/s) = 5.72316 6.32968 6.03405
#
# Compressibility (1/GPa) = 0.05179104
#
# Stress axis : x y z
#
# Youngs Moduli (GPa) = 101.08245 18.18326 94.78201
#
# Poissons Ratio (x) = 0.04048 0.49983
# Poissons Ratio (y) = 0.22505 0.40985
# Poissons Ratio (z) = 0.53305 0.07863
#
# Static dielectric constant tensor:
#      x y z
#    x 1.781570 0.000000 0.000000 
#    y 0.000000 1.752720 0.000000 
#    z 0.000000 0.000000 1.737670 
# 
# From -- ./inp_files/3555.got.cif
#   From: 2010.05.17/outbox.cif.g08.bks.cpg/sg25_2_cif.got.tgz:3555.got - 2010.06.04 01:04:00.
