data_PCOD9337505
_publ_section_title
;
Structure prediction by ZEFSAII (Michael W. Deem and Ramdas Pophale) SiO2 
 PCOD9337505
Probable space group: P M M 2
;
_chemical_formula_sum "Si O2"
_cell_formula_units_Z 32
_cell_length_a 9.748150
_cell_length_b 7.816606
_cell_length_c 21.546533
_cell_angle_alpha 90.000000
_cell_angle_beta 90.000000
_cell_angle_gamma 90.000000
_cell_volume 1641.790823
_symmetry_space_group_name_H-M "P M M 2"
_symmetry_group_IT_number 25
_symmetry_cell_setting 'orthorhombic'
loop_
_space_group_symop_operation_xyz
x,y,z
-x,-y,z
-x,y,z
x,-y,z
loop_
_atom_site_type_symbol
_atom_site_label
_atom_site_fract_x
_atom_site_fract_y
_atom_site_fract_z
Si Si1 0.343176 0.205966 0.609370
Si Si2 0.656658 0.706157 0.746737
Si Si3 0.159765 0.705590 0.363166
Si Si4 0.156625 0.203610 0.998182
Si Si5 0.843506 0.795558 0.497432
Si Si6 0.159896 0.709362 0.226861
Si Si7 0.344550 0.295768 0.113254
Si Si8 0.843787 0.293743 0.859076
O O1 0.500000 0.270556 0.604743
O O2 0.290406 0.248717 0.678198
O O3 0.248667 0.271560 0.553646
O O4 0.348218 0.000000 0.604627
O O5 0.500000 0.770105 0.751265
O O6 0.652697 0.500000 0.750632
O O7 0.748357 0.770113 0.803555
O O8 0.162853 0.500000 0.363421
O O9 0.218449 0.763529 0.428990
O O10 0.211643 0.762050 0.295545
O O11 0.000000 0.760875 0.364115
O O12 0.202706 0.248487 0.928478
O O13 0.000000 0.271535 0.006525
O O14 0.150254 0.000000 0.003222
O O15 0.259646 0.267054 0.050499
O O16 0.000000 0.726756 0.499432
O O17 0.852415 0.000000 0.504620
O O18 0.159195 0.500000 0.226022
O O19 0.255522 0.771382 0.171253
O O20 0.000000 0.760752 0.219055
O O21 0.500000 0.227748 0.110441
O O22 0.354113 0.500000 0.121966
O O23 0.846864 0.500000 0.855289
O O24 0.000000 0.230293 0.852376
#
# Coordination Sequence:
#
# PCOD9337505 Si02
#       8
#     4   4   4   4   4   4   4   4
#     4   9  18  32  47  63  88 123 157 186 223 276
#     4   9  18  32  49  69  93 120 152 191 231 273
#     4   8  14  26  45  68  92 119 153 192 233 277
#     4  10  21  36  53  74 100 130 164 201 241 286
#     4   9  17  29  45  66  91 118 151 192 233 272
#     4   8  14  27  48  70  92 122 159 196 235 282
#     4  10  20  33  51  75 101 130 164 201 242 289
#     4   9  18  33  52  73  97 124 154 191 236 284
#
# _framework density 19.490911000000001
#
# number of rings (size 3 to 8) (size 9 to 14) (size 15 to 20)
#    0.000    3.000    0.000    1.500    0.000    3.500 
#    0.000    2.500    0.000    3.000    0.000    0.000 
#    0.000    0.000    0.000    0.000    0.000    0.000 
#
# Total GULP energy -178348.618071 kJ/mol
# GULP energy per Si atom -5573.394315 kJ/mol
# Density = 1.944655 g / cm^3
# Si number density = 19.490911 Si / 1000 Ang^3
#
#
#
# Elastic Constant Matrix: (Units=GPa)
#
#
# Indices 1 2 3 4 5 6 
#
# 1 85.4451 5.9230 106.9222 0.0000 0.0000 0.0000
# 2 5.9230 19.7197 1.3525 0.0000 0.0000 0.0000
# 3 106.9222 1.3525 221.7867 0.0000 0.0000 0.0000
# 4 0.0000 0.0000 0.0000 41.6176 0.0000 0.0000
# 5 0.0000 0.0000 0.0000 0.0000 -293.5673 0.0000
# 6 0.0000 0.0000 0.0000 0.0000 0.0000 2.4527
#
#
#
# Elastic Compliance Matrix: (Units=1/GPa)
#
#
# Indices 1 2 3 4 5 6 
#
# 1 0.030780 -0.008231 -0.014789 0.000000 0.000000 0.000000
# 2 -0.008231 0.052933 0.003645 0.000000 0.000000 0.000000
# 3 -0.014789 0.003645 0.011616 0.000000 0.000000 0.000000
# 4 0.000000 0.000000 0.000000 0.024028 0.000000 0.000000
# 5 0.000000 0.000000 0.000000 0.000000 -0.003406 0.000000
# 6 0.000000 0.000000 0.000000 0.000000 0.000000 0.407714
#
#
# Mechanical properties :
#
#
# Convention : Reuss Voigt Hill
#
# Bulk Modulus (GPa) = 17.67392 61.70521 39.68957
# Shear Modulus (GPa) = 8.60181 -35.71580 -13.55700
#
# Velocity S-wave (km/s) = 2.10305 -4.28534 -2.64020
# Velocity P-wave (km/s) = 3.87099 2.69104 3.33364
#
# Compressibility (1/GPa) = 0.05658055
#
# Stress axis : x y z
#
# Youngs Moduli (GPa) = 32.48894 18.89187 86.08745
#
# Poissons Ratio (x) = 0.15549 1.27311
# Poissons Ratio (y) = 0.26741 -0.31380
# Poissons Ratio (z) = 0.48046 -0.06886
#
# Static dielectric constant tensor:
#      x y z
#    x 1.712150 0.000000 0.000000 
#    y 0.000000 1.705250 0.000000 
#    z 0.000000 0.000000 1.686240 
# 
# From -- ./inp_files/6580.got.cif
#   From: 2010.05.17/outbox.cif.g08.bks.cpg/sg25_4_cif.got.tgz:6580.got - 2010.06.04 01:04:00.
