data_PCOD9337752
_publ_section_title
;
Structure prediction by ZEFSAII (Michael W. Deem and Ramdas Pophale) SiO2 
 PCOD9337752
Probable space group: P M M 2
;
_chemical_formula_sum "Si O2"
_cell_formula_units_Z 32
_cell_length_a 7.787175
_cell_length_b 15.876430
_cell_length_c 12.293654
_cell_angle_alpha 90.000000
_cell_angle_beta 90.000000
_cell_angle_gamma 90.000000
_cell_volume 1519.895655
_symmetry_space_group_name_H-M "P M M 2"
_symmetry_group_IT_number 25
_symmetry_cell_setting 'orthorhombic'
loop_
_space_group_symop_operation_xyz
x,y,z
-x,-y,z
-x,y,z
x,-y,z
loop_
_atom_site_type_symbol
_atom_site_label
_atom_site_fract_x
_atom_site_fract_y
_atom_site_fract_z
Si Si1 0.289941 0.593618 0.304290
Si Si2 0.796619 0.829827 0.081005
Si Si3 0.298563 0.757039 0.698908
Si Si4 0.792371 0.905150 0.311258
Si Si5 0.199426 0.592428 0.825843
Si Si6 0.291855 0.094094 0.852031
Si Si7 0.705281 0.254098 0.455495
Si Si8 0.301626 0.361682 0.063729
O O1 0.500000 0.597588 0.301482
O O2 0.241997 0.500000 0.341987
O O3 0.227747 0.669285 0.380814
O O4 0.232745 0.606927 0.179630
O O5 0.736655 0.875529 0.190830
O O6 0.708395 0.739572 0.066390
O O7 0.000000 0.813829 0.091425
O O8 0.765442 0.884750 0.974122
O O9 0.500000 0.776648 0.684932
O O10 0.284922 0.670591 0.765617
O O11 0.225885 0.833312 0.771224
O O12 0.224451 0.747338 0.578059
O O13 0.736329 0.834382 0.396135
O O14 0.000000 0.906707 0.310763
O O15 0.731741 0.000000 0.334673
O O16 0.271412 0.500000 0.799048
O O17 0.000000 0.594002 0.794776
O O18 0.211457 0.606030 0.955458
O O19 0.500000 0.096706 0.852169
O O20 0.237896 0.000000 0.820605
O O21 0.500000 0.267269 0.462022
O O22 0.500000 0.388133 0.054958
#
# Coordination Sequence:
#
# PCOD9337752 Si02
#       8
#     4   4   4   4   4   4   4   4
#     4   9  18  33  55  84 116 147 182 230 285 339
#     4  11  21  35  58  86 117 151 190 237 290 350
#     4  10  22  39  60  85 115 154 196 241 290 337
#     4  10  22  39  58  83 118 156 191 232 286 347
#     4  11  24  40  59  86 120 155 192 236 286 344
#     4  10  21  37  57  83 115 150 191 239 290 346
#     4  10  21  38  60  86 114 148 196 245 285 331
#     4  11  20  34  59  87 117 151 189 235 291 349
#
# _framework density 21.054078000000001
#
# number of rings (size 3 to 8) (size 9 to 14) (size 15 to 20)
#    0.000    1.750    2.500    1.875    0.000    4.500 
#    0.000    2.500    0.000    1.125    0.000    0.000 
#    0.000    0.000    0.000    0.000    0.000    0.000 
#
# Total GULP energy -178819.502299 kJ/mol
# GULP energy per Si atom -5588.109447 kJ/mol
# Density = 2.100616 g / cm^3
# Si number density = 21.054078 Si / 1000 Ang^3
#
#
#
# Elastic Constant Matrix: (Units=GPa)
#
#
# Indices 1 2 3 4 5 6 
#
# 1 28.0337 -11.8622 -4.1978 0.0000 0.0000 0.0000
# 2 -11.8622 156.8107 67.3739 0.0000 0.0000 0.0000
# 3 -4.1978 67.3739 148.6932 0.0000 0.0000 0.0000
# 4 0.0000 0.0000 0.0000 -2.6602 0.0000 0.0000
# 5 0.0000 0.0000 0.0000 0.0000 -121.2905 0.0000
# 6 0.0000 0.0000 0.0000 0.0000 0.0000 11.1398
#
#
#
# Elastic Compliance Matrix: (Units=1/GPa)
#
#
# Indices 1 2 3 4 5 6 
#
# 1 0.036860 0.002907 -0.000277 0.000000 0.000000 0.000000
# 2 0.002907 0.008148 -0.003610 0.000000 0.000000 0.000000
# 3 -0.000277 -0.003610 0.008353 0.000000 0.000000 0.000000
# 4 0.000000 0.000000 0.000000 -0.375911 0.000000 0.000000
# 5 0.000000 0.000000 0.000000 0.000000 -0.008245 0.000000
# 6 0.000000 0.000000 0.000000 0.000000 0.000000 0.089768
#
#
# Mechanical properties :
#
#
# Convention : Reuss Voigt Hill
#
# Bulk Modulus (GPa) = 19.45431 48.46284 33.95857
# Shear Modulus (GPa) = -22.52925 -3.74728 -13.13826
#
# Velocity S-wave (km/s) = -3.27473 -1.33555 -2.50076
# Velocity P-wave (km/s) = 2.24461 4.54862 2.79747
#
# Compressibility (1/GPa) = 0.05140250
#
# Stress axis : x y z
#
# Youngs Moduli (GPa) = 27.12966 122.72926 119.71608
#
# Poissons Ratio (x) = -0.35680 0.03312
# Poissons Ratio (y) = -0.07887 0.43216
# Poissons Ratio (z) = 0.00751 0.44303
#
# Static dielectric constant tensor:
#      x y z
#    x 1.779390 0.000000 0.000000 
#    y 0.000000 1.742250 0.000000 
#    z 0.000000 0.000000 1.730690 
# 
# From -- ./inp_files/4217.got.cif
#   From: 2010.05.17/outbox.cif.g08.bks.cpg/sg25_3_cif.got.tgz:4217.got - 2010.06.04 01:04:00.
