data_PCOD9337353
_publ_section_title
;
Structure prediction by ZEFSAII (Michael W. Deem and Ramdas Pophale) SiO2 
 PCOD9337353
Probable space group: P M M 2
;
_chemical_formula_sum "Si O2"
_cell_formula_units_Z 28
_cell_length_a 19.772992
_cell_length_b 13.653211
_cell_length_c 5.221036
_cell_angle_alpha 90.000000
_cell_angle_beta 90.000000
_cell_angle_gamma 90.000000
_cell_volume 1409.496106
_symmetry_space_group_name_H-M "P M M 2"
_symmetry_group_IT_number 25
_symmetry_cell_setting 'orthorhombic'
loop_
_space_group_symop_operation_xyz
x,y,z
-x,-y,z
-x,y,z
x,-y,z
loop_
_atom_site_type_symbol
_atom_site_label
_atom_site_fract_x
_atom_site_fract_y
_atom_site_fract_z
Si Si1 0.420639 0.292906 0.537550
Si Si2 0.329359 0.110986 0.595946
Si Si3 0.920607 0.614521 0.100927
Si Si4 0.818532 0.888691 0.330136
Si Si5 0.749250 0.240067 0.944547
Si Si6 0.642371 0.384981 0.054548
Si Si7 0.861400 0.287752 0.600968
O O1 0.500000 0.278950 0.577907
O O2 0.383148 0.188751 0.492552
O O3 0.406406 0.358901 0.289454
O O4 0.388153 0.344109 0.787918
O O5 0.258076 0.108458 0.443703
O O6 0.354268 0.000000 0.616558
O O7 0.305354 0.158414 0.863940
O O8 0.906362 0.500000 0.053893
O O9 0.879286 0.650963 0.348444
O O10 0.000000 0.625566 0.160709
O O11 0.903777 0.673296 0.841405
O O12 0.807918 0.820567 0.083511
O O13 0.866523 0.826568 0.518015
O O14 0.839604 0.000000 0.282507
O O15 0.711330 0.323680 0.100254
O O16 0.783672 0.292340 0.700161
O O17 0.654227 0.500000 0.037053
#
# Coordination Sequence:
#
# PCOD9337353 Si02
#       7
#     4   4   4   4   4   4   4
#     4  11  23  40  59  82 114 154 207 254 300 369
#     4   9  19  35  59  88 119 153 194 247 310 366
#     4  11  24  43  66  92 127 172 212 249 299 357
#     4  10  19  37  65  93 124 161 200 248 311 377
#     4  10  20  38  61  94 126 159 197 255 315 368
#     4  11  24  40  59  83 117 157 200 252 311 364
#     4  11  22  40  63  98 128 159 206 257 301 364
#
# _framework density 19.865258000000001
#
# number of rings (size 3 to 8) (size 9 to 14) (size 15 to 20)
#    0.000    1.571    2.857    2.143    0.000    4.857 
#    0.000    0.000    0.000    4.286    0.000    0.000 
#    0.000    0.000    0.000    0.000    0.000    0.000 
#
# Total GULP energy -156148.474605 kJ/mol
# GULP energy per Si atom -5576.731236 kJ/mol
# Density = 1.982004 g / cm^3
# Si number density = 19.865258 Si / 1000 Ang^3
#
#
#
# Elastic Constant Matrix: (Units=GPa)
#
#
# Indices 1 2 3 4 5 6 
#
# 1 40.0841 47.2614 23.9784 0.0000 0.0000 0.0000
# 2 47.2614 165.7621 55.1162 0.0000 0.0000 0.0000
# 3 23.9784 55.1162 107.9090 0.0000 0.0000 0.0000
# 4 0.0000 0.0000 0.0000 22.7730 0.0000 0.0000
# 5 0.0000 0.0000 0.0000 0.0000 25.6142 0.0000
# 6 0.0000 0.0000 0.0000 0.0000 0.0000 83.1349
#
#
#
# Elastic Compliance Matrix: (Units=1/GPa)
#
#
# Indices 1 2 3 4 5 6 
#
# 1 0.038690 -0.009844 -0.003569 0.000000 0.000000 0.000000
# 2 -0.009844 0.009772 -0.002804 0.000000 0.000000 0.000000
# 3 -0.003569 -0.002804 0.011492 0.000000 0.000000 0.000000
# 4 0.000000 0.000000 0.000000 0.043912 0.000000 0.000000
# 5 0.000000 0.000000 0.000000 0.000000 0.039041 0.000000
# 6 0.000000 0.000000 0.000000 0.000000 0.000000 0.012029
#
#
# Mechanical properties :
#
#
# Convention : Reuss Voigt Hill
#
# Bulk Modulus (GPa) = 36.33781 62.94080 49.63930
# Shear Modulus (GPa) = 25.43994 38.79771 32.11882
#
# Velocity S-wave (km/s) = 3.58246 4.42412 4.02535
# Velocity P-wave (km/s) = 5.95348 7.60590 6.82985
#
# Compressibility (1/GPa) = 0.02751955
#
# Stress axis : x y z
#
# Youngs Moduli (GPa) = 25.84680 102.33646 87.01630
#
# Poissons Ratio (x) = 1.00743 0.31056
# Poissons Ratio (y) = 0.25444 0.24395
# Poissons Ratio (z) = 0.09225 0.28691
#
# Static dielectric constant tensor:
#      x y z
#    x 1.698380 0.000000 0.000000 
#    y 0.000000 1.697580 0.000000 
#    z 0.000000 0.000000 1.772770 
# 
# From -- ./inp_files/1227.got.cif
#   From: 2010.05.17/outbox.cif.g08.bks.cpg/sg25_1_cif.got.tgz:1227.got - 2010.06.04 01:04:00.
