data_PCOD9337367
_publ_section_title
;
Structure prediction by ZEFSAII (Michael W. Deem and Ramdas Pophale) SiO2 
 PCOD9337367
Probable space group: P M M 2
;
_chemical_formula_sum "Si O2"
_cell_formula_units_Z 32
_cell_length_a 7.476448
_cell_length_b 9.897644
_cell_length_c 21.512590
_cell_angle_alpha 90.000000
_cell_angle_beta 90.000000
_cell_angle_gamma 90.000000
_cell_volume 1591.914895
_symmetry_space_group_name_H-M "P M M 2"
_symmetry_group_IT_number 25
_symmetry_cell_setting 'orthorhombic'
loop_
_space_group_symop_operation_xyz
x,y,z
-x,-y,z
-x,y,z
x,-y,z
loop_
_atom_site_type_symbol
_atom_site_label
_atom_site_fract_x
_atom_site_fract_y
_atom_site_fract_z
Si Si1 0.285525 0.653273 0.688680
Si Si2 0.284708 0.153612 0.299049
Si Si3 0.718102 0.155120 0.439268
Si Si4 0.206411 0.164397 0.937257
Si Si5 0.281915 0.656501 0.550679
Si Si6 0.212148 0.347133 0.184613
Si Si7 0.213916 0.152820 0.803365
Si Si8 0.219588 0.156250 0.073872
O O1 0.500000 0.646158 0.684971
O O2 0.219811 0.500000 0.699315
O O3 0.223798 0.699379 0.620066
O O4 0.244359 0.751321 0.745231
O O5 0.500000 0.148324 0.300521
O O6 0.224475 0.189662 0.369006
O O7 0.235256 0.262463 0.247667
O O8 0.222428 0.000000 0.284353
O O9 0.500000 0.159840 0.439261
O O10 0.781513 0.252074 0.493982
O O11 0.768898 0.000000 0.451133
O O12 0.284808 0.204574 0.870353
O O13 0.000000 0.210929 0.938533
O O14 0.205816 0.000000 0.935855
O O15 0.282295 0.199227 0.004838
O O16 0.500000 0.661358 0.549851
O O17 0.231502 0.500000 0.542598
O O18 0.283969 0.500000 0.187968
O O19 0.282006 0.256352 0.127650
O O20 0.000000 0.357989 0.174199
O O21 0.000000 0.143396 0.811353
O O22 0.280711 0.000000 0.792026
O O23 0.000000 0.155935 0.072750
O O24 0.271938 0.000000 0.085455
#
# Coordination Sequence:
#
# PCOD9337367 Si02
#       8
#     4   4   4   4   4   4   4   4
#     4   9  18  31  45  64  92 123 153 184 218 261
#     4   9  18  32  49  69  92 118 149 184 222 266
#     4   8  14  25  42  65  89 109 136 180 226 262
#     4   7  11  22  41  64  87 110 141 183 225 262
#     4   8  14  25  41  61  85 113 145 180 217 258
#     4  10  20  31  44  67  97 123 148 182 222 263
#     4   9  17  29  46  69  94 117 145 185 228 267
#     4   8  13  24  44  65  84 112 149 185 222 263
#
# _framework density 20.101576999999999
#
# number of rings (size 3 to 8) (size 9 to 14) (size 15 to 20)
#    0.000    3.500    0.000    3.375    0.000    2.500 
#    0.000    3.125    0.000    3.750    0.000    1.750 
#    0.000    0.000    0.000    0.000    0.000    0.000 
#
# Total GULP energy -178300.440273 kJ/mol
# GULP energy per Si atom -5571.888759 kJ/mol
# Density = 2.005583 g / cm^3
# Si number density = 20.101577 Si / 1000 Ang^3
#
#
#
# Elastic Constant Matrix: (Units=GPa)
#
#
# Indices 1 2 3 4 5 6 
#
# 1 55.0880 4.5619 4.6149 0.0000 0.0000 0.0000
# 2 4.5619 119.3984 136.3087 0.0000 0.0000 0.0000
# 3 4.6149 136.3087 235.7566 0.0000 0.0000 0.0000
# 4 0.0000 0.0000 0.0000 -30.2907 0.0000 0.0000
# 5 0.0000 0.0000 0.0000 0.0000 17.2785 0.0000
# 6 0.0000 0.0000 0.0000 0.0000 0.0000 10.2635
#
#
#
# Elastic Compliance Matrix: (Units=1/GPa)
#
#
# Indices 1 2 3 4 5 6 
#
# 1 0.018212 -0.000850 0.000135 0.000000 0.000000 0.000000
# 2 -0.000850 0.024677 -0.014251 0.000000 0.000000 0.000000
# 3 0.000135 -0.014251 0.012479 0.000000 0.000000 0.000000
# 4 0.000000 0.000000 0.000000 -0.033013 0.000000 0.000000
# 5 0.000000 0.000000 0.000000 0.000000 0.057875 0.000000
# 6 0.000000 0.000000 0.000000 0.000000 0.000000 0.097433
#
#
# Mechanical properties :
#
#
# Convention : Reuss Voigt Hill
#
# Bulk Modulus (GPa) = 39.31481 77.91266 58.61373
# Shear Modulus (GPa) = 23.14028 17.10078 20.12053
#
# Velocity S-wave (km/s) = 3.39657 2.91987 3.16720
# Velocity P-wave (km/s) = 5.91462 7.08598 6.52663
#
# Compressibility (1/GPa) = 0.02543571
#
# Stress axis : x y z
#
# Youngs Moduli (GPa) = 54.90931 40.52282 80.13618
#
# Poissons Ratio (x) = 0.03443 -0.01080
# Poissons Ratio (y) = 0.04666 1.14204
# Poissons Ratio (z) = -0.00740 0.57750
#
# Static dielectric constant tensor:
#      x y z
#    x 1.806350 0.000000 0.000000 
#    y 0.000000 1.678100 0.000000 
#    z 0.000000 0.000000 1.729580 
# 
# From -- ./inp_files/6548.got.cif
#   From: 2010.05.17/outbox.cif.g08.bks.cpg/sg25_4_cif.got.tgz:6548.got - 2010.06.04 01:04:00.
