data_PCOD9337161
_publ_section_title
;
Structure prediction by ZEFSAII (Michael W. Deem and Ramdas Pophale) SiO2 
 PCOD9337161
Probable space group: P M M 2
;
_chemical_formula_sum "Si O2"
_cell_formula_units_Z 32
_cell_length_a 7.596556
_cell_length_b 15.278171
_cell_length_c 12.726730
_cell_angle_alpha 90.000000
_cell_angle_beta 90.000000
_cell_angle_gamma 90.000000
_cell_volume 1477.083139
_symmetry_space_group_name_H-M "P M M 2"
_symmetry_group_IT_number 25
_symmetry_cell_setting 'orthorhombic'
loop_
_space_group_symop_operation_xyz
x,y,z
-x,-y,z
-x,y,z
x,-y,z
loop_
_atom_site_type_symbol
_atom_site_label
_atom_site_fract_x
_atom_site_fract_y
_atom_site_fract_z
Si Si1 0.708704 0.217827 0.670710
Si Si2 0.211366 0.403700 0.591863
Si Si3 0.213750 0.346914 0.359814
Si Si4 0.700714 0.158136 0.279516
Si Si5 0.714923 0.905862 0.491160
Si Si6 0.791777 0.900501 0.870036
Si Si7 0.214481 0.594524 0.129997
Si Si8 0.796407 0.218645 0.055336
O O1 0.500000 0.207485 0.669915
O O2 0.745319 0.320967 0.664710
O O3 0.779649 0.172169 0.564509
O O4 0.773082 0.160900 0.768334
O O5 0.275159 0.500000 0.625038
O O6 0.271685 0.384386 0.471873
O O7 0.000000 0.407203 0.587396
O O8 0.294205 0.252373 0.336910
O O9 0.257968 0.399972 0.254138
O O10 0.000000 0.339108 0.362108
O O11 0.500000 0.132042 0.257210
O O12 0.778235 0.098830 0.371384
O O13 0.791906 0.171087 0.168305
O O14 0.500000 0.900586 0.485170
O O15 0.759628 0.000000 0.539002
O O16 0.000000 0.910169 0.889812
O O17 0.721181 0.000000 0.857803
O O18 0.716013 0.844554 0.967642
O O19 0.272447 0.500000 0.087978
O O20 0.279835 0.683723 0.074789
O O21 0.000000 0.596918 0.124798
O O22 0.000000 0.233079 0.025526
#
# Coordination Sequence:
#
# PCOD9337161 Si02
#       8
#     4   4   4   4   4   4   4   4
#     4  11  22  38  59  82 112 147 188 238 287 341
#     4  10  20  34  55  83 115 152 193 234 278 333
#     4   9  16  28  48  74 108 147 185 224 267 320
#     4  10  18  30  50  77 111 146 180 223 276 332
#     4   9  18  32  50  75 108 144 178 219 277 339
#     4  10  22  41  62  82 107 142 188 243 297 347
#     4   8  13  24  46  75 103 134 175 216 258 315
#     4   9  19  35  54  77 106 141 181 230 284 335
#
# _framework density 21.664317
#
# number of rings (size 3 to 8) (size 9 to 14) (size 15 to 20)
#    0.000    2.500    1.250    2.250    0.000    3.500 
#    0.000    0.625    0.000   14.625    0.000    0.000 
#    0.000    0.000    0.000    0.000    0.000    0.000 
#
# Total GULP energy -178437.765756 kJ/mol
# GULP energy per Si atom -5576.180180 kJ/mol
# Density = 2.161501 g / cm^3
# Si number density = 21.664317 Si / 1000 Ang^3
#
#
#
# Elastic Constant Matrix: (Units=GPa)
#
#
# Indices 1 2 3 4 5 6 
#
# 1 45.6941 2.2459 -2.4766 0.0000 0.0000 0.0000
# 2 2.2459 177.3337 81.2745 0.0000 0.0000 0.0000
# 3 -2.4766 81.2745 107.0704 0.0000 0.0000 0.0000
# 4 0.0000 0.0000 0.0000 -3.3422 0.0000 0.0000
# 5 0.0000 0.0000 0.0000 0.0000 -40.8954 0.0000
# 6 0.0000 0.0000 0.0000 0.0000 0.0000 27.2835
#
#
#
# Elastic Compliance Matrix: (Units=1/GPa)
#
#
# Indices 1 2 3 4 5 6 
#
# 1 0.021983 -0.000784 0.001104 0.000000 0.000000 0.000000
# 2 -0.000784 0.008675 -0.006603 0.000000 0.000000 0.000000
# 3 0.001104 -0.006603 0.014378 0.000000 0.000000 0.000000
# 4 0.000000 0.000000 0.000000 -0.299208 0.000000 0.000000
# 5 0.000000 0.000000 0.000000 0.000000 -0.024453 0.000000
# 6 0.000000 0.000000 0.000000 0.000000 0.000000 0.036652
#
#
# Mechanical properties :
#
#
# Convention : Reuss Voigt Hill
#
# Bulk Modulus (GPa) = 30.79925 54.68730 42.74327
# Shear Modulus (GPa) = -22.87480 13.21281 -4.83100
#
# Velocity S-wave (km/s) = -3.25295 2.47227 -1.49492
# Velocity P-wave (km/s) = 0.37222 5.78337 4.09792
#
# Compressibility (1/GPa) = 0.03246833
#
# Stress axis : x y z
#
# Youngs Moduli (GPa) = 45.48962 115.26723 69.55199
#
# Poissons Ratio (x) = 0.09041 -0.07677
# Poissons Ratio (y) = 0.03568 0.45929
# Poissons Ratio (z) = -0.05021 0.76117
#
# Static dielectric constant tensor:
#      x y z
#    x 1.810290 0.000000 0.000000 
#    y 0.000000 1.892760 0.000000 
#    z 0.000000 0.000000 1.775340 
# 
# From -- ./inp_files/4255.got.cif
#   From: 2010.05.17/outbox.cif.g08.bks.cpg/sg25_3_cif.got.tgz:4255.got - 2010.06.04 01:04:00.
