data_PCOD9337402
_publ_section_title
;
Structure prediction by ZEFSAII (Michael W. Deem and Ramdas Pophale) SiO2 
 PCOD9337402
Probable space group: P M M 2
;
_chemical_formula_sum "Si O2"
_cell_formula_units_Z 28
_cell_length_a 7.563865
_cell_length_b 9.743653
_cell_length_c 18.679049
_cell_angle_alpha 90.000000
_cell_angle_beta 90.000000
_cell_angle_gamma 90.000000
_cell_volume 1376.639857
_symmetry_space_group_name_H-M "P M M 2"
_symmetry_group_IT_number 25
_symmetry_cell_setting 'orthorhombic'
loop_
_space_group_symop_operation_xyz
x,y,z
-x,-y,z
-x,y,z
x,-y,z
loop_
_atom_site_type_symbol
_atom_site_label
_atom_site_fract_x
_atom_site_fract_y
_atom_site_fract_z
Si Si1 0.216562 0.659217 0.936620
Si Si2 0.792555 0.846921 0.380835
Si Si3 0.216168 0.657057 0.507825
Si Si4 0.216357 0.157884 0.802233
Si Si5 0.704554 0.655454 0.251452
Si Si6 0.205262 0.333927 0.092842
Si Si7 0.215505 0.657461 0.670031
O O1 0.269374 0.500000 0.925523
O O2 0.271878 0.756262 0.871992
O O3 0.000000 0.658577 0.938676
O O4 0.276984 0.709384 0.015328
O O5 0.717812 0.759013 0.446823
O O6 0.782186 0.760207 0.308092
O O7 0.000000 0.860796 0.396804
O O8 0.717522 0.000000 0.373713
O O9 0.269701 0.500000 0.492854
O O10 0.270004 0.692541 0.588972
O O11 0.000000 0.657396 0.507180
O O12 0.274362 0.238042 0.730965
O O13 0.000000 0.158216 0.802175
O O14 0.273109 0.000000 0.803828
O O15 0.500000 0.644757 0.270048
O O16 0.781773 0.500000 0.255426
O O17 0.716089 0.705100 0.169228
O O18 0.216117 0.500000 0.090095
O O19 0.000000 0.294597 0.096034
O O20 0.268977 0.500000 0.685315
O O21 0.000000 0.658173 0.670734
#
# Coordination Sequence:
#
# PCOD9337402 Si02
#       7
#     4   4   4   4   4   4   4
#     4   8  13  22  36  52  72 103 142 178 212 255
#     4  10  20  32  47  68  93 122 155 189 228 275
#     4   8  14  25  41  60  82 111 148 187 223 261
#     4   9  15  20  28  47  77 110 140 172 212 255
#     4  10  20  33  50  71  93 118 150 189 233 279
#     4   8  14  26  45  66  86 112 148 187 224 264
#     4   8  13  21  33  50  75 109 145 176 210 256
#
# _framework density 20.339379000000001
#
# number of rings (size 3 to 8) (size 9 to 14) (size 15 to 20)
#    0.000    3.286    0.000    3.000    0.000    4.000 
#    0.000    3.571    0.000    2.571    0.000    0.000 
#    0.000    1.143    0.000    8.857    0.000    9.286 
#
# Total GULP energy -156082.778829 kJ/mol
# GULP energy per Si atom -5574.384958 kJ/mol
# Density = 2.029309 g / cm^3
# Si number density = 20.339379 Si / 1000 Ang^3
#
#
#
# Elastic Constant Matrix: (Units=GPa)
#
#
# Indices 1 2 3 4 5 6 
#
# 1 41.3648 4.6578 5.9774 0.0000 0.0000 0.0000
# 2 4.6578 135.2682 128.6107 0.0000 0.0000 0.0000
# 3 5.9774 128.6107 185.1848 0.0000 0.0000 0.0000
# 4 0.0000 0.0000 0.0000 -4.5291 0.0000 0.0000
# 5 0.0000 0.0000 0.0000 0.0000 -34.6125 0.0000
# 6 0.0000 0.0000 0.0000 0.0000 0.0000 -4.1508
#
#
#
# Elastic Compliance Matrix: (Units=1/GPa)
#
#
# Indices 1 2 3 4 5 6 
#
# 1 0.024292 -0.000268 -0.000598 0.000000 0.000000 0.000000
# 2 -0.000268 0.021767 -0.015108 0.000000 0.000000 0.000000
# 3 -0.000598 -0.015108 0.015912 0.000000 0.000000 0.000000
# 4 0.000000 0.000000 0.000000 -0.220796 0.000000 0.000000
# 5 0.000000 0.000000 0.000000 0.000000 -0.028891 0.000000
# 6 0.000000 0.000000 0.000000 0.000000 0.000000 -0.240915
#
#
# Mechanical properties :
#
#
# Convention : Reuss Voigt Hill
#
# Bulk Modulus (GPa) = 33.30886 71.14549 52.22718
# Shear Modulus (GPa) = -12.93071 6.17964 -3.37554
#
# Velocity S-wave (km/s) = -2.52414 1.74495 -1.28965
# Velocity P-wave (km/s) = 2.81373 6.25419 4.84933
#
# Compressibility (1/GPa) = 0.03002204
#
# Stress axis : x y z
#
# Youngs Moduli (GPa) = 41.16625 45.94192 62.84570
#
# Poissons Ratio (x) = 0.01230 0.03759
# Poissons Ratio (y) = 0.01102 0.94949
# Poissons Ratio (z) = 0.02462 0.69410
#
# Static dielectric constant tensor:
#      x y z
#    x 1.753940 0.000000 0.000000 
#    y 0.000000 1.696250 0.000000 
#    z 0.000000 0.000000 1.715840 
# 
# From -- ./inp_files/6408.got.cif
#   From: 2010.05.17/outbox.cif.g08.bks.cpg/sg25_4_cif.got.tgz:6408.got - 2010.06.04 01:04:00.
