data_PCOD9337864
_publ_section_title
;
Structure prediction by ZEFSAII (Michael W. Deem and Ramdas Pophale) SiO2 
 PCOD9337864
Probable space group: P M M 2
;
_chemical_formula_sum "Si O2"
_cell_formula_units_Z 32
_cell_length_a 15.000000
_cell_length_b 9.000000
_cell_length_c 12.000000
_cell_angle_alpha 90.000000
_cell_angle_beta 90.000000
_cell_angle_gamma 90.000000
_cell_volume 1620.000000
_symmetry_space_group_name_H-M "P M M 2"
_symmetry_group_IT_number 25
_symmetry_cell_setting 'orthorhombic'
loop_
_space_group_symop_operation_xyz
x,y,z
-x,-y,z
-x,y,z
x,-y,z
loop_
_atom_site_type_symbol
_atom_site_label
_atom_site_fract_x
_atom_site_fract_y
_atom_site_fract_z
Si Si1 0.604339 0.830316 0.766530
Si Si2 0.651967 0.326856 0.542056
Si Si3 0.902998 0.180281 0.787589
Si Si4 0.599817 0.168847 0.327753
Si Si5 0.100055 0.831688 0.300323
Si Si6 0.254898 0.822198 0.945548
Si Si7 0.162553 0.826514 0.543325
Si Si8 0.254826 0.672408 0.182591
O O1 0.500000 0.831428 0.785167
O O2 0.627162 0.722725 0.665713
O O3 0.656169 0.787802 0.877275
O O4 0.633196 0.000000 0.736567
O O5 0.636888 0.500000 0.523749
O O6 0.599345 0.229379 0.452927
O O7 0.754179 0.280157 0.525060
O O8 0.825838 0.233364 0.868460
O O9 0.883702 0.214864 0.658880
O O10 0.000000 0.234929 0.821032
O O11 0.903180 0.000000 0.793438
O O12 0.500000 0.171068 0.282539
O O13 0.664384 0.269305 0.256781
O O14 0.633409 0.000000 0.327792
O O15 0.102692 0.819278 0.433919
O O16 0.165585 0.714869 0.247584
O O17 0.000000 0.815060 0.259271
O O18 0.131118 0.000000 0.273245
O O19 0.247925 0.000000 0.955327
O O20 0.254058 0.754236 0.065772
O O21 0.192260 0.000000 0.553380
O O22 0.262541 0.500000 0.164988
#
# Coordination Sequence:
#
# PCOD9337864 Si02
#       8
#     4   4   4   4   4   4   4   4
#     4  10  21  39  63  89 117 154 201 248 293 347
#     4  12  23  35  58  92 129 162 192 235 300 368
#     4   9  17  32  59  92 119 147 193 249 295 339
#     4  11  24  43  67  91 117 155 204 254 302 359
#     4  10  21  38  64  94 122 159 207 253 297 355
#     4  10  21  39  61  86 116 156 207 254 293 347
#     4  10  18  34  61  90 122 157 196 243 297 356
#     4  12  26  42  61  88 124 163 200 250 313 370
#
# _framework density 19.753086
#
# number of rings (size 3 to 8) (size 9 to 14) (size 15 to 20)
#    0.000    1.500    2.500    3.375    0.000    6.000 
#    0.000    2.500    0.000    1.875    0.000    0.000 
#    0.000    0.000    0.000    0.000    0.000    0.000 
#
# Total GULP energy -178651.514714 kJ/mol
# GULP energy per Si atom -5582.859835 kJ/mol
# Density = 1.970813 g / cm^3
# Si number density = 19.753086 Si / 1000 Ang^3
#
#
#
# Elastic Constant Matrix: (Units=GPa)
#
#
# Indices 1 2 3 4 5 6 
#
# 1 51.8587 34.7046 6.3280 0.0000 0.0000 0.0000
# 2 34.7046 -23.0683 32.7067 0.0000 0.0000 0.0000
# 3 6.3280 32.7067 81.5405 0.0000 0.0000 0.0000
# 4 0.0000 0.0000 0.0000 -166.2969 0.0000 0.0000
# 5 0.0000 0.0000 0.0000 0.0000 -179.9114 0.0000
# 6 0.0000 0.0000 0.0000 0.0000 0.0000 97.7778
#
#
#
# Elastic Compliance Matrix: (Units=1/GPa)
#
#
# Indices 1 2 3 4 5 6 
#
# 1 0.012506 0.011117 -0.005430 0.000000 0.000000 0.000000
# 2 0.011117 -0.017753 0.006258 0.000000 0.000000 0.000000
# 3 -0.005430 0.006258 0.010175 0.000000 0.000000 0.000000
# 4 0.000000 0.000000 0.000000 -0.006013 0.000000 0.000000
# 5 0.000000 0.000000 0.000000 0.000000 -0.005558 0.000000
# 6 0.000000 0.000000 0.000000 0.000000 0.000000 0.010227
#
#
# Mechanical properties :
#
#
# Convention : Reuss Voigt Hill
#
# Bulk Modulus (GPa) = 34.69934 28.64552 31.67243
# Shear Modulus (GPa) = -467.31360 -47.24666 -257.28013
#
# Velocity S-wave (km/s) = -15.39776 -4.89597 -11.42501
# Velocity P-wave (km/s) = 17.27764 4.17462 12.56870
#
# Compressibility (1/GPa) = 0.02881900
#
# Stress axis : x y z
#
# Youngs Moduli (GPa) = 79.95986 -56.32995 98.27953
#
# Poissons Ratio (x) = 0.62620 0.53362
# Poissons Ratio (y) = -0.88889 -0.61503
# Poissons Ratio (z) = 0.43415 0.35251
#
# Static dielectric constant tensor:
#      x y z
#    x 1.731580 0.000000 0.000000 
#    y 0.000000 1.733850 0.000000 
#    z 0.000000 0.000000 1.666380 
# 
# From -- ./inp_files/4197.got.cif
#   From: 2010.05.17/outbox.ucp.g08.bks.cvg/sg25_3_cif.got.tgz:4197.got - 2010.06.11 15:23:09.
