data_PCOD9337994
_publ_section_title
;
Structure prediction by ZEFSAII (Michael W. Deem and Ramdas Pophale) SiO2 
 PCOD9337994
Probable space group: P M C 21
;
_chemical_formula_sum "Si O2"
_cell_formula_units_Z 28
_cell_length_a 11.417845
_cell_length_b 9.329900
_cell_length_c 11.339157
_cell_angle_alpha 90.000000
_cell_angle_beta 90.000000
_cell_angle_gamma 90.000000
_cell_volume 1207.930370
_symmetry_space_group_name_H-M "P M C 21"
_symmetry_group_IT_number 26
_symmetry_cell_setting 'orthorhombic'
loop_
_space_group_symop_operation_xyz
x,y,z
-x,-y,1/2+z
-x,y,z
x,-y,1/2+z
loop_
_atom_site_type_symbol
_atom_site_label
_atom_site_fract_x
_atom_site_fract_y
_atom_site_fract_z
Si Si1 0.853693 0.409633 0.692630
Si Si2 0.366135 0.795517 0.224041
Si Si3 0.798852 0.156338 0.373592
Si Si4 0.368996 0.863405 0.690287
Si Si5 0.000000 0.060824 0.208944
Si Si6 0.000000 0.849416 0.433246
Si Si7 0.753463 0.835477 0.457946
Si Si8 0.136211 0.539024 0.942006
O O1 0.754669 0.282654 0.684453
O O2 0.828191 0.502418 0.574810
O O3 0.818149 0.490364 0.813907
O O4 0.000000 0.381979 0.691886
O O5 0.500000 0.744734 0.194898
O O6 0.360080 0.962626 0.186988
O O7 0.346126 0.798178 0.364880
O O8 0.673089 0.185566 0.317996
O O9 0.885395 0.137547 0.261342
O O10 0.787978 0.003822 0.438440
O O11 0.845914 0.287824 0.445890
O O12 0.500000 0.820673 0.668682
O O13 0.291357 0.807205 0.585725
O O14 0.000000 0.924899 0.302118
O O15 0.000000 0.066431 0.064651
O O16 0.878944 0.763687 0.434032
O O17 0.000000 0.513758 0.933809
#
# Coordination Sequence:
#
# PCOD9337994 Si02
#       8
#     4   4   4   4   2   2   4   4
#     4  10  23  43  66  91 122 161 212 263 321 372
#     4  10  22  40  60  87 124 167 210 258 307 370
#     4  10  19  34  55  84 117 160 199 246 305 365
#     4  10  20  35  55  83 124 167 206 245 303 372
#     4  10  18  34  52  83 123 158 194 247 300 365
#     4  10  20  32  52  87 127 162 202 245 304 361
#     4  10  20  33  54  88 127 163 199 248 303 372
#     4  10  21  41  63  91 123 161 203 264 320 373
#
# _framework density 23.180143999999999
#
# number of rings (size 3 to 8) (size 9 to 14) (size 15 to 20)
#    0.000    2.000    2.143    1.286    1.000    1.714 
#    2.571    2.143    0.000    0.000    0.000    0.000 
#    0.000    0.000    0.000    0.000    0.000    0.000 
#
# Total GULP energy -155871.568424 kJ/mol
# GULP energy per Si atom -5566.841729 kJ/mol
# Density = 2.312739 g / cm^3
# Si number density = 23.180144 Si / 1000 Ang^3
#
#
#
# Elastic Constant Matrix: (Units=GPa)
#
#
# Indices 1 2 3 4 5 6 
#
# 1 128.3806 20.7613 20.8789 0.0000 0.0000 0.0000
# 2 20.7613 49.2701 21.2759 0.0000 0.0000 0.0000
# 3 20.8789 21.2759 126.6058 0.0000 0.0000 0.0000
# 4 0.0000 0.0000 0.0000 10.2958 0.0000 0.0000
# 5 0.0000 0.0000 0.0000 0.0000 23.5104 0.0000
# 6 0.0000 0.0000 0.0000 0.0000 0.0000 23.1382
#
#
#
# Elastic Compliance Matrix: (Units=1/GPa)
#
#
# Indices 1 2 3 4 5 6 
#
# 1 0.008444 -0.003188 -0.000857 0.000000 0.000000 0.000000
# 2 -0.003188 0.023088 -0.003354 0.000000 0.000000 0.000000
# 3 -0.000857 -0.003354 0.008603 0.000000 0.000000 0.000000
# 4 0.000000 0.000000 0.000000 0.097127 0.000000 0.000000
# 5 0.000000 0.000000 0.000000 0.000000 0.042534 0.000000
# 6 0.000000 0.000000 0.000000 0.000000 0.000000 0.043219
#
#
# Mechanical properties :
#
#
# Convention : Reuss Voigt Hill
#
# Bulk Modulus (GPa) = 39.46712 47.78764 43.62738
# Shear Modulus (GPa) = 20.30377 27.47825 23.89101
#
# Velocity S-wave (km/s) = 2.96279 3.44673 3.21388
# Velocity P-wave (km/s) = 5.36353 6.04156 5.71261
#
# Compressibility (1/GPa) = 0.02533755
#
# Stress axis : x y z
#
# Youngs Moduli (GPa) = 118.42348 43.31224 116.23194
#
# Poissons Ratio (x) = 0.13809 0.09959
# Poissons Ratio (y) = 0.37756 0.38986
# Poissons Ratio (z) = 0.10146 0.14528
#
# Static dielectric constant tensor:
#      x y z
#    x 1.938940 0.000000 0.000000 
#    y 0.000000 1.997210 0.000000 
#    z 0.000000 0.000000 1.910030 
# 
# From -- ./inp_files/3334.got.cif
#   From: 2010.05.17/outbox.cif.g08.bks.cpg/sg26_2_cif.got.tgz:3334.got - 2010.06.04 01:07:29.
