data_PCOD9337639
_publ_section_title
;
Structure prediction by ZEFSAII (Michael W. Deem and Ramdas Pophale) SiO2 
 PCOD9337639
Probable space group: P M M 2
;
_chemical_formula_sum "Si O2"
_cell_formula_units_Z 17
_cell_length_a 7.499571
_cell_length_b 7.895877
_cell_length_c 14.428468
_cell_angle_alpha 90.000000
_cell_angle_beta 90.000000
_cell_angle_gamma 90.000000
_cell_volume 854.391691
_symmetry_space_group_name_H-M "P M M 2"
_symmetry_group_IT_number 25
_symmetry_cell_setting 'orthorhombic'
loop_
_space_group_symop_operation_xyz
x,y,z
-x,-y,z
-x,y,z
x,-y,z
loop_
_atom_site_type_symbol
_atom_site_label
_atom_site_fract_x
_atom_site_fract_y
_atom_site_fract_z
Si Si1 0.283004 0.184295 0.063110
Si Si2 0.297380 0.707932 0.465389
Si Si3 0.000000 0.697050 0.598812
Si Si4 0.000000 0.500000 0.776643
Si Si5 0.284216 0.500000 0.935159
Si Si6 0.717370 0.302956 0.262443
O O1 0.500000 0.187929 0.065858
O O2 0.223645 0.211369 0.169185
O O3 0.226341 0.000000 0.029555
O O4 0.232439 0.336706 0.996204
O O5 0.500000 0.766469 0.476141
O O6 0.305139 0.500000 0.462769
O O7 0.225680 0.759248 0.363810
O O8 0.174710 0.768226 0.549559
O O9 0.000000 0.500000 0.566264
O O10 0.000000 0.664831 0.708472
O O11 0.174128 0.500000 0.840562
O O12 0.500000 0.500000 0.921707
O O13 0.500000 0.296529 0.264925
O O14 0.767280 0.500000 0.252827
#
# Coordination Sequence:
#
# PCOD9337639 Si02
#       6
#     4   4   2   1   2   4
#     4   9  16  28  50  78 107 141 175 207 252 308
#     4   8  13  22  40  65  96 128 157 194 240 292
#     4   8  16  28  41  65  96 118 161 213 247 301
#     4  10  22  34  48  72 100 130 176 228 272 314
#     4  10  20  36  53  73 105 135 170 224 267 302
#     4   8  12  21  40  68 102 136 164 192 236 294
#
# _framework density 19.897196000000001
#
# number of rings (size 3 to 8) (size 9 to 14) (size 15 to 20)
#    0.353    3.059    1.176    1.412    0.000    0.941 
#    0.000    1.765    0.000    0.000    0.000    3.294 
#    0.000    7.529    0.000    0.000    0.000    0.000 
#
# Total GULP energy -94666.031190 kJ/mol
# GULP energy per Si atom -5568.590070 kJ/mol
# Density = 1.985191 g / cm^3
# Si number density = 19.897196 Si / 1000 Ang^3
#
#
#
# Elastic Constant Matrix: (Units=GPa)
#
#
# Indices 1 2 3 4 5 6 
#
# 1 79.0869 15.9765 55.3413 0.0000 0.0000 0.0000
# 2 15.9765 78.7875 50.4199 0.0000 0.0000 0.0000
# 3 55.3413 50.4199 163.8797 0.0000 0.0000 0.0000
# 4 0.0000 0.0000 0.0000 -6.3405 0.0000 0.0000
# 5 0.0000 0.0000 0.0000 0.0000 50.5628 0.0000
# 6 0.0000 0.0000 0.0000 0.0000 0.0000 -5.1806
#
#
#
# Elastic Compliance Matrix: (Units=1/GPa)
#
#
# Indices 1 2 3 4 5 6 
#
# 1 0.016562 0.000275 -0.005677 0.000000 0.000000 0.000000
# 2 0.000275 0.015809 -0.004957 0.000000 0.000000 0.000000
# 3 -0.005677 -0.004957 0.009544 0.000000 0.000000 0.000000
# 4 0.000000 0.000000 0.000000 -0.157717 0.000000 0.000000
# 5 0.000000 0.000000 0.000000 0.000000 0.019777 0.000000
# 6 0.000000 0.000000 0.000000 0.000000 0.000000 -0.193027
#
#
# Mechanical properties :
#
#
# Convention : Reuss Voigt Hill
#
# Bulk Modulus (GPa) = 47.17814 62.80329 54.99071
# Shear Modulus (GPa) = -19.13741 21.14276 1.00267
#
# Velocity S-wave (km/s) = -3.10468 3.26329 0.71065
# Velocity P-wave (km/s) = 3.30309 6.76987 5.32642
#
# Compressibility (1/GPa) = 0.02119626
#
# Stress axis : x y z
#
# Youngs Moduli (GPa) = 60.38099 63.25685 104.77586
#
# Poissons Ratio (x) = -0.01739 0.59484
# Poissons Ratio (y) = -0.01660 0.51933
# Poissons Ratio (z) = 0.34280 0.31354
#
# Static dielectric constant tensor:
#      x y z
#    x 1.754470 0.000000 0.000000 
#    y 0.000000 1.721240 0.000000 
#    z 0.000000 0.000000 1.682140 
# 
# From -- ./inp_files/5106.got.cif
#   From: 2010.05.17/outbox.cif.g08.bks.cpg/sg25_3_cif.got.tgz:5106.got - 2010.06.04 01:04:00.
