data_PCOD9337862
_publ_section_title
;
Structure prediction by ZEFSAII (Michael W. Deem and Ramdas Pophale) SiO2 
 PCOD9337862
Probable space group: P M M 2
;
_chemical_formula_sum "Si O2"
_cell_formula_units_Z 32
_cell_length_a 9.398598
_cell_length_b 9.398917
_cell_length_c 21.358246
_cell_angle_alpha 90.000000
_cell_angle_beta 90.000000
_cell_angle_gamma 90.000000
_cell_volume 1886.715742
_symmetry_space_group_name_H-M "P M M 2"
_symmetry_group_IT_number 25
_symmetry_cell_setting 'orthorhombic'
loop_
_space_group_symop_operation_xyz
x,y,z
-x,-y,z
-x,y,z
x,-y,z
loop_
_atom_site_type_symbol
_atom_site_label
_atom_site_fract_x
_atom_site_fract_y
_atom_site_fract_z
Si Si1 0.836291 0.673281 0.004410
Si Si2 0.669514 0.669505 0.129084
Si Si3 0.169130 0.169121 0.629079
Si Si4 0.330640 0.831289 0.754444
Si Si5 0.329818 0.668329 0.377631
Si Si6 0.331663 0.670175 0.880527
Si Si7 0.326713 0.163704 0.253752
Si Si8 0.831283 0.330647 0.503719
O O1 0.834261 0.500000 0.004114
O O2 0.753130 0.716196 0.067113
O O3 0.000000 0.719284 0.005126
O O4 0.755834 0.718154 0.941270
O O5 0.500000 0.691074 0.119922
O O6 0.691110 0.500000 0.138249
O O7 0.716203 0.753136 0.191050
O O8 0.249924 0.215549 0.691778
O O9 0.215557 0.249926 0.566382
O O10 0.000000 0.192540 0.636858
O O11 0.192565 0.000000 0.621297
O O12 0.500000 0.810941 0.746181
O O13 0.286946 0.747832 0.816829
O O14 0.304616 0.000000 0.762903
O O15 0.500000 0.685815 0.384706
O O16 0.302516 0.500000 0.367638
O O17 0.281840 0.755836 0.316892
O O18 0.252170 0.713044 0.441331
O O19 0.500000 0.697461 0.890518
O O20 0.314161 0.500000 0.873449
O O21 0.500000 0.165730 0.254048
O O22 0.280706 0.000000 0.253037
O O23 0.810925 0.500000 0.511983
O O24 0.000000 0.304633 0.495260
#
# Coordination Sequence:
#
# PCOD9337862 Si02
#       8
#     4   4   4   4   4   4   4   4
#     4   9  17  29  46  69  94 118 148 187 226 264
#     4   9  16  28  48  69  88 116 152 185 220 266
#     4   9  18  32  48  65  88 120 154 185 220 266
#     4   9  18  32  48  67  92 120 150 185 224 266
#     4   9  17  30  48  69  92 118 149 185 224 266
#     4   9  17  30  48  69  92 118 149 185 224 266
#     4   9  17  29  46  69  94 118 148 187 226 264
#     4   9  18  32  48  67  92 120 150 185 224 266
#
# _framework density 16.960688999999999
#
# number of rings (size 3 to 8) (size 9 to 14) (size 15 to 20)
#    0.000    3.000    0.000    0.750    0.000    5.000 
#    0.000    1.250    0.000    7.875    0.000    0.000 
#    0.000    0.000    0.000    0.000    0.000    0.000 
#
# Total GULP energy -178338.325308 kJ/mol
# GULP energy per Si atom -5573.072666 kJ/mol
# Density = 1.692209 g / cm^3
# Si number density = 16.960689 Si / 1000 Ang^3
#
#
#
# Elastic Constant Matrix: (Units=GPa)
#
#
# Indices 1 2 3 4 5 6 
#
# 1 41.6032 36.7350 77.4155 0.0000 0.0000 0.0000
# 2 36.7350 41.6419 77.4441 0.0000 0.0000 0.0000
# 3 77.4155 77.4441 226.4340 0.0000 0.0000 0.0000
# 4 0.0000 0.0000 0.0000 -15.9299 0.0000 0.0000
# 5 0.0000 0.0000 0.0000 0.0000 -15.9572 0.0000
# 6 0.0000 0.0000 0.0000 0.0000 0.0000 12.6358
#
#
#
# Elastic Compliance Matrix: (Units=1/GPa)
#
#
# Indices 1 2 3 4 5 6 
#
# 1 0.122061 -0.082619 -0.013475 0.000000 0.000000 0.000000
# 2 -0.082619 0.121907 -0.013448 0.000000 0.000000 0.000000
# 3 -0.013475 -0.013448 0.013623 0.000000 0.000000 0.000000
# 4 0.000000 0.000000 0.000000 -0.062775 0.000000 0.000000
# 5 0.000000 0.000000 0.000000 0.000000 -0.062668 0.000000
# 6 0.000000 0.000000 0.000000 0.000000 0.000000 0.079140
#
#
# Mechanical properties :
#
#
# Convention : Reuss Voigt Hill
#
# Bulk Modulus (GPa) = 25.96789 76.98538 51.47664
# Shear Modulus (GPa) = 11.28141 4.02205 7.65173
#
# Velocity S-wave (km/s) = 2.58185 1.54160 2.12632
# Velocity P-wave (km/s) = 4.92258 6.97551 6.03695
#
# Compressibility (1/GPa) = 0.03850910
#
# Stress axis : x y z
#
# Youngs Moduli (GPa) = 8.19260 8.20295 73.40781
#
# Poissons Ratio (x) = 0.67772 0.98915
# Poissons Ratio (y) = 0.67686 0.98718
# Poissons Ratio (z) = 0.11039 0.11031
#
# Static dielectric constant tensor:
#      x y z
#    x 1.564590 0.000000 0.000000 
#    y 0.000000 1.564590 0.000000 
#    z 0.000000 0.000000 1.551810 
# 
# From -- ./inp_files/6573.got.cif
#   From: 2010.05.17/outbox.cif.g08.bks.cpg/sg25_4_cif.got.tgz:6573.got - 2010.06.04 01:04:00.
