data_PCOD9337863
_publ_section_title
;
Structure prediction by ZEFSAII (Michael W. Deem and Ramdas Pophale) SiO2 
 PCOD9337863
Probable space group: P M M 2
;
_chemical_formula_sum "Si O2"
_cell_formula_units_Z 32
_cell_length_a 13.044748
_cell_length_b 7.375307
_cell_length_c 13.013987
_cell_angle_alpha 90.000000
_cell_angle_beta 90.000000
_cell_angle_gamma 90.000000
_cell_volume 1252.062952
_symmetry_space_group_name_H-M "P M M 2"
_symmetry_group_IT_number 25
_symmetry_cell_setting 'orthorhombic'
loop_
_space_group_symop_operation_xyz
x,y,z
-x,-y,z
-x,y,z
x,-y,z
loop_
_atom_site_type_symbol
_atom_site_label
_atom_site_fract_x
_atom_site_fract_y
_atom_site_fract_z
Si Si1 0.666555 0.778703 0.340870
Si Si2 0.112598 0.279948 0.063718
Si Si3 0.107946 0.789369 0.387960
Si Si4 0.660335 0.208736 0.121203
Si Si5 0.612598 0.220051 0.893353
Si Si6 0.833445 0.721297 0.616201
Si Si7 0.392054 0.710630 0.569111
Si Si8 0.839665 0.708735 0.835867
O O1 0.784337 0.712928 0.350794
O O2 0.625840 0.716066 0.230683
O O3 0.612785 0.720032 0.445139
O O4 0.665313 0.000000 0.341365
O O5 0.117316 0.500000 0.064896
O O6 0.215183 0.214311 0.119320
O O7 0.000000 0.225378 0.102239
O O8 0.124126 0.215619 0.944910
O O9 0.112784 0.779962 0.511932
O O10 0.000000 0.707505 0.353427
O O11 0.108111 0.000000 0.357941
O O12 0.627174 0.000000 0.119420
O O13 0.624125 0.284381 0.012160
O O14 0.500000 0.274621 0.854830
O O15 0.715183 0.285690 0.837751
O O16 0.617317 0.000000 0.892175
O O17 0.834684 0.500000 0.615708
O O18 0.715663 0.787074 0.606276
O O19 0.874160 0.783935 0.726387
O O20 0.500000 0.792496 0.603642
O O21 0.391891 0.500000 0.599134
O O22 0.872827 0.500000 0.837651
#
# Coordination Sequence:
#
# PCOD9337863 Si02
#       8
#     4   4   4   4   4   4   4   4
#     4   9  18  32  50  71  94 122 157 195 232 273
#     4   9  18  32  48  68  96 126 155 191 234 277
#     4   9  18  32  48  68  96 126 155 191 234 277
#     4   9  18  32  50  71  94 122 157 195 232 273
#     4   9  18  32  48  68  96 126 155 191 234 277
#     4   9  18  32  50  71  94 122 157 195 232 273
#     4   9  18  32  48  68  96 126 155 191 234 277
#     4   9  18  32  50  71  94 122 157 195 232 273
#
# _framework density 25.557818999999999
#
# number of rings (size 3 to 8) (size 9 to 14) (size 15 to 20)
#    0.000    3.000    0.000    0.000    0.000    4.000 
#    0.000    5.000    0.000    0.000    0.000    0.000 
#    0.000    0.000    0.000    0.000    0.000    0.000 
#
# Total GULP energy -178776.730747 kJ/mol
# GULP energy per Si atom -5586.772836 kJ/mol
# Density = 2.549965 g / cm^3
# Si number density = 25.557819 Si / 1000 Ang^3
#
#
#
# Elastic Constant Matrix: (Units=GPa)
#
#
# Indices 1 2 3 4 5 6 
#
# 1 148.9285 -1.6425 -6.5378 0.0000 0.0000 0.0000
# 2 -1.6425 103.6829 -12.7829 0.0000 0.0000 0.0000
# 3 -6.5378 -12.7829 124.7103 0.0000 0.0000 0.0000
# 4 0.0000 0.0000 0.0000 10.6013 0.0000 0.0000
# 5 0.0000 0.0000 0.0000 0.0000 -25.7679 0.0000
# 6 0.0000 0.0000 0.0000 0.0000 0.0000 2.5604
#
#
#
# Elastic Compliance Matrix: (Units=1/GPa)
#
#
# Indices 1 2 3 4 5 6 
#
# 1 0.006732 0.000152 0.000369 0.000000 0.000000 0.000000
# 2 0.000152 0.009772 0.001010 0.000000 0.000000 0.000000
# 3 0.000369 0.001010 0.008141 0.000000 0.000000 0.000000
# 4 0.000000 0.000000 0.000000 0.094328 0.000000 0.000000
# 5 0.000000 0.000000 0.000000 0.000000 -0.038808 0.000000
# 6 0.000000 0.000000 0.000000 0.000000 0.000000 0.390571
#
#
# Mechanical properties :
#
#
# Convention : Reuss Voigt Hill
#
# Bulk Modulus (GPa) = 36.09336 37.26616 36.67976
# Shear Modulus (GPa) = 10.48412 24.03108 17.25760
#
# Velocity S-wave (km/s) = 2.02757 3.06970 2.60135
# Velocity P-wave (km/s) = 4.43106 5.21314 4.83793
#
# Compressibility (1/GPa) = 0.02770592
#
# Stress axis : x y z
#
# Youngs Moduli (GPa) = 148.53357 102.33669 122.82926
#
# Poissons Ratio (x) = -0.01556 -0.04527
# Poissons Ratio (y) = -0.02259 -0.12401
# Poissons Ratio (z) = -0.05474 -0.10332
#
# Static dielectric constant tensor:
#      x y z
#    x 2.010790 0.000000 0.000000 
#    y 0.000000 1.961600 0.000000 
#    z 0.000000 0.000000 1.989400 
# 
# From -- ./inp_files/5706.got.cif
#   From: 2010.05.17/outbox.cif.g08.bks.cpg/sg25_3_cif.got.tgz:5706.got - 2010.06.04 01:04:00.
