data_PCOD9337806
_publ_section_title
;
Structure prediction by ZEFSAII (Michael W. Deem and Ramdas Pophale) SiO2 
 PCOD9337806
Probable space group: P M M 2
;
_chemical_formula_sum "Si O2"
_cell_formula_units_Z 28
_cell_length_a 18.556780
_cell_length_b 8.849052
_cell_length_c 10.365196
_cell_angle_alpha 90.000000
_cell_angle_beta 90.000000
_cell_angle_gamma 90.000000
_cell_volume 1702.067914
_symmetry_space_group_name_H-M "P M M 2"
_symmetry_group_IT_number 25
_symmetry_cell_setting 'orthorhombic'
loop_
_space_group_symop_operation_xyz
x,y,z
-x,-y,z
-x,y,z
x,-y,z
loop_
_atom_site_type_symbol
_atom_site_label
_atom_site_fract_x
_atom_site_fract_y
_atom_site_fract_z
Si Si1 0.204276 0.678330 0.545430
Si Si2 0.366771 0.179728 0.172205
Si Si3 0.082570 0.681415 0.365684
Si Si4 0.414328 0.322906 0.442336
Si Si5 0.327715 0.179469 0.680931
Si Si6 0.417467 0.680412 0.908439
Si Si7 0.781653 0.820865 0.280813
O O1 0.212010 0.500000 0.564102
O O2 0.121358 0.712304 0.504618
O O3 0.245693 0.765506 0.656771
O O4 0.241063 0.731770 0.410798
O O5 0.396591 0.238529 0.308676
O O6 0.280067 0.206751 0.176509
O O7 0.378853 0.000000 0.161456
O O8 0.402460 0.265284 0.053540
O O9 0.085945 0.500000 0.347642
O O10 0.136881 0.760709 0.264404
O O11 0.000000 0.729826 0.359771
O O12 0.500000 0.314224 0.464117
O O13 0.394397 0.500000 0.431581
O O14 0.374326 0.250188 0.564293
O O15 0.362012 0.240026 0.812354
O O16 0.330979 0.000000 0.675178
O O17 0.500000 0.719305 0.872905
O O18 0.409692 0.500000 0.899308
O O19 0.783012 0.000000 0.307223
#
# Coordination Sequence:
#
# PCOD9337806 Si02
#       7
#     4   4   4   4   4   4   4
#     4   9  17  30  50  73 103 137 169 208 252 300
#     4  11  22  36  54  76 104 135 172 219 265 314
#     4   8  15  27  45  74 110 143 173 209 255 305
#     4  11  22  34  51  74  99 130 169 211 260 316
#     4  12  23  36  54  76 102 133 173 220 266 317
#     4  11  25  42  57  74 100 136 179 224 273 327
#     4   9  17  29  47  75 105 134 169 208 254 303
#
# _framework density 16.450576999999999
#
# number of rings (size 3 to 8) (size 9 to 14) (size 15 to 20)
#    0.857    1.000    1.429    3.857    0.000    7.714 
#    0.000    0.000    0.000    0.000    0.000    1.000 
#    0.000    5.714    0.000    0.000    0.000    0.000 
#
# Total GULP energy -155931.364787 kJ/mol
# GULP energy per Si atom -5568.977314 kJ/mol
# Density = 1.641313 g / cm^3
# Si number density = 16.450577 Si / 1000 Ang^3
#
#
#
# Elastic Constant Matrix: (Units=GPa)
#
#
# Indices 1 2 3 4 5 6 
#
# 1 64.6432 24.3721 -11.3398 0.0000 0.0000 0.0000
# 2 24.3721 60.7695 0.4472 0.0000 0.0000 0.0000
# 3 -11.3398 0.4472 28.4395 0.0000 0.0000 0.0000
# 4 0.0000 0.0000 0.0000 26.4468 0.0000 0.0000
# 5 0.0000 0.0000 0.0000 0.0000 19.1561 0.0000
# 6 0.0000 0.0000 0.0000 0.0000 0.0000 14.1065
#
#
#
# Elastic Compliance Matrix: (Units=1/GPa)
#
#
# Indices 1 2 3 4 5 6 
#
# 1 0.019919 -0.008048 0.008069 0.000000 0.000000 0.000000
# 2 -0.008048 0.019709 -0.003519 0.000000 0.000000 0.000000
# 3 0.008069 -0.003519 0.038435 0.000000 0.000000 0.000000
# 4 0.000000 0.000000 0.000000 0.037812 0.000000 0.000000
# 5 0.000000 0.000000 0.000000 0.000000 0.052203 0.000000
# 6 0.000000 0.000000 0.000000 0.000000 0.000000 0.070889
#
#
# Mechanical properties :
#
#
# Convention : Reuss Voigt Hill
#
# Bulk Modulus (GPa) = 14.07113 20.09014 17.08064
# Shear Modulus (GPa) = 18.54234 21.30005 19.92119
#
# Velocity S-wave (km/s) = 3.36095 3.60222 3.48368
# Velocity P-wave (km/s) = 4.86143 5.43510 5.15625
#
# Compressibility (1/GPa) = 0.07106751
#
# Stress axis : x y z
#
# Youngs Moduli (GPa) = 50.20225 50.73732 26.01788
#
# Poissons Ratio (x) = 0.40835 -0.20994
# Poissons Ratio (y) = 0.40404 0.09156
# Poissons Ratio (z) = -0.40509 0.17855
#
# Static dielectric constant tensor:
#      x y z
#    x 1.600590 0.000000 0.000000 
#    y 0.000000 1.547130 0.000000 
#    z 0.000000 0.000000 1.523160 
# 
# From -- ./inp_files/3561.got.cif
#   From: 2010.05.17/outbox.cif.g08.bks.cpg/sg25_2_cif.got.tgz:3561.got - 2010.06.04 01:04:00.
