data_PCOD9337835
_publ_section_title
;
Structure prediction by ZEFSAII (Michael W. Deem and Ramdas Pophale) SiO2 
 PCOD9337835
Probable space group: P M M 2
;
_chemical_formula_sum "Si O2"
_cell_formula_units_Z 32
_cell_length_a 7.407359
_cell_length_b 25.700441
_cell_length_c 7.685667
_cell_angle_alpha 90.000000
_cell_angle_beta 90.000000
_cell_angle_gamma 90.000000
_cell_volume 1463.138818
_symmetry_space_group_name_H-M "P M M 2"
_symmetry_group_IT_number 25
_symmetry_cell_setting 'orthorhombic'
loop_
_space_group_symop_operation_xyz
x,y,z
-x,-y,z
-x,y,z
x,-y,z
loop_
_atom_site_type_symbol
_atom_site_label
_atom_site_fract_x
_atom_site_fract_y
_atom_site_fract_z
Si Si1 0.287691 0.329458 0.089730
Si Si2 0.783064 0.555804 0.082635
Si Si3 0.719903 0.058636 0.087809
Si Si4 0.278128 0.255086 0.786950
Si Si5 0.216936 0.444196 0.491267
Si Si6 0.720637 0.864485 0.786951
Si Si7 0.280097 0.058636 0.486092
Si Si8 0.712309 0.670542 0.484171
O O1 0.500000 0.319274 0.105622
O O2 0.211516 0.328546 0.286950
O O3 0.271498 0.387988 0.013820
O O4 0.216025 0.286843 0.956676
O O5 0.720413 0.500000 0.008939
O O6 0.000000 0.555062 0.076228
O O7 0.728714 0.556228 0.286951
O O8 0.500000 0.058795 0.086367
O O9 0.779111 0.102790 0.955260
O O10 0.774528 0.000000 0.035795
O O11 0.775997 0.067481 0.286951
O O12 0.500000 0.255906 0.786950
O O13 0.221796 0.195226 0.786951
O O14 0.216025 0.286843 0.617224
O O15 0.279587 0.500000 0.564962
O O16 0.271498 0.387987 0.560081
O O17 0.000000 0.444938 0.497674
O O18 0.500000 0.864164 0.786951
O O19 0.779111 0.897210 0.618641
O O20 0.500000 0.058795 0.487535
O O21 0.225472 0.000000 0.538107
O O22 0.500000 0.680726 0.468278
#
# Coordination Sequence:
#
# PCOD9337835 Si02
#       8
#     4   4   4   4   4   4   4   4
#     4   9  17  29  44  60  81 110 139 169 207 248
#     4   8  14  26  45  67  87 106 132 169 211 253
#     4   8  13  20  30  46  67  90 121 163 205 241
#     4   9  18  29  38  53  77 104 140 179 206 238
#     4   8  14  26  45  67  87 106 132 169 211 253
#     4   9  15  22  33  46  64  95 130 165 204 238
#     4   8  13  20  30  46  67  90 121 163 205 241
#     4   9  17  29  44  60  81 110 139 169 207 248
#
# _framework density 21.870788999999998
#
# number of rings (size 3 to 8) (size 9 to 14) (size 15 to 20)
#    0.000    3.500    0.000    1.875    0.000    3.000 
#    0.000    8.750    0.000    3.750    0.000    0.000 
#    0.000    0.000    0.000    0.000    0.000   10.000 
#
# Total GULP energy -178446.470421 kJ/mol
# GULP energy per Si atom -5576.452201 kJ/mol
# Density = 2.182101 g / cm^3
# Si number density = 21.870789 Si / 1000 Ang^3
#
#
#
# Elastic Constant Matrix: (Units=GPa)
#
#
# Indices 1 2 3 4 5 6 
#
# 1 68.8483 2.2410 4.6014 0.0000 0.0000 0.0000
# 2 2.2410 255.8710 124.6686 0.0000 0.0000 0.0000
# 3 4.6014 124.6686 117.9731 0.0000 0.0000 0.0000
# 4 0.0000 0.0000 0.0000 -1.3627 0.0000 0.0000
# 5 0.0000 0.0000 0.0000 0.0000 -9.9890 0.0000
# 6 0.0000 0.0000 0.0000 0.0000 0.0000 56.8917
#
#
#
# Elastic Compliance Matrix: (Units=1/GPa)
#
#
# Indices 1 2 3 4 5 6 
#
# 1 0.014574 0.000308 -0.000894 0.000000 0.000000 0.000000
# 2 0.000308 0.008063 -0.008532 0.000000 0.000000 0.000000
# 3 -0.000894 -0.008532 0.017528 0.000000 0.000000 0.000000
# 4 0.000000 0.000000 0.000000 -0.733864 0.000000 0.000000
# 5 0.000000 0.000000 0.000000 0.000000 -0.100110 0.000000
# 6 0.000000 0.000000 0.000000 0.000000 0.000000 0.017577
#
#
# Mechanical properties :
#
#
# Convention : Reuss Voigt Hill
#
# Bulk Modulus (GPa) = 45.60262 78.41272 62.00767
# Shear Modulus (GPa) = -6.66058 29.85342 11.59642
#
# Velocity S-wave (km/s) = -1.74701 3.69859 2.30516
# Velocity P-wave (km/s) = 4.10205 7.36002 5.95805
#
# Compressibility (1/GPa) = 0.02192857
#
# Stress axis : x y z
#
# Youngs Moduli (GPa) = 68.61346 124.02667 57.05152
#
# Poissons Ratio (x) = -0.03818 0.05099
# Poissons Ratio (y) = -0.02112 0.48679
# Poissons Ratio (z) = 0.06132 1.05824
#
# Static dielectric constant tensor:
#      x y z
#    x 1.841480 0.000000 0.000000 
#    y 0.000000 1.772750 0.000000 
#    z 0.000000 0.000000 1.806630 
# 
# From -- ./inp_files/2921.got.cif
#   From: 2010.05.17/outbox.cif.g08.bks.cpg/sg25_2_cif.got.tgz:2921.got - 2010.06.04 01:04:00.
