data_PCOD9337352
_publ_section_title
;
Structure prediction by ZEFSAII (Michael W. Deem and Ramdas Pophale) SiO2 
 PCOD9337352
Probable space group: P M M 2
;
_chemical_formula_sum "Si O2"
_cell_formula_units_Z 25
_cell_length_a 11.815804
_cell_length_b 7.609561
_cell_length_c 12.596039
_cell_angle_alpha 90.000000
_cell_angle_beta 90.000000
_cell_angle_gamma 90.000000
_cell_volume 1132.548679
_symmetry_space_group_name_H-M "P M M 2"
_symmetry_group_IT_number 25
_symmetry_cell_setting 'orthorhombic'
loop_
_space_group_symop_operation_xyz
x,y,z
-x,-y,z
-x,y,z
x,-y,z
loop_
_atom_site_type_symbol
_atom_site_label
_atom_site_fract_x
_atom_site_fract_y
_atom_site_fract_z
Si Si1 0.323614 0.693472 0.138310
Si Si2 0.130320 0.213484 0.285419
Si Si3 0.747165 0.794195 0.913033
Si Si4 0.630172 0.215003 0.697579
Si Si5 0.500000 0.000000 0.188861
Si Si6 0.000000 0.289652 0.873401
Si Si7 0.772019 0.796036 0.504328
Si Si8 0.000000 0.712364 0.626634
O O1 0.362016 0.500000 0.169487
O O2 0.197337 0.723794 0.182954
O O3 0.401828 0.846295 0.182993
O O4 0.316455 0.706891 0.010995
O O5 0.200342 0.277984 0.388591
O O6 0.000000 0.271277 0.290868
O O7 0.129192 0.000000 0.287524
O O8 0.705678 0.727829 0.797932
O O9 0.882158 0.773991 0.922029
O O10 0.718407 0.000000 0.918800
O O11 0.500000 0.264259 0.712649
O O12 0.679935 0.279822 0.585489
O O13 0.636017 0.000000 0.695005
O O14 0.000000 0.234730 0.749583
O O15 0.000000 0.500000 0.877527
O O16 0.889502 0.784336 0.568534
O O17 0.740951 0.000000 0.487216
O O18 0.000000 0.500000 0.620249
#
# Coordination Sequence:
#
# PCOD9337352 Si02
#       8
#     4   4   4   4   1   2   4   2
#     4  12  27  47  74 104 136 181 233 288 347 409
#     4  10  21  41  68 100 140 181 227 290 353 415
#     4  11  22  39  67  95 132 176 222 280 343 413
#     4   9  19  34  59  94 129 170 221 274 330 395
#     4  12  26  56  74  98 134 180 238 286 336 408
#     4  11  23  37  56  91 136 177 223 282 350 417
#     4  10  19  37  63  93 126 169 226 271 327 403
#     4  11  21  33  54  87 132 171 215 277 331 398
#
# _framework density 22.074107000000001
#
# number of rings (size 3 to 8) (size 9 to 14) (size 15 to 20)
#    0.000    1.440    4.000    1.200    2.240    1.600 
#    1.440    0.000    0.000    2.400    0.000    0.000 
#    0.000    0.000    0.000    0.000    0.000    0.000 
#
# Total GULP energy -139495.609926 kJ/mol
# GULP energy per Si atom -5579.824397 kJ/mol
# Density = 2.202387 g / cm^3
# Si number density = 22.074107 Si / 1000 Ang^3
#
#
#
# Elastic Constant Matrix: (Units=GPa)
#
#
# Indices 1 2 3 4 5 6 
#
# 1 105.5081 11.6661 18.9282 0.0000 0.0000 0.0000
# 2 11.6661 103.1840 15.6042 0.0000 0.0000 0.0000
# 3 18.9282 15.6042 73.5927 0.0000 0.0000 0.0000
# 4 0.0000 0.0000 0.0000 -8.1646 0.0000 0.0000
# 5 0.0000 0.0000 0.0000 0.0000 -21.6980 0.0000
# 6 0.0000 0.0000 0.0000 0.0000 0.0000 -122.2534
#
#
#
# Elastic Compliance Matrix: (Units=1/GPa)
#
#
# Indices 1 2 3 4 5 6 
#
# 1 0.009995 -0.000766 -0.002408 0.000000 0.000000 0.000000
# 2 -0.000766 0.010071 -0.001938 0.000000 0.000000 0.000000
# 3 -0.002408 -0.001938 0.014619 0.000000 0.000000 0.000000
# 4 0.000000 0.000000 0.000000 -0.122480 0.000000 0.000000
# 5 0.000000 0.000000 0.000000 0.000000 -0.046087 0.000000
# 6 0.000000 0.000000 0.000000 0.000000 0.000000 -0.008180
#
#
# Mechanical properties :
#
#
# Convention : Reuss Voigt Hill
#
# Bulk Modulus (GPa) = 40.88396 41.63130 41.25763
# Shear Modulus (GPa) = -40.42558 -14.68411 -27.55485
#
# Velocity S-wave (km/s) = -4.28408 -2.58198 -3.53695
# Velocity P-wave (km/s) = 2.43098 3.16416 1.43217
#
# Compressibility (1/GPa) = 0.02445947
#
# Stress axis : x y z
#
# Youngs Moduli (GPa) = 100.05339 99.29347 68.40536
#
# Poissons Ratio (x) = 0.07604 0.16474
# Poissons Ratio (y) = 0.07662 0.13260
# Poissons Ratio (z) = 0.24095 0.19248
#
# Static dielectric constant tensor:
#      x y z
#    x 1.783610 0.000000 0.000000 
#    y 0.000000 1.807150 0.000000 
#    z 0.000000 0.000000 1.802810 
# 
# From -- ./inp_files/4579.got.cif
#   From: 2010.05.17/outbox.cif.g08.bks.cpg/sg25_3_cif.got.tgz:4579.got - 2010.06.04 01:04:00.
