data_PCOD9337357
_publ_section_title
;
Structure prediction by ZEFSAII (Michael W. Deem and Ramdas Pophale) SiO2 
 PCOD9337357
Probable space group: P M M 2
;
_chemical_formula_sum "Si O2"
_cell_formula_units_Z 32
_cell_length_a 7.438626
_cell_length_b 9.655101
_cell_length_c 21.730446
_cell_angle_alpha 90.000000
_cell_angle_beta 90.000000
_cell_angle_gamma 90.000000
_cell_volume 1560.695524
_symmetry_space_group_name_H-M "P M M 2"
_symmetry_group_IT_number 25
_symmetry_cell_setting 'orthorhombic'
loop_
_space_group_symop_operation_xyz
x,y,z
-x,-y,z
-x,y,z
x,-y,z
loop_
_atom_site_type_symbol
_atom_site_label
_atom_site_fract_x
_atom_site_fract_y
_atom_site_fract_z
Si Si1 0.783608 0.657971 0.681090
Si Si2 0.718910 0.340799 0.050638
Si Si3 0.285683 0.155840 0.799280
Si Si4 0.216254 0.659387 0.415369
Si Si5 0.279784 0.840841 0.165962
Si Si6 0.719338 0.659088 0.911749
Si Si7 0.789600 0.331104 0.547094
Si Si8 0.286356 0.341707 0.280304
O O1 0.720294 0.500000 0.692575
O O2 0.742262 0.757830 0.737177
O O3 0.714487 0.707208 0.613988
O O4 0.000000 0.650871 0.676055
O O5 0.500000 0.340132 0.050915
O O6 0.773203 0.500000 0.062795
O O7 0.777835 0.238120 0.104088
O O8 0.774806 0.303157 0.981205
O O9 0.500000 0.146342 0.807778
O O10 0.215817 0.240388 0.858151
O O11 0.214217 0.000000 0.794961
O O12 0.281845 0.500000 0.411895
O O13 0.283621 0.717658 0.480868
O O14 0.258503 0.719970 0.348653
O O15 0.000000 0.655332 0.419924
O O16 0.500000 0.840737 0.166184
O O17 0.218627 0.754460 0.225508
O O18 0.222601 0.000000 0.167528
O O19 0.500000 0.660441 0.911283
O O20 0.773141 0.500000 0.899878
O O21 0.781873 0.500000 0.545619
O O22 0.000000 0.291663 0.547835
O O23 0.500000 0.352524 0.271651
O O24 0.213804 0.500000 0.278070
#
# Coordination Sequence:
#
# PCOD9337357 Si02
#       8
#     4   4   4   4   4   4   4   4
#     4   9  17  30  49  70  89 113 148 187 225 266
#     4   8  13  22  37  57  80 106 138 176 214 249
#     4  10  20  31  43  63  93 125 152 180 218 264
#     4   8  13  23  41  63  84 106 134 170 211 252
#     4   9  16  24  35  53  79 111 142 170 204 248
#     4   8  14  25  41  60  83 112 144 178 217 258
#     4   7  11  22  41  64  86 105 131 173 219 255
#     4   9  16  25  38  58  84 110 135 167 206 246
#
# _framework density 20.503679000000002
#
# number of rings (size 3 to 8) (size 9 to 14) (size 15 to 20)
#    0.000    3.500    0.000    3.000    0.000    3.000 
#    0.000    3.125    0.000    3.375    0.000    4.375 
#    0.000    3.000    0.000    0.000    0.000    0.000 
#
# Total GULP energy -178298.915039 kJ/mol
# GULP energy per Si atom -5571.841095 kJ/mol
# Density = 2.045701 g / cm^3
# Si number density = 20.503679 Si / 1000 Ang^3
#
#
#
# Elastic Constant Matrix: (Units=GPa)
#
#
# Indices 1 2 3 4 5 6 
#
# 1 63.1150 5.4854 4.2522 0.0000 0.0000 0.0000
# 2 5.4854 107.4142 126.4524 0.0000 0.0000 0.0000
# 3 4.2522 126.4524 247.9243 0.0000 0.0000 0.0000
# 4 0.0000 0.0000 0.0000 -5.7250 0.0000 0.0000
# 5 0.0000 0.0000 0.0000 0.0000 19.3279 0.0000
# 6 0.0000 0.0000 0.0000 0.0000 0.0000 -1.1004
#
#
#
# Elastic Compliance Matrix: (Units=1/GPa)
#
#
# Indices 1 2 3 4 5 6 
#
# 1 0.015927 -0.001231 0.000355 0.000000 0.000000 0.000000
# 2 -0.001231 0.023395 -0.011912 0.000000 0.000000 0.000000
# 3 0.000355 -0.011912 0.010103 0.000000 0.000000 0.000000
# 4 0.000000 0.000000 0.000000 -0.174671 0.000000 0.000000
# 5 0.000000 0.000000 0.000000 0.000000 0.051739 0.000000
# 6 0.000000 0.000000 0.000000 0.000000 0.000000 -0.908746
#
#
# Mechanical properties :
#
#
# Convention : Reuss Voigt Hill
#
# Bulk Modulus (GPa) = 41.92902 76.75927 59.34415
# Shear Modulus (GPa) = -5.27022 21.31805 8.02391
#
# Velocity S-wave (km/s) = -1.60498 3.22796 1.98038
# Velocity P-wave (km/s) = 4.13029 7.17015 5.85109
#
# Compressibility (1/GPa) = 0.02384983
#
# Stress axis : x y z
#
# Youngs Moduli (GPa) = 62.78572 42.74335 98.98188
#
# Poissons Ratio (x) = 0.05261 -0.03510
# Poissons Ratio (y) = 0.07728 1.17903
# Poissons Ratio (z) = -0.02226 0.50914
#
# Static dielectric constant tensor:
#      x y z
#    x 1.810870 0.000000 0.000000 
#    y 0.000000 1.683150 0.000000 
#    z 0.000000 0.000000 1.758840 
# 
# From -- ./inp_files/6523.got.cif
#   From: 2010.05.17/outbox.cif.g08.bks.cpg/sg25_4_cif.got.tgz:6523.got - 2010.06.04 01:04:00.
