data_PCOD9337626
_publ_section_title
;
Structure prediction by ZEFSAII (Michael W. Deem and Ramdas Pophale) SiO2 
 PCOD9337626
Probable space group: P M M 2
;
_chemical_formula_sum "Si O2"
_cell_formula_units_Z 32
_cell_length_a 7.924426
_cell_length_b 14.640052
_cell_length_c 13.211254
_cell_angle_alpha 90.000000
_cell_angle_beta 90.000000
_cell_angle_gamma 90.000000
_cell_volume 1532.690537
_symmetry_space_group_name_H-M "P M M 2"
_symmetry_group_IT_number 25
_symmetry_cell_setting 'orthorhombic'
loop_
_space_group_symop_operation_xyz
x,y,z
-x,-y,z
-x,y,z
x,-y,z
loop_
_atom_site_type_symbol
_atom_site_label
_atom_site_fract_x
_atom_site_fract_y
_atom_site_fract_z
Si Si1 0.701261 0.606471 0.090420
Si Si2 0.699941 0.708952 0.516635
Si Si3 0.198821 0.277651 0.897890
Si Si4 0.201003 0.602834 0.714718
Si Si5 0.301608 0.102162 0.450344
Si Si6 0.191495 0.110635 0.227484
Si Si7 0.201878 0.394402 0.314105
Si Si8 0.207469 0.895402 0.006274
O O1 0.500000 0.609330 0.078653
O O2 0.756683 0.500000 0.084886
O O3 0.746438 0.640400 0.203071
O O4 0.781764 0.662924 0.999609
O O5 0.500000 0.713847 0.533296
O O6 0.774232 0.648329 0.605930
O O7 0.770354 0.812540 0.512227
O O8 0.730677 0.662542 0.408133
O O9 0.272650 0.332735 0.803320
O O10 0.267156 0.177257 0.924021
O O11 0.000000 0.264962 0.877842
O O12 0.270942 0.500000 0.718017
O O13 0.000000 0.595791 0.732223
O O14 0.500000 0.096150 0.473282
O O15 0.285639 0.128394 0.331669
O O16 0.227815 0.000000 0.463858
O O17 0.000000 0.146049 0.238004
O O18 0.182456 0.000000 0.219984
O O19 0.263364 0.137427 0.118416
O O20 0.261514 0.500000 0.321836
O O21 0.000000 0.394231 0.319570
O O22 0.000000 0.894971 0.010254
O O23 0.259217 0.000000 0.988824
#
# Coordination Sequence:
#
# PCOD9337626 Si02
#       8
#     4   4   4   4   4   4   4   4
#     4  10  21  36  54  80 115 148 179 223 279 336
#     4  11  23  37  57  83 109 141 185 233 282 332
#     4  10  20  35  58  84 110 145 189 232 276 326
#     4  10  22  40  59  80 109 145 187 235 283 335
#     4   9  19  35  52  74 108 146 181 220 271 328
#     4   8  14  26  46  73 105 141 179 217 257 309
#     4  10  21  37  57  81 111 146 181 221 276 339
#     4   8  15  29  50  79 113 145 180 223 271 320
#
# _framework density 20.878319000000001
#
# number of rings (size 3 to 8) (size 9 to 14) (size 15 to 20)
#    0.000    2.500    0.000    2.625    1.750    5.250 
#    0.000    0.625    0.000    1.125    0.000    0.000 
#    0.000    0.000    0.000    0.000    0.000    0.000 
#
# Total GULP energy -178603.543857 kJ/mol
# GULP energy per Si atom -5581.360746 kJ/mol
# Density = 2.083080 g / cm^3
# Si number density = 20.878319 Si / 1000 Ang^3
#
#
#
# Elastic Constant Matrix: (Units=GPa)
#
#
# Indices 1 2 3 4 5 6 
#
# 1 16.7590 -5.3417 -19.7661 0.0000 0.0000 0.0000
# 2 -5.3417 125.7085 49.5521 0.0000 0.0000 0.0000
# 3 -19.7661 49.5521 67.5362 0.0000 0.0000 0.0000
# 4 0.0000 0.0000 0.0000 33.2682 0.0000 0.0000
# 5 0.0000 0.0000 0.0000 0.0000 54.7644 0.0000
# 6 0.0000 0.0000 0.0000 0.0000 0.0000 9.8956
#
#
#
# Elastic Compliance Matrix: (Units=1/GPa)
#
#
# Indices 1 2 3 4 5 6 
#
# 1 0.099654 -0.010217 0.036663 0.000000 0.000000 0.000000
# 2 -0.010217 0.012239 -0.011970 0.000000 0.000000 0.000000
# 3 0.036663 -0.011970 0.034320 0.000000 0.000000 0.000000
# 4 0.000000 0.000000 0.000000 0.030059 0.000000 0.000000
# 5 0.000000 0.000000 0.000000 0.000000 0.018260 0.000000
# 6 0.000000 0.000000 0.000000 0.000000 0.000000 0.101055
#
#
# Mechanical properties :
#
#
# Convention : Reuss Voigt Hill
#
# Bulk Modulus (GPa) = 5.70895 28.76579 17.23737
# Shear Modulus (GPa) = 15.38343 31.95626 23.66984
#
# Velocity S-wave (km/s) = 2.71738 3.91653 3.37071
# Velocity P-wave (km/s) = 3.54765 5.85320 4.83972
#
# Compressibility (1/GPa) = 0.17516353
#
# Stress axis : x y z
#
# Youngs Moduli (GPa) = 10.03471 81.70413 29.13757
#
# Poissons Ratio (x) = 0.83479 -1.06826
# Poissons Ratio (y) = 0.10253 0.34879
# Poissons Ratio (z) = -0.36790 0.97803
#
# Static dielectric constant tensor:
#      x y z
#    x 1.752370 0.000000 0.000000 
#    y 0.000000 1.805870 0.000000 
#    z 0.000000 0.000000 1.719150 
# 
# From -- ./inp_files/4242.got.cif
#   From: 2010.05.17/outbox.cif.g08.bks.cpg/sg25_3_cif.got.tgz:4242.got - 2010.06.04 01:04:00.
