data_PCOD9337672
_publ_section_title
;
Structure prediction by ZEFSAII (Michael W. Deem and Ramdas Pophale) SiO2 
 PCOD9337672
Probable space group: P M M 2
;
_chemical_formula_sum "Si O2"
_cell_formula_units_Z 32
_cell_length_a 19.584935
_cell_length_b 22.900787
_cell_length_c 5.167981
_cell_angle_alpha 90.000000
_cell_angle_beta 90.000000
_cell_angle_gamma 90.000000
_cell_volume 2317.893354
_symmetry_space_group_name_H-M "P M M 2"
_symmetry_group_IT_number 25
_symmetry_cell_setting 'orthorhombic'
loop_
_space_group_symop_operation_xyz
x,y,z
-x,-y,z
-x,y,z
x,-y,z
loop_
_atom_site_type_symbol
_atom_site_label
_atom_site_fract_x
_atom_site_fract_y
_atom_site_fract_z
Si Si1 0.922287 0.571172 0.115120
Si Si2 0.156861 0.570575 0.611842
Si Si3 0.416715 0.067000 0.273122
Si Si4 0.573080 0.435430 0.526892
Si Si5 0.625533 0.659396 0.174710
Si Si6 0.582437 0.728809 0.660270
Si Si7 0.296020 0.568205 0.897200
Si Si8 0.417192 0.137363 0.775181
O O1 0.921908 0.500000 0.116981
O O2 0.869172 0.591327 0.334075
O O3 0.000000 0.589245 0.168595
O O4 0.896387 0.589099 0.833257
O O5 0.155205 0.500000 0.599137
O O6 0.232039 0.584000 0.716743
O O7 0.500000 0.066400 0.270123
O O8 0.393845 0.109463 0.043566
O O9 0.394841 0.000000 0.240359
O O10 0.395462 0.095078 0.543529
O O11 0.500000 0.429521 0.663421
O O12 0.577425 0.500000 0.411350
O O13 0.635808 0.430145 0.722479
O O14 0.576728 0.389329 0.298837
O O15 0.599951 0.690307 0.913327
O O16 0.691519 0.618893 0.108589
O O17 0.623974 0.705968 0.409910
O O18 0.500000 0.725629 0.609474
O O19 0.601010 0.795654 0.723464
O O20 0.286860 0.500000 0.990299
O O21 0.500000 0.136827 0.780388
#
# Coordination Sequence:
#
# PCOD9337672 Si02
#       8
#     4   4   4   4   4   4   4   4
#     4   9  16  27  44  66  86 102 119 137 164 216
#     4   9  18  29  45  62  82 104 120 144 183 233
#     4   9  15  24  40  59  78  97 115 137 170 220
#     4  10  21  35  48  60  74  93 125 173 220 258
#     4  12  22  34  47  59  73  95 130 167 207 252
#     4  11  22  33  46  58  74  98 126 163 205 245
#     4  10  22  36  49  62  79 100 129 166 215 261
#     4   9  17  28  39  56  77  96 118 145 181 228
#
# _framework density 13.80564
#
# number of rings (size 3 to 8) (size 9 to 14) (size 15 to 20)
#    0.000    2.125    1.250    3.000    1.750    6.000 
#    0.000    1.250    0.000    0.000    0.000    0.000 
#    0.000    0.000    0.000    0.000    0.000    0.000 
#
# Total GULP energy -178288.463923 kJ/mol
# GULP energy per Si atom -5571.514498 kJ/mol
# Density = 1.377422 g / cm^3
# Si number density = 13.805640 Si / 1000 Ang^3
#
#
#
# Elastic Constant Matrix: (Units=GPa)
#
#
# Indices 1 2 3 4 5 6 
#
# 1 32.3207 0.1756 -4.3897 0.0000 0.0000 0.0000
# 2 0.1756 51.6560 -3.8444 0.0000 0.0000 0.0000
# 3 -4.3897 -3.8444 37.5003 0.0000 0.0000 0.0000
# 4 0.0000 0.0000 0.0000 19.7084 0.0000 0.0000
# 5 0.0000 0.0000 0.0000 0.0000 11.8940 0.0000
# 6 0.0000 0.0000 0.0000 0.0000 0.0000 4.2726
#
#
#
# Elastic Compliance Matrix: (Units=1/GPa)
#
#
# Indices 1 2 3 4 5 6 
#
# 1 0.031441 0.000168 0.003698 0.000000 0.000000 0.000000
# 2 0.000168 0.019509 0.002020 0.000000 0.000000 0.000000
# 3 0.003698 0.002020 0.027306 0.000000 0.000000 0.000000
# 4 0.000000 0.000000 0.000000 0.050740 0.000000 0.000000
# 5 0.000000 0.000000 0.000000 0.000000 0.084076 0.000000
# 6 0.000000 0.000000 0.000000 0.000000 0.000000 0.234049
#
#
# Mechanical properties :
#
#
# Convention : Reuss Voigt Hill
#
# Bulk Modulus (GPa) = 11.10773 11.70668 11.40720
# Shear Modulus (GPa) = 10.74441 15.81070 13.27755
#
# Velocity S-wave (km/s) = 2.79276 3.38780 3.10457
# Velocity P-wave (km/s) = 4.29681 4.87863 4.59693
#
# Compressibility (1/GPa) = 0.09002741
#
# Stress axis : x y z
#
# Youngs Moduli (GPa) = 31.80535 51.25955 36.62153
#
# Poissons Ratio (x) = -0.00863 -0.13542
# Poissons Ratio (y) = -0.00535 -0.07396
# Poissons Ratio (z) = -0.11761 -0.10353
#
# Static dielectric constant tensor:
#      x y z
#    x 1.455180 0.000000 0.000000 
#    y 0.000000 1.459940 0.000000 
#    z 0.000000 0.000000 1.498700 
# 
# From -- ./inp_files/1197.got.cif
#   From: 2010.05.17/outbox.cif.g08.bks.cpg/sg25_1_cif.got.tgz:1197.got - 2010.06.04 01:04:00.
