data_PCOD9337114
_publ_section_title
;
Structure prediction by ZEFSAII (Michael W. Deem and Ramdas Pophale) SiO2 
 PCOD9337114
Probable space group: P M M 2
;
_chemical_formula_sum "Si O2"
_cell_formula_units_Z 16
_cell_length_a 7.500981
_cell_length_b 10.907256
_cell_length_c 9.540984
_cell_angle_alpha 90.000000
_cell_angle_beta 90.000000
_cell_angle_gamma 90.000000
_cell_volume 780.596751
_symmetry_space_group_name_H-M "P M M 2"
_symmetry_group_IT_number 25
_symmetry_cell_setting 'orthorhombic'
loop_
_space_group_symop_operation_xyz
x,y,z
-x,-y,z
-x,y,z
x,-y,z
loop_
_atom_site_type_symbol
_atom_site_label
_atom_site_fract_x
_atom_site_fract_y
_atom_site_fract_z
Si Si1 0.786286 0.233035 0.789450
Si Si2 0.200494 0.500000 0.442944
Si Si3 0.218880 0.764923 0.466143
Si Si4 0.705136 0.500000 0.761031
Si Si5 0.217723 0.000000 0.289182
Si Si6 0.781323 0.000000 0.967284
O O1 0.724297 0.219915 0.628076
O O2 0.742513 0.371592 0.836742
O O3 0.722010 0.122375 0.886008
O O4 0.000000 0.224109 0.785973
O O5 0.281519 0.632323 0.410466
O O6 0.190188 0.500000 0.613696
O O7 0.000000 0.500000 0.384560
O O8 0.000000 0.761160 0.467086
O O9 0.274344 0.878676 0.372182
O O10 0.500000 0.500000 0.719541
O O11 0.000000 0.000000 0.290369
O O12 0.274907 0.000000 0.128400
O O13 0.000000 0.000000 0.966190
#
# Coordination Sequence:
#
# PCOD9337114 Si02
#       6
#     4   2   4   2   2   2
#     4   9  16  29  47  68  92 120 147 178 223 274
#     4   8  14  26  43  64  88 116 144 176 220 270
#     4   8  13  22  39  60  86 114 140 170 214 263
#     4  10  18  28  45  70  92 114 148 192 226 256
#     4   9  15  23  37  65  94 112 138 183 222 254
#     4   9  17  27  42  65  94 120 148 185 224 260
#
# _framework density 20.497139000000001
#
# number of rings (size 3 to 8) (size 9 to 14) (size 15 to 20)
#    0.000    3.250    0.000    3.375    0.000    3.000 
#    0.000    1.875    0.000    6.000    0.000   21.000 
#    0.000    0.000    0.000    0.000    0.000    0.000 
#
# Total GULP energy -89191.262173 kJ/mol
# GULP energy per Si atom -5574.453886 kJ/mol
# Density = 2.045049 g / cm^3
# Si number density = 20.497139 Si / 1000 Ang^3
#
#
#
# Elastic Constant Matrix: (Units=GPa)
#
#
# Indices 1 2 3 4 5 6 
#
# 1 60.8587 2.7584 5.0927 0.0000 0.0000 0.0000
# 2 2.7584 272.3631 112.4080 0.0000 0.0000 0.0000
# 3 5.0927 112.4080 99.3105 0.0000 0.0000 0.0000
# 4 0.0000 0.0000 0.0000 -4.8266 0.0000 0.0000
# 5 0.0000 0.0000 0.0000 0.0000 -10.8117 0.0000
# 6 0.0000 0.0000 0.0000 0.0000 0.0000 -31.8237
#
#
#
# Elastic Compliance Matrix: (Units=1/GPa)
#
#
# Indices 1 2 3 4 5 6 
#
# 1 0.016519 0.000342 -0.001234 0.000000 0.000000 0.000000
# 2 0.000342 0.006897 -0.007825 0.000000 0.000000 0.000000
# 3 -0.001234 -0.007825 0.018989 0.000000 0.000000 0.000000
# 4 0.000000 0.000000 0.000000 -0.207185 0.000000 0.000000
# 5 0.000000 0.000000 0.000000 0.000000 -0.092492 0.000000
# 6 0.000000 0.000000 0.000000 0.000000 0.000000 -0.031423
#
#
# Mechanical properties :
#
#
# Convention : Reuss Voigt Hill
#
# Bulk Modulus (GPa) = 40.04439 74.78338 57.41389
# Shear Modulus (GPa) = -19.01598 11.32581 -3.84509
#
# Velocity S-wave (km/s) = -3.04918 2.35320 -1.37113
# Velocity P-wave (km/s) = 2.67998 6.62928 5.05617
#
# Compressibility (1/GPa) = 0.02497229
#
# Stress axis : x y z
#
# Youngs Moduli (GPa) = 60.53525 144.98113 52.66115
#
# Poissons Ratio (x) = -0.04960 0.06500
# Poissons Ratio (y) = -0.02071 0.41206
# Poissons Ratio (z) = 0.07472 1.13443
#
# Static dielectric constant tensor:
#      x y z
#    x 1.744480 0.000000 0.000000 
#    y 0.000000 1.758090 0.000000 
#    z 0.000000 0.000000 1.667440 
# 
# From -- ./inp_files/1561.got.cif
#   From: 2010.05.17/outbox.cif.g08.bks.cpg/sg25_1_cif.got.tgz:1561.got - 2010.06.04 01:04:00.
