data_PCOD9337276
_publ_section_title
;
Structure prediction by ZEFSAII (Michael W. Deem and Ramdas Pophale) SiO2 
 PCOD9337276
Probable space group: P M M 2
;
_chemical_formula_sum "Si O2"
_cell_formula_units_Z 32
_cell_length_a 17.469914
_cell_length_b 7.628444
_cell_length_c 11.520263
_cell_angle_alpha 90.000000
_cell_angle_beta 90.000000
_cell_angle_gamma 90.000000
_cell_volume 1535.285412
_symmetry_space_group_name_H-M "P M M 2"
_symmetry_group_IT_number 25
_symmetry_cell_setting 'orthorhombic'
loop_
_space_group_symop_operation_xyz
x,y,z
-x,-y,z
-x,y,z
x,-y,z
loop_
_atom_site_type_symbol
_atom_site_label
_atom_site_fract_x
_atom_site_fract_y
_atom_site_fract_z
Si Si1 0.381373 0.299297 0.279110
Si Si2 0.583222 0.711351 0.537731
Si Si3 0.737495 0.801120 0.641725
Si Si4 0.914482 0.795606 0.990188
Si Si5 0.230902 0.797461 0.392104
Si Si6 0.252671 0.784058 0.903028
Si Si7 0.413757 0.203340 0.019005
Si Si8 0.916311 0.709632 0.259110
O O1 0.406466 0.500000 0.267667
O O2 0.412744 0.231326 0.402662
O O3 0.290656 0.291498 0.304785
O O4 0.403334 0.210504 0.158980
O O5 0.500000 0.747763 0.584944
O O6 0.595754 0.500000 0.536659
O O7 0.647621 0.799089 0.613783
O O8 0.768902 0.719400 0.522007
O O9 0.747817 0.725610 0.768807
O O10 0.767806 0.000000 0.647642
O O11 0.830720 0.725955 0.951545
O O12 0.000000 0.722810 0.955638
O O13 0.915543 0.000000 0.955242
O O14 0.912418 0.781576 0.129139
O O15 0.148629 0.787721 0.337737
O O16 0.256075 0.000000 0.401768
O O17 0.253804 0.000000 0.909819
O O18 0.333094 0.725783 0.964374
O O19 0.500000 0.277283 0.992469
O O20 0.416383 0.000000 0.983332
O O21 0.907096 0.500000 0.252601
O O22 0.000000 0.749114 0.306943
#
# Coordination Sequence:
#
# PCOD9337276 Si02
#       8
#     4   4   4   4   4   4   4   4
#     4  10  19  32  51  73  99 131 165 205 256 308
#     4   9  18  32  49  70  97 128 162 204 253 300
#     4   9  19  34  51  71  95 127 168 209 246 290
#     4   9  17  31  54  80 103 131 167 207 253 303
#     4  10  19  32  51  75 102 131 165 206 251 299
#     4   9  18  34  52  71  99 132 168 211 254 297
#     4  10  20  32  48  72 102 136 171 208 253 305
#     4  10  20  33  51  77 107 134 161 198 246 302
#
# _framework density 20.843031
#
# number of rings (size 3 to 8) (size 9 to 14) (size 15 to 20)
#    0.000    2.500    0.000    2.250    0.000    4.250 
#    0.000    3.125    0.000    2.250    0.000    1.750 
#    0.000    0.000    0.000    0.000    0.000    0.000 
#
# Total GULP energy -178250.476958 kJ/mol
# GULP energy per Si atom -5570.327405 kJ/mol
# Density = 2.079559 g / cm^3
# Si number density = 20.843031 Si / 1000 Ang^3
#
#
#
# Elastic Constant Matrix: (Units=GPa)
#
#
# Indices 1 2 3 4 5 6 
#
# 1 181.4774 11.0460 63.7258 0.0000 0.0000 0.0000
# 2 11.0460 40.7300 -0.3997 0.0000 0.0000 0.0000
# 3 63.7258 -0.3997 70.5446 0.0000 0.0000 0.0000
# 4 0.0000 0.0000 0.0000 -41.6390 0.0000 0.0000
# 5 0.0000 0.0000 0.0000 0.0000 -6.4834 0.0000
# 6 0.0000 0.0000 0.0000 0.0000 0.0000 4.2728
#
#
#
# Elastic Compliance Matrix: (Units=1/GPa)
#
#
# Indices 1 2 3 4 5 6 
#
# 1 0.008284 -0.002320 -0.007496 0.000000 0.000000 0.000000
# 2 -0.002320 0.025203 0.002239 0.000000 0.000000 0.000000
# 3 -0.007496 0.002239 0.020960 0.000000 0.000000 0.000000
# 4 0.000000 0.000000 0.000000 -0.024016 0.000000 0.000000
# 5 0.000000 0.000000 0.000000 0.000000 -0.154241 0.000000
# 6 0.000000 0.000000 0.000000 0.000000 0.000000 0.234038
#
#
# Mechanical properties :
#
#
# Convention : Reuss Voigt Hill
#
# Bulk Modulus (GPa) = 25.45096 49.05516 37.25306
# Shear Modulus (GPa) = 36.10611 5.78874 20.94743
#
# Velocity S-wave (km/s) = 4.16659 1.66833 3.17363
# Velocity P-wave (km/s) = 5.94849 5.22472 5.59832
#
# Compressibility (1/GPa) = 0.03929124
#
# Stress axis : x y z
#
# Youngs Moduli (GPa) = 120.71634 39.67764 47.71029
#
# Poissons Ratio (x) = 0.09206 0.35765
# Poissons Ratio (y) = 0.28008 -0.10681
# Poissons Ratio (z) = 0.90493 -0.08883
#
# Static dielectric constant tensor:
#      x y z
#    x 1.782790 0.000000 0.000000 
#    y 0.000000 1.807430 0.000000 
#    z 0.000000 0.000000 1.715670 
# 
# From -- ./inp_files/4160.got.cif
#   From: 2010.05.17/outbox.cif.g08.bks.cpg/sg25_3_cif.got.tgz:4160.got - 2010.06.04 01:04:00.
