data_PCOD9337032
_publ_section_title
;
Structure prediction by ZEFSAII (Michael W. Deem and Ramdas Pophale) SiO2 
 PCOD9337032
Probable space group: I 21 21 21
;
_chemical_formula_sum "Si O2"
_cell_formula_units_Z 30
_cell_length_a 12.000000
_cell_length_b 12.000000
_cell_length_c 21.000000
_cell_angle_alpha 90.000000
_cell_angle_beta 90.000000
_cell_angle_gamma 90.000000
_cell_volume 3024.000000
_symmetry_space_group_name_H-M "I 21 21 21"
_symmetry_group_IT_number 24
_symmetry_cell_setting 'orthorhombic'
loop_
_space_group_symop_operation_xyz
x,y,z
-x,1/2-y,z
x,-y,1/2-z
1/2-x,y,-z
1/2+x,1/2+y,1/2+z
1/2-x,-y,1/2+z
1/2+x,1/2-y,-z
-x,1/2+y,1/2-z
loop_
_atom_site_type_symbol
_atom_site_label
_atom_site_fract_x
_atom_site_fract_y
_atom_site_fract_z
Si Si1 0.691769 0.100644 0.917678
Si Si2 0.868498 0.266104 0.282170
Si Si3 0.500000 0.250000 0.125475
Si Si4 0.256179 0.196082 0.150361
Si Si5 0.501999 0.377951 0.387976
Si Si6 0.775338 0.053762 0.683667
Si Si7 0.222899 0.042706 0.677677
Si Si8 0.562788 0.057201 0.030264
O O1 0.713439 0.230321 0.907472
O O2 0.807210 0.055305 0.948228
O O3 0.698095 0.037485 0.851137
O O4 0.579690 0.083102 0.956721
O O5 0.822476 0.283491 0.210604
O O6 0.800441 0.161566 0.308537
O O7 0.825514 0.373319 0.320797
O O8 0.000000 0.250000 0.283604
O O9 0.384535 0.235940 0.163709
O O10 0.509507 0.146405 0.077706
O O11 0.256861 0.066473 0.136377
O O12 0.500000 0.250000 0.401494
O O13 0.390030 0.415550 0.351460
O O14 0.609570 0.402742 0.345872
O O15 0.499805 0.445051 0.453689
O O16 0.808720 0.000000 0.750000
O O17 0.205927 0.000000 0.750000
#
# Coordination Sequence:
#
# PCOD9337032 Si02
#       8
#     8   8   4   8   8   8   8   8
#     4   9  19  37  58  86 119 164 199 248 305 377
#     4  11  24  40  56  84 125 173 212 251 305 385
#     4  10  18  34  66  92 122 152 196 268 324 372
#     4  10  20  37  62  89 125 162 202 255 322 375
#     4  11  20  35  62  96 127 159 200 264 333 382
#     4  11  21  36  60  91 125 161 213 257 307 390
#     4  10  21  37  58  92 132 164 202 261 321 384
#     4   9  19  35  57  90 122 155 201 251 314 377
#
# _framework density 9.9206350000000008
#
# number of rings (size 3 to 8) (size 9 to 14) (size 15 to 20)
#    0.000    1.867    4.000    0.400    0.000    3.733 
#    1.200    0.667    0.000    0.000    0.000    0.000 
#    0.000    0.000    0.000    0.000    0.000    0.000 
#
# Total GULP energy -167065.738538 kJ/mol
# GULP energy per Si atom -5568.857951 kJ/mol
# Density = 0.989806 g / cm^3
# Si number density = 9.920635 Si / 1000 Ang^3
#
#
#
# Elastic Constant Matrix: (Units=GPa)
#
#
# Indices 1 2 3 4 5 6 
#
# 1 126.2808 47.2968 25.9253 0.0000 0.0000 0.0000
# 2 47.2968 131.9721 18.9126 0.0000 0.0000 0.0000
# 3 25.9253 18.9126 12.4911 0.0000 0.0000 0.0000
# 4 0.0000 0.0000 0.0000 19.3055 0.0000 0.0000
# 5 0.0000 0.0000 0.0000 0.0000 -18.9384 0.0000
# 6 0.0000 0.0000 0.0000 0.0000 0.0000 10.5269
#
#
#
# Elastic Compliance Matrix: (Units=1/GPa)
#
#
# Indices 1 2 3 4 5 6 
#
# 1 0.013919 -0.001083 -0.027248 0.000000 0.000000 0.000000
# 2 -0.001083 0.009761 -0.012531 0.000000 0.000000 0.000000
# 3 -0.027248 -0.012531 0.155583 0.000000 0.000000 0.000000
# 4 0.000000 0.000000 0.000000 0.051799 0.000000 0.000000
# 5 0.000000 0.000000 0.000000 0.000000 -0.052803 0.000000
# 6 0.000000 0.000000 0.000000 0.000000 0.000000 0.094995
#
#
# Mechanical properties :
#
#
# Convention : Reuss Voigt Hill
#
# Bulk Modulus (GPa) = 10.25233 50.55705 30.40469
# Shear Modulus (GPa) = 12.90352 14.08608 13.49480
#
# Velocity S-wave (km/s) = 2.55294 2.66736 2.61077
# Velocity P-wave (km/s) = 3.72403 5.91798 4.94423
#
# Compressibility (1/GPa) = 0.09753880
#
# Stress axis : x y z
#
# Youngs Moduli (GPa) = 71.84647 102.44389 6.42743
#
# Poissons Ratio (x) = 0.11099 0.17513
# Poissons Ratio (y) = 0.07784 0.08054
# Poissons Ratio (z) = 1.95765 1.28374
#
# Static dielectric constant tensor:
#      x y z
#    x 1.658740 0.000000 0.000000 
#    y 0.000000 1.761790 0.000000 
#    z 0.000000 0.000000 1.835930 
# 
# From -- ./inp_files/33432.got.cif
#   From: 2010.05.17/outbox.ucp.g08.bks.cvg/sg24_17_cif.got.tgz:33432.got - 2010.06.11 15:20:44.
