data_PCOD9337884
_publ_section_title
;
Structure prediction by ZEFSAII (Michael W. Deem and Ramdas Pophale) SiO2 
 PCOD9337884
Probable space group: P M C 21
;
_chemical_formula_sum "Si O2"
_cell_formula_units_Z 30
_cell_length_a 29.799135
_cell_length_b 9.281108
_cell_length_c 5.458085
_cell_angle_alpha 90.000000
_cell_angle_beta 90.000000
_cell_angle_gamma 90.000000
_cell_volume 1509.537057
_symmetry_space_group_name_H-M "P M C 21"
_symmetry_group_IT_number 26
_symmetry_cell_setting 'orthorhombic'
loop_
_space_group_symop_operation_xyz
x,y,z
-x,-y,1/2+z
-x,y,z
x,-y,1/2+z
loop_
_atom_site_type_symbol
_atom_site_label
_atom_site_fract_x
_atom_site_fract_y
_atom_site_fract_z
Si Si1 0.098133 0.175489 0.870280
Si Si2 0.193597 0.496944 0.073506
Si Si3 0.548485 0.405365 0.964222
Si Si4 0.232574 0.185787 0.533959
Si Si5 0.133153 0.151603 0.371001
Si Si6 0.000000 0.904430 0.439302
Si Si7 0.646941 0.405820 0.925772
Si Si8 0.735575 0.234845 0.034326
O O1 0.111458 0.232215 0.603038
O O2 0.045774 0.186017 0.928478
O O3 0.109217 0.003586 0.845969
O O4 0.127259 0.222788 0.104757
O O5 0.167018 0.501228 0.823437
O O6 0.223677 0.641992 0.068991
O O7 0.228049 0.363930 0.067356
O O8 0.500000 0.327011 0.952249
O O9 0.548532 0.511347 0.726070
O O10 0.597460 0.333749 0.944730
O O11 0.184566 0.127263 0.445645
O O12 0.246637 0.140067 0.806770
O O13 0.266215 0.169550 0.306721
O O14 0.000000 0.996312 0.692372
O O15 0.650287 0.486901 0.662549
O O16 0.688207 0.298513 0.953654
#
# Coordination Sequence:
#
# PCOD9337884 Si02
#       8
#     4   4   4   4   4   2   4   4
#     4  10  19  30  45  62  83 104 124 146 173 219
#     4   8  14  23  34  47  66  91 119 150 185 213
#     4   8  14  22  31  45  64  86 115 156 201 235
#     4  10  18  26  38  52  74 101 126 157 187 216
#     4  10  18  29  40  58  80 105 127 149 178 215
#     4  12  16  30  48  68  80 106 124 144 184 212
#     4  10  16  23  36  50  67  93 127 164 200 237
#     4  10  17  26  36  52  71  98 130 163 196 221
#
# _framework density 19.873642
#
# number of rings (size 3 to 8) (size 9 to 14) (size 15 to 20)
#    0.000    2.400    2.667    4.000    0.000    0.000 
#    0.000    0.000    0.000    0.000    0.000    0.000 
#    0.000    0.000    0.000  183.600    0.000    0.000 
#
# Total GULP energy -167048.450237 kJ/mol
# GULP energy per Si atom -5568.281675 kJ/mol
# Density = 1.982841 g / cm^3
# Si number density = 19.873642 Si / 1000 Ang^3
#
#
#
# Elastic Constant Matrix: (Units=GPa)
#
#
# Indices 1 2 3 4 5 6 
#
# 1 109.1558 -2.0071 -6.9171 0.0000 0.0000 0.0000
# 2 -2.0071 39.3673 2.2495 0.0000 0.0000 0.0000
# 3 -6.9171 2.2495 168.6191 0.0000 0.0000 0.0000
# 4 0.0000 0.0000 0.0000 -3.7827 0.0000 0.0000
# 5 0.0000 0.0000 0.0000 0.0000 30.7705 0.0000
# 6 0.0000 0.0000 0.0000 0.0000 0.0000 6.4809
#
#
#
# Elastic Compliance Matrix: (Units=1/GPa)
#
#
# Indices 1 2 3 4 5 6 
#
# 1 0.009193 0.000447 0.000371 0.000000 0.000000 0.000000
# 2 0.000447 0.025443 -0.000321 0.000000 0.000000 0.000000
# 3 0.000371 -0.000321 0.005950 0.000000 0.000000 0.000000
# 4 0.000000 0.000000 0.000000 -0.264359 0.000000 0.000000
# 5 0.000000 0.000000 0.000000 0.000000 0.032499 0.000000
# 6 0.000000 0.000000 0.000000 0.000000 0.000000 0.154299
#
#
# Mechanical properties :
#
#
# Convention : Reuss Voigt Hill
#
# Bulk Modulus (GPa) = 24.04943 33.75477 28.90210
# Shear Modulus (GPa) = -207.38644 28.28154 -89.55245
#
# Velocity S-wave (km/s) = -10.22639 3.77645 -6.72003
# Velocity P-wave (km/s) = 11.28323 6.00308 6.75553
#
# Compressibility (1/GPa) = 0.04158102
#
# Stress axis : x y z
#
# Youngs Moduli (GPa) = 108.77889 39.30366 168.06625
#
# Poissons Ratio (x) = -0.01759 -0.06238
# Poissons Ratio (y) = -0.04868 0.05396
# Poissons Ratio (z) = -0.04037 0.01262
#
# Static dielectric constant tensor:
#      x y z
#    x 1.707280 0.000000 0.000000 
#    y 0.000000 1.798200 0.000000 
#    z 0.000000 0.000000 1.837920 
# 
# From -- ./inp_files/1077.got.cif
#   From: 2010.05.17/outbox.cif.g08.bks.cpg/sg26_1_cif.got.tgz:1077.got - 2010.06.04 01:07:29.
