data_PCOD9337472
_publ_section_title
;
Structure prediction by ZEFSAII (Michael W. Deem and Ramdas Pophale) SiO2 
 PCOD9337472
Probable space group: P M M 2
;
_chemical_formula_sum "Si O2"
_cell_formula_units_Z 32
_cell_length_a 8.918267
_cell_length_b 14.549255
_cell_length_c 16.039839
_cell_angle_alpha 90.000000
_cell_angle_beta 90.000000
_cell_angle_gamma 90.000000
_cell_volume 2081.235527
_symmetry_space_group_name_H-M "P M M 2"
_symmetry_group_IT_number 25
_symmetry_cell_setting 'orthorhombic'
loop_
_space_group_symop_operation_xyz
x,y,z
-x,-y,z
-x,y,z
x,-y,z
loop_
_atom_site_type_symbol
_atom_site_label
_atom_site_fract_x
_atom_site_fract_y
_atom_site_fract_z
Si Si1 0.178680 0.103627 0.662150
Si Si2 0.179464 0.294518 0.739263
Si Si3 0.819890 0.393750 0.254156
Si Si4 0.321232 0.609415 0.577513
Si Si5 0.326449 0.388405 0.082565
Si Si6 0.318510 0.391985 0.897713
Si Si7 0.321389 0.105389 0.480308
Si Si8 0.180223 0.285958 0.419720
O O1 0.214327 0.186853 0.723881
O O2 0.266158 0.117336 0.575643
O O3 0.000000 0.108943 0.643928
O O4 0.210394 0.000000 0.692690
O O5 0.248713 0.349204 0.660992
O O6 0.247531 0.333666 0.824060
O O7 0.000000 0.305746 0.739098
O O8 0.769770 0.500000 0.265380
O O9 0.760908 0.359317 0.165022
O O10 0.772792 0.333861 0.333337
O O11 0.000000 0.394112 0.251973
O O12 0.500000 0.625756 0.578552
O O13 0.295442 0.500000 0.573839
O O14 0.249207 0.658567 0.497518
O O15 0.500000 0.361155 0.090479
O O16 0.321994 0.500000 0.080943
O O17 0.270710 0.360704 0.990694
O O18 0.500000 0.386708 0.894786
O O19 0.279187 0.500000 0.887060
O O20 0.500000 0.118277 0.476543
O O21 0.238763 0.182178 0.426623
O O22 0.286391 0.000000 0.456566
O O23 0.000000 0.288329 0.425920
#
# Coordination Sequence:
#
# PCOD9337472 Si02
#       8
#     4   4   4   4   4   4   4   4
#     4   9  18  33  50  67  90 121 156 196 243 287
#     4  11  21  31  47  71  94 123 160 198 237 281
#     4   9  18  31  47  69  97 126 156 193 235 278
#     4  11  23  35  46  63  93 132 166 196 232 275
#     4   8  15  29  48  68  90 120 158 196 235 278
#     4   9  18  32  48  67  95 129 160 192 232 280
#     4  10  20  33  50  71  93 120 158 202 243 283
#     4  11  21  33  49  70  96 128 161 195 237 285
#
# _framework density 15.375482
#
# number of rings (size 3 to 8) (size 9 to 14) (size 15 to 20)
#    0.000    2.250    1.250    3.000    0.000    6.000 
#    0.000    2.500    0.000    0.000    0.000    0.875 
#    0.000    3.000    0.000    0.000    0.000    0.000 
#
# Total GULP energy -178450.035456 kJ/mol
# GULP energy per Si atom -5576.563608 kJ/mol
# Density = 1.534049 g / cm^3
# Si number density = 15.375482 Si / 1000 Ang^3
#
#
#
# Elastic Constant Matrix: (Units=GPa)
#
#
# Indices 1 2 3 4 5 6 
#
# 1 39.7141 43.8759 46.0263 0.0000 0.0000 0.0000
# 2 43.8759 97.8363 72.1861 0.0000 0.0000 0.0000
# 3 46.0263 72.1861 148.3689 0.0000 0.0000 0.0000
# 4 0.0000 0.0000 0.0000 7.5662 0.0000 0.0000
# 5 0.0000 0.0000 0.0000 0.0000 29.3230 0.0000
# 6 0.0000 0.0000 0.0000 0.0000 0.0000 22.2111
#
#
#
# Elastic Compliance Matrix: (Units=1/GPa)
#
#
# Indices 1 2 3 4 5 6 
#
# 1 0.055318 -0.018949 -0.007941 0.000000 0.000000 0.000000
# 2 -0.018949 0.022436 -0.005038 0.000000 0.000000 0.000000
# 3 -0.007941 -0.005038 0.011654 0.000000 0.000000 0.000000
# 4 0.000000 0.000000 0.000000 0.132167 0.000000 0.000000
# 5 0.000000 0.000000 0.000000 0.000000 0.034103 0.000000
# 6 0.000000 0.000000 0.000000 0.000000 0.000000 0.045023
#
#
# Mechanical properties :
#
#
# Convention : Reuss Voigt Hill
#
# Bulk Modulus (GPa) = 39.13438 67.78843 53.46141
# Shear Modulus (GPa) = 13.40221 20.07547 16.73884
#
# Velocity S-wave (km/s) = 2.95559 3.61734 3.30308
# Velocity P-wave (km/s) = 6.09550 7.85056 7.02803
#
# Compressibility (1/GPa) = 0.02555298
#
# Stress axis : x y z
#
# Youngs Moduli (GPa) = 18.07733 44.57183 85.80458
#
# Poissons Ratio (x) = 0.84458 0.68140
# Poissons Ratio (y) = 0.34254 0.43224
# Poissons Ratio (z) = 0.14356 0.22453
#
# Static dielectric constant tensor:
#      x y z
#    x 1.516310 0.000000 0.000000 
#    y 0.000000 1.513680 0.000000 
#    z 0.000000 0.000000 1.494140 
# 
# From -- ./inp_files/5683.got.cif
#   From: 2010.05.17/outbox.cif.g08.bks.cpg/sg25_3_cif.got.tgz:5683.got - 2010.06.04 01:04:00.
