data_PCOD9337874
_publ_section_title
;
Structure prediction by ZEFSAII (Michael W. Deem and Ramdas Pophale) SiO2 
 PCOD9337874
Probable space group: P M C 21
;
_chemical_formula_sum "Si O2"
_cell_formula_units_Z 24
_cell_length_a 30.240310
_cell_length_b 6.795159
_cell_length_c 5.220249
_cell_angle_alpha 90.000000
_cell_angle_beta 90.000000
_cell_angle_gamma 90.000000
_cell_volume 1072.697037
_symmetry_space_group_name_H-M "P M C 21"
_symmetry_group_IT_number 26
_symmetry_cell_setting 'orthorhombic'
loop_
_space_group_symop_operation_xyz
x,y,z
-x,-y,1/2+z
-x,y,z
x,-y,1/2+z
loop_
_atom_site_type_symbol
_atom_site_label
_atom_site_fract_x
_atom_site_fract_y
_atom_site_fract_z
Si Si1 0.676830 0.776048 0.742670
Si Si2 0.771789 0.869802 0.566854
Si Si3 0.358042 0.230111 0.742945
Si Si4 0.548091 0.133606 0.573304
Si Si5 0.951234 0.629261 0.576605
Si Si6 0.135691 0.125202 0.189807
O O1 0.725724 0.766372 0.627582
O O2 0.644188 0.690797 0.529453
O O3 0.658706 0.001742 0.781300
O O4 0.675321 0.693325 0.027755
O O5 0.818257 0.763245 0.625716
O O6 0.771689 0.952730 0.278348
O O7 0.406912 0.247344 0.628469
O O8 0.500000 0.233791 0.601517
O O9 0.549584 0.035717 0.293057
O O10 0.949146 0.542131 0.290799
O O11 0.909277 0.762815 0.631773
O O12 0.000000 0.724626 0.608150
O O13 0.136598 0.053148 0.482854
#
# Coordination Sequence:
#
# PCOD9337874 Si02
#       6
#     4   4   4   4   4   4
#     4  10  14  20  31  43  61  88 121 153 196 261
#     4  10  16  25  37  57  84 110 133 170 224 275
#     4  10  14  20  29  40  55  84 123 156 200 256
#     4  10  16  20  24  33  49  71 106 158 208 238
#     4  10  21  38  58  77 101 136 172 201 237 291
#     4  10  21  33  51  78 106 129 159 204 253 291
#
# _framework density 22.373508999999999
#
# number of rings (size 3 to 8) (size 9 to 14) (size 15 to 20)
#    0.000    2.000    6.667    1.000    0.000    0.667 
#    0.000    0.000    0.000    0.000    0.000    0.000 
#    0.000    0.000    0.000    0.000    0.000    0.000 
#
# Total GULP energy -133746.745021 kJ/mol
# GULP energy per Si atom -5572.781043 kJ/mol
# Density = 2.232259 g / cm^3
# Si number density = 22.373509 Si / 1000 Ang^3
#
#
#
# Elastic Constant Matrix: (Units=GPa)
#
#
# Indices 1 2 3 4 5 6 
#
# 1 164.9956 0.3123 -19.4506 0.0000 0.0000 0.0000
# 2 0.3123 29.3040 -11.5978 0.0000 0.0000 0.0000
# 3 -19.4506 -11.5978 104.1903 0.0000 0.0000 0.0000
# 4 0.0000 0.0000 0.0000 -11.8316 0.0000 0.0000
# 5 0.0000 0.0000 0.0000 0.0000 36.0754 0.0000
# 6 0.0000 0.0000 0.0000 0.0000 0.0000 4.1780
#
#
#
# Elastic Compliance Matrix: (Units=1/GPa)
#
#
# Indices 1 2 3 4 5 6 
#
# 1 0.006202 0.000410 0.001203 0.000000 0.000000 0.000000
# 2 0.000410 0.035725 0.004053 0.000000 0.000000 0.000000
# 3 0.001203 0.004053 0.010274 0.000000 0.000000 0.000000
# 4 0.000000 0.000000 0.000000 -0.084519 0.000000 0.000000
# 5 0.000000 0.000000 0.000000 0.000000 0.027720 0.000000
# 6 0.000000 0.000000 0.000000 0.000000 0.000000 0.239351
#
#
# Mechanical properties :
#
#
# Convention : Reuss Voigt Hill
#
# Bulk Modulus (GPa) = 15.73957 26.33529 21.03743
# Shear Modulus (GPa) = 20.44182 27.63274 24.03728
#
# Velocity S-wave (km/s) = 3.02596 3.51816 3.28130
# Velocity P-wave (km/s) = 4.38848 5.31974 4.87639
#
# Compressibility (1/GPa) = 0.06353412
#
# Stress axis : x y z
#
# Youngs Moduli (GPa) = 161.24191 27.99174 97.33620
#
# Poissons Ratio (x) = -0.01148 -0.11714
# Poissons Ratio (y) = -0.06614 -0.39453
# Poissons Ratio (z) = -0.19405 -0.11346
#
# Static dielectric constant tensor:
#      x y z
#    x 1.876900 0.000000 0.000000 
#    y 0.000000 1.996710 0.000000 
#    z 0.000000 0.000000 1.854330 
# 
# From -- ./inp_files/1033.got.cif
#   From: 2010.05.17/outbox.cif.g08.bks.cpg/sg26_1_cif.got.tgz:1033.got - 2010.06.04 01:07:29.
