data_PCOD9337923
_publ_section_title
;
Structure prediction by ZEFSAII (Michael W. Deem and Ramdas Pophale) SiO2 
 PCOD9337923
Probable space group: P M C 21
;
_chemical_formula_sum "Si O2"
_cell_formula_units_Z 32
_cell_length_a 12.213950
_cell_length_b 30.709404
_cell_length_c 5.147357
_cell_angle_alpha 90.000000
_cell_angle_beta 90.000000
_cell_angle_gamma 90.000000
_cell_volume 1930.686749
_symmetry_space_group_name_H-M "P M C 21"
_symmetry_group_IT_number 26
_symmetry_cell_setting 'orthorhombic'
loop_
_space_group_symop_operation_xyz
x,y,z
-x,-y,1/2+z
-x,y,z
x,-y,1/2+z
loop_
_atom_site_type_symbol
_atom_site_label
_atom_site_fract_x
_atom_site_fract_y
_atom_site_fract_z
Si Si1 0.871049 0.697124 0.826320
Si Si2 0.255765 0.268944 0.828250
Si Si3 0.633445 0.026111 0.372939
Si Si4 0.367858 0.877398 0.727895
Si Si5 0.373609 0.529166 0.872161
Si Si6 0.621841 0.647386 0.244145
Si Si7 0.632523 0.177120 0.728574
Si Si8 0.266826 0.616479 0.742731
O O1 0.805608 0.722074 0.598539
O O2 0.840474 0.645662 0.795351
O O3 0.000000 0.703455 0.805132
O O4 0.824856 0.715212 0.098260
O O5 0.357549 0.302325 0.809971
O O6 0.301479 0.220841 0.788795
O O7 0.500000 0.027389 0.373253
O O8 0.672527 0.074344 0.298143
O O9 0.666576 0.008650 0.654027
O O10 0.500000 0.880255 0.733432
O O11 0.339766 0.859011 0.445890
O O12 0.338304 0.842579 0.948672
O O13 0.500000 0.546170 0.847097
O O14 0.362739 0.491691 0.655724
O O15 0.284511 0.566451 0.818537
O O16 0.500000 0.632970 0.301332
O O17 0.701414 0.622126 0.441589
O O18 0.648759 0.639820 0.942898
O O19 0.500000 0.184619 0.737800
#
# Coordination Sequence:
#
# PCOD9337923 Si02
#       8
#     4   4   4   4   4   4   4   4
#     4  10  21  37  54  70  89 115 155 199 232 266
#     4  10  20  32  49  71  90 118 152 184 231 278
#     4   9  15  23  35  51  74 109 161 210 230 246
#     4   9  17  26  38  57  84 123 160 193 231 266
#     4  10  19  30  46  69  98 127 150 175 215 269
#     4  10  18  29  46  69  96 120 149 185 221 265
#     4  10  18  29  43  63  95 124 152 186 225 281
#     4  10  20  32  49  70  93 124 155 186 224 265
#
# _framework density 16.574413
#
# number of rings (size 3 to 8) (size 9 to 14) (size 15 to 20)
#    0.000    2.250    0.000    4.125    0.000    4.000 
#    0.000    3.750    0.000    0.750    0.000    0.000 
#    0.000    0.000    0.000    0.000    0.000  157.500 
#
# Total GULP energy -178313.447194 kJ/mol
# GULP energy per Si atom -5572.295225 kJ/mol
# Density = 1.653669 g / cm^3
# Si number density = 16.574413 Si / 1000 Ang^3
#
#
#
# Elastic Constant Matrix: (Units=GPa)
#
#
# Indices 1 2 3 4 5 6 
#
# 1 28.9751 5.9413 -1.9960 0.0000 0.0000 0.0000
# 2 5.9413 49.7160 -21.3207 0.0000 0.0000 0.0000
# 3 -1.9960 -21.3207 52.6589 0.0000 0.0000 0.0000
# 4 0.0000 0.0000 0.0000 20.3119 0.0000 0.0000
# 5 0.0000 0.0000 0.0000 0.0000 9.5730 0.0000
# 6 0.0000 0.0000 0.0000 0.0000 0.0000 8.1538
#
#
#
# Elastic Compliance Matrix: (Units=1/GPa)
#
#
# Indices 1 2 3 4 5 6 
#
# 1 0.035388 -0.004422 -0.000449 0.000000 0.000000 0.000000
# 2 -0.004422 0.024893 0.009911 0.000000 0.000000 0.000000
# 3 -0.000449 0.009911 0.022986 0.000000 0.000000 0.000000
# 4 0.000000 0.000000 0.000000 0.049232 0.000000 0.000000
# 5 0.000000 0.000000 0.000000 0.000000 0.104460 0.000000
# 6 0.000000 0.000000 0.000000 0.000000 0.000000 0.122642
#
#
# Mechanical properties :
#
#
# Convention : Reuss Voigt Hill
#
# Bulk Modulus (GPa) = 10.71253 10.73326 10.72290
# Shear Modulus (GPa) = 13.13588 17.52276 15.32932
#
# Velocity S-wave (km/s) = 2.81826 3.25502 3.04448
# Velocity P-wave (km/s) = 4.13128 4.54056 4.34075
#
# Compressibility (1/GPa) = 0.09334863
#
# Stress axis : x y z
#
# Youngs Moduli (GPa) = 28.25813 40.17188 43.50477
#
# Poissons Ratio (x) = 0.17762 0.01953
# Poissons Ratio (y) = 0.12494 -0.43118
# Poissons Ratio (z) = 0.01268 -0.39815
#
# Static dielectric constant tensor:
#      x y z
#    x 1.527780 0.000000 0.000000 
#    y 0.000000 1.578820 0.000000 
#    z 0.000000 0.000000 1.564680 
# 
# From -- ./inp_files/517.got.cif
#   From: 2010.05.17/outbox.cif.g08.bks.cpg/sg26_1_cif.got.tgz:517.got - 2010.06.04 01:07:29.
