data_PCOD9337553
_publ_section_title
;
Structure prediction by ZEFSAII (Michael W. Deem and Ramdas Pophale) SiO2 
 PCOD9337553
Probable space group: P M M 2
;
_chemical_formula_sum "Si O2"
_cell_formula_units_Z 32
_cell_length_a 8.377013
_cell_length_b 17.139948
_cell_length_c 11.501380
_cell_angle_alpha 90.000000
_cell_angle_beta 90.000000
_cell_angle_gamma 90.000000
_cell_volume 1651.386166
_symmetry_space_group_name_H-M "P M M 2"
_symmetry_group_IT_number 25
_symmetry_cell_setting 'orthorhombic'
loop_
_space_group_symop_operation_xyz
x,y,z
-x,-y,z
-x,y,z
x,-y,z
loop_
_atom_site_type_symbol
_atom_site_label
_atom_site_fract_x
_atom_site_fract_y
_atom_site_fract_z
Si Si1 0.690068 0.587837 0.344840
Si Si2 0.811555 0.873332 0.075114
Si Si3 0.316928 0.725608 0.963663
Si Si4 0.685457 0.766281 0.709295
Si Si5 0.179690 0.589522 0.085950
Si Si6 0.812516 0.747864 0.456754
Si Si7 0.804672 0.088551 0.334763
Si Si8 0.187101 0.912591 0.818066
O O1 0.500000 0.588419 0.325942
O O2 0.729020 0.500000 0.394335
O O3 0.778575 0.593014 0.221546
O O4 0.734199 0.667500 0.411309
O O5 0.749876 0.900815 0.199971
O O6 0.000000 0.889023 0.079596
O O7 0.777198 0.782591 0.050595
O O8 0.756086 0.909978 0.952662
O O9 0.500000 0.752865 0.960859
O O10 0.257069 0.728480 0.830996
O O11 0.301740 0.640447 0.014168
O O12 0.500000 0.746198 0.690071
O O13 0.783576 0.748881 0.594605
O O14 0.707840 0.856960 0.739874
O O15 0.186323 0.500000 0.050286
O O16 0.000000 0.619211 0.066520
O O17 0.754479 0.831982 0.403419
O O18 0.000000 0.743384 0.429064
O O19 0.000000 0.089152 0.337616
O O20 0.757347 0.000000 0.373659
O O21 0.000000 0.886467 0.816725
O O22 0.191327 0.000000 0.775203
#
# Coordination Sequence:
#
# PCOD9337553 Si02
#       8
#     4   4   4   4   4   4   4   4
#     4  10  21  38  61  87 115 147 181 220 270 329
#     4   9  16  29  52  78 104 135 171 216 271 329
#     4  10  20  34  53  76 104 139 176 218 271 328
#     4  10  22  38  53  72 102 142 186 228 273 329
#     4  10  20  34  55  84 114 139 167 209 261 320
#     4  11  22  36  57  82 109 146 190 237 282 322
#     4   9  18  32  51  78 110 142 178 220 268 323
#     4   9  17  30  51  78 104 133 174 224 276 330
#
# _framework density 19.377661
#
# number of rings (size 3 to 8) (size 9 to 14) (size 15 to 20)
#    0.000    2.250    0.000    3.000    0.000    6.250 
#    0.000    2.500    0.000    4.500    0.000    0.000 
#    0.000    0.000    0.000    0.000    0.000    0.000 
#
# Total GULP energy -178270.777174 kJ/mol
# GULP energy per Si atom -5570.961787 kJ/mol
# Density = 1.933356 g / cm^3
# Si number density = 19.377661 Si / 1000 Ang^3
#
#
#
# Elastic Constant Matrix: (Units=GPa)
#
#
# Indices 1 2 3 4 5 6 
#
# 1 14.9143 11.3893 -4.4537 0.0000 0.0000 0.0000
# 2 11.3893 113.8140 35.9073 0.0000 0.0000 0.0000
# 3 -4.4537 35.9073 41.8992 0.0000 0.0000 0.0000
# 4 0.0000 0.0000 0.0000 0.7647 0.0000 0.0000
# 5 0.0000 0.0000 0.0000 0.0000 18.4408 0.0000
# 6 0.0000 0.0000 0.0000 0.0000 0.0000 21.9810
#
#
#
# Elastic Compliance Matrix: (Units=1/GPa)
#
#
# Indices 1 2 3 4 5 6 
#
# 1 0.085790 -0.015709 0.022582 0.000000 0.000000 0.000000
# 2 -0.015709 0.014919 -0.014455 0.000000 0.000000 0.000000
# 3 0.022582 -0.014455 0.038655 0.000000 0.000000 0.000000
# 4 0.000000 0.000000 0.000000 1.307646 0.000000 0.000000
# 5 0.000000 0.000000 0.000000 0.000000 0.054227 0.000000
# 6 0.000000 0.000000 0.000000 0.000000 0.000000 0.045494
#
#
# Mechanical properties :
#
#
# Convention : Reuss Voigt Hill
#
# Bulk Modulus (GPa) = 8.05166 28.47925 18.26545
# Shear Modulus (GPa) = 3.11858 16.75628 9.93743
#
# Velocity S-wave (km/s) = 1.26998 2.94381 2.26703
# Velocity P-wave (km/s) = 2.51289 5.12674 4.03721
#
# Compressibility (1/GPa) = 0.12419807
#
# Stress axis : x y z
#
# Youngs Moduli (GPa) = 11.65644 67.03003 25.86993
#
# Poissons Ratio (x) = 1.05299 -0.58419
# Poissons Ratio (y) = 0.18311 0.37395
# Poissons Ratio (z) = -0.26322 0.96892
#
# Static dielectric constant tensor:
#      x y z
#    x 1.700930 0.000000 0.000000 
#    y 0.000000 1.714820 0.000000 
#    z 0.000000 0.000000 1.660820 
# 
# From -- ./inp_files/4459.got.cif
#   From: 2010.05.17/outbox.cif.g08.bks.cpg/sg25_3_cif.got.tgz:4459.got - 2010.06.04 01:04:00.
