data_PCOD9337763
_publ_section_title
;
Structure prediction by ZEFSAII (Michael W. Deem and Ramdas Pophale) SiO2 
 PCOD9337763
Probable space group: P M M 2
;
_chemical_formula_sum "Si O2"
_cell_formula_units_Z 32
_cell_length_a 14.036331
_cell_length_b 9.049233
_cell_length_c 13.208799
_cell_angle_alpha 90.000000
_cell_angle_beta 90.000000
_cell_angle_gamma 90.000000
_cell_volume 1677.755623
_symmetry_space_group_name_H-M "P M M 2"
_symmetry_group_IT_number 25
_symmetry_cell_setting 'orthorhombic'
loop_
_space_group_symop_operation_xyz
x,y,z
-x,-y,z
-x,y,z
x,-y,z
loop_
_atom_site_type_symbol
_atom_site_label
_atom_site_fract_x
_atom_site_fract_y
_atom_site_fract_z
Si Si1 0.789420 0.176364 0.346990
Si Si2 0.211928 0.675748 0.751192
Si Si3 0.389165 0.677736 0.268456
Si Si4 0.384425 0.667875 0.038968
Si Si5 0.115079 0.328540 0.154184
Si Si6 0.112605 0.176320 0.560539
Si Si7 0.612380 0.825657 0.833223
Si Si8 0.884777 0.827306 0.944672
O O1 0.683017 0.241332 0.342341
O O2 0.844834 0.247983 0.252720
O O3 0.841182 0.212306 0.452224
O O4 0.788021 0.000000 0.335565
O O5 0.208814 0.500000 0.756343
O O6 0.162265 0.735375 0.650364
O O7 0.319894 0.734834 0.759287
O O8 0.158151 0.745653 0.847870
O O9 0.500000 0.718708 0.281541
O O10 0.382625 0.500000 0.277891
O O11 0.357991 0.713575 0.152610
O O12 0.500000 0.661269 0.041903
O O13 0.350740 0.500000 0.018283
O O14 0.360294 0.775262 0.947258
O O15 0.144691 0.500000 0.154048
O O16 0.000000 0.323181 0.157593
O O17 0.144838 0.250330 0.049580
O O18 0.000000 0.206757 0.558394
O O19 0.124926 0.000000 0.578186
O O20 0.500000 0.794377 0.819702
O O21 0.627461 0.000000 0.821237
O O22 0.000000 0.819312 0.939012
O O23 0.857898 0.000000 0.944470
#
# Coordination Sequence:
#
# PCOD9337763 Si02
#       8
#     4   4   4   4   4   4   4   4
#     4  11  23  38  61  90 120 157 201 248 302 360
#     4  12  25  39  61  90 120 155 197 246 304 365
#     4   9  19  36  57  83 120 163 204 248 298 352
#     4   8  15  30  52  78 112 155 198 241 290 342
#     4  10  21  37  58  86 121 158 196 242 297 358
#     4  10  23  45  68  88 115 154 202 254 304 358
#     4  10  21  37  58  85 119 159 203 248 293 349
#     4  10  21  38  60  86 119 157 196 242 297 358
#
# _framework density 19.073098999999999
#
# number of rings (size 3 to 8) (size 9 to 14) (size 15 to 20)
#    0.000    2.000    0.000    4.125    1.750    6.250 
#    0.000    1.875    0.000    0.750    0.000    0.000 
#    0.000    0.000    0.000    0.000    0.000    0.000 
#
# Total GULP energy -178878.313277 kJ/mol
# GULP energy per Si atom -5589.947290 kJ/mol
# Density = 1.902969 g / cm^3
# Si number density = 19.073099 Si / 1000 Ang^3
#
#
#
# Elastic Constant Matrix: (Units=GPa)
#
#
# Indices 1 2 3 4 5 6 
#
# 1 104.3005 72.2813 75.4013 0.0000 0.0000 0.0000
# 2 72.2813 118.5370 96.8378 0.0000 0.0000 0.0000
# 3 75.4013 96.8378 145.2933 0.0000 0.0000 0.0000
# 4 0.0000 0.0000 0.0000 51.1460 0.0000 0.0000
# 5 0.0000 0.0000 0.0000 0.0000 36.3625 0.0000
# 6 0.0000 0.0000 0.0000 0.0000 0.0000 31.1486
#
#
#
# Elastic Compliance Matrix: (Units=1/GPa)
#
#
# Indices 1 2 3 4 5 6 
#
# 1 0.017798 -0.007261 -0.004397 0.000000 0.000000 0.000000
# 2 -0.007261 0.021482 -0.010550 0.000000 0.000000 0.000000
# 3 -0.004397 -0.010550 0.016196 0.000000 0.000000 0.000000
# 4 0.000000 0.000000 0.000000 0.019552 0.000000 0.000000
# 5 0.000000 0.000000 0.000000 0.000000 0.027501 0.000000
# 6 0.000000 0.000000 0.000000 0.000000 0.000000 0.032104
#
#
# Mechanical properties :
#
#
# Convention : Reuss Voigt Hill
#
# Bulk Modulus (GPa) = 90.40865 95.24129 92.82497
# Shear Modulus (GPa) = 27.36178 31.97209 29.66694
#
# Velocity S-wave (km/s) = 3.79169 4.09870 3.94818
# Velocity P-wave (km/s) = 8.16537 8.51131 8.34013
#
# Compressibility (1/GPa) = 0.01106089
#
# Stress axis : x y z
#
# Youngs Moduli (GPa) = 56.18493 46.55014 61.74279
#
# Poissons Ratio (x) = 0.33798 0.27151
# Poissons Ratio (y) = 0.40794 0.65138
# Poissons Ratio (z) = 0.24707 0.49110
#
# Static dielectric constant tensor:
#      x y z
#    x 1.705810 0.000000 0.000000 
#    y 0.000000 1.634760 0.000000 
#    z 0.000000 0.000000 1.625170 
# 
# From -- ./inp_files/4206.got.cif
#   From: 2010.05.17/outbox.cif.g08.bks.cpg/sg25_3_cif.got.tgz:4206.got - 2010.06.04 01:04:00.
