data_PCOD9337343
_publ_section_title
;
Structure prediction by ZEFSAII (Michael W. Deem and Ramdas Pophale) SiO2 
 PCOD9337343
Probable space group: P M M 2
;
_chemical_formula_sum "Si O2"
_cell_formula_units_Z 24
_cell_length_a 12.798487
_cell_length_b 8.748703
_cell_length_c 12.116814
_cell_angle_alpha 90.000000
_cell_angle_beta 90.000000
_cell_angle_gamma 90.000000
_cell_volume 1356.721622
_symmetry_space_group_name_H-M "P M M 2"
_symmetry_group_IT_number 25
_symmetry_cell_setting 'orthorhombic'
loop_
_space_group_symop_operation_xyz
x,y,z
-x,-y,z
-x,y,z
x,-y,z
loop_
_atom_site_type_symbol
_atom_site_label
_atom_site_fract_x
_atom_site_fract_y
_atom_site_fract_z
Si Si1 0.000000 0.815761 0.250000
Si Si2 0.123251 0.184305 0.608211
Si Si3 0.000000 0.814253 0.995011
Si Si4 0.800080 0.815302 0.851846
Si Si5 0.621892 0.682392 0.997203
Si Si6 0.377243 0.182567 0.235929
Si Si7 0.802762 0.682008 0.381196
O O1 0.000000 0.766902 0.122125
O O2 0.897930 0.753356 0.311095
O O3 0.000000 0.000000 0.255331
O O4 0.172594 0.225903 0.726160
O O5 0.180946 0.261409 0.505986
O O6 0.000000 0.224916 0.606810
O O7 0.129087 0.000000 0.596682
O O8 0.896727 0.765796 0.929417
O O9 0.000000 0.000000 0.993667
O O10 0.793224 0.000000 0.857217
O O11 0.695584 0.744032 0.901052
O O12 0.500000 0.720388 0.977785
O O13 0.631223 0.500000 0.006832
O O14 0.652866 0.757812 0.114078
O O15 0.500000 0.218863 0.251947
O O16 0.303915 0.258883 0.326631
O O17 0.364451 0.000000 0.239231
O O18 0.807889 0.500000 0.376066
#
# Coordination Sequence:
#
# PCOD9337343 Si02
#       7
#     2   4   2   4   4   4   4
#     4  11  21  34  55  82 116 153 188 231 284 343
#     4  10  20  37  60  82 111 154 197 239 286 338
#     4   9  18  32  53  82 110 137 174 227 282 329
#     4  10  19  35  59  85 111 145 193 237 280 337
#     4  10  21  37  57  84 119 154 187 231 289 344
#     4  10  21  39  63  87 112 148 194 240 289 347
#     4  12  24  37  56  84 118 151 191 239 292 349
#
# _framework density 17.689699999999998
#
# number of rings (size 3 to 8) (size 9 to 14) (size 15 to 20)
#    0.000    1.667    1.667    3.750    0.000    4.000 
#    0.000    2.083    0.000    1.000    0.000    0.000 
#    0.000    0.000    0.000    0.000    0.000    0.000 
#
# Total GULP energy -134102.147994 kJ/mol
# GULP energy per Si atom -5587.589500 kJ/mol
# Density = 1.764944 g / cm^3
# Si number density = 17.689700 Si / 1000 Ang^3
#
#
#
# Elastic Constant Matrix: (Units=GPa)
#
#
# Indices 1 2 3 4 5 6 
#
# 1 91.6277 45.2616 79.1152 0.0000 0.0000 0.0000
# 2 45.2616 57.3847 59.3911 0.0000 0.0000 0.0000
# 3 79.1152 59.3911 167.5730 0.0000 0.0000 0.0000
# 4 0.0000 0.0000 0.0000 -2.4799 0.0000 0.0000
# 5 0.0000 0.0000 0.0000 0.0000 18.5534 0.0000
# 6 0.0000 0.0000 0.0000 0.0000 0.0000 24.4758
#
#
#
# Elastic Compliance Matrix: (Units=1/GPa)
#
#
# Indices 1 2 3 4 5 6 
#
# 1 0.021686 -0.010278 -0.006596 0.000000 0.000000 0.000000
# 2 -0.010278 0.032393 -0.006628 0.000000 0.000000 0.000000
# 3 -0.006596 -0.006628 0.011431 0.000000 0.000000 0.000000
# 4 0.000000 0.000000 0.000000 -0.403236 0.000000 0.000000
# 5 0.000000 0.000000 0.000000 0.000000 0.053899 0.000000
# 6 0.000000 0.000000 0.000000 0.000000 0.000000 0.040857
#
#
# Mechanical properties :
#
#
# Convention : Reuss Voigt Hill
#
# Bulk Modulus (GPa) = 54.03790 76.01347 65.02568
# Shear Modulus (GPa) = -26.34363 16.96435 -4.68964
#
# Velocity S-wave (km/s) = -3.86321 3.10013 -1.62997
# Velocity P-wave (km/s) = 3.27334 7.47517 5.77031
#
# Compressibility (1/GPa) = 0.01850553
#
# Stress axis : x y z
#
# Youngs Moduli (GPa) = 46.11312 30.87091 87.48453
#
# Poissons Ratio (x) = 0.31730 0.57701
# Poissons Ratio (y) = 0.47396 0.57985
# Poissons Ratio (z) = 0.30414 0.20461
#
# Static dielectric constant tensor:
#      x y z
#    x 1.588410 0.000000 0.000000 
#    y 0.000000 1.590730 0.000000 
#    z 0.000000 0.000000 1.578650 
# 
# From -- ./inp_files/3986.got.cif
#   From: 2010.05.17/outbox.cif.g08.bks.cpg/sg25_2_cif.got.tgz:3986.got - 2010.06.04 01:04:00.
