data_PCOD9337696
_publ_section_title
;
Structure prediction by ZEFSAII (Michael W. Deem and Ramdas Pophale) SiO2 
 PCOD9337696
Probable space group: P M M 2
;
_chemical_formula_sum "Si O2"
_cell_formula_units_Z 28
_cell_length_a 9.832257
_cell_length_b 8.297613
_cell_length_c 18.561249
_cell_angle_alpha 90.000000
_cell_angle_beta 90.000000
_cell_angle_gamma 90.000000
_cell_volume 1514.305829
_symmetry_space_group_name_H-M "P M M 2"
_symmetry_group_IT_number 25
_symmetry_cell_setting 'orthorhombic'
loop_
_space_group_symop_operation_xyz
x,y,z
-x,-y,z
-x,y,z
x,-y,z
loop_
_atom_site_type_symbol
_atom_site_label
_atom_site_fract_x
_atom_site_fract_y
_atom_site_fract_z
Si Si1 0.843923 0.194062 0.941980
Si Si2 0.843161 0.805113 0.522095
Si Si3 0.843430 0.307488 0.681560
Si Si4 0.342769 0.803411 0.390723
Si Si5 0.655877 0.194414 0.811263
Si Si6 0.155370 0.692282 0.100060
Si Si7 0.657436 0.805506 0.229722
O O1 0.741541 0.253328 0.880516
O O2 0.000000 0.252504 0.930952
O O3 0.847442 0.000000 0.937970
O O4 0.799849 0.241552 0.022336
O O5 0.802592 0.742431 0.600729
O O6 0.750097 0.747470 0.456385
O O7 0.000000 0.757505 0.510141
O O8 0.837435 0.000000 0.523984
O O9 0.844455 0.500000 0.686546
O O10 0.740732 0.239859 0.740524
O O11 0.000000 0.249341 0.693376
O O12 0.500000 0.756203 0.400648
O O13 0.298864 0.752929 0.310269
O O14 0.339454 0.000000 0.391094
O O15 0.500000 0.253359 0.809905
O O16 0.650959 0.000000 0.815335
O O17 0.153856 0.500000 0.095720
O O18 0.249514 0.743859 0.165738
O O19 0.000000 0.750129 0.111641
O O20 0.500000 0.756103 0.220014
O O21 0.660557 0.000000 0.228789
#
# Coordination Sequence:
#
# PCOD9337696 Si02
#       7
#     4   4   4   4   4   4   4
#     4   9  18  34  55  76 100 133 171 209 250 298
#     4   9  17  30  50  75 100 128 166 210 253 298
#     4  10  21  36  53  74 103 139 174 207 248 299
#     4   8  15  29  49  73  99 127 163 208 255 300
#     4  10  21  36  55  80 106 131 164 208 255 301
#     4  10  21  35  51  75 106 137 170 208 251 300
#     4   9  18  33  53  76 102 134 172 212 254 301
#
# _framework density 18.490321000000002
#
# number of rings (size 3 to 8) (size 9 to 14) (size 15 to 20)
#    0.000    2.714    0.000    2.143    0.000    5.143 
#    0.000    6.429    0.000    2.571    0.000    0.000 
#    0.000    0.000    0.000    0.000    0.000    0.000 
#
# Total GULP energy -156173.184381 kJ/mol
# GULP energy per Si atom -5577.613728 kJ/mol
# Density = 1.844824 g / cm^3
# Si number density = 18.490321 Si / 1000 Ang^3
#
#
#
# Elastic Constant Matrix: (Units=GPa)
#
#
# Indices 1 2 3 4 5 6 
#
# 1 108.1409 15.2447 124.6317 0.0000 0.0000 0.0000
# 2 15.2447 5.1878 14.7988 0.0000 0.0000 0.0000
# 3 124.6317 14.7988 200.7396 0.0000 0.0000 0.0000
# 4 0.0000 0.0000 0.0000 -38.6068 0.0000 0.0000
# 5 0.0000 0.0000 0.0000 0.0000 145.5431 0.0000
# 6 0.0000 0.0000 0.0000 0.0000 0.0000 14.7220
#
#
#
# Elastic Compliance Matrix: (Units=1/GPa)
#
#
# Indices 1 2 3 4 5 6 
#
# 1 0.045856 -0.067793 -0.023472 0.000000 0.000000 0.000000
# 2 -0.067793 0.344316 0.016707 0.000000 0.000000 0.000000
# 3 -0.023472 0.016707 0.018323 0.000000 0.000000 0.000000
# 4 0.000000 0.000000 0.000000 -0.025902 0.000000 0.000000
# 5 0.000000 0.000000 0.000000 0.000000 0.006871 0.000000
# 6 0.000000 0.000000 0.000000 0.000000 0.000000 0.067926
#
#
# Mechanical properties :
#
#
# Convention : Reuss Voigt Hill
#
# Bulk Modulus (GPa) = 3.85539 69.26874 36.56206
# Shear Modulus (GPa) = 7.21538 34.95786 21.08662
#
# Velocity S-wave (km/s) = 1.97755 4.35282 3.38067
# Velocity P-wave (km/s) = 2.70257 7.92504 5.92073
#
# Compressibility (1/GPa) = 0.25937741
#
# Stress axis : x y z
#
# Youngs Moduli (GPa) = 21.80757 2.90431 54.57624
#
# Poissons Ratio (x) = 0.19689 1.28103
# Poissons Ratio (y) = 1.47840 -0.91179
# Poissons Ratio (z) = 0.51187 -0.04852
#
# Static dielectric constant tensor:
#      x y z
#    x 1.634040 0.000000 0.000000 
#    y 0.000000 1.636920 0.000000 
#    z 0.000000 0.000000 1.614700 
# 
# From -- ./inp_files/6030.got.cif
#   From: 2010.05.17/outbox.cif.g08.bks.cpg/sg25_4_cif.got.tgz:6030.got - 2010.06.04 01:04:00.
