data_PCOD9337685
_publ_section_title
;
Structure prediction by ZEFSAII (Michael W. Deem and Ramdas Pophale) SiO2 
 PCOD9337685
Probable space group: P M M 2
;
_chemical_formula_sum "Si O2"
_cell_formula_units_Z 28
_cell_length_a 10.050512
_cell_length_b 7.436333
_cell_length_c 18.374250
_cell_angle_alpha 90.000000
_cell_angle_beta 90.000000
_cell_angle_gamma 90.000000
_cell_volume 1373.272226
_symmetry_space_group_name_H-M "P M M 2"
_symmetry_group_IT_number 25
_symmetry_cell_setting 'orthorhombic'
loop_
_space_group_symop_operation_xyz
x,y,z
-x,-y,z
-x,y,z
x,-y,z
loop_
_atom_site_type_symbol
_atom_site_label
_atom_site_fract_x
_atom_site_fract_y
_atom_site_fract_z
Si Si1 0.346816 0.780584 0.520730
Si Si2 0.151080 0.714176 0.812956
Si Si3 0.349391 0.287264 0.935242
Si Si4 0.151722 0.219234 0.230934
Si Si5 0.653183 0.219250 0.357381
Si Si6 0.150750 0.216559 0.065573
Si Si7 0.151000 0.783867 0.646486
O O1 0.500000 0.726074 0.532061
O O2 0.305699 0.726019 0.439025
O O3 0.250647 0.717324 0.584639
O O4 0.345668 0.000000 0.521529
O O5 0.142879 0.500000 0.824694
O O6 0.258357 0.787601 0.869776
O O7 0.191394 0.742559 0.729225
O O8 0.000000 0.785777 0.822731
O O9 0.500000 0.214709 0.940160
O O10 0.362113 0.500000 0.921860
O O11 0.262971 0.267718 0.008331
O O12 0.252534 0.281882 0.292630
O O13 0.181234 0.276411 0.148118
O O14 0.000000 0.271126 0.247521
O O15 0.155755 0.000000 0.230798
O O16 0.500000 0.273116 0.346397
O O17 0.655418 0.000000 0.356665
O O18 0.000000 0.278187 0.046027
O O19 0.146153 0.000000 0.066609
O O20 0.000000 0.716966 0.636551
O O21 0.147219 0.000000 0.640433
#
# Coordination Sequence:
#
# PCOD9337685 Si02
#       7
#     4   4   4   4   4   4   4
#     4   8  14  24  37  56  85 118 147 175 212 259
#     4   9  18  33  50  65  85 116 149 180 221 272
#     4  10  21  35  50  70  94 119 152 192 230 273
#     4   8  14  24  38  59  87 116 146 181 219 258
#     4   8  13  21  34  54  82 116 149 177 210 256
#     4   9  18  32  49  70  96 124 154 189 230 276
#     4   9  17  28  43  65  89 111 141 182 222 259
#
# _framework density 20.389254999999999
#
# number of rings (size 3 to 8) (size 9 to 14) (size 15 to 20)
#    0.000    3.286    0.000    2.143    0.000    3.429 
#    0.000    5.714    0.000    0.000    0.000    1.000 
#    0.000    3.429    0.000    0.000    0.000    0.000 
#
# Total GULP energy -156174.655504 kJ/mol
# GULP energy per Si atom -5577.666268 kJ/mol
# Density = 2.034285 g / cm^3
# Si number density = 20.389255 Si / 1000 Ang^3
#
#
#
# Elastic Constant Matrix: (Units=GPa)
#
#
# Indices 1 2 3 4 5 6 
#
# 1 160.4990 5.5129 154.5992 0.0000 0.0000 0.0000
# 2 5.5129 63.1399 -0.2550 0.0000 0.0000 0.0000
# 3 154.5992 -0.2550 195.9064 0.0000 0.0000 0.0000
# 4 0.0000 0.0000 0.0000 29.6140 0.0000 0.0000
# 5 0.0000 0.0000 0.0000 0.0000 50.7082 0.0000
# 6 0.0000 0.0000 0.0000 0.0000 0.0000 3.0949
#
#
#
# Elastic Compliance Matrix: (Units=1/GPa)
#
#
# Indices 1 2 3 4 5 6 
#
# 1 0.026330 -0.002383 -0.020781 0.000000 0.000000 0.000000
# 2 -0.002383 0.016054 0.001901 0.000000 0.000000 0.000000
# 3 -0.020781 0.001901 0.021506 0.000000 0.000000 0.000000
# 4 0.000000 0.000000 0.000000 0.033768 0.000000 0.000000
# 5 0.000000 0.000000 0.000000 0.000000 0.019721 0.000000
# 6 0.000000 0.000000 0.000000 0.000000 0.000000 0.323109
#
#
# Mechanical properties :
#
#
# Convention : Reuss Voigt Hill
#
# Bulk Modulus (GPa) = 46.80706 82.13993 64.47349
# Shear Modulus (GPa) = 10.20131 33.99596 22.09864
#
# Velocity S-wave (km/s) = 2.23923 4.08775 3.29574
# Velocity P-wave (km/s) = 5.44904 7.91536 6.79503
#
# Compressibility (1/GPa) = 0.02136430
#
# Stress axis : x y z
#
# Youngs Moduli (GPa) = 37.98007 62.29138 46.49800
#
# Poissons Ratio (x) = 0.14843 0.96628
# Poissons Ratio (y) = 0.09050 -0.08841
# Poissons Ratio (z) = 0.78927 -0.11844
#
# Static dielectric constant tensor:
#      x y z
#    x 1.707700 0.000000 0.000000 
#    y 0.000000 1.784910 0.000000 
#    z 0.000000 0.000000 1.697320 
# 
# From -- ./inp_files/6223.got.cif
#   From: 2010.05.17/outbox.cif.g08.bks.cpg/sg25_4_cif.got.tgz:6223.got - 2010.06.04 01:04:00.
