data_PCOD9337670
_publ_section_title
;
Structure prediction by ZEFSAII (Michael W. Deem and Ramdas Pophale) SiO2 
 PCOD9337670
Probable space group: P M M 2
;
_chemical_formula_sum "Si O2"
_cell_formula_units_Z 32
_cell_length_a 15.620903
_cell_length_b 18.806236
_cell_length_c 5.535960
_cell_angle_alpha 90.000000
_cell_angle_beta 90.000000
_cell_angle_gamma 90.000000
_cell_volume 1626.301119
_symmetry_space_group_name_H-M "P M M 2"
_symmetry_group_IT_number 25
_symmetry_cell_setting 'orthorhombic'
loop_
_space_group_symop_operation_xyz
x,y,z
-x,-y,z
-x,y,z
x,-y,z
loop_
_atom_site_type_symbol
_atom_site_label
_atom_site_fract_x
_atom_site_fract_y
_atom_site_fract_z
Si Si1 0.593937 0.080174 0.677960
Si Si2 0.651985 0.685608 0.679261
Si Si3 0.593206 0.209637 0.052622
Si Si4 0.242782 0.580980 0.959759
Si Si5 0.098071 0.689912 0.059273
Si Si6 0.592499 0.578597 0.305155
Si Si7 0.098730 0.778739 0.559498
Si Si8 0.725803 0.825703 0.437560
O O1 0.500000 0.081426 0.555339
O O2 0.670218 0.105787 0.507734
O O3 0.606791 0.000000 0.768832
O O4 0.589789 0.140547 0.881430
O O5 0.722967 0.626949 0.737597
O O6 0.595971 0.645645 0.481971
O O7 0.697945 0.756872 0.591520
O O8 0.600008 0.716857 0.905219
O O9 0.500000 0.210810 0.186295
O O10 0.683991 0.199349 0.185905
O O11 0.221122 0.500000 0.901779
O O12 0.163713 0.625079 0.061578
O O13 0.324568 0.581418 0.137324
O O14 0.104753 0.728607 0.319928
O O15 0.000000 0.665858 0.031855
O O16 0.114237 0.739900 0.820285
O O17 0.500000 0.579385 0.176444
O O18 0.596559 0.500000 0.430466
O O19 0.174428 0.834149 0.495935
O O20 0.000000 0.804866 0.567900
#
# Coordination Sequence:
#
# PCOD9337670 Si02
#       8
#     4   4   4   4   4   4   4   4
#     4   9  20  38  58  86 124 162 199 238 289 355
#     4  11  20  34  53  76 108 145 193 250 300 355
#     4  10  21  34  54  84 115 153 197 246 296 349
#     4  11  23  37  55  78 110 151 197 256 315 369
#     4  10  21  40  63  89 119 155 196 252 316 377
#     4  10  22  37  51  71 104 151 201 245 299 362
#     4  10  21  38  64  92 121 155 199 251 309 366
#     4  11  21  34  59  85 117 151 196 245 297 355
#
# _framework density 19.676552999999998
#
# number of rings (size 3 to 8) (size 9 to 14) (size 15 to 20)
#    0.000    1.750    1.250    3.375    1.750    4.250 
#    0.000    2.500    0.000    2.625    0.000    0.000 
#    0.000    0.000    0.000    0.000    0.000    0.000 
#
# Total GULP energy -178204.841330 kJ/mol
# GULP energy per Si atom -5568.901292 kJ/mol
# Density = 1.963177 g / cm^3
# Si number density = 19.676553 Si / 1000 Ang^3
#
#
#
# Elastic Constant Matrix: (Units=GPa)
#
#
# Indices 1 2 3 4 5 6 
#
# 1 107.3151 33.2383 5.6602 0.0000 0.0000 0.0000
# 2 33.2383 77.2357 11.8796 0.0000 0.0000 0.0000
# 3 5.6602 11.8796 49.8946 0.0000 0.0000 0.0000
# 4 0.0000 0.0000 0.0000 16.6349 0.0000 0.0000
# 5 0.0000 0.0000 0.0000 0.0000 24.9603 0.0000
# 6 0.0000 0.0000 0.0000 0.0000 0.0000 26.1630
#
#
#
# Elastic Compliance Matrix: (Units=1/GPa)
#
#
# Indices 1 2 3 4 5 6 
#
# 1 0.010752 -0.004608 -0.000123 0.000000 0.000000 0.000000
# 2 -0.004608 0.015415 -0.003147 0.000000 0.000000 0.000000
# 3 -0.000123 -0.003147 0.020806 0.000000 0.000000 0.000000
# 4 0.000000 0.000000 0.000000 0.060115 0.000000 0.000000
# 5 0.000000 0.000000 0.000000 0.000000 0.040064 0.000000
# 6 0.000000 0.000000 0.000000 0.000000 0.000000 0.038222
#
#
# Mechanical properties :
#
#
# Convention : Reuss Voigt Hill
#
# Bulk Modulus (GPa) = 32.03500 37.33353 34.68427
# Shear Modulus (GPa) = 23.63684 25.79612 24.71648
#
# Velocity S-wave (km/s) = 3.46969 3.62471 3.54805
# Velocity P-wave (km/s) = 5.68927 6.04424 5.86944
#
# Compressibility (1/GPa) = 0.03121585
#
# Stress axis : x y z
#
# Youngs Moduli (GPa) = 93.00473 64.87322 48.06417
#
# Poissons Ratio (x) = 0.29896 0.00589
# Poissons Ratio (y) = 0.42860 0.15128
# Poissons Ratio (z) = 0.01140 0.20418
#
# Static dielectric constant tensor:
#      x y z
#    x 1.744920 0.000000 0.000000 
#    y 0.000000 1.664060 0.000000 
#    z 0.000000 0.000000 1.789710 
# 
# From -- ./inp_files/966.got.cif
#   From: 2010.05.17/outbox.cif.g08.bks.cpg/sg25_1_cif.got.tgz:966.got - 2010.06.04 01:04:00.
