data_PCOD9337891
_publ_section_title
;
Structure prediction by ZEFSAII (Michael W. Deem and Ramdas Pophale) SiO2 
 PCOD9337891
Probable space group: P M C 21
;
_chemical_formula_sum "Si O2"
_cell_formula_units_Z 24
_cell_length_a 16.359431
_cell_length_b 13.028384
_cell_length_c 5.486466
_cell_angle_alpha 90.000000
_cell_angle_beta 90.000000
_cell_angle_gamma 90.000000
_cell_volume 1169.368625
_symmetry_space_group_name_H-M "P M C 21"
_symmetry_group_IT_number 26
_symmetry_cell_setting 'orthorhombic'
loop_
_space_group_symop_operation_xyz
x,y,z
-x,-y,1/2+z
-x,y,z
x,-y,1/2+z
loop_
_atom_site_type_symbol
_atom_site_label
_atom_site_fract_x
_atom_site_fract_y
_atom_site_fract_z
Si Si1 0.594970 0.625823 0.725290
Si Si2 0.911794 0.901740 0.725291
Si Si3 0.148894 0.444054 0.725303
Si Si4 0.340418 0.602661 0.225290
Si Si5 0.253707 0.962178 0.225292
Si Si6 0.131831 0.204587 0.725291
O O1 0.500000 0.652547 0.725301
O O2 0.604940 0.501359 0.725285
O O3 0.638665 0.659912 0.475951
O O4 0.638671 0.659910 0.974622
O O5 0.905039 0.836039 0.478878
O O6 0.000000 0.954889 0.725295
O O7 0.834128 0.976811 0.725292
O O8 0.905038 0.836036 0.971699
O O9 0.123274 0.500002 0.475306
O O10 0.248015 0.437540 0.725303
O O11 0.123997 0.325954 0.725297
O O12 0.224420 0.843799 0.225291
O O13 0.294419 1.000000 0.475292
#
# Coordination Sequence:
#
# PCOD9337891 Si02
#       6
#     4   4   4   4   4   4
#     4  10  16  25  41  63  88 108 147 198 236 265
#     4  10  19  34  55  77  95 108 134 185 250 313
#     4  12  21  35  49  61  91 129 174 202 202 247
#     4  10  16  27  39  60  81 117 156 190 214 256
#     4   8  16  29  47  73  98 109 131 171 235 299
#     4  10  21  32  49  74  91 119 153 186 233 270
#
# _framework density 20.523896000000001
#
# number of rings (size 3 to 8) (size 9 to 14) (size 15 to 20)
#    0.000    2.000    3.333    4.000    0.000    6.000 
#    0.000    0.000    0.000   10.000    0.000    0.000 
#    0.000    0.000    0.000    0.000    0.000  255.000 
#
# Total GULP energy -133847.493496 kJ/mol
# GULP energy per Si atom -5576.978896 kJ/mol
# Density = 2.047718 g / cm^3
# Si number density = 20.523896 Si / 1000 Ang^3
#
#
#
# Elastic Constant Matrix: (Units=GPa)
#
#
# Indices 1 2 3 4 5 6 
#
# 1 10.5527 -5.1620 5.4902 0.0000 0.0000 0.0000
# 2 -5.1620 92.0064 49.4416 0.0000 0.0000 0.0000
# 3 5.4902 49.4416 247.9728 0.0000 0.0000 0.0000
# 4 0.0000 0.0000 0.0000 26.2361 0.0000 0.0000
# 5 0.0000 0.0000 0.0000 0.0000 9.5873 0.0000
# 6 0.0000 0.0000 0.0000 0.0000 0.0000 -0.8583
#
#
#
# Elastic Compliance Matrix: (Units=1/GPa)
#
#
# Indices 1 2 3 4 5 6 
#
# 1 0.100456 0.007651 -0.003750 0.000000 0.000000 0.000000
# 2 0.007651 0.012756 -0.002713 0.000000 0.000000 0.000000
# 3 -0.003750 -0.002713 0.004657 0.000000 0.000000 0.000000
# 4 0.000000 0.000000 0.000000 0.038115 0.000000 0.000000
# 5 0.000000 0.000000 0.000000 0.000000 0.104304 0.000000
# 6 0.000000 0.000000 0.000000 0.000000 0.000000 -1.165089
#
#
# Mechanical properties :
#
#
# Convention : Reuss Voigt Hill
#
# Bulk Modulus (GPa) = 8.31630 50.00793 29.16211
# Shear Modulus (GPa) = -5.76637 27.04382 10.63873
#
# Velocity S-wave (km/s) = -1.67800 3.63392 2.27922
# Velocity P-wave (km/s) = 0.55367 6.48273 4.60067
#
# Compressibility (1/GPa) = 0.12024585
#
# Stress axis : x y z
#
# Youngs Moduli (GPa) = 9.95460 78.39575 214.74977
#
# Poissons Ratio (x) = -0.59981 0.80523
# Poissons Ratio (y) = -0.07616 0.58255
# Poissons Ratio (z) = 0.03733 0.21266
#
# Static dielectric constant tensor:
#      x y z
#    x 1.726660 0.000000 0.000000 
#    y 0.000000 1.739540 0.000000 
#    z 0.000000 0.000000 1.855930 
# 
# From -- ./inp_files/741.got.cif
#   From: 2010.05.17/outbox.cif.g08.bks.cpg/sg26_1_cif.got.tgz:741.got - 2010.06.04 01:07:29.
