data_PCOD9337062
_publ_section_title
;
Structure prediction by ZEFSAII (Michael W. Deem and Ramdas Pophale) SiO2 
 PCOD9337062
Probable space group: I 21 21 21
;
_chemical_formula_sum "Si O2"
_cell_formula_units_Z 28
_cell_length_a 21.000000
_cell_length_b 15.000000
_cell_length_c 9.000000
_cell_angle_alpha 90.000000
_cell_angle_beta 90.000000
_cell_angle_gamma 90.000000
_cell_volume 2835.000000
_symmetry_space_group_name_H-M "I 21 21 21"
_symmetry_group_IT_number 24
_symmetry_cell_setting 'orthorhombic'
loop_
_space_group_symop_operation_xyz
x,y,z
-x,1/2-y,z
x,-y,1/2-z
1/2-x,y,-z
1/2+x,1/2+y,1/2+z
1/2-x,-y,1/2+z
1/2+x,1/2-y,-z
-x,1/2+y,1/2-z
loop_
_atom_site_type_symbol
_atom_site_label
_atom_site_fract_x
_atom_site_fract_y
_atom_site_fract_z
Si Si1 0.750000 0.866126 0.500000
Si Si2 0.289896 0.500000 0.750000
Si Si3 0.934947 0.893631 0.743485
Si Si4 0.574692 0.585746 0.328199
Si Si5 0.620722 0.243455 0.025406
Si Si6 0.975525 0.460840 0.412934
Si Si7 0.572802 0.284289 0.699821
Si Si8 0.117220 0.383880 0.457852
O O1 0.751921 0.929637 0.353081
O O2 0.688493 0.802740 0.498876
O O3 0.333342 0.447323 0.627832
O O4 0.920992 0.837467 0.594970
O O5 0.011679 0.883053 0.765052
O O6 0.925382 0.000000 0.750000
O O7 0.883806 0.862534 0.866733
O O8 0.606433 0.500000 0.250000
O O9 0.616269 0.671672 0.364700
O O10 0.546122 0.537748 0.475031
O O11 0.593397 0.282433 0.871362
O O12 0.978279 0.500000 0.250000
O O13 0.928891 0.375965 0.392591
O O14 0.047270 0.428937 0.445587
O O15 0.500000 0.250000 0.695096
O O16 0.616101 0.209925 0.624182
#
# Coordination Sequence:
#
# PCOD9337062 Si02
#       8
#     4   4   8   8   8   8   8   8
#     4  12  30  46  68  92 126 182 242 270 318 384
#     4  12  26  46  70  92 128 176 230 278 324 382
#     4  11  23  37  63  99 136 171 203 262 349 414
#     4  11  23  39  66 100 137 166 212 272 349 411
#     4  12  25  44  63  90 133 178 225 280 326 384
#     4  11  20  35  62  99 128 167 205 252 332 421
#     4  10  22  36  62  96 130 170 209 268 340 409
#     4  11  22  38  63  93 137 164 208 263 336 409
#
# _framework density 9.8765429999999999
#
# number of rings (size 3 to 8) (size 9 to 14) (size 15 to 20)
#    0.000    0.857    6.429    2.143    7.000    1.143 
#    0.000    0.000    3.143    0.000    0.000    0.000 
#    0.000    0.000    0.000    0.000    0.000    0.000 
#
# Total GULP energy -156174.827714 kJ/mol
# GULP energy per Si atom -5577.672418 kJ/mol
# Density = 0.985406 g / cm^3
# Si number density = 9.876543 Si / 1000 Ang^3
#
#
#
# Elastic Constant Matrix: (Units=GPa)
#
#
# Indices 1 2 3 4 5 6 
#
# 1 31.9856 28.0034 5.6561 0.0000 0.0000 0.0000
# 2 28.0034 103.1355 20.1747 0.0000 0.0000 0.0000
# 3 5.6561 20.1747 80.4202 0.0000 0.0000 0.0000
# 4 0.0000 0.0000 0.0000 37.3530 0.0000 0.0000
# 5 0.0000 0.0000 0.0000 0.0000 18.6946 0.0000
# 6 0.0000 0.0000 0.0000 0.0000 0.0000 25.4238
#
#
#
# Elastic Compliance Matrix: (Units=1/GPa)
#
#
# Indices 1 2 3 4 5 6 
#
# 1 0.041014 -0.011118 -0.000096 0.000000 0.000000 0.000000
# 2 -0.011118 0.013210 -0.002532 0.000000 0.000000 0.000000
# 3 -0.000096 -0.002532 0.013077 0.000000 0.000000 0.000000
# 4 0.000000 0.000000 0.000000 0.026772 0.000000 0.000000
# 5 0.000000 0.000000 0.000000 0.000000 0.053491 0.000000
# 6 0.000000 0.000000 0.000000 0.000000 0.000000 0.039333
#
#
# Mechanical properties :
#
#
# Convention : Reuss Voigt Hill
#
# Bulk Modulus (GPa) = 25.11890 35.91219 30.51555
# Shear Modulus (GPa) = 21.96280 27.07476 24.51878
#
# Velocity S-wave (km/s) = 3.33808 3.70626 3.52698
# Velocity P-wave (km/s) = 5.25368 6.04443 5.66287
#
# Compressibility (1/GPa) = 0.03981066
#
# Stress axis : x y z
#
# Youngs Moduli (GPa) = 24.38165 75.70063 76.47243
#
# Poissons Ratio (x) = 0.84161 0.00731
# Poissons Ratio (y) = 0.27106 0.19363
# Poissons Ratio (z) = 0.00233 0.19168
#
# Static dielectric constant tensor:
#      x y z
#    x 1.681560 0.000000 0.000000 
#    y 0.000000 1.724450 0.000000 
#    z 0.000000 0.000000 1.817150 
# 
# From -- ./inp_files/13201.got.cif
#   From: 2010.05.17/outbox.ucp.g08.bks.cvg/sg24_7_cif.got.tgz:13201.got - 2010.06.11 15:20:44.
