data_PCOD9337239
_publ_section_title
;
Structure prediction by ZEFSAII (Michael W. Deem and Ramdas Pophale) SiO2 
 PCOD9337239
Probable space group: P M M 2
;
_chemical_formula_sum "Si O2"
_cell_formula_units_Z 32
_cell_length_a 9.188471
_cell_length_b 14.633148
_cell_length_c 15.870171
_cell_angle_alpha 90.000000
_cell_angle_beta 90.000000
_cell_angle_gamma 90.000000
_cell_volume 2133.843775
_symmetry_space_group_name_H-M "P M M 2"
_symmetry_group_IT_number 25
_symmetry_cell_setting 'orthorhombic'
loop_
_space_group_symop_operation_xyz
x,y,z
-x,-y,z
-x,y,z
x,-y,z
loop_
_atom_site_type_symbol
_atom_site_label
_atom_site_fract_x
_atom_site_fract_y
_atom_site_fract_z
Si Si1 0.327206 0.391373 0.748620
Si Si2 0.173196 0.608115 0.418159
Si Si3 0.675486 0.392195 0.059497
Si Si4 0.332607 0.610886 0.248416
Si Si5 0.174317 0.707101 0.904813
Si Si6 0.325612 0.708479 0.572115
Si Si7 0.825761 0.102544 0.829981
Si Si8 0.674603 0.897115 0.649396
O O1 0.500000 0.376111 0.764342
O O2 0.302555 0.500000 0.745301
O O3 0.236242 0.346141 0.823445
O O4 0.292169 0.345682 0.658744
O O5 0.208715 0.500000 0.428343
O O6 0.235657 0.638413 0.327516
O O7 0.245529 0.663582 0.493725
O O8 0.000000 0.617433 0.419746
O O9 0.500000 0.384928 0.052623
O O10 0.711364 0.500000 0.049548
O O11 0.715920 0.361844 0.154509
O O12 0.753072 0.334920 0.987509
O O13 0.500000 0.640008 0.261256
O O14 0.333059 0.500000 0.246337
O O15 0.211921 0.813875 0.890846
O O16 0.000000 0.697820 0.908475
O O17 0.500000 0.702662 0.559343
O O18 0.284645 0.814089 0.588446
O O19 0.748639 0.116621 0.740102
O O20 0.000000 0.105666 0.816894
O O21 0.788094 0.000000 0.859867
O O22 0.500000 0.892177 0.660839
O O23 0.711008 0.000000 0.620150
#
# Coordination Sequence:
#
# PCOD9337239 Si02
#       8
#     4   4   4   4   4   4   4   4
#     4  10  20  32  44  60  88 126 161 187 216 261
#     4  10  20  31  45  68  96 123 152 189 228 265
#     4   9  18  32  49  68  92 123 155 185 221 270
#     4   8  15  30  50  68  87 116 153 189 226 269
#     4  11  21  30  44  67  92 120 154 190 228 269
#     4  10  19  31  47  66  90 122 156 187 224 273
#     4   9  18  32  47  63  87 119 152 188 232 277
#     4   9  17  30  49  70  88 110 148 197 238 267
#
# _framework density 14.996413
#
# number of rings (size 3 to 8) (size 9 to 14) (size 15 to 20)
#    0.000    2.500    1.250    2.250    0.000    5.250 
#    0.000    1.250    0.000    0.000    0.000    0.875 
#    0.000    1.000    0.000    0.000    0.000    0.000 
#
# Total GULP energy -178367.554177 kJ/mol
# GULP energy per Si atom -5573.986068 kJ/mol
# Density = 1.496228 g / cm^3
# Si number density = 14.996413 Si / 1000 Ang^3
#
#
#
# Elastic Constant Matrix: (Units=GPa)
#
#
# Indices 1 2 3 4 5 6 
#
# 1 33.9575 46.4964 57.1171 0.0000 0.0000 0.0000
# 2 46.4964 104.5563 77.5605 0.0000 0.0000 0.0000
# 3 57.1171 77.5605 139.9209 0.0000 0.0000 0.0000
# 4 0.0000 0.0000 0.0000 6.8987 0.0000 0.0000
# 5 0.0000 0.0000 0.0000 0.0000 -9.4719 0.0000
# 6 0.0000 0.0000 0.0000 0.0000 0.0000 18.4882
#
#
#
# Elastic Compliance Matrix: (Units=1/GPa)
#
#
# Indices 1 2 3 4 5 6 
#
# 1 0.141509 -0.034101 -0.038863 0.000000 0.000000 0.000000
# 2 -0.034101 0.024461 0.000361 0.000000 0.000000 0.000000
# 3 -0.038863 0.000361 0.022811 0.000000 0.000000 0.000000
# 4 0.000000 0.000000 0.000000 0.144955 0.000000 0.000000
# 5 0.000000 0.000000 0.000000 0.000000 -0.105576 0.000000
# 6 0.000000 0.000000 0.000000 0.000000 0.000000 0.054089
#
#
# Mechanical properties :
#
#
# Convention : Reuss Voigt Hill
#
# Bulk Modulus (GPa) = 22.94837 71.19807 47.07322
# Shear Modulus (GPa) = 11.31279 9.66706 10.48992
#
# Velocity S-wave (km/s) = 2.74955 2.54170 2.64767
# Velocity P-wave (km/s) = 5.04141 7.49623 6.38785
#
# Compressibility (1/GPa) = 0.04357608
#
# Stress axis : x y z
#
# Youngs Moduli (GPa) = 7.06671 40.88146 43.83869
#
# Poissons Ratio (x) = 1.39408 1.70369
# Poissons Ratio (y) = 0.24098 -0.01583
# Poissons Ratio (z) = 0.27463 -0.01476
#
# Static dielectric constant tensor:
#      x y z
#    x 1.497350 0.000000 0.000000 
#    y 0.000000 1.504970 0.000000 
#    z 0.000000 0.000000 1.473270 
# 
# From -- ./inp_files/5701.got.cif
#   From: 2010.05.17/outbox.cif.g08.bks.cpg/sg25_3_cif.got.tgz:5701.got - 2010.06.04 01:04:00.
