data_PCOD9337651
_publ_section_title
;
Structure prediction by ZEFSAII (Michael W. Deem and Ramdas Pophale) SiO2 
 PCOD9337651
Probable space group: P M M 2
;
_chemical_formula_sum "Si O2"
_cell_formula_units_Z 32
_cell_length_a 14.948461
_cell_length_b 8.840373
_cell_length_c 12.567109
_cell_angle_alpha 90.000000
_cell_angle_beta 90.000000
_cell_angle_gamma 90.000000
_cell_volume 1660.743090
_symmetry_space_group_name_H-M "P M M 2"
_symmetry_group_IT_number 25
_symmetry_cell_setting 'orthorhombic'
loop_
_space_group_symop_operation_xyz
x,y,z
-x,-y,z
-x,y,z
x,-y,z
loop_
_atom_site_type_symbol
_atom_site_label
_atom_site_fract_x
_atom_site_fract_y
_atom_site_fract_z
Si Si1 0.596778 0.318376 0.434340
Si Si2 0.601335 0.181995 0.900016
Si Si3 0.635601 0.825660 0.657340
Si Si4 0.841227 0.826984 0.589262
Si Si5 0.777368 0.678511 0.984669
Si Si6 0.900619 0.179584 0.814144
Si Si7 0.205316 0.319748 0.373153
Si Si8 0.104311 0.181451 0.172835
O O1 0.500000 0.266630 0.390081
O O2 0.598736 0.500000 0.429464
O O3 0.600042 0.268474 0.557718
O O4 0.690173 0.266250 0.380918
O O5 0.500000 0.216882 0.933472
O O6 0.612522 0.228771 0.775694
O O7 0.677616 0.256914 0.971135
O O8 0.613507 0.000000 0.901794
O O9 0.742062 0.826536 0.640296
O O10 0.604750 0.000000 0.648342
O O11 0.901145 0.783265 0.689231
O O12 0.838298 0.722200 0.486687
O O13 0.862193 0.000000 0.556632
O O14 0.774764 0.500000 0.000284
O O15 0.829218 0.723126 0.876827
O O16 0.835320 0.754456 0.077558
O O17 0.000000 0.200829 0.859465
O O18 0.878172 0.000000 0.822956
O O19 0.204761 0.500000 0.356982
O O20 0.149942 0.239627 0.280927
O O21 0.000000 0.229672 0.165397
O O22 0.106008 0.000000 0.169174
#
# Coordination Sequence:
#
# PCOD9337651 Si02
#       8
#     4   4   4   4   4   4   4   4
#     4   9  18  32  51  80 121 163 196 229 279 343
#     4  10  20  36  59  86 119 160 204 246 289 343
#     4   9  16  29  51  79 114 156 201 244 280 324
#     4   9  17  32  54  82 120 160 197 239 287 344
#     4  12  25  40  61  88 122 155 191 245 305 361
#     4  10  20  36  59  85 116 157 201 243 293 356
#     4  10  21  37  59  88 121 153 192 243 300 354
#     4  11  25  46  70  89 108 145 199 252 303 363
#
# _framework density 19.268483
#
# number of rings (size 3 to 8) (size 9 to 14) (size 15 to 20)
#    0.000    2.000    1.250    2.625    0.000    5.750 
#    0.000    1.875    0.000    2.250    0.000    0.000 
#    0.000    0.000    0.000    0.000    0.000    0.000 
#
# Total GULP energy -178591.836674 kJ/mol
# GULP energy per Si atom -5580.994896 kJ/mol
# Density = 1.922463 g / cm^3
# Si number density = 19.268483 Si / 1000 Ang^3
#
#
#
# Elastic Constant Matrix: (Units=GPa)
#
#
# Indices 1 2 3 4 5 6 
#
# 1 145.4994 50.7085 66.4160 0.0000 0.0000 0.0000
# 2 50.7085 52.2337 35.8423 0.0000 0.0000 0.0000
# 3 66.4160 35.8423 82.2574 0.0000 0.0000 0.0000
# 4 0.0000 0.0000 0.0000 67.5806 0.0000 0.0000
# 5 0.0000 0.0000 0.0000 0.0000 14.3569 0.0000
# 6 0.0000 0.0000 0.0000 0.0000 0.0000 17.5103
#
#
#
# Elastic Compliance Matrix: (Units=1/GPa)
#
#
# Indices 1 2 3 4 5 6 
#
# 1 0.012669 -0.007532 -0.006947 0.000000 0.000000 0.000000
# 2 -0.007532 0.031788 -0.007770 0.000000 0.000000 0.000000
# 3 -0.006947 -0.007770 0.021152 0.000000 0.000000 0.000000
# 4 0.000000 0.000000 0.000000 0.014797 0.000000 0.000000
# 5 0.000000 0.000000 0.000000 0.000000 0.069653 0.000000
# 6 0.000000 0.000000 0.000000 0.000000 0.000000 0.057109
#
#
# Mechanical properties :
#
#
# Convention : Reuss Voigt Hill
#
# Bulk Modulus (GPa) = 47.36828 65.10265 56.23546
# Shear Modulus (GPa) = 19.32714 28.35783 23.84249
#
# Velocity S-wave (km/s) = 3.17052 3.84046 3.52146
# Velocity P-wave (km/s) = 6.16763 7.31615 6.76630
#
# Compressibility (1/GPa) = 0.02111118
#
# Stress axis : x y z
#
# Youngs Moduli (GPa) = 78.93210 31.45807 47.27712
#
# Poissons Ratio (x) = 0.23694 0.32845
# Poissons Ratio (y) = 0.59452 0.36733
# Poissons Ratio (z) = 0.54837 0.24442
#
# Static dielectric constant tensor:
#      x y z
#    x 1.720970 0.000000 0.000000 
#    y 0.000000 1.651080 0.000000 
#    z 0.000000 0.000000 1.658930 
# 
# From -- ./inp_files/4921.got.cif
#   From: 2010.05.17/outbox.cif.g08.bks.cpg/sg25_3_cif.got.tgz:4921.got - 2010.06.04 01:04:00.
