data_PCOD9337054
_publ_section_title
;
Structure prediction by ZEFSAII (Michael W. Deem and Ramdas Pophale) SiO2 
 PCOD9337054
Probable space group: I 21 21 21
;
_chemical_formula_sum "Si O2"
_cell_formula_units_Z 24
_cell_length_a 6.000000
_cell_length_b 27.000000
_cell_length_c 15.000000
_cell_angle_alpha 90.000000
_cell_angle_beta 90.000000
_cell_angle_gamma 90.000000
_cell_volume 2430.000000
_symmetry_space_group_name_H-M "I 21 21 21"
_symmetry_group_IT_number 24
_symmetry_cell_setting 'orthorhombic'
loop_
_space_group_symop_operation_xyz
x,y,z
-x,1/2-y,z
x,-y,1/2-z
1/2-x,y,-z
1/2+x,1/2+y,1/2+z
1/2-x,-y,1/2+z
1/2+x,1/2-y,-z
-x,1/2+y,1/2-z
loop_
_atom_site_type_symbol
_atom_site_label
_atom_site_fract_x
_atom_site_fract_y
_atom_site_fract_z
Si Si1 0.861854 0.483854 0.904729
Si Si2 0.296946 0.573764 0.107856
Si Si3 0.751101 0.723642 0.899590
Si Si4 0.047013 0.934358 0.269475
Si Si5 0.323836 0.387140 0.101064
Si Si6 0.928465 0.356161 0.728698
O O1 0.674870 0.475574 0.829414
O O2 0.025520 0.529174 0.883630
O O3 0.008826 0.433731 0.912164
O O4 0.750000 0.493301 0.000000
O O5 0.100704 0.559678 0.178832
O O6 0.400589 0.623429 0.152697
O O7 0.250000 0.578955 0.000000
O O8 0.500000 0.750000 0.891300
O O9 0.788690 0.688256 0.814962
O O10 0.000000 0.750000 0.900196
O O11 0.750000 0.700440 0.000000
O O12 0.884789 0.908304 0.342571
O O13 0.247566 0.898670 0.242946
O O14 0.446124 0.351151 0.174798
O O15 0.250000 0.370547 0.000000
#
# Coordination Sequence:
#
# PCOD9337054 Si02
#       6
#     8   8   8   8   8   8
#     4  11  23  40  58  83 123 177 228 275 326 381
#     4  11  27  40  58  91 129 178 220 279 342 388
#     4  10  24  44  73 105 138 179 218 269 343 432
#     4  10  24  42  60  85 125 169 219 279 318 398
#     4  10  20  40  65  92 122 171 224 273 323 381
#     4  10  25  40  66  98 127 170 215 276 338 401
#
# _framework density 9.8765429999999999
#
# number of rings (size 3 to 8) (size 9 to 14) (size 15 to 20)
#    0.000    1.667    1.667    0.500    9.333    8.000 
#    0.000    0.000    0.000    0.000    4.333    0.000 
#    0.000    0.000    0.000    0.000    0.000    0.000 
#
# Total GULP energy -133701.848610 kJ/mol
# GULP energy per Si atom -5570.910359 kJ/mol
# Density = 0.985406 g / cm^3
# Si number density = 9.876543 Si / 1000 Ang^3
#
#
#
# Elastic Constant Matrix: (Units=GPa)
#
#
# Indices 1 2 3 4 5 6 
#
# 1 118.7979 16.4758 68.5448 0.0000 0.0000 0.0000
# 2 16.4758 29.4363 36.1205 0.0000 0.0000 0.0000
# 3 68.5448 36.1205 217.8948 0.0000 0.0000 0.0000
# 4 0.0000 0.0000 0.0000 24.2431 0.0000 0.0000
# 5 0.0000 0.0000 0.0000 0.0000 56.0019 0.0000
# 6 0.0000 0.0000 0.0000 0.0000 0.0000 26.4750
#
#
#
# Elastic Compliance Matrix: (Units=1/GPa)
#
#
# Indices 1 2 3 4 5 6 
#
# 1 0.010404 -0.002269 -0.002897 0.000000 0.000000 0.000000
# 2 -0.002269 0.043141 -0.006438 0.000000 0.000000 0.000000
# 3 -0.002897 -0.006438 0.006568 0.000000 0.000000 0.000000
# 4 0.000000 0.000000 0.000000 0.041249 0.000000 0.000000
# 5 0.000000 0.000000 0.000000 0.000000 0.017857 0.000000
# 6 0.000000 0.000000 0.000000 0.000000 0.000000 0.037772
#
#
# Mechanical properties :
#
#
# Convention : Reuss Voigt Hill
#
# Bulk Modulus (GPa) = 27.09565 67.60124 47.34844
# Shear Modulus (GPa) = 25.97432 37.67652 31.82542
#
# Velocity S-wave (km/s) = 3.63016 4.37209 4.01828
# Velocity P-wave (km/s) = 5.59622 7.73203 6.74915
#
# Compressibility (1/GPa) = 0.03690630
#
# Stress axis : x y z
#
# Youngs Moduli (GPa) = 96.12034 23.17975 152.25761
#
# Poissons Ratio (x) = 0.05258 0.44104
# Poissons Ratio (y) = 0.21805 0.98022
# Poissons Ratio (z) = 0.27843 0.14923
#
# Static dielectric constant tensor:
#      x y z
#    x 1.744830 0.000000 0.000000 
#    y 0.000000 1.749770 0.000000 
#    z 0.000000 0.000000 1.707920 
# 
# From -- ./inp_files/23914.got.cif
#   From: 2010.05.17/outbox.ucp.g08.bks.cvg/sg24_12_cif.got.tgz:23914.got - 2010.06.11 15:20:44.
