data_PCOD9337479
_publ_section_title
;
Structure prediction by ZEFSAII (Michael W. Deem and Ramdas Pophale) SiO2 
 PCOD9337479
Probable space group: P M M 2
;
_chemical_formula_sum "Si O2"
_cell_formula_units_Z 28
_cell_length_a 7.471207
_cell_length_b 9.589987
_cell_length_c 18.928029
_cell_angle_alpha 90.000000
_cell_angle_beta 90.000000
_cell_angle_gamma 90.000000
_cell_volume 1356.170148
_symmetry_space_group_name_H-M "P M M 2"
_symmetry_group_IT_number 25
_symmetry_cell_setting 'orthorhombic'
loop_
_space_group_symop_operation_xyz
x,y,z
-x,-y,z
-x,y,z
x,-y,z
loop_
_atom_site_type_symbol
_atom_site_label
_atom_site_fract_x
_atom_site_fract_y
_atom_site_fract_z
Si Si1 0.281892 0.838647 0.172350
Si Si2 0.780442 0.160499 0.746369
Si Si3 0.715478 0.159457 0.014556
Si Si4 0.714933 0.338516 0.459080
Si Si5 0.212070 0.342579 0.878618
Si Si6 0.788204 0.340698 0.614114
Si Si7 0.718376 0.662635 0.305585
O O1 0.500000 0.832522 0.172699
O O2 0.218029 0.746549 0.237586
O O3 0.232496 0.000000 0.182269
O O4 0.224098 0.797064 0.093268
O O5 0.719039 0.246201 0.815058
O O6 0.719963 0.242097 0.676194
O O7 0.000000 0.158635 0.746496
O O8 0.722857 0.000000 0.748091
O O9 0.500000 0.154305 0.016553
O O10 0.765025 0.264285 0.952772
O O11 0.777663 0.000000 0.000879
O O12 0.500000 0.339643 0.457282
O O13 0.776987 0.500000 0.460747
O O14 0.765030 0.279464 0.535282
O O15 0.775117 0.281183 0.382993
O O16 0.285316 0.500000 0.879028
O O17 0.000000 0.354051 0.866309
O O18 0.714685 0.500000 0.616374
O O19 0.000000 0.352823 0.625742
O O20 0.500000 0.666993 0.304710
O O21 0.768330 0.500000 0.300950
#
# Coordination Sequence:
#
# PCOD9337479 Si02
#       7
#     4   4   4   4   4   4   4
#     4   8  14  25  41  62  88 116 146 181 219 258
#     4   9  17  30  48  67  87 115 150 184 220 265
#     4   9  18  32  49  70  96 124 154 189 230 276
#     4   8  14  25  41  62  88 115 142 175 217 262
#     4  10  20  33  50  72  95 119 152 192 230 272
#     4   9  16  27  45  66  85 108 143 184 220 257
#     4   8  13  22  38  59  81 109 147 183 212 251
#
# _framework density 20.646377999999999
#
# number of rings (size 3 to 8) (size 9 to 14) (size 15 to 20)
#    0.000    3.286    0.000    2.571    0.000    3.429 
#    0.000    2.857    0.000    4.714    0.000    2.000 
#    0.000    0.000    0.000    0.000    0.000    0.000 
#
# Total GULP energy -156083.660116 kJ/mol
# GULP energy per Si atom -5574.416433 kJ/mol
# Density = 2.059939 g / cm^3
# Si number density = 20.646378 Si / 1000 Ang^3
#
#
#
# Elastic Constant Matrix: (Units=GPa)
#
#
# Indices 1 2 3 4 5 6 
#
# 1 56.2967 5.4673 1.2858 0.0000 0.0000 0.0000
# 2 5.4673 122.7360 127.5405 0.0000 0.0000 0.0000
# 3 1.2858 127.5405 241.9611 0.0000 0.0000 0.0000
# 4 0.0000 0.0000 0.0000 91.7007 0.0000 0.0000
# 5 0.0000 0.0000 0.0000 0.0000 20.4499 0.0000
# 6 0.0000 0.0000 0.0000 0.0000 0.0000 2.7943
#
#
#
# Elastic Compliance Matrix: (Units=1/GPa)
#
#
# Indices 1 2 3 4 5 6 
#
# 1 0.017897 -0.001544 0.000719 0.000000 0.000000 0.000000
# 2 -0.001544 0.018149 -0.009558 0.000000 0.000000 0.000000
# 3 0.000719 -0.009558 0.009167 0.000000 0.000000 0.000000
# 4 0.000000 0.000000 0.000000 0.010905 0.000000 0.000000
# 5 0.000000 0.000000 0.000000 0.000000 0.048900 0.000000
# 6 0.000000 0.000000 0.000000 0.000000 0.000000 0.357873
#
#
# Mechanical properties :
#
#
# Convention : Reuss Voigt Hill
#
# Bulk Modulus (GPa) = 40.90731 76.62012 58.76371
# Shear Modulus (GPa) = 10.16661 42.10233 26.13447
#
# Velocity S-wave (km/s) = 2.22145 4.52066 3.56169
# Velocity P-wave (km/s) = 5.14161 8.02744 6.74077
#
# Compressibility (1/GPa) = 0.02444551
#
# Stress axis : x y z
#
# Youngs Moduli (GPa) = 55.87665 55.10043 109.08338
#
# Poissons Ratio (x) = 0.08509 -0.07842
# Poissons Ratio (y) = 0.08629 1.04264
# Poissons Ratio (z) = -0.04017 0.52666
#
# Static dielectric constant tensor:
#      x y z
#    x 1.804050 0.000000 0.000000 
#    y 0.000000 1.698280 0.000000 
#    z 0.000000 0.000000 1.747240 
# 
# From -- ./inp_files/6241.got.cif
#   From: 2010.05.17/outbox.cif.g08.bks.cpg/sg25_4_cif.got.tgz:6241.got - 2010.06.04 01:04:00.
