data_PCOD9337172
_publ_section_title
;
Structure prediction by ZEFSAII (Michael W. Deem and Ramdas Pophale) SiO2 
 PCOD9337172
Probable space group: P M M 2
;
_chemical_formula_sum "Si O2"
_cell_formula_units_Z 32
_cell_length_a 8.805123
_cell_length_b 15.106482
_cell_length_c 12.596585
_cell_angle_alpha 90.000000
_cell_angle_beta 90.000000
_cell_angle_gamma 90.000000
_cell_volume 1675.527600
_symmetry_space_group_name_H-M "P M M 2"
_symmetry_group_IT_number 25
_symmetry_cell_setting 'orthorhombic'
loop_
_space_group_symop_operation_xyz
x,y,z
-x,-y,z
-x,y,z
x,-y,z
loop_
_atom_site_type_symbol
_atom_site_label
_atom_site_fract_x
_atom_site_fract_y
_atom_site_fract_z
Si Si1 0.323113 0.684527 0.751070
Si Si2 0.819418 0.274322 0.121861
Si Si3 0.680337 0.285314 0.510937
Si Si4 0.816345 0.603047 0.319060
Si Si5 0.183439 0.902417 0.572097
Si Si6 0.679224 0.596177 0.959731
Si Si7 0.681128 0.098317 0.040565
Si Si8 0.821906 0.136835 0.812506
O O1 0.500000 0.715572 0.759555
O O2 0.292873 0.671810 0.627349
O O3 0.307429 0.604724 0.832832
O O4 0.213163 0.760235 0.794253
O O5 0.767224 0.336226 0.219331
O O6 0.749408 0.177069 0.110759
O O7 0.000000 0.266018 0.127141
O O8 0.769957 0.327395 0.017316
O O9 0.500000 0.281524 0.492611
O O10 0.757679 0.345904 0.422692
O O11 0.743991 0.184571 0.518959
O O12 0.765652 0.500000 0.312797
O O13 0.000000 0.601962 0.319643
O O14 0.225061 0.901923 0.697793
O O15 0.000000 0.893583 0.566878
O O16 0.224894 0.000000 0.528826
O O17 0.500000 0.606085 0.984556
O O18 0.731698 0.500000 0.996449
O O19 0.500000 0.106331 0.041109
O O20 0.724431 0.000000 0.078184
O O21 0.736593 0.107324 0.918434
O O22 0.000000 0.119273 0.827367
#
# Coordination Sequence:
#
# PCOD9337172 Si02
#       8
#     4   4   4   4   4   4   4   4
#     4   9  18  33  52  79 120 159 189 230 285 340
#     4  11  23  40  62  86 113 146 192 248 293 340
#     4  10  21  36  58  88 118 150 194 244 289 341
#     4  10  23  44  66  86 111 147 192 243 297 350
#     4   9  18  33  54  82 119 161 200 237 282 338
#     4  10  20  34  55  83 117 156 190 226 284 352
#     4  11  23  37  55  82 118 157 193 233 286 347
#     4  10  18  30  52  82 116 155 198 239 278 329
#
# _framework density 19.098461
#
# number of rings (size 3 to 8) (size 9 to 14) (size 15 to 20)
#    0.000    2.000    1.250    2.250    0.000    5.250 
#    0.000    1.875    0.000    0.750    0.000    0.000 
#    0.000    0.000    0.000    0.000    0.000    0.000 
#
# Total GULP energy -178489.162068 kJ/mol
# GULP energy per Si atom -5577.786315 kJ/mol
# Density = 1.905499 g / cm^3
# Si number density = 19.098461 Si / 1000 Ang^3
#
#
#
# Elastic Constant Matrix: (Units=GPa)
#
#
# Indices 1 2 3 4 5 6 
#
# 1 27.9107 42.9825 26.6943 0.0000 0.0000 0.0000
# 2 42.9825 157.0590 66.7346 0.0000 0.0000 0.0000
# 3 26.6943 66.7346 95.3664 0.0000 0.0000 0.0000
# 4 0.0000 0.0000 0.0000 10.7876 0.0000 0.0000
# 5 0.0000 0.0000 0.0000 0.0000 25.1674 0.0000
# 6 0.0000 0.0000 0.0000 0.0000 0.0000 15.5383
#
#
#
# Elastic Compliance Matrix: (Units=1/GPa)
#
#
# Indices 1 2 3 4 5 6 
#
# 1 0.066282 -0.014596 -0.008339 0.000000 0.000000 0.000000
# 2 -0.014596 0.012275 -0.004504 0.000000 0.000000 0.000000
# 3 -0.008339 -0.004504 0.015972 0.000000 0.000000 0.000000
# 4 0.000000 0.000000 0.000000 0.092699 0.000000 0.000000
# 5 0.000000 0.000000 0.000000 0.000000 0.039734 0.000000
# 6 0.000000 0.000000 0.000000 0.000000 0.000000 0.064357
#
#
# Mechanical properties :
#
#
# Convention : Reuss Voigt Hill
#
# Bulk Modulus (GPa) = 25.22044 61.46209 43.34126
# Shear Modulus (GPa) = 13.91144 19.89366 16.90255
#
# Velocity S-wave (km/s) = 2.70183 3.23094 2.97816
# Velocity P-wave (km/s) = 4.79242 6.79487 5.87952
#
# Compressibility (1/GPa) = 0.03965038
#
# Stress axis : x y z
#
# Youngs Moduli (GPa) = 15.08695 81.46312 62.60889
#
# Poissons Ratio (x) = 1.18905 0.52212
# Poissons Ratio (y) = 0.22021 0.28201
# Poissons Ratio (z) = 0.12581 0.36694
#
# Static dielectric constant tensor:
#      x y z
#    x 1.651860 0.000000 0.000000 
#    y 0.000000 1.696460 0.000000 
#    z 0.000000 0.000000 1.666430 
# 
# From -- ./inp_files/4263.got.cif
#   From: 2010.05.17/outbox.cif.g08.bks.cpg/sg25_3_cif.got.tgz:4263.got - 2010.06.04 01:04:00.
