data_PCOD9337483
_publ_section_title
;
Structure prediction by ZEFSAII (Michael W. Deem and Ramdas Pophale) SiO2 
 PCOD9337483
Probable space group: P M M 2
;
_chemical_formula_sum "Si O2"
_cell_formula_units_Z 32
_cell_length_a 9.612540
_cell_length_b 7.407680
_cell_length_c 21.131371
_cell_angle_alpha 90.000000
_cell_angle_beta 90.000000
_cell_angle_gamma 90.000000
_cell_volume 1504.693511
_symmetry_space_group_name_H-M "P M M 2"
_symmetry_group_IT_number 25
_symmetry_cell_setting 'orthorhombic'
loop_
_space_group_symop_operation_xyz
x,y,z
-x,-y,z
-x,y,z
x,-y,z
loop_
_atom_site_type_symbol
_atom_site_label
_atom_site_fract_x
_atom_site_fract_y
_atom_site_fract_z
Si Si1 0.340320 0.280095 0.041000
Si Si2 0.159836 0.720511 0.922416
Si Si3 0.342420 0.717139 0.183967
Si Si4 0.841727 0.215620 0.539685
Si Si5 0.340327 0.221214 0.421818
Si Si6 0.659872 0.279250 0.801146
Si Si7 0.841626 0.715555 0.683494
Si Si8 0.156537 0.786726 0.304376
O O1 0.500000 0.227423 0.026977
O O2 0.338263 0.500000 0.040799
O O3 0.306903 0.221987 0.112685
O O4 0.234858 0.220392 0.986962
O O5 0.159184 0.500000 0.922576
O O6 0.250881 0.776132 0.862100
O O7 0.000000 0.778641 0.918055
O O8 0.500000 0.779690 0.199160
O O9 0.346920 0.500000 0.182092
O O10 0.233612 0.766679 0.237604
O O11 0.738554 0.280791 0.485412
O O12 0.795589 0.250679 0.611546
O O13 0.000000 0.285917 0.532589
O O14 0.849357 0.000000 0.532342
O O15 0.500000 0.279602 0.419432
O O16 0.253420 0.283679 0.360829
O O17 0.341987 0.000000 0.421557
O O18 0.500000 0.220740 0.804362
O O19 0.658331 0.500000 0.801030
O O20 0.737816 0.218324 0.737445
O O21 0.849390 0.500000 0.691353
O O22 0.000000 0.785863 0.690451
O O23 0.000000 0.712145 0.303977
O O24 0.144687 0.000000 0.316358
#
# Coordination Sequence:
#
# PCOD9337483 Si02
#       8
#     4   4   4   4   4   4   4   4
#     4   8  14  25  40  59  86 118 149 183 224 268
#     4   9  15  22  35  57  84 114 149 186 221 260
#     4   9  18  32  49  70  97 127 157 191 234 282
#     4   9  17  30  48  68  89 114 145 181 221 266
#     4   9  17  30  49  70  90 115 150 191 230 267
#     4   9  16  25  38  57  83 115 148 182 220 260
#     4   9  17  29  44  63  89 118 145 176 217 264
#     4  10  20  33  50  72  96 123 157 195 233 276
#
# _framework density 21.266787000000001
#
# number of rings (size 3 to 8) (size 9 to 14) (size 15 to 20)
#    0.000    3.000    0.000    2.250    0.000    6.500 
#    0.000    1.875    0.000    2.250    0.000    0.875 
#    0.000    5.000    0.000    0.000    0.000    0.000 
#
# Total GULP energy -178675.290769 kJ/mol
# GULP energy per Si atom -5583.602837 kJ/mol
# Density = 2.121838 g / cm^3
# Si number density = 21.266787 Si / 1000 Ang^3
#
#
#
# Elastic Constant Matrix: (Units=GPa)
#
#
# Indices 1 2 3 4 5 6 
#
# 1 208.5926 6.7139 165.5684 0.0000 0.0000 0.0000
# 2 6.7139 69.4756 0.1449 0.0000 0.0000 0.0000
# 3 165.5684 0.1449 206.6381 0.0000 0.0000 0.0000
# 4 0.0000 0.0000 0.0000 19.7152 0.0000 0.0000
# 5 0.0000 0.0000 0.0000 0.0000 45.7041 0.0000
# 6 0.0000 0.0000 0.0000 0.0000 0.0000 -3.8041
#
#
#
# Elastic Compliance Matrix: (Units=1/GPa)
#
#
# Indices 1 2 3 4 5 6 
#
# 1 0.013279 -0.001261 -0.010639 0.000000 0.000000 0.000000
# 2 -0.001261 0.014513 0.001000 0.000000 0.000000 0.000000
# 3 -0.010639 0.001000 0.013363 0.000000 0.000000 0.000000
# 4 0.000000 0.000000 0.000000 0.050722 0.000000 0.000000
# 5 0.000000 0.000000 0.000000 0.000000 0.021880 0.000000
# 6 0.000000 0.000000 0.000000 0.000000 0.000000 -0.262872
#
#
# Mechanical properties :
#
#
# Convention : Reuss Voigt Hill
#
# Bulk Modulus (GPa) = 51.66359 92.17339 71.91849
# Shear Modulus (GPa) = -41.36965 33.14164 -4.11400
#
# Velocity S-wave (km/s) = -4.41531 3.95191 -1.39236
# Velocity P-wave (km/s) = 1.28352 8.01617 5.59516
#
# Compressibility (1/GPa) = 0.01935599
#
# Stress axis : x y z
#
# Youngs Moduli (GPa) = 75.30466 68.90221 74.83170
#
# Poissons Ratio (x) = 0.08689 0.79615
# Poissons Ratio (y) = 0.09497 -0.07485
# Poissons Ratio (z) = 0.80118 -0.06892
#
# Static dielectric constant tensor:
#      x y z
#    x 1.730140 0.000000 0.000000 
#    y 0.000000 1.834250 0.000000 
#    z 0.000000 0.000000 1.727830 
# 
# From -- ./inp_files/6274.got.cif
#   From: 2010.05.17/outbox.cif.g08.bks.cpg/sg25_4_cif.got.tgz:6274.got - 2010.06.04 01:04:00.
