data_PCOD9337620
_publ_section_title
;
Structure prediction by ZEFSAII (Michael W. Deem and Ramdas Pophale) SiO2 
 PCOD9337620
Probable space group: P M M 2
;
_chemical_formula_sum "Si O2"
_cell_formula_units_Z 28
_cell_length_a 8.875307
_cell_length_b 9.524064
_cell_length_c 18.634187
_cell_angle_alpha 90.000000
_cell_angle_beta 90.000000
_cell_angle_gamma 90.000000
_cell_volume 1575.129042
_symmetry_space_group_name_H-M "P M M 2"
_symmetry_group_IT_number 25
_symmetry_cell_setting 'orthorhombic'
loop_
_space_group_symop_operation_xyz
x,y,z
-x,-y,z
-x,y,z
x,-y,z
loop_
_atom_site_type_symbol
_atom_site_label
_atom_site_fract_x
_atom_site_fract_y
_atom_site_fract_z
Si Si1 0.183514 0.838683 0.841410
Si Si2 0.181365 0.164742 0.565223
Si Si3 0.184091 0.661243 0.704906
Si Si4 0.319610 0.336368 0.134587
Si Si5 0.819977 0.834715 0.265820
Si Si6 0.181101 0.834098 0.004104
Si Si7 0.326575 0.170622 0.415755
O O1 0.234720 0.738429 0.777565
O O2 0.000000 0.838036 0.841102
O O3 0.229580 0.000000 0.828206
O O4 0.227787 0.798444 0.922377
O O5 0.230410 0.253588 0.634118
O O6 0.252477 0.215725 0.490584
O O7 0.000000 0.173239 0.559341
O O8 0.219472 0.000000 0.575666
O O9 0.232260 0.500000 0.702509
O O10 0.000000 0.663137 0.705591
O O11 0.500000 0.327988 0.137070
O O12 0.275190 0.500000 0.134818
O O13 0.252050 0.256234 0.203012
O O14 0.259906 0.259717 0.063428
O O15 0.761430 0.787783 0.343968
O O16 0.000000 0.824782 0.263112
O O17 0.779398 0.000000 0.256400
O O18 0.000000 0.817202 0.009565
O O19 0.212725 0.000000 0.015392
O O20 0.500000 0.214691 0.411416
O O21 0.322089 0.000000 0.417037
#
# Coordination Sequence:
#
# PCOD9337620 Si02
#       7
#     4   4   4   4   4   4   4
#     4   8  14  26  45  70  99 127 157 199 249 295
#     4   9  16  27  45  68  94 125 162 204 247 289
#     4   9  16  25  40  66  98 129 162 200 243 291
#     4  11  24  38  51  72 104 139 172 205 246 299
#     4  10  20  35  57  82 104 128 164 209 254 301
#     4   9  18  33  54  79 103 129 167 213 257 302
#     4   9  17  30  50  75 100 127 162 204 248 294
#
# _framework density 17.776320999999999
#
# number of rings (size 3 to 8) (size 9 to 14) (size 15 to 20)
#    0.000    2.714    0.000    3.000    0.000    8.000 
#    0.000    2.143    0.000    3.857    0.000    2.000 
#    0.000    0.000    0.000    0.000    0.000    0.000 
#
# Total GULP energy -156153.497691 kJ/mol
# GULP energy per Si atom -5576.910632 kJ/mol
# Density = 1.773586 g / cm^3
# Si number density = 17.776321 Si / 1000 Ang^3
#
#
#
# Elastic Constant Matrix: (Units=GPa)
#
#
# Indices 1 2 3 4 5 6 
#
# 1 29.4544 40.8449 49.9109 0.0000 0.0000 0.0000
# 2 40.8449 99.7789 112.1429 0.0000 0.0000 0.0000
# 3 49.9109 112.1429 205.8529 0.0000 0.0000 0.0000
# 4 0.0000 0.0000 0.0000 -5.8895 0.0000 0.0000
# 5 0.0000 0.0000 0.0000 0.0000 -16.9468 0.0000
# 6 0.0000 0.0000 0.0000 0.0000 0.0000 16.8670
#
#
#
# Elastic Compliance Matrix: (Units=1/GPa)
#
#
# Indices 1 2 3 4 5 6 
#
# 1 0.079787 -0.028162 -0.004003 0.000000 0.000000 0.000000
# 2 -0.028162 0.035789 -0.012669 0.000000 0.000000 0.000000
# 3 -0.004003 -0.012669 0.012730 0.000000 0.000000 0.000000
# 4 0.000000 0.000000 0.000000 -0.169795 0.000000 0.000000
# 5 0.000000 0.000000 0.000000 0.000000 -0.059008 0.000000
# 6 0.000000 0.000000 0.000000 0.000000 0.000000 0.059287
#
#
# Mechanical properties :
#
#
# Convention : Reuss Voigt Hill
#
# Bulk Modulus (GPa) = 25.88110 82.32039 54.10075
# Shear Modulus (GPa) = 81.51773 7.61865 44.56819
#
# Velocity S-wave (km/s) = 6.77916 2.07247 5.01259
# Velocity P-wave (km/s) = 8.71016 7.22055 8.00011
#
# Compressibility (1/GPa) = 0.03863824
#
# Stress axis : x y z
#
# Youngs Moduli (GPa) = 12.53340 27.94179 78.55453
#
# Poissons Ratio (x) = 0.78689 0.31448
# Poissons Ratio (y) = 0.35296 0.99518
# Poissons Ratio (z) = 0.05018 0.35398
#
# Static dielectric constant tensor:
#      x y z
#    x 1.592500 0.000000 0.000000 
#    y 0.000000 1.589330 0.000000 
#    z 0.000000 0.000000 1.594700 
# 
# From -- ./inp_files/6097.got.cif
#   From: 2010.05.17/outbox.cif.g08.bks.cpg/sg25_4_cif.got.tgz:6097.got - 2010.06.04 01:04:00.
