data_PCOD9337579
_publ_section_title
;
Structure prediction by ZEFSAII (Michael W. Deem and Ramdas Pophale) SiO2 
 PCOD9337579
Probable space group: P M M 2
;
_chemical_formula_sum "Si O2"
_cell_formula_units_Z 16
_cell_length_a 9.121267
_cell_length_b 7.726538
_cell_length_c 12.260878
_cell_angle_alpha 90.000000
_cell_angle_beta 90.000000
_cell_angle_gamma 90.000000
_cell_volume 864.095383
_symmetry_space_group_name_H-M "P M M 2"
_symmetry_group_IT_number 25
_symmetry_cell_setting 'orthorhombic'
loop_
_space_group_symop_operation_xyz
x,y,z
-x,-y,z
-x,y,z
x,-y,z
loop_
_atom_site_type_symbol
_atom_site_label
_atom_site_fract_x
_atom_site_fract_y
_atom_site_fract_z
Si Si1 0.674675 0.792864 0.300470
Si Si2 0.826585 0.500000 0.901150
Si Si3 0.836831 0.797261 0.518656
Si Si4 0.825675 0.500000 0.160013
Si Si5 0.664605 0.301931 0.728596
O O1 0.500000 0.768500 0.297769
O O2 0.737381 0.734833 0.418600
O O3 0.752884 0.670297 0.212801
O O4 0.702407 0.000000 0.284079
O O5 0.749912 0.334688 0.842116
O O6 0.000000 0.500000 0.877144
O O7 0.803818 0.500000 0.029764
O O8 0.759518 0.784997 0.635528
O O9 0.000000 0.718421 0.520388
O O10 0.852485 0.000000 0.496542
O O11 0.000000 0.500000 0.181969
O O12 0.500000 0.231284 0.741983
O O13 0.650946 0.500000 0.687709
#
# Coordination Sequence:
#
# PCOD9337579 Si02
#       5
#     4   2   4   2   4
#     4  10  22  39  59  85 117 151 190 236 282 336
#     4   9  19  36  55  78 107 141 185 231 272 325
#     4  10  20  34  54  81 112 144 179 223 276 333
#     4  11  23  38  61  86 111 151 193 235 288 337
#     4   9  19  33  53  78 105 138 175 219 269 320
#
# _framework density 18.516475
#
# number of rings (size 3 to 8) (size 9 to 14) (size 15 to 20)
#    0.750    1.500    0.000    2.625    1.750    5.000 
#    0.000    1.250    0.000    1.500    0.000    0.000 
#    0.000    0.000    0.000    0.000    0.000    0.000 
#
# Total GULP energy -89069.329604 kJ/mol
# GULP energy per Si atom -5566.833100 kJ/mol
# Density = 1.847433 g / cm^3
# Si number density = 18.516475 Si / 1000 Ang^3
#
#
#
# Elastic Constant Matrix: (Units=GPa)
#
#
# Indices 1 2 3 4 5 6 
#
# 1 174.5613 48.7279 99.5701 0.0000 0.0000 0.0000
# 2 48.7279 52.4031 36.9128 0.0000 0.0000 0.0000
# 3 99.5701 36.9128 139.1764 0.0000 0.0000 0.0000
# 4 0.0000 0.0000 0.0000 59.6034 0.0000 0.0000
# 5 0.0000 0.0000 0.0000 0.0000 144.4978 0.0000
# 6 0.0000 0.0000 0.0000 0.0000 0.0000 24.5210
#
#
#
# Elastic Compliance Matrix: (Units=1/GPa)
#
#
# Indices 1 2 3 4 5 6 
#
# 1 0.010913 -0.005716 -0.006291 0.000000 0.000000 0.000000
# 2 -0.005716 0.026461 -0.002929 0.000000 0.000000 0.000000
# 3 -0.006291 -0.002929 0.012463 0.000000 0.000000 0.000000
# 4 0.000000 0.000000 0.000000 0.016778 0.000000 0.000000
# 5 0.000000 0.000000 0.000000 0.000000 0.006921 0.000000
# 6 0.000000 0.000000 0.000000 0.000000 0.000000 0.040781
#
#
# Mechanical properties :
#
#
# Convention : Reuss Voigt Hill
#
# Bulk Modulus (GPa) = 50.08853 81.84026 65.96440
# Shear Modulus (GPa) = 33.14714 57.78644 45.46679
#
# Velocity S-wave (km/s) = 4.23560 5.59248 4.96065
# Velocity P-wave (km/s) = 7.14352 9.27339 8.27725
#
# Compressibility (1/GPa) = 0.01996465
#
# Stress axis : x y z
#
# Youngs Moduli (GPa) = 91.63602 37.79170 80.23855
#
# Poissons Ratio (x) = 0.21601 0.50480
# Poissons Ratio (y) = 0.52377 0.23500
# Poissons Ratio (z) = 0.57651 0.11068
#
# Static dielectric constant tensor:
#      x y z
#    x 1.671240 0.000000 0.000000 
#    y 0.000000 1.601950 0.000000 
#    z 0.000000 0.000000 1.605630 
# 
# From -- ./inp_files/3698.got.cif
#   From: 2010.05.17/outbox.cif.g08.bks.cpg/sg25_2_cif.got.tgz:3698.got - 2010.06.04 01:04:00.
