data_PCOD9337880
_publ_section_title
;
Structure prediction by ZEFSAII (Michael W. Deem and Ramdas Pophale) SiO2 
 PCOD9337880
Probable space group: P M C 21
;
_chemical_formula_sum "Si O2"
_cell_formula_units_Z 26
_cell_length_a 32.872619
_cell_length_b 6.737645
_cell_length_c 5.164963
_cell_angle_alpha 90.000000
_cell_angle_beta 90.000000
_cell_angle_gamma 90.000000
_cell_volume 1143.956856
_symmetry_space_group_name_H-M "P M C 21"
_symmetry_group_IT_number 26
_symmetry_cell_setting 'orthorhombic'
loop_
_space_group_symop_operation_xyz
x,y,z
-x,-y,1/2+z
-x,y,z
x,-y,1/2+z
loop_
_atom_site_type_symbol
_atom_site_label
_atom_site_fract_x
_atom_site_fract_y
_atom_site_fract_z
Si Si1 0.455226 0.869902 0.169860
Si Si2 0.712736 0.641042 0.107718
Si Si3 0.624517 0.625331 0.038434
Si Si4 0.205132 0.202557 0.758086
Si Si5 0.828005 0.755756 0.760283
Si Si6 0.000000 0.864312 0.699633
Si Si7 0.913713 0.136444 0.089822
O O1 0.500000 0.773821 0.132994
O O2 0.416444 0.738839 0.105922
O O3 0.453470 0.951150 0.461780
O O4 0.715845 0.488211 0.347243
O O5 0.667367 0.732860 0.101155
O O6 0.749677 0.794037 0.143265
O O7 0.624901 0.440010 0.239002
O O8 0.176936 0.316575 0.551900
O O9 0.184847 0.988416 0.804738
O O10 0.203896 0.301703 0.039400
O O11 0.873252 0.741709 0.650756
O O12 0.957101 0.759648 0.641993
O O13 0.000000 0.953511 0.989500
O O14 0.912613 0.042600 0.803300
#
# Coordination Sequence:
#
# PCOD9337880 Si02
#       7
#     4   4   4   4   4   2   4
#     4  10  21  38  58  85 119 146 174 221 278 319
#     4  10  21  37  52  69  97 131 164 209 248 281
#     4  10  21  38  59  81 108 144 188 222 263 318
#     4  10  18  30  45  66  89 121 157 188 238 286
#     4  10  17  28  45  67  95 120 148 197 236 285
#     4   8  16  20  34  52  78 122 152 170 210 292
#     4  10  14  25  36  56  87 121 149 177 230 277
#
# _framework density 22.72813
#
# number of rings (size 3 to 8) (size 9 to 14) (size 15 to 20)
#    0.000    2.154    3.077    1.846    0.000    0.615 
#    5.538    0.000    0.000    0.000    0.000    0.000 
#    0.000    0.000    0.000   23.538    0.000    0.000 
#
# Total GULP energy -144975.579247 kJ/mol
# GULP energy per Si atom -5575.983817 kJ/mol
# Density = 2.267640 g / cm^3
# Si number density = 22.728130 Si / 1000 Ang^3
#
#
#
# Elastic Constant Matrix: (Units=GPa)
#
#
# Indices 1 2 3 4 5 6 
#
# 1 184.0649 4.0668 -22.9060 0.0000 0.0000 0.0000
# 2 4.0668 26.1071 -19.2631 0.0000 0.0000 0.0000
# 3 -22.9060 -19.2631 120.7176 0.0000 0.0000 0.0000
# 4 0.0000 0.0000 0.0000 -2.2068 0.0000 0.0000
# 5 0.0000 0.0000 0.0000 0.0000 33.9356 0.0000
# 6 0.0000 0.0000 0.0000 0.0000 0.0000 20.1809
#
#
#
# Elastic Compliance Matrix: (Units=1/GPa)
#
#
# Indices 1 2 3 4 5 6 
#
# 1 0.005564 -0.000099 0.001040 0.000000 0.000000 0.000000
# 2 -0.000099 0.043417 0.006909 0.000000 0.000000 0.000000
# 3 0.001040 0.006909 0.009584 0.000000 0.000000 0.000000
# 4 0.000000 0.000000 0.000000 -0.453149 0.000000 0.000000
# 5 0.000000 0.000000 0.000000 0.000000 0.029468 0.000000
# 6 0.000000 0.000000 0.000000 0.000000 0.000000 0.049552
#
#
# Mechanical properties :
#
#
# Convention : Reuss Voigt Hill
#
# Bulk Modulus (GPa) = 13.46527 28.29832 20.88179
# Shear Modulus (GPa) = -16.31274 34.98141 9.33434
#
# Velocity S-wave (km/s) = -2.68196 3.92742 2.02876
# Velocity P-wave (km/s) = 1.91133 5.74839 3.83346
#
# Compressibility (1/GPa) = 0.07426515
#
# Stress axis : x y z
#
# Youngs Moduli (GPa) = 179.71117 23.03229 104.34422
#
# Poissons Ratio (x) = 0.00229 -0.10852
# Poissons Ratio (y) = 0.01787 -0.72095
# Poissons Ratio (z) = -0.18690 -0.15914
#
# Static dielectric constant tensor:
#      x y z
#    x 1.885970 0.000000 0.000000 
#    y 0.000000 2.287620 0.000000 
#    z 0.000000 0.000000 1.900660 
# 
# From -- ./inp_files/1047.got.cif
#   From: 2010.05.17/outbox.cif.g08.bks.cpg/sg26_1_cif.got.tgz:1047.got - 2010.06.04 01:07:29.
