data_PCOD9337094
_publ_section_title
;
Structure prediction by ZEFSAII (Michael W. Deem and Ramdas Pophale) SiO2 
 PCOD9337094
Probable space group: P M M 2
;
_chemical_formula_sum "Si O2"
_cell_formula_units_Z 28
_cell_length_a 14.866930
_cell_length_b 7.431315
_cell_length_c 13.400285
_cell_angle_alpha 90.000000
_cell_angle_beta 90.000000
_cell_angle_gamma 90.000000
_cell_volume 1480.474742
_symmetry_space_group_name_H-M "P M M 2"
_symmetry_group_IT_number 25
_symmetry_cell_setting 'orthorhombic'
loop_
_space_group_symop_operation_xyz
x,y,z
-x,-y,z
-x,y,z
x,-y,z
loop_
_atom_site_type_symbol
_atom_site_label
_atom_site_fract_x
_atom_site_fract_y
_atom_site_fract_z
Si Si1 0.103578 0.780744 0.831430
Si Si2 0.210300 0.787113 0.247078
Si Si3 0.212612 0.779404 0.639338
Si Si4 0.400355 0.210900 0.562970
Si Si5 0.896069 0.219825 0.442355
Si Si6 0.103946 0.780608 0.056019
Si Si7 0.399824 0.714616 0.331003
O O1 0.168100 0.720932 0.742707
O O2 0.000000 0.727793 0.812352
O O3 0.104696 0.000000 0.830980
O O4 0.128098 0.722829 0.943655
O O5 0.159322 0.716968 0.345622
O O6 0.168290 0.716247 0.144449
O O7 0.316670 0.764628 0.261496
O O8 0.192342 0.000000 0.246313
O O9 0.314371 0.715750 0.620878
O O10 0.152349 0.724728 0.544527
O O11 0.213581 0.000000 0.638987
O O12 0.500000 0.289171 0.580116
O O13 0.381806 0.222114 0.444241
O O14 0.405332 0.000000 0.587877
O O15 0.000000 0.275056 0.438268
O O16 0.894921 0.000000 0.441931
O O17 0.000000 0.730107 0.075635
O O18 0.105998 0.000000 0.054774
O O19 0.500000 0.779796 0.302269
O O20 0.402750 0.500000 0.334736
#
# Coordination Sequence:
#
# PCOD9337094 Si02
#       7
#     4   4   4   4   4   4   4
#     4   8  13  21  34  56  88 119 144 173 208 247
#     4  10  17  27  44  65  88 114 142 176 215 255
#     4   9  14  21  35  58  86 115 143 173 211 252
#     4   9  16  27  43  63  86 111 143 181 218 257
#     4   9  15  21  33  58  87 112 139 171 207 249
#     4   8  14  24  39  61  88 118 149 178 209 247
#     4  10  20  32  45  62  85 113 144 178 217 262
#
# _framework density 18.912852000000001
#
# number of rings (size 3 to 8) (size 9 to 14) (size 15 to 20)
#    0.000    3.000    1.429    2.143    0.000    4.286 
#    0.000    0.000    0.000    2.571    0.000    5.000 
#    0.000    3.429    0.000    0.000    0.000    0.000 
#
# Total GULP energy -156173.009812 kJ/mol
# GULP energy per Si atom -5577.607493 kJ/mol
# Density = 1.886981 g / cm^3
# Si number density = 18.912852 Si / 1000 Ang^3
#
#
#
# Elastic Constant Matrix: (Units=GPa)
#
#
# Indices 1 2 3 4 5 6 
#
# 1 171.5591 -0.0344 123.6275 0.0000 0.0000 0.0000
# 2 -0.0344 57.5655 5.2915 0.0000 0.0000 0.0000
# 3 123.6275 5.2915 163.7769 0.0000 0.0000 0.0000
# 4 0.0000 0.0000 0.0000 -32.4204 0.0000 0.0000
# 5 0.0000 0.0000 0.0000 0.0000 29.4957 0.0000
# 6 0.0000 0.0000 0.0000 0.0000 0.0000 -43.0715
#
#
#
# Elastic Compliance Matrix: (Units=1/GPa)
#
#
# Indices 1 2 3 4 5 6 
#
# 1 0.012828 0.000900 -0.009712 0.000000 0.000000 0.000000
# 2 0.000900 0.017486 -0.001245 0.000000 0.000000 0.000000
# 3 -0.009712 -0.001245 0.013477 0.000000 0.000000 0.000000
# 4 0.000000 0.000000 0.000000 -0.030845 0.000000 0.000000
# 5 0.000000 0.000000 0.000000 0.000000 0.033903 0.000000
# 6 0.000000 0.000000 0.000000 0.000000 0.000000 -0.023217
#
#
# Mechanical properties :
#
#
# Convention : Reuss Voigt Hill
#
# Bulk Modulus (GPa) = 42.23192 72.29672 57.26432
# Shear Modulus (GPa) = 96.82679 8.40190 52.61434
#
# Velocity S-wave (km/s) = 7.16292 2.10999 5.28013
# Velocity P-wave (km/s) = 9.52828 6.65172 8.21686
#
# Compressibility (1/GPa) = 0.02367877
#
# Stress axis : x y z
#
# Youngs Moduli (GPa) = 77.95580 57.18707 74.19856
#
# Poissons Ratio (x) = -0.05149 0.72063
# Poissons Ratio (y) = -0.07019 0.09235
# Poissons Ratio (z) = 0.75712 0.07118
#
# Static dielectric constant tensor:
#      x y z
#    x 1.643860 0.000000 0.000000 
#    y 0.000000 1.719990 0.000000 
#    z 0.000000 0.000000 1.629220 
# 
# From -- ./inp_files/5886.got.cif
#   From: 2010.05.17/outbox.cif.g08.bks.cpg/sg25_3_cif.got.tgz:5886.got - 2010.06.04 01:04:00.
