data_PCOD9337962
_publ_section_title
;
Structure prediction by ZEFSAII (Michael W. Deem and Ramdas Pophale) SiO2 
 PCOD9337962
Probable space group: P M C 21
;
_chemical_formula_sum "Si O2"
_cell_formula_units_Z 32
_cell_length_a 7.510916
_cell_length_b 11.871274
_cell_length_c 16.878697
_cell_angle_alpha 90.000000
_cell_angle_beta 90.000000
_cell_angle_gamma 90.000000
_cell_volume 1504.974533
_symmetry_space_group_name_H-M "P M C 21"
_symmetry_group_IT_number 26
_symmetry_cell_setting 'orthorhombic'
loop_
_space_group_symop_operation_xyz
x,y,z
-x,-y,1/2+z
-x,y,z
x,-y,1/2+z
loop_
_atom_site_type_symbol
_atom_site_label
_atom_site_fract_x
_atom_site_fract_y
_atom_site_fract_z
Si Si1 0.215109 0.727569 0.755740
Si Si2 0.788393 0.918261 0.874312
Si Si3 0.785573 0.150030 0.804473
Si Si4 0.781194 0.324792 0.927744
Si Si5 0.782126 0.805284 0.586687
Si Si6 0.210725 0.422680 0.402311
Si Si7 0.695948 0.774224 0.018426
Si Si8 0.797304 0.949805 0.142876
O O1 0.254865 0.849312 0.794771
O O2 0.273273 0.733557 0.664678
O O3 0.280646 0.636927 0.821252
O O4 0.000000 0.716770 0.753577
O O5 0.000000 0.901193 0.888313
O O6 0.755911 0.048949 0.865998
O O7 0.689634 0.860637 0.945480
O O8 0.722745 0.262103 0.847295
O O9 0.712426 0.101668 0.722229
O O10 0.000000 0.162969 0.794000
O O11 0.720525 0.453926 0.923568
O O12 0.000000 0.323888 0.929372
O O13 0.723957 0.254929 0.005605
O O14 0.000000 0.806515 0.583443
O O15 0.724765 0.935688 0.602410
O O16 0.234526 0.338297 0.476392
O O17 0.000000 0.434027 0.389364
O O18 0.500000 0.751915 0.050690
O O19 0.801191 0.844436 0.083376
O O20 0.000000 0.982118 0.165095
#
# Coordination Sequence:
#
# PCOD9337962 Si02
#       8
#     4   4   4   4   4   4   4   4
#     4   8  13  24  45  71  98 130 165 203 244 295
#     4   9  15  29  53  78 104 132 165 206 259 314
#     4   9  16  28  50  81 111 132 160 209 263 314
#     4   9  17  28  45  77 110 133 164 214 261 298
#     4   9  15  26  48  79 109 131 160 204 259 313
#     4   9  18  34  52  71  99 135 177 215 254 300
#     4  11  22  34  50  73 101 135 175 217 257 299
#     4  10  18  31  53  80 106 134 168 206 259 319
#
# _framework density 21.262817999999999
#
# number of rings (size 3 to 8) (size 9 to 14) (size 15 to 20)
#    0.000    2.750    1.250    2.625    0.000    2.000 
#    2.250    0.625    0.000    3.750    0.000    0.000 
#    0.000    0.000    0.000    0.000    0.000    0.000 
#
# Total GULP energy -178323.263611 kJ/mol
# GULP energy per Si atom -5572.601988 kJ/mol
# Density = 2.121442 g / cm^3
# Si number density = 21.262818 Si / 1000 Ang^3
#
#
#
# Elastic Constant Matrix: (Units=GPa)
#
#
# Indices 1 2 3 4 5 6 
#
# 1 39.8892 14.0072 2.4610 0.0000 0.0000 0.0000
# 2 14.0072 151.7133 83.0850 0.0000 0.0000 0.0000
# 3 2.4610 83.0850 101.6914 0.0000 0.0000 0.0000
# 4 0.0000 0.0000 0.0000 26.2071 0.0000 0.0000
# 5 0.0000 0.0000 0.0000 0.0000 2.2397 0.0000
# 6 0.0000 0.0000 0.0000 0.0000 0.0000 -18.3872
#
#
#
# Elastic Compliance Matrix: (Units=1/GPa)
#
#
# Indices 1 2 3 4 5 6 
#
# 1 0.026238 -0.003755 0.002433 0.000000 0.000000 0.000000
# 2 -0.003755 0.012466 -0.010094 0.000000 0.000000 0.000000
# 3 0.002433 -0.010094 0.018022 0.000000 0.000000 0.000000
# 4 0.000000 0.000000 0.000000 0.038158 0.000000 0.000000
# 5 0.000000 0.000000 0.000000 0.000000 0.446493 0.000000
# 6 0.000000 0.000000 0.000000 0.000000 0.000000 -0.054386
#
#
# Mechanical properties :
#
#
# Convention : Reuss Voigt Hill
#
# Bulk Modulus (GPa) = 29.50415 54.71115 42.10765
# Shear Modulus (GPa) = 9.59469 14.92797 12.26133
#
# Velocity S-wave (km/s) = 2.12655 2.65253 2.40397
# Velocity P-wave (km/s) = 4.46494 5.93026 5.24899
#
# Compressibility (1/GPa) = 0.03389353
#
# Stress axis : x y z
#
# Youngs Moduli (GPa) = 38.11289 80.21700 55.48705
#
# Poissons Ratio (x) = 0.30120 -0.13499
# Poissons Ratio (y) = 0.14311 0.56011
# Poissons Ratio (z) = -0.09272 0.80974
#
# Static dielectric constant tensor:
#      x y z
#    x 1.803200 0.000000 0.000000 
#    y 0.000000 1.748380 0.000000 
#    z 0.000000 0.000000 1.792680 
# 
# From -- ./inp_files/4992.got.cif
#   From: 2010.05.17/outbox.cif.g08.bks.cpg/sg26_3_cif.got.tgz:4992.got - 2010.06.04 01:07:29.
