data_PCOD9337736
_publ_section_title
;
Structure prediction by ZEFSAII (Michael W. Deem and Ramdas Pophale) SiO2 
 PCOD9337736
Probable space group: P M M 2
;
_chemical_formula_sum "Si O2"
_cell_formula_units_Z 24
_cell_length_a 11.943454
_cell_length_b 8.768726
_cell_length_c 12.865172
_cell_angle_alpha 90.000000
_cell_angle_beta 90.000000
_cell_angle_gamma 90.000000
_cell_volume 1347.354998
_symmetry_space_group_name_H-M "P M M 2"
_symmetry_group_IT_number 25
_symmetry_cell_setting 'orthorhombic'
loop_
_space_group_symop_operation_xyz
x,y,z
-x,-y,z
-x,y,z
x,-y,z
loop_
_atom_site_type_symbol
_atom_site_label
_atom_site_fract_x
_atom_site_fract_y
_atom_site_fract_z
Si Si1 0.500000 0.317823 0.184820
Si Si2 0.130544 0.182552 0.683497
Si Si3 0.869778 0.682577 0.455144
Si Si4 0.131721 0.181047 0.057945
Si Si5 0.270843 0.818051 0.267251
Si Si6 0.729283 0.319209 0.871155
Si Si7 0.500000 0.817888 0.951501
O O1 0.500000 0.500000 0.178494
O O2 0.610603 0.258921 0.242933
O O3 0.500000 0.249724 0.068215
O O4 0.152509 0.247444 0.568629
O O5 0.211204 0.256611 0.768090
O O6 0.000000 0.217450 0.709036
O O7 0.142994 0.000000 0.683913
O O8 0.858279 0.500000 0.459068
O O9 0.788921 0.752014 0.368774
O O10 0.000000 0.718370 0.429180
O O11 0.191386 0.211109 0.167593
O O12 0.000000 0.213366 0.063524
O O13 0.145666 0.000000 0.034710
O O14 0.191428 0.275402 0.967995
O O15 0.284922 0.000000 0.276770
O O16 0.714566 0.500000 0.865289
O O17 0.610710 0.239920 0.893433
O O18 0.500000 0.000000 0.958828
#
# Coordination Sequence:
#
# PCOD9337736 Si02
#       7
#     2   4   4   4   4   4   2
#     4  12  24  40  61  88 119 156 200 249 301 351
#     4  10  21  39  63  89 120 160 203 244 293 357
#     4  10  21  38  61  90 124 159 198 248 302 352
#     4  10  21  36  56  84 119 157 196 240 291 352
#     4  11  22  38  61  87 118 160 203 243 293 356
#     4  12  24  38  59  88 120 155 197 247 301 353
#     4  12  24  42  63  84 115 160 204 243 293 357
#
# _framework density 17.812677000000001
#
# number of rings (size 3 to 8) (size 9 to 14) (size 15 to 20)
#    0.000    1.167    1.667    5.500    0.000    5.667 
#    0.000    0.833    0.000    0.000    0.000    0.000 
#    0.000    0.000    0.000    0.000    0.000    0.000 
#
# Total GULP energy -134230.462132 kJ/mol
# GULP energy per Si atom -5592.935922 kJ/mol
# Density = 1.777213 g / cm^3
# Si number density = 17.812677 Si / 1000 Ang^3
#
#
#
# Elastic Constant Matrix: (Units=GPa)
#
#
# Indices 1 2 3 4 5 6 
#
# 1 158.2720 94.2328 101.5778 0.0000 0.0000 0.0000
# 2 94.2328 129.6080 86.4452 0.0000 0.0000 0.0000
# 3 101.5778 86.4452 139.7860 0.0000 0.0000 0.0000
# 4 0.0000 0.0000 0.0000 52.5759 0.0000 0.0000
# 5 0.0000 0.0000 0.0000 0.0000 -38.7519 0.0000
# 6 0.0000 0.0000 0.0000 0.0000 0.0000 198.2366
#
#
#
# Elastic Compliance Matrix: (Units=1/GPa)
#
#
# Indices 1 2 3 4 5 6 
#
# 1 0.013986 -0.005770 -0.006595 0.000000 0.000000 0.000000
# 2 -0.005770 0.015513 -0.005400 0.000000 0.000000 0.000000
# 3 -0.006595 -0.005400 0.015286 0.000000 0.000000 0.000000
# 4 0.000000 0.000000 0.000000 0.019020 0.000000 0.000000
# 5 0.000000 0.000000 0.000000 0.000000 -0.025805 0.000000
# 6 0.000000 0.000000 0.000000 0.000000 0.000000 0.005044
#
#
# Mechanical properties :
#
#
# Convention : Reuss Voigt Hill
#
# Bulk Modulus (GPa) = 108.06305 110.24195 109.15250
# Shear Modulus (GPa) = 61.22964 52.10613 56.66789
#
# Velocity S-wave (km/s) = 5.86931 5.41440 5.64644
# Velocity P-wave (km/s) = 10.33101 10.05543 10.19415
#
# Compressibility (1/GPa) = 0.00925386
#
# Stress axis : x y z
#
# Youngs Moduli (GPa) = 71.49795 64.46363 65.42029
#
# Poissons Ratio (x) = 0.37197 0.43145
# Poissons Ratio (y) = 0.41256 0.35328
# Poissons Ratio (z) = 0.47154 0.34811
#
# Static dielectric constant tensor:
#      x y z
#    x 1.588580 0.000000 0.000000 
#    y 0.000000 1.591520 0.000000 
#    z 0.000000 0.000000 1.571080 
# 
# From -- ./inp_files/3943.got.cif
#   From: 2010.05.17/outbox.cif.g08.bks.cpg/sg25_2_cif.got.tgz:3943.got - 2010.06.04 01:04:00.
