data_PCOD9337700
_publ_section_title
;
Structure prediction by ZEFSAII (Michael W. Deem and Ramdas Pophale) SiO2 
 PCOD9337700
Probable space group: P M M 2
;
_chemical_formula_sum "Si O2"
_cell_formula_units_Z 24
_cell_length_a 8.749976
_cell_length_b 12.043790
_cell_length_c 12.948221
_cell_angle_alpha 90.000000
_cell_angle_beta 90.000000
_cell_angle_gamma 90.000000
_cell_volume 1364.520735
_symmetry_space_group_name_H-M "P M M 2"
_symmetry_group_IT_number 25
_symmetry_cell_setting 'orthorhombic'
loop_
_space_group_symop_operation_xyz
x,y,z
-x,-y,z
-x,y,z
x,-y,z
loop_
_atom_site_type_symbol
_atom_site_label
_atom_site_fract_x
_atom_site_fract_y
_atom_site_fract_z
Si Si1 0.683440 0.129672 0.700170
Si Si2 0.316995 0.730769 0.495297
Si Si3 0.183055 0.871310 0.308996
Si Si4 0.682851 0.871305 0.082764
Si Si5 0.814253 0.500000 0.810242
Si Si6 0.183051 0.261610 0.892672
Si Si7 0.816256 0.500000 0.569372
O O1 0.500000 0.138453 0.715752
O O2 0.722225 0.193520 0.594797
O O3 0.766718 0.186771 0.795814
O O4 0.722204 0.000000 0.692497
O O5 0.500000 0.722723 0.489089
O O6 0.253199 0.790302 0.393818
O O7 0.246278 0.610210 0.515186
O O8 0.245837 0.847187 0.194630
O O9 0.000000 0.862818 0.309204
O O10 0.224690 0.000000 0.332898
O O11 0.500000 0.863806 0.088761
O O12 0.722279 0.000000 0.056391
O O13 0.745061 0.790089 0.995239
O O14 0.765418 0.612753 0.866779
O O15 0.765720 0.500000 0.690101
O O16 0.000000 0.500000 0.809096
O O17 0.000000 0.261000 0.901837
O O18 0.000000 0.500000 0.567460
#
# Coordination Sequence:
#
# PCOD9337700 Si02
#       7
#     4   4   4   4   2   4   2
#     4  10  21  35  52  79 115 149 182 227 284 343
#     4  11  22  37  58  85 116 152 194 237 288 346
#     4  10  21  38  61  88 116 150 193 238 287 345
#     4  10  21  38  59  84 116 151 186 232 291 347
#     4   9  20  37  56  79 112 151 189 233 285 334
#     4  11  21  36  57  82 111 147 192 237 283 339
#     4  11  21  39  60  81 114 155 197 241 289 338
#
# _framework density 17.588594000000001
#
# number of rings (size 3 to 8) (size 9 to 14) (size 15 to 20)
#    0.000    1.667    1.667    3.250    0.000    5.667 
#    0.000    2.500    0.000    1.000    0.000    0.000 
#    0.000    0.000    0.000    0.000    0.000    0.000 
#
# Total GULP energy -134101.750670 kJ/mol
# GULP energy per Si atom -5587.572945 kJ/mol
# Density = 1.754856 g / cm^3
# Si number density = 17.588594 Si / 1000 Ang^3
#
#
#
# Elastic Constant Matrix: (Units=GPa)
#
#
# Indices 1 2 3 4 5 6 
#
# 1 55.3369 61.4462 59.3954 0.0000 0.0000 0.0000
# 2 61.4462 173.4975 112.3667 0.0000 0.0000 0.0000
# 3 59.3954 112.3667 154.4775 0.0000 0.0000 0.0000
# 4 0.0000 0.0000 0.0000 10.1956 0.0000 0.0000
# 5 0.0000 0.0000 0.0000 0.0000 34.2015 0.0000
# 6 0.0000 0.0000 0.0000 0.0000 0.0000 29.4351
#
#
#
# Elastic Compliance Matrix: (Units=1/GPa)
#
#
# Indices 1 2 3 4 5 6 
#
# 1 0.034634 -0.006885 -0.008308 0.000000 0.000000 0.000000
# 2 -0.006885 0.012266 -0.006275 0.000000 0.000000 0.000000
# 3 -0.008308 -0.006275 0.014233 0.000000 0.000000 0.000000
# 4 0.000000 0.000000 0.000000 0.098081 0.000000 0.000000
# 5 0.000000 0.000000 0.000000 0.000000 0.029238 0.000000
# 6 0.000000 0.000000 0.000000 0.000000 0.000000 0.033973
#
#
# Mechanical properties :
#
#
# Convention : Reuss Voigt Hill
#
# Bulk Modulus (GPa) = 54.95846 94.41427 74.68637
# Shear Modulus (GPa) = 18.42107 24.77336 21.59721
#
# Velocity S-wave (km/s) = 3.23976 3.75706 3.50796
# Velocity P-wave (km/s) = 6.73121 8.52153 7.67872
#
# Compressibility (1/GPa) = 0.01819556
#
# Stress axis : x y z
#
# Youngs Moduli (GPa) = 28.87337 81.52300 70.26146
#
# Poissons Ratio (x) = 0.56130 0.58375
# Poissons Ratio (y) = 0.19880 0.44091
# Poissons Ratio (z) = 0.23989 0.51158
#
# Static dielectric constant tensor:
#      x y z
#    x 1.591010 0.000000 0.000000 
#    y 0.000000 1.583460 0.000000 
#    z 0.000000 0.000000 1.561610 
# 
# From -- ./inp_files/3993.got.cif
#   From: 2010.05.17/outbox.cif.g08.bks.cpg/sg25_2_cif.got.tgz:3993.got - 2010.06.04 01:04:00.
