data_PCOD9337074
_publ_section_title
;
Structure prediction by ZEFSAII (Michael W. Deem and Ramdas Pophale) SiO2 
 PCOD9337074
Probable space group: I 21 21 21
;
_chemical_formula_sum "Si O2"
_cell_formula_units_Z 32
_cell_length_a 15.000000
_cell_length_b 24.000000
_cell_length_c 9.000000
_cell_angle_alpha 90.000000
_cell_angle_beta 90.000000
_cell_angle_gamma 90.000000
_cell_volume 3240.000000
_symmetry_space_group_name_H-M "I 21 21 21"
_symmetry_group_IT_number 24
_symmetry_cell_setting 'orthorhombic'
loop_
_space_group_symop_operation_xyz
x,y,z
-x,1/2-y,z
x,-y,1/2-z
1/2-x,y,-z
1/2+x,1/2+y,1/2+z
1/2-x,-y,1/2+z
1/2+x,1/2-y,-z
-x,1/2+y,1/2-z
loop_
_atom_site_type_symbol
_atom_site_label
_atom_site_fract_x
_atom_site_fract_y
_atom_site_fract_z
Si Si1 0.436228 0.199802 0.679424
Si Si2 0.681199 0.551017 0.366380
Si Si3 0.343233 0.752314 0.093178
Si Si4 0.499434 0.531622 0.523614
Si Si5 0.022020 0.420061 0.347753
Si Si6 0.185008 0.451903 0.859122
Si Si7 0.157322 0.626169 0.914495
Si Si8 0.246170 0.173380 0.824170
O O1 0.500000 0.250000 0.735835
O O2 0.410260 0.215135 0.511684
O O3 0.482138 0.140405 0.676311
O O4 0.343845 0.190473 0.765888
O O5 0.676890 0.500000 0.250000
O O6 0.750000 0.537845 0.500000
O O7 0.583512 0.559748 0.441812
O O8 0.717138 0.609037 0.294808
O O9 0.375577 0.689124 0.108799
O O10 0.322189 0.785032 0.243432
O O11 0.250000 0.751222 0.000000
O O12 0.532115 0.469830 0.572472
O O13 0.464676 0.558660 0.678591
O O14 0.412795 0.530917 0.418817
O O15 0.099358 0.409436 0.468821
O O16 0.222244 0.500000 0.750000
O O17 0.171220 0.400847 0.746563
O O18 0.250000 0.442998 0.000000
O O19 0.250000 0.630137 0.000000
O O20 0.250000 0.179378 0.000000
#
# Coordination Sequence:
#
# PCOD9337074 Si02
#       8
#     8   8   8   8   8   8   8   8
#     4  11  22  42  69 101 124 176 232 277 339 410
#     4  11  26  43  68 101 137 181 233 288 353 420
#     4   9  21  40  65  90 121 168 223 267 330 403
#     4  11  26  43  65  99 134 180 225 284 349 414
#     4  11  23  40  68  90 136 170 226 282 341 405
#     4  12  25  41  65  96 135 180 224 280 350 415
#     4  11  22  41  63  92 128 172 224 279 332 418
#     4  10  23  44  66  94 141 175 219 284 348 412
#
# _framework density 9.8765429999999999
#
# number of rings (size 3 to 8) (size 9 to 14) (size 15 to 20)
#    0.000    1.250    2.500    3.000    7.000    1.000 
#    2.250    0.625    0.000    0.000    0.000    0.000 
#    0.000    0.000    0.000    0.000    0.000    0.000 
#
# Total GULP energy -178486.148924 kJ/mol
# GULP energy per Si atom -5577.692154 kJ/mol
# Density = 0.985406 g / cm^3
# Si number density = 9.876543 Si / 1000 Ang^3
#
#
#
# Elastic Constant Matrix: (Units=GPa)
#
#
# Indices 1 2 3 4 5 6 
#
# 1 85.7240 27.1335 37.4267 0.0000 0.0000 0.0000
# 2 27.1335 136.4683 60.6088 0.0000 0.0001 0.0000
# 3 37.4267 60.6088 124.3855 0.0007 0.0002 -0.0002
# 4 0.0000 0.0000 0.0007 13.1151 0.0000 0.0000
# 5 0.0000 0.0001 0.0002 0.0000 35.1731 0.0000
# 6 0.0000 0.0000 -0.0002 0.0000 0.0000 25.4730
#
#
#
# Elastic Compliance Matrix: (Units=1/GPa)
#
#
# Indices 1 2 3 4 5 6 
#
# 1 0.013564 -0.001129 -0.003532 0.000000 0.000000 0.000000
# 2 -0.001129 0.009445 -0.004263 0.000000 0.000000 0.000000
# 3 -0.003532 -0.004263 0.011179 -0.000001 0.000000 0.000000
# 4 0.000000 0.000000 -0.000001 0.076248 0.000000 0.000000
# 5 0.000000 0.000000 0.000000 0.000000 0.028431 0.000000
# 6 0.000000 0.000000 0.000000 0.000000 0.000000 0.039257
#
#
# Mechanical properties :
#
#
# Convention : Reuss Voigt Hill
#
# Bulk Modulus (GPa) = 61.18748 66.32400 63.75574
# Shear Modulus (GPa) = 24.82395 29.51283 27.16839
#
# Velocity S-wave (km/s) = 3.54886 3.86954 3.71266
# Velocity P-wave (km/s) = 6.91635 7.32215 7.12214
#
# Compressibility (1/GPa) = 0.01634321
#
# Stress axis : x y z
#
# Youngs Moduli (GPa) = 73.72240 105.87274 89.45143
#
# Poissons Ratio (x) = 0.11948 0.31590
# Poissons Ratio (y) = 0.08320 0.38131
# Poissons Ratio (z) = 0.26035 0.45131
#
# Static dielectric constant tensor:
#      x y z
#    x 1.856290 0.000000 0.000000 
#    y 0.000000 1.725700 0.000000 
#    z 0.000000 0.000000 1.636170 
# 
# From -- ./inp_files/13357.got.cif
#   From: 2010.05.17/outbox.ucp.g08.bks.cvg/sg24_7_cif.got.tgz:13357.got - 2010.06.11 15:20:44.
