data_PCOD9337416
_publ_section_title
;
Structure prediction by ZEFSAII (Michael W. Deem and Ramdas Pophale) SiO2 
 PCOD9337416
Probable space group: P M M 2
;
_chemical_formula_sum "Si O2"
_cell_formula_units_Z 32
_cell_length_a 7.400078
_cell_length_b 9.562853
_cell_length_c 21.246232
_cell_angle_alpha 90.000000
_cell_angle_beta 90.000000
_cell_angle_gamma 90.000000
_cell_volume 1503.507839
_symmetry_space_group_name_H-M "P M M 2"
_symmetry_group_IT_number 25
_symmetry_cell_setting 'orthorhombic'
loop_
_space_group_symop_operation_xyz
x,y,z
-x,-y,z
-x,y,z
x,-y,z
loop_
_atom_site_type_symbol
_atom_site_label
_atom_site_fract_x
_atom_site_fract_y
_atom_site_fract_z
Si Si1 0.219994 0.339211 0.332960
Si Si2 0.779664 0.338786 0.191147
Si Si3 0.284373 0.340983 0.949909
Si Si4 0.715535 0.659521 0.712310
Si Si5 0.778764 0.839781 0.452160
Si Si6 0.783459 0.841457 0.073690
Si Si7 0.278726 0.838979 0.830527
Si Si8 0.783971 0.341010 0.570099
O O1 0.273850 0.500000 0.344545
O O2 0.276409 0.300138 0.262116
O O3 0.279840 0.239563 0.388976
O O4 0.000000 0.337500 0.333082
O O5 0.725922 0.500000 0.179062
O O6 0.716364 0.235607 0.136641
O O7 0.000000 0.337637 0.190607
O O8 0.500000 0.351251 0.942093
O O9 0.213920 0.500000 0.952830
O O10 0.217928 0.252237 0.890238
O O11 0.252581 0.254879 0.013473
O O12 0.500000 0.651025 0.720215
O O13 0.786282 0.500000 0.718213
O O14 0.781281 0.762494 0.766580
O O15 0.748771 0.708810 0.641092
O O16 0.717772 0.757196 0.514279
O O17 0.000000 0.838620 0.452176
O O18 0.721555 0.000000 0.452917
O O19 0.000000 0.850136 0.079579
O O20 0.715082 0.000000 0.066084
O O21 0.500000 0.840318 0.830885
O O22 0.220990 0.000000 0.834437
O O23 0.713614 0.500000 0.564843
O O24 0.000000 0.348393 0.563122
#
# Coordination Sequence:
#
# PCOD9337416 Si02
#       8
#     4   4   4   4   4   4   4   4
#     4   8  13  22  37  57  82 114 151 187 222 262
#     4   8  14  25  41  61  87 120 155 189 226 269
#     4  10  20  34  53  74  94 121 159 198 233 273
#     4   9  17  30  48  68  88 112 146 185 220 259
#     4   9  16  24  36  57  85 115 146 182 223 264
#     4  10  20  32  47  70 100 130 157 189 234 284
#     4   9  17  30  49  71  93 117 147 186 230 272
#     4   9  17  29  44  62  87 118 147 176 216 266
#
# _framework density 21.283560999999999
#
# number of rings (size 3 to 8) (size 9 to 14) (size 15 to 20)
#    0.000    3.000    0.000    2.250    0.000    5.500 
#    0.000    3.125    0.000    2.250    0.000    0.875 
#    0.000    3.000    0.000    0.000    0.000    0.000 
#
# Total GULP energy -178675.523496 kJ/mol
# GULP energy per Si atom -5583.610109 kJ/mol
# Density = 2.123512 g / cm^3
# Si number density = 21.283561 Si / 1000 Ang^3
#
#
#
# Elastic Constant Matrix: (Units=GPa)
#
#
# Indices 1 2 3 4 5 6 
#
# 1 72.0796 7.1239 1.2261 0.0000 0.0000 0.0000
# 2 7.1239 193.3232 164.2316 0.0000 0.0000 0.0000
# 3 1.2261 164.2316 234.4965 0.0000 0.0000 0.0000
# 4 0.0000 0.0000 0.0000 45.7176 0.0000 0.0000
# 5 0.0000 0.0000 0.0000 0.0000 20.0743 0.0000
# 6 0.0000 0.0000 0.0000 0.0000 0.0000 -2.9250
#
#
#
# Elastic Compliance Matrix: (Units=1/GPa)
#
#
# Indices 1 2 3 4 5 6 
#
# 1 0.013972 -0.001118 0.000710 0.000000 0.000000 0.000000
# 2 -0.001118 0.012860 -0.009001 0.000000 0.000000 0.000000
# 3 0.000710 -0.009001 0.010565 0.000000 0.000000 0.000000
# 4 0.000000 0.000000 0.000000 0.021873 0.000000 0.000000
# 5 0.000000 0.000000 0.000000 0.000000 0.049815 0.000000
# 6 0.000000 0.000000 0.000000 0.000000 0.000000 -0.341883
#
#
# Mechanical properties :
#
#
# Convention : Reuss Voigt Hill
#
# Bulk Modulus (GPa) = 53.82445 93.89583 73.86014
# Shear Modulus (GPa) = -24.06320 34.39455 5.16568
#
# Velocity S-wave (km/s) = -3.36609 4.02433 1.55960
# Velocity P-wave (km/s) = 3.19949 8.11209 6.16615
#
# Compressibility (1/GPa) = 0.01857892
#
# Stress axis : x y z
#
# Youngs Moduli (GPa) = 71.57186 77.75760 94.65448
#
# Poissons Ratio (x) = 0.08693 -0.06719
# Poissons Ratio (y) = 0.08001 0.85199
# Poissons Ratio (z) = -0.05081 0.69990
#
# Static dielectric constant tensor:
#      x y z
#    x 1.844650 0.000000 0.000000 
#    y 0.000000 1.728230 0.000000 
#    z 0.000000 0.000000 1.728640 
# 
# From -- ./inp_files/6300.got.cif
#   From: 2010.05.17/outbox.cif.g08.bks.cpg/sg25_4_cif.got.tgz:6300.got - 2010.06.04 01:04:00.
