data_PCOD9337433
_publ_section_title
;
Structure prediction by ZEFSAII (Michael W. Deem and Ramdas Pophale) SiO2 
 PCOD9337433
Probable space group: P M M 2
;
_chemical_formula_sum "Si O2"
_cell_formula_units_Z 32
_cell_length_a 8.982494
_cell_length_b 14.440150
_cell_length_c 15.857250
_cell_angle_alpha 90.000000
_cell_angle_beta 90.000000
_cell_angle_gamma 90.000000
_cell_volume 2056.821075
_symmetry_space_group_name_H-M "P M M 2"
_symmetry_group_IT_number 25
_symmetry_cell_setting 'orthorhombic'
loop_
_space_group_symop_operation_xyz
x,y,z
-x,-y,z
-x,y,z
x,-y,z
loop_
_atom_site_type_symbol
_atom_site_label
_atom_site_fract_x
_atom_site_fract_y
_atom_site_fract_z
Si Si1 0.677508 0.283787 0.919720
Si Si2 0.823034 0.107083 0.849199
Si Si3 0.822220 0.718068 0.590348
Si Si4 0.179578 0.609390 0.074821
Si Si5 0.822188 0.390661 0.763291
Si Si6 0.828626 0.387672 0.263883
Si Si7 0.323527 0.390002 0.436612
Si Si8 0.677091 0.106661 0.664738
O O1 0.500000 0.280975 0.920165
O O2 0.745166 0.181394 0.908713
O O3 0.735301 0.341816 0.838934
O O4 0.740283 0.332814 0.002976
O O5 0.754602 0.119167 0.755781
O O6 0.000000 0.124095 0.845443
O O7 0.798561 0.000000 0.873836
O O8 0.787133 0.657919 0.674315
O O9 0.760851 0.665628 0.508927
O O10 0.746270 0.817529 0.603202
O O11 0.000000 0.727510 0.585675
O O12 0.214750 0.500000 0.065295
O O13 0.220597 0.640249 0.169948
O O14 0.000000 0.617812 0.067309
O O15 0.789793 0.500000 0.759794
O O16 0.000000 0.379748 0.778208
O O17 0.829052 0.500000 0.261556
O O18 0.730207 0.360177 0.343509
O O19 0.000000 0.358345 0.276833
O O20 0.500000 0.377805 0.445010
O O21 0.290317 0.500000 0.445247
O O22 0.500000 0.120540 0.673585
O O23 0.702890 0.000000 0.638597
#
# Coordination Sequence:
#
# PCOD9337433 Si02
#       8
#     4   4   4   4   4   4   4   4
#     4  12  23  32  47  72 101 132 164 202 249 296
#     4  10  20  35  54  72  92 124 166 207 246 291
#     4  11  21  33  51  72  96 132 173 206 240 288
#     4   9  18  33  52  72  98 133 170 207 244 287
#     4  10  21  35  48  64  93 134 174 206 237 279
#     4   8  15  30  51  72  94 125 166 208 247 288
#     4  10  20  32  48  72 103 135 165 204 251 295
#     4  10  20  34  52  74  99 125 157 203 255 298
#
# _framework density 15.55799
#
# number of rings (size 3 to 8) (size 9 to 14) (size 15 to 20)
#    0.000    2.000    1.250    4.125    0.000    5.750 
#    0.000    1.250    0.000    0.000    0.000    0.875 
#    0.000    1.000    0.000    0.000    0.000    0.000 
#
# Total GULP energy -178592.632634 kJ/mol
# GULP energy per Si atom -5581.019770 kJ/mol
# Density = 1.552258 g / cm^3
# Si number density = 15.557990 Si / 1000 Ang^3
#
#
#
# Elastic Constant Matrix: (Units=GPa)
#
#
# Indices 1 2 3 4 5 6 
#
# 1 77.7475 59.5817 67.2612 0.0000 0.0000 0.0000
# 2 59.5817 91.9843 61.6226 0.0000 0.0000 0.0000
# 3 67.2612 61.6226 124.3465 0.0000 0.0000 0.0000
# 4 0.0000 0.0000 0.0000 6.3630 0.0000 0.0000
# 5 0.0000 0.0000 0.0000 0.0000 -16.3248 0.0000
# 6 0.0000 0.0000 0.0000 0.0000 0.0000 22.7395
#
#
#
# Elastic Compliance Matrix: (Units=1/GPa)
#
#
# Indices 1 2 3 4 5 6 
#
# 1 0.033166 -0.014168 -0.010919 0.000000 0.000000 0.000000
# 2 -0.014168 0.022327 -0.003401 0.000000 0.000000 0.000000
# 3 -0.010919 -0.003401 0.015634 0.000000 0.000000 0.000000
# 4 0.000000 0.000000 0.000000 0.157158 0.000000 0.000000
# 5 0.000000 0.000000 0.000000 0.000000 -0.061256 0.000000
# 6 0.000000 0.000000 0.000000 0.000000 0.000000 0.043976
#
#
# Mechanical properties :
#
#
# Convention : Reuss Voigt Hill
#
# Bulk Modulus (GPa) = 70.66594 74.55660 72.61127
# Shear Modulus (GPa) = 18.33537 9.59637 13.96587
#
# Velocity S-wave (km/s) = 3.43668 2.48627 2.99936
# Velocity P-wave (km/s) = 7.82734 7.50119 7.66600
#
# Compressibility (1/GPa) = 0.01415109
#
# Stress axis : x y z
#
# Youngs Moduli (GPa) = 30.15149 44.78896 63.96509
#
# Poissons Ratio (x) = 0.63457 0.69842
# Poissons Ratio (y) = 0.42719 0.21753
# Poissons Ratio (z) = 0.32922 0.15232
#
# Static dielectric constant tensor:
#      x y z
#    x 1.515070 0.000000 0.000000 
#    y 0.000000 1.512970 0.000000 
#    z 0.000000 0.000000 1.501930 
# 
# From -- ./inp_files/5727.got.cif
#   From: 2010.05.17/outbox.cif.g08.bks.cpg/sg25_3_cif.got.tgz:5727.got - 2010.06.04 01:04:00.
