data_PCOD9337643
_publ_section_title
;
Structure prediction by ZEFSAII (Michael W. Deem and Ramdas Pophale) SiO2 
 PCOD9337643
Probable space group: P M M 2
;
_chemical_formula_sum "Si O2"
_cell_formula_units_Z 32
_cell_length_a 8.401528
_cell_length_b 15.071576
_cell_length_c 12.665001
_cell_angle_alpha 90.000000
_cell_angle_beta 90.000000
_cell_angle_gamma 90.000000
_cell_volume 1603.696478
_symmetry_space_group_name_H-M "P M M 2"
_symmetry_group_IT_number 25
_symmetry_cell_setting 'orthorhombic'
loop_
_space_group_symop_operation_xyz
x,y,z
-x,-y,z
-x,y,z
x,-y,z
loop_
_atom_site_type_symbol
_atom_site_label
_atom_site_fract_x
_atom_site_fract_y
_atom_site_fract_z
Si Si1 0.807522 0.598416 0.164930
Si Si2 0.310878 0.898501 0.880505
Si Si3 0.814374 0.156489 0.447420
Si Si4 0.184543 0.779223 0.069022
Si Si5 0.683328 0.099213 0.238648
Si Si6 0.808114 0.792149 0.677823
Si Si7 0.807528 0.403405 0.613276
Si Si8 0.312135 0.654055 0.391849
O O1 0.769169 0.500000 0.124718
O O2 0.753774 0.679898 0.091239
O O3 0.735076 0.609911 0.281628
O O4 0.000000 0.605392 0.174557
O O5 0.500000 0.904229 0.873875
O O6 0.249535 0.846481 0.777898
O O7 0.247564 0.000000 0.887619
O O8 0.268271 0.838984 0.981591
O O9 0.717858 0.100342 0.362952
O O10 0.757403 0.160488 0.568320
O O11 0.790169 0.256763 0.406191
O O12 0.000000 0.131580 0.444986
O O13 0.205758 0.831819 0.178769
O O14 0.000000 0.773041 0.039446
O O15 0.500000 0.124202 0.219540
O O16 0.709238 0.000000 0.197000
O O17 0.757776 0.688041 0.671542
O O18 0.000000 0.791912 0.677562
O O19 0.769380 0.500000 0.661998
O O20 0.730984 0.400099 0.496876
O O21 0.000000 0.398934 0.601948
O O22 0.500000 0.674920 0.391101
#
# Coordination Sequence:
#
# PCOD9337643 Si02
#       8
#     4   4   4   4   4   4   4   4
#     4  10  21  37  57  83 117 156 196 239 289 347
#     4  11  25  44  65  87 113 149 193 245 306 363
#     4  10  20  36  57  83 118 159 199 241 291 347
#     4  11  23  40  64  88 114 152 199 246 291 347
#     4  11  23  37  56  86 123 158 190 235 299 361
#     4   9  20  38  61  88 116 149 196 246 291 343
#     4   9  18  34  56  83 119 161 200 239 286 345
#     4  11  20  30  50  82 120 160 200 242 288 341
#
# _framework density 19.953901999999999
#
# number of rings (size 3 to 8) (size 9 to 14) (size 15 to 20)
#    0.000    1.750    1.250    4.125    0.000    9.000 
#    0.000    3.125    0.000    3.750    0.000    0.000 
#    0.000    0.000    0.000    0.000    0.000    0.000 
#
# Total GULP energy -178611.382442 kJ/mol
# GULP energy per Si atom -5581.605701 kJ/mol
# Density = 1.990849 g / cm^3
# Si number density = 19.953902 Si / 1000 Ang^3
#
#
#
# Elastic Constant Matrix: (Units=GPa)
#
#
# Indices 1 2 3 4 5 6 
#
# 1 14.0263 12.8902 8.3739 0.0000 0.0000 0.0000
# 2 12.8902 133.0463 61.7677 0.0000 0.0000 0.0000
# 3 8.3739 61.7677 103.4873 0.0000 0.0000 0.0000
# 4 0.0000 0.0000 0.0000 15.3284 0.0000 0.0000
# 5 0.0000 0.0000 0.0000 0.0000 120.4097 0.0000
# 6 0.0000 0.0000 0.0000 0.0000 0.0000 22.4517
#
#
#
# Elastic Compliance Matrix: (Units=1/GPa)
#
#
# Indices 1 2 3 4 5 6 
#
# 1 0.078734 -0.006461 -0.002515 0.000000 0.000000 0.000000
# 2 -0.006461 0.010927 -0.005999 0.000000 0.000000 0.000000
# 3 -0.002515 -0.005999 0.013447 0.000000 0.000000 0.000000
# 4 0.000000 0.000000 0.000000 0.065238 0.000000 0.000000
# 5 0.000000 0.000000 0.000000 0.000000 0.008305 0.000000
# 6 0.000000 0.000000 0.000000 0.000000 0.000000 0.044540
#
#
# Mechanical properties :
#
#
# Convention : Reuss Voigt Hill
#
# Bulk Modulus (GPa) = 13.66892 46.29150 29.98021
# Shear Modulus (GPa) = 18.14701 42.80649 30.47675
#
# Velocity S-wave (km/s) = 3.01898 4.63673 3.91238
# Velocity P-wave (km/s) = 4.36089 7.20523 5.95536
#
# Compressibility (1/GPa) = 0.07315865
#
# Stress axis : x y z
#
# Youngs Moduli (GPa) = 12.70107 91.51346 74.36437
#
# Poissons Ratio (x) = 0.59123 0.18702
# Poissons Ratio (y) = 0.08206 0.44614
# Poissons Ratio (z) = 0.03194 0.54902
#
# Static dielectric constant tensor:
#      x y z
#    x 1.667250 0.000000 0.000000 
#    y 0.000000 1.752360 0.000000 
#    z 0.000000 0.000000 1.691770 
# 
# From -- ./inp_files/4305.got.cif
#   From: 2010.05.17/outbox.cif.g08.bks.cpg/sg25_3_cif.got.tgz:4305.got - 2010.06.04 01:04:00.
