data_PCOD9337952
_publ_section_title
;
Structure prediction by ZEFSAII (Michael W. Deem and Ramdas Pophale) SiO2 
 PCOD9337952
Probable space group: P M C 21
;
_chemical_formula_sum "Si O2"
_cell_formula_units_Z 24
_cell_length_a 8.787003
_cell_length_b 15.259152
_cell_length_c 7.504729
_cell_angle_alpha 90.000000
_cell_angle_beta 90.000000
_cell_angle_gamma 90.000000
_cell_volume 1006.250683
_symmetry_space_group_name_H-M "P M C 21"
_symmetry_group_IT_number 26
_symmetry_cell_setting 'orthorhombic'
loop_
_space_group_symop_operation_xyz
x,y,z
-x,-y,1/2+z
-x,y,z
x,-y,1/2+z
loop_
_atom_site_type_symbol
_atom_site_label
_atom_site_fract_x
_atom_site_fract_y
_atom_site_fract_z
Si Si1 0.319689 0.794353 0.085570
Si Si2 0.673317 0.322411 0.267703
Si Si3 0.179916 0.126236 0.919406
Si Si4 0.172296 0.380322 0.933802
Si Si5 0.182287 0.074035 0.314826
Si Si6 0.326001 0.486198 0.660280
O O1 0.500000 0.784919 0.104037
O O2 0.263249 0.720608 0.945704
O O3 0.250115 0.804907 0.281056
O O4 0.274509 0.880353 0.972116
O O5 0.500000 0.290494 0.237925
O O6 0.770090 0.313850 0.086419
O O7 0.664782 0.426958 0.287208
O O8 0.000000 0.142358 0.927859
O O9 0.202128 0.030129 0.829735
O O10 0.232613 0.113068 0.123751
O O11 0.281683 0.399351 0.767299
O O12 0.192677 0.474801 0.035555
O O13 0.000000 0.364519 0.882898
O O14 0.000000 0.090625 0.337031
O O15 0.500000 0.480203 0.593817
#
# Coordination Sequence:
#
# PCOD9337952 Si02
#       6
#     4   4   4   4   4   4
#     4  11  22  37  58  85 119 150 189 243 290 342
#     4   8  19  36  53  74 108 154 184 212 281 347
#     4  10  20  37  59  82 111 151 197 235 282 349
#     4  10  18  30  52  82 106 131 180 233 265 311
#     4  10  20  37  59  82 111 152 196 235 284 348
#     4   9  17  33  53  73 105 144 178 212 268 337
#
# _framework density 23.850914
#
# number of rings (size 3 to 8) (size 9 to 14) (size 15 to 20)
#    1.000    1.333    1.667    2.000    0.000    2.667 
#    0.000    1.667    0.000    6.000    0.000    0.000 
#    0.000    0.000    0.000    0.000    0.000    0.000 
#
# Total GULP energy -133846.151168 kJ/mol
# GULP energy per Si atom -5576.922965 kJ/mol
# Density = 2.379663 g / cm^3
# Si number density = 23.850914 Si / 1000 Ang^3
#
#
#
# Elastic Constant Matrix: (Units=GPa)
#
#
# Indices 1 2 3 4 5 6 
#
# 1 33.8642 15.1020 7.9847 0.0000 0.0000 0.0000
# 2 15.1020 47.8206 27.4004 0.0000 0.0000 0.0000
# 3 7.9847 27.4004 112.6601 0.0000 0.0000 0.0000
# 4 0.0000 0.0000 0.0000 45.1317 0.0000 0.0000
# 5 0.0000 0.0000 0.0000 0.0000 35.2837 0.0000
# 6 0.0000 0.0000 0.0000 0.0000 0.0000 19.3645
#
#
#
# Elastic Compliance Matrix: (Units=1/GPa)
#
#
# Indices 1 2 3 4 5 6 
#
# 1 0.034376 -0.010992 0.000237 0.000000 0.000000 0.000000
# 2 -0.010992 0.027812 -0.005985 0.000000 0.000000 0.000000
# 3 0.000237 -0.005985 0.010315 0.000000 0.000000 0.000000
# 4 0.000000 0.000000 0.000000 0.022157 0.000000 0.000000
# 5 0.000000 0.000000 0.000000 0.000000 0.028342 0.000000
# 6 0.000000 0.000000 0.000000 0.000000 0.000000 0.051641
#
#
# Mechanical properties :
#
#
# Convention : Reuss Voigt Hill
#
# Bulk Modulus (GPa) = 25.62596 32.81323 29.21960
# Shear Modulus (GPa) = 22.61107 29.54650 26.07878
#
# Velocity S-wave (km/s) = 3.08233 3.52348 3.31026
# Velocity P-wave (km/s) = 4.84099 5.50824 5.18536
#
# Compressibility (1/GPa) = 0.03902293
#
# Stress axis : x y z
#
# Youngs Moduli (GPa) = 29.09032 35.95546 96.94485
#
# Poissons Ratio (x) = 0.39521 -0.02297
# Poissons Ratio (y) = 0.31975 0.58024
# Poissons Ratio (z) = -0.00689 0.21520
#
# Static dielectric constant tensor:
#      x y z
#    x 1.790970 0.000000 0.000000 
#    y 0.000000 2.008190 0.000000 
#    z 0.000000 0.000000 2.044910 
# 
# From -- ./inp_files/1501.got.cif
#   From: 2010.05.17/outbox.cif.g08.bks.cpg/sg26_1_cif.got.tgz:1501.got - 2010.06.04 01:07:29.
