data_PCOD9337840
_publ_section_title
;
Structure prediction by ZEFSAII (Michael W. Deem and Ramdas Pophale) SiO2 
 PCOD9337840
Probable space group: P M M 2
;
_chemical_formula_sum "Si O2"
_cell_formula_units_Z 32
_cell_length_a 9.792995
_cell_length_b 7.423061
_cell_length_c 21.590775
_cell_angle_alpha 90.000000
_cell_angle_beta 90.000000
_cell_angle_gamma 90.000000
_cell_volume 1569.519782
_symmetry_space_group_name_H-M "P M M 2"
_symmetry_group_IT_number 25
_symmetry_cell_setting 'orthorhombic'
loop_
_space_group_symop_operation_xyz
x,y,z
-x,-y,z
-x,y,z
x,-y,z
loop_
_atom_site_type_symbol
_atom_site_label
_atom_site_fract_x
_atom_site_fract_y
_atom_site_fract_z
Si Si1 0.844768 0.213386 0.310830
Si Si2 0.159330 0.719714 0.039632
Si Si3 0.344659 0.284136 0.558710
Si Si4 0.655363 0.784769 0.420274
Si Si5 0.156872 0.719729 0.670226
Si Si6 0.842447 0.283897 0.175459
Si Si7 0.342476 0.279644 0.924135
Si Si8 0.842620 0.719461 0.809763
O O1 0.751243 0.286756 0.365784
O O2 0.782090 0.235080 0.242019
O O3 0.000000 0.287609 0.311198
O O4 0.856379 0.000000 0.320932
O O5 0.158631 0.500000 0.038641
O O6 0.209805 0.776245 0.108232
O O7 0.000000 0.773466 0.031697
O O8 0.256577 0.778718 0.984235
O O9 0.500000 0.214717 0.561739
O O10 0.350634 0.500000 0.564821
O O11 0.290744 0.247105 0.489691
O O12 0.253129 0.216357 0.615074
O O13 0.500000 0.713639 0.417304
O O14 0.646959 0.000000 0.412448
O O15 0.159537 0.500000 0.669944
O O16 0.195959 0.775145 0.739984
O O17 0.000000 0.773155 0.659957
O O18 0.843839 0.500000 0.173634
O O19 0.000000 0.220179 0.177701
O O20 0.500000 0.222468 0.925118
O O21 0.342578 0.500000 0.924250
O O22 0.261019 0.221650 0.862766
O O23 0.842816 0.500000 0.810434
O O24 0.000000 0.774124 0.821823
#
# Coordination Sequence:
#
# PCOD9337840 Si02
#       8
#     4   4   4   4   4   4   4   4
#     4   9  17  29  45  64  83 102 129 168 206 235
#     4   8  13  22  35  48  66  97 132 160 189 231
#     4   9  17  28  42  60  81 105 134 168 202 235
#     4   9  18  32  46  59  80 110 137 160 194 243
#     4   8  14  24  37  54  77 104 133 165 201 240
#     4   8  14  25  41  60  81 106 135 164 197 241
#     4   9  15  20  28  46  72 100 130 164 198 229
#     4   8  13  21  32  46  68 101 136 162 187 229
#
# _framework density 20.388401999999999
#
# number of rings (size 3 to 8) (size 9 to 14) (size 15 to 20)
#    0.000    3.500    0.000    1.875    0.000    3.000 
#    0.000    3.125    0.000    0.750    0.000    0.000 
#    0.000    1.000    0.000    4.250    0.000    5.625 
#
# Total GULP energy -178346.799674 kJ/mol
# GULP energy per Si atom -5573.337490 kJ/mol
# Density = 2.034200 g / cm^3
# Si number density = 20.388402 Si / 1000 Ang^3
#
#
#
# Elastic Constant Matrix: (Units=GPa)
#
#
# Indices 1 2 3 4 5 6 
#
# 1 99.5930 4.0100 123.6324 0.0000 0.0000 0.0000
# 2 4.0100 64.3187 2.1871 0.0000 0.0000 0.0000
# 3 123.6324 2.1871 245.2650 0.0000 0.0000 0.0000
# 4 0.0000 0.0000 0.0000 38.5549 0.0000 0.0000
# 5 0.0000 0.0000 0.0000 0.0000 -21.2704 0.0000
# 6 0.0000 0.0000 0.0000 0.0000 0.0000 -12.2331
#
#
#
# Elastic Compliance Matrix: (Units=1/GPa)
#
#
# Indices 1 2 3 4 5 6 
#
# 1 0.026924 -0.001217 -0.013561 0.000000 0.000000 0.000000
# 2 -0.001217 0.015607 0.000475 0.000000 0.000000 0.000000
# 3 -0.013561 0.000475 0.010909 0.000000 0.000000 0.000000
# 4 0.000000 0.000000 0.000000 0.025937 0.000000 0.000000
# 5 0.000000 0.000000 0.000000 0.000000 -0.047014 0.000000
# 6 0.000000 0.000000 0.000000 0.000000 0.000000 -0.081746
#
#
# Mechanical properties :
#
#
# Convention : Reuss Voigt Hill
#
# Bulk Modulus (GPa) = 40.26995 74.31507 57.29251
# Shear Modulus (GPa) = -400.11004 19.63343 -190.23831
#
# Velocity S-wave (km/s) = -14.02391 3.10654 -9.67004
# Velocity P-wave (km/s) = 15.57024 7.02825 9.82436
#
# Compressibility (1/GPa) = 0.02483241
#
# Stress axis : x y z
#
# Youngs Moduli (GPa) = 37.14132 64.07239 91.66932
#
# Poissons Ratio (x) = 0.07801 1.24313
# Poissons Ratio (y) = 0.04522 -0.04350
# Poissons Ratio (z) = 0.50367 -0.03040
#
# Static dielectric constant tensor:
#      x y z
#    x 1.695400 0.000000 0.000000 
#    y 0.000000 1.775290 0.000000 
#    z 0.000000 0.000000 1.729910 
# 
# From -- ./inp_files/6271.got.cif
#   From: 2010.05.17/outbox.cif.g08.bks.cpg/sg25_4_cif.got.tgz:6271.got - 2010.06.04 01:04:00.
