data_PCOD9337811
_publ_section_title
;
Structure prediction by ZEFSAII (Michael W. Deem and Ramdas Pophale) SiO2 
 PCOD9337811
Probable space group: P M M 2
;
_chemical_formula_sum "Si O2"
_cell_formula_units_Z 32
_cell_length_a 15.076460
_cell_length_b 8.198105
_cell_length_c 12.935980
_cell_angle_alpha 90.000000
_cell_angle_beta 90.000000
_cell_angle_gamma 90.000000
_cell_volume 1598.866458
_symmetry_space_group_name_H-M "P M M 2"
_symmetry_group_IT_number 25
_symmetry_cell_setting 'orthorhombic'
loop_
_space_group_symop_operation_xyz
x,y,z
-x,-y,z
-x,y,z
x,-y,z
loop_
_atom_site_type_symbol
_atom_site_label
_atom_site_fract_x
_atom_site_fract_y
_atom_site_fract_z
Si Si1 0.640232 0.312195 0.936170
Si Si2 0.598413 0.193104 0.707162
Si Si3 0.777706 0.305580 0.619219
Si Si4 0.844701 0.311916 0.005882
Si Si5 0.596539 0.300595 0.164744
Si Si6 0.904699 0.699309 0.795438
Si Si7 0.102125 0.805483 0.428097
Si Si8 0.791466 0.302210 0.226217
O O1 0.610899 0.500000 0.924634
O O2 0.618823 0.227544 0.828366
O O3 0.745205 0.315079 0.959295
O O4 0.601424 0.246800 0.044275
O O5 0.500000 0.259166 0.684836
O O6 0.675211 0.261942 0.633803
O O7 0.597688 0.000000 0.693119
O O8 0.784633 0.500000 0.618041
O O9 0.826818 0.241806 0.722370
O O10 0.833844 0.243557 0.522434
O O11 0.874853 0.500000 0.019295
O O12 0.837026 0.240277 0.119991
O O13 0.899284 0.237020 0.912238
O O14 0.500000 0.252029 0.207647
O O15 0.599014 0.500000 0.162408
O O16 0.687533 0.249041 0.221586
O O17 0.898082 0.500000 0.801610
O O18 0.000000 0.738399 0.748326
O O19 0.151634 0.747789 0.324332
O O20 0.000000 0.742262 0.436754
O O21 0.097001 0.000000 0.425865
O O22 0.789583 0.500000 0.221199
#
# Coordination Sequence:
#
# PCOD9337811 Si02
#       8
#     4   4   4   4   4   4   4   4
#     4   9  15  28  51  79 112 153 197 234 272 326
#     4  11  23  36  52  80 119 158 192 229 282 345
#     4  11  22  39  63  86 110 143 193 247 287 336
#     4   8  14  27  48  81 119 147 178 229 286 332
#     4   8  14  26  49  83 119 151 186 234 286 330
#     4   9  16  27  49  83 116 141 170 222 289 343
#     4  11  25  44  63  82 110 148 188 236 297 356
#     4   9  18  33  57  85 112 146 193 239 279 332
#
# _framework density 20.014178000000001
#
# number of rings (size 3 to 8) (size 9 to 14) (size 15 to 20)
#    0.000    2.500    1.250    3.375    0.000    3.500 
#    0.000    4.375    0.000    3.375    0.000    0.000 
#    0.000    0.000    0.000    0.000    0.000    0.000 
#
# Total GULP energy -178336.259013 kJ/mol
# GULP energy per Si atom -5573.008094 kJ/mol
# Density = 1.996862 g / cm^3
# Si number density = 20.014178 Si / 1000 Ang^3
#
#
#
# Elastic Constant Matrix: (Units=GPa)
#
#
# Indices 1 2 3 4 5 6 
#
# 1 143.4537 13.8805 79.5253 0.0000 0.0000 0.0000
# 2 13.8805 19.1816 14.5238 0.0000 0.0000 0.0000
# 3 79.5253 14.5238 126.6418 0.0000 0.0000 0.0000
# 4 0.0000 0.0000 0.0000 -76.0327 0.0000 0.0000
# 5 0.0000 0.0000 0.0000 0.0000 18.0362 0.0000
# 6 0.0000 0.0000 0.0000 0.0000 0.0000 17.2945
#
#
#
# Elastic Compliance Matrix: (Units=1/GPa)
#
#
# Indices 1 2 3 4 5 6 
#
# 1 0.010843 -0.002947 -0.006471 0.000000 0.000000 0.000000
# 2 -0.002947 0.057892 -0.004789 0.000000 0.000000 0.000000
# 3 -0.006471 -0.004789 0.012509 0.000000 0.000000 0.000000
# 4 0.000000 0.000000 0.000000 -0.013152 0.000000 0.000000
# 5 0.000000 0.000000 0.000000 0.000000 0.055444 0.000000
# 6 0.000000 0.000000 0.000000 0.000000 0.000000 0.057822
#
#
# Mechanical properties :
#
#
# Convention : Reuss Voigt Hill
#
# Bulk Modulus (GPa) = 18.92847 56.12625 37.52736
# Shear Modulus (GPa) = 21.98944 3.94942 12.96943
#
# Velocity S-wave (km/s) = 3.31825 1.40627 2.54837
# Velocity P-wave (km/s) = 4.91519 5.54445 5.23928
#
# Compressibility (1/GPa) = 0.05283049
#
# Stress axis : x y z
#
# Youngs Moduli (GPa) = 92.22177 17.27367 79.94174
#
# Poissons Ratio (x) = 0.05090 0.51732
# Poissons Ratio (y) = 0.27176 0.38282
# Poissons Ratio (z) = 0.59679 0.08272
#
# Static dielectric constant tensor:
#      x y z
#    x 1.778830 0.000000 0.000000 
#    y 0.000000 1.713010 0.000000 
#    z 0.000000 0.000000 1.704430 
# 
# From -- ./inp_files/4906.got.cif
#   From: 2010.05.17/outbox.cif.g08.bks.cpg/sg25_3_cif.got.tgz:4906.got - 2010.06.04 01:04:00.
