data_PCOD9337004
_publ_section_title
;
Structure prediction by ZEFSAII (Michael W. Deem and Ramdas Pophale) SiO2 
 PCOD9337004
Probable space group: I 21 21 21
;
_chemical_formula_sum "Si O2"
_cell_formula_units_Z 24
_cell_length_a 5.100608
_cell_length_b 21.132921
_cell_length_c 8.824455
_cell_angle_alpha 90.000000
_cell_angle_beta 90.000000
_cell_angle_gamma 90.000000
_cell_volume 951.194587
_symmetry_space_group_name_H-M "I 21 21 21"
_symmetry_group_IT_number 24
_symmetry_cell_setting 'orthorhombic'
loop_
_space_group_symop_operation_xyz
x,y,z
-x,1/2-y,z
x,-y,1/2-z
1/2-x,y,-z
1/2+x,1/2+y,1/2+z
1/2-x,-y,1/2+z
1/2+x,1/2-y,-z
-x,1/2+y,1/2-z
loop_
_atom_site_type_symbol
_atom_site_label
_atom_site_fract_x
_atom_site_fract_y
_atom_site_fract_z
Si Si1 0.333689 0.809438 0.671967
Si Si2 0.654086 0.941552 0.669961
Si Si3 0.500585 0.124326 0.396668
O O1 0.500000 0.750000 0.725453
O O2 0.250000 0.796826 0.500000
O O3 0.493055 0.875872 0.668426
O O4 0.094414 0.820942 0.784539
O O5 0.750000 0.954737 0.500000
O O6 0.896866 0.929314 0.783134
O O7 0.507666 0.000000 0.750000
O O8 0.750000 0.140691 0.500000
O O9 0.250000 0.107792 0.500000
#
# Coordination Sequence:
#
# PCOD9337004 Si02
#       3
#     8   8   8
#     4  12  28  54  91 125 172 231 295 353 431 518
#     4  12  27  53  84 127 171 231 290 359 427 516
#     4  12  27  54  82 126 170 219 282 356 430 507
#
# _framework density 25.231427
#
# number of rings (size 3 to 8) (size 9 to 14) (size 15 to 20)
#    0.000    0.000    6.667    2.000    0.000    1.333 
#   12.000    0.000    0.000    0.000    0.000    0.000 
#    0.000    0.000    0.000    0.000    0.000    0.000 
#
# Total GULP energy -67296.201914 kJ/mol
# GULP energy per Si atom -5608.016826 kJ/mol
# Density = 2.517400 g / cm^3
# Si number density = 25.231427 Si / 1000 Ang^3
#
#
#
# Elastic Constant Matrix: (Units=GPa)
#
#
# Indices 1 2 3 4 5 6 
#
# 1 153.4128 47.8264 78.9988 0.0000 0.0000 0.0000
# 2 47.8264 154.3319 34.2790 0.0000 0.0000 0.0000
# 3 78.9988 34.2790 204.0969 0.0003 -0.0001 0.0000
# 4 0.0000 0.0000 0.0003 -17.4670 0.0000 0.0000
# 5 0.0000 0.0000 -0.0001 0.0000 46.8512 0.0000
# 6 0.0000 0.0000 0.0000 0.0000 0.0000 47.4873
#
#
#
# Elastic Compliance Matrix: (Units=1/GPa)
#
#
# Indices 1 2 3 4 5 6 
#
# 1 0.008711 -0.002026 -0.003031 0.000000 0.000000 0.000000
# 2 -0.002026 0.007202 -0.000425 0.000000 0.000000 0.000000
# 3 -0.003031 -0.000425 0.006144 0.000000 0.000000 0.000000
# 4 0.000000 0.000000 0.000000 -0.057251 0.000000 0.000000
# 5 0.000000 0.000000 0.000000 0.000000 0.021344 0.000000
# 6 0.000000 0.000000 0.000000 0.000000 0.000000 0.021058
#
#
# Mechanical properties :
#
#
# Convention : Reuss Voigt Hill
#
# Bulk Modulus (GPa) = 90.15913 92.67223 91.41568
# Shear Modulus (GPa) = 228.60276 38.75681 133.67978
#
# Velocity S-wave (km/s) = 9.52885 3.92350 7.28673
# Velocity P-wave (km/s) = 12.52501 7.57191 10.34915
#
# Compressibility (1/GPa) = 0.01109150
#
# Stress axis : x y z
#
# Youngs Moduli (GPa) = 114.79690 138.85210 162.74895
#
# Poissons Ratio (x) = 0.28134 0.49336
# Poissons Ratio (y) = 0.23260 0.06922
# Poissons Ratio (z) = 0.34800 0.05906
#
# Static dielectric constant tensor:
#      x y z
#    x 2.072590 0.000000 0.000000 
#    y 0.000000 2.025330 0.000000 
#    z 0.000000 0.000000 1.954480 
# 
# From -- ./inp_files/6021.got.cif
#   From: 2010.05.17/outbox.cif.g08.bks.cpg/sg24_4_cif.got.tgz:6021.got - 2010.06.04 00:33:39.
