data_PCOD9337547
_publ_section_title
;
Structure prediction by ZEFSAII (Michael W. Deem and Ramdas Pophale) SiO2 
 PCOD9337547
Probable space group: P M M 2
;
_chemical_formula_sum "Si O2"
_cell_formula_units_Z 32
_cell_length_a 13.047889
_cell_length_b 7.654870
_cell_length_c 13.126828
_cell_angle_alpha 90.000000
_cell_angle_beta 90.000000
_cell_angle_gamma 90.000000
_cell_volume 1311.106190
_symmetry_space_group_name_H-M "P M M 2"
_symmetry_group_IT_number 25
_symmetry_cell_setting 'orthorhombic'
loop_
_space_group_symop_operation_xyz
x,y,z
-x,-y,z
-x,y,z
x,-y,z
loop_
_atom_site_type_symbol
_atom_site_label
_atom_site_fract_x
_atom_site_fract_y
_atom_site_fract_z
Si Si1 0.666421 0.796256 0.263450
Si Si2 0.112427 0.212506 0.976414
Si Si3 0.109244 0.786111 0.311246
Si Si4 0.663289 0.297483 0.043005
Si Si5 0.388133 0.287916 0.817451
Si Si6 0.837846 0.797170 0.533928
Si Si7 0.389311 0.700878 0.482984
Si Si8 0.834595 0.204492 0.751930
O O1 0.784619 0.732275 0.260699
O O2 0.625800 0.779501 0.149400
O O3 0.615369 0.704030 0.359451
O O4 0.665238 0.000000 0.291486
O O5 0.123131 0.274223 0.858704
O O6 0.000000 0.262982 0.015030
O O7 0.117519 0.000000 0.978289
O O8 0.213615 0.276202 0.033043
O O9 0.117587 0.725834 0.428855
O O10 0.000000 0.729826 0.268066
O O11 0.109878 0.000000 0.309137
O O12 0.636458 0.500000 0.046154
O O13 0.621451 0.227653 0.935486
O O14 0.500000 0.238526 0.777450
O O15 0.381278 0.500000 0.816755
O O16 0.288628 0.219059 0.760286
O O17 0.714572 0.789369 0.520670
O O18 0.866479 0.718609 0.643174
O O19 0.868660 0.000000 0.536047
O O20 0.500000 0.774606 0.513727
O O21 0.384419 0.500000 0.517824
O O22 0.862692 0.000000 0.751058
#
# Coordination Sequence:
#
# PCOD9337547 Si02
#       8
#     4   4   4   4   4   4   4   4
#     4  10  20  34  53  77 103 131 164 205 253 301
#     4   9  18  33  52  74 102 136 173 212 252 297
#     4   8  15  29  49  72  97 126 160 196 236 286
#     4  10  20  34  52  74 101 133 168 208 253 301
#     4   9  19  35  52  70  95 129 167 204 244 295
#     4   9  18  32  51  75 102 131 164 206 253 298
#     4  10  21  36  53  73  99 133 171 209 249 297
#     4   9  18  32  50  75 103 129 163 208 254 297
#
# _framework density 24.406870000000001
#
# number of rings (size 3 to 8) (size 9 to 14) (size 15 to 20)
#    0.000    2.750    0.000    1.875    0.000    4.500 
#    0.000    7.500    0.000    9.000    0.000    5.250 
#    0.000    0.000    0.000    0.000    0.000    0.000 
#
# Total GULP energy -178714.577679 kJ/mol
# GULP energy per Si atom -5584.830552 kJ/mol
# Density = 2.435132 g / cm^3
# Si number density = 24.406870 Si / 1000 Ang^3
#
#
#
# Elastic Constant Matrix: (Units=GPa)
#
#
# Indices 1 2 3 4 5 6 
#
# 1 120.4281 -4.9191 -5.6341 0.0000 0.0000 0.0000
# 2 -4.9191 50.5121 -4.3980 0.0000 0.0000 0.0000
# 3 -5.6341 -4.3980 116.7921 0.0000 0.0000 0.0000
# 4 0.0000 0.0000 0.0000 -69.3062 0.0000 0.0000
# 5 0.0000 0.0000 0.0000 0.0000 -17.7361 0.0000
# 6 0.0000 0.0000 0.0000 0.0000 0.0000 11.4023
#
#
#
# Elastic Compliance Matrix: (Units=1/GPa)
#
#
# Indices 1 2 3 4 5 6 
#
# 1 0.008359 0.000852 0.000435 0.000000 0.000000 0.000000
# 2 0.000852 0.019949 0.000792 0.000000 0.000000 0.000000
# 3 0.000435 0.000792 0.008613 0.000000 0.000000 0.000000
# 4 0.000000 0.000000 0.000000 -0.014429 0.000000 0.000000
# 5 0.000000 0.000000 0.000000 0.000000 -0.056382 0.000000
# 6 0.000000 0.000000 0.000000 0.000000 0.000000 0.087702
#
#
# Mechanical properties :
#
#
# Convention : Reuss Voigt Hill
#
# Bulk Modulus (GPa) = 24.34262 28.64778 26.49520
# Shear Modulus (GPa) = 78.93139 5.05089 41.99114
#
# Velocity S-wave (km/s) = 5.69298 1.44012 4.15235
# Velocity P-wave (km/s) = 7.29443 3.81160 5.81967
#
# Compressibility (1/GPa) = 0.04108021
#
# Stress axis : x y z
#
# Youngs Moduli (GPa) = 119.63333 50.12740 116.10274
#
# Poissons Ratio (x) = -0.04270 -0.05054
# Poissons Ratio (y) = -0.10192 -0.09199
# Poissons Ratio (z) = -0.05208 -0.03972
#
# Static dielectric constant tensor:
#      x y z
#    x 1.932370 0.000000 0.000000 
#    y 0.000000 2.128570 0.000000 
#    z 0.000000 0.000000 1.951790 
# 
# From -- ./inp_files/5942.got.cif
#   From: 2010.05.17/outbox.cif.g08.bks.cpg/sg25_3_cif.got.tgz:5942.got - 2010.06.04 01:04:00.
