data_PCOD9337903
_publ_section_title
;
Structure prediction by ZEFSAII (Michael W. Deem and Ramdas Pophale) SiO2 
 PCOD9337903
Probable space group: P M C 21
;
_chemical_formula_sum "Si O2"
_cell_formula_units_Z 30
_cell_length_a 23.314000
_cell_length_b 11.729593
_cell_length_c 5.597272
_cell_angle_alpha 90.000000
_cell_angle_beta 90.000000
_cell_angle_gamma 90.000000
_cell_volume 1530.650886
_symmetry_space_group_name_H-M "P M C 21"
_symmetry_group_IT_number 26
_symmetry_cell_setting 'orthorhombic'
loop_
_space_group_symop_operation_xyz
x,y,z
-x,-y,1/2+z
-x,y,z
x,-y,1/2+z
loop_
_atom_site_type_symbol
_atom_site_label
_atom_site_fract_x
_atom_site_fract_y
_atom_site_fract_z
Si Si1 0.067389 0.432043 0.543300
Si Si2 0.651093 0.232146 0.043258
Si Si3 0.500000 0.070656 0.543261
Si Si4 0.614641 0.219854 0.543258
Si Si5 0.252856 0.492764 0.543254
Si Si6 0.211824 0.736889 0.543259
Si Si7 0.301513 0.009464 0.543255
Si Si8 0.827268 0.270886 0.543260
O O1 0.077956 0.500004 0.293304
O O2 0.110135 0.325740 0.543282
O O3 0.000000 0.401760 0.543298
O O4 0.622871 0.277894 0.285933
O O5 0.719404 0.250735 0.043265
O O6 0.649896 0.091552 0.043254
O O7 0.622873 0.277895 0.800580
O O8 0.556196 0.149550 0.543262
O O9 0.500000 0.000000 0.293261
O O10 0.667698 0.130549 0.543256
O O11 0.285470 0.500000 0.293255
O O12 0.206857 0.597340 0.543254
O O13 0.219324 0.374314 0.543255
O O14 0.185297 0.785000 0.299510
O O15 0.185293 0.784996 0.787002
O O16 0.269551 0.000001 0.293255
#
# Coordination Sequence:
#
# PCOD9337903 Si02
#       8
#     4   4   2   4   4   4   4   4
#     4  10  18  27  41  60  82 111 148 184 212 242
#     4  10  18  29  40  58  82 106 139 171 204 244
#     4  12  20  30  48  68  84 112 152 178 194 232
#     4  10  19  30  43  60  84 110 138 169 198 237
#     4   8  14  23  36  51  71  98 127 160 197 233
#     4  10  18  26  41  57  76 110 140 169 210 251
#     4   8  14  25  38  51  72 101 128 155 186 224
#     4  10  17  28  40  57  81 109 141 176 210 245
#
# _framework density 19.599504
#
# number of rings (size 3 to 8) (size 9 to 14) (size 15 to 20)
#    0.000    2.400    0.000    7.200    0.000    0.000 
#    0.000    0.000    0.000    0.000    0.000    0.000 
#    0.000    0.000    0.000  108.000    0.000  123.600 
#
# Total GULP energy -167047.299025 kJ/mol
# GULP energy per Si atom -5568.243301 kJ/mol
# Density = 1.955489 g / cm^3
# Si number density = 19.599504 Si / 1000 Ang^3
#
#
#
# Elastic Constant Matrix: (Units=GPa)
#
#
# Indices 1 2 3 4 5 6 
#
# 1 93.5773 4.5361 57.3572 0.0000 0.0000 0.0000
# 2 4.5361 15.0328 -1.9035 0.0000 0.0000 0.0000
# 3 57.3572 -1.9035 279.5416 0.0000 0.0000 0.0000
# 4 0.0000 0.0000 0.0000 3.3426 0.0000 0.0000
# 5 0.0000 0.0000 0.0000 0.0000 31.6731 0.0000
# 6 0.0000 0.0000 0.0000 0.0000 0.0000 32.4794
#
#
#
# Elastic Compliance Matrix: (Units=1/GPa)
#
#
# Indices 1 2 3 4 5 6 
#
# 1 0.012470 -0.004090 -0.002586 0.000000 0.000000 0.000000
# 2 -0.004090 0.067920 0.001302 0.000000 0.000000 0.000000
# 3 -0.002586 0.001302 0.004117 0.000000 0.000000 0.000000
# 4 0.000000 0.000000 0.000000 0.299164 0.000000 0.000000
# 5 0.000000 0.000000 0.000000 0.000000 0.031572 0.000000
# 6 0.000000 0.000000 0.000000 0.000000 0.000000 0.030789
#
#
# Mechanical properties :
#
#
# Convention : Reuss Voigt Hill
#
# Bulk Modulus (GPa) = 13.55802 56.45903 35.00853
# Shear Modulus (GPa) = 10.38707 35.37650 22.88178
#
# Velocity S-wave (km/s) = 2.30460 4.25310 3.42053
# Velocity P-wave (km/s) = 3.74354 7.27924 5.78798
#
# Compressibility (1/GPa) = 0.07375706
#
# Stress axis : x y z
#
# Youngs Moduli (GPa) = 80.19254 14.72316 242.90405
#
# Poissons Ratio (x) = 0.06022 0.62827
# Poissons Ratio (y) = 0.32801 -0.31620
# Poissons Ratio (z) = 0.20742 -0.01917
#
# Static dielectric constant tensor:
#      x y z
#    x 1.639110 0.000000 0.000000 
#    y 0.000000 1.764690 0.000000 
#    z 0.000000 0.000000 1.883010 
# 
# From -- ./inp_files/786.got.cif
#   From: 2010.05.17/outbox.cif.g08.bks.cpg/sg26_1_cif.got.tgz:786.got - 2010.06.04 01:07:29.
