data_PCOD9337687
_publ_section_title
;
Structure prediction by ZEFSAII (Michael W. Deem and Ramdas Pophale) SiO2 
 PCOD9337687
Probable space group: P M M 2
;
_chemical_formula_sum "Si O2"
_cell_formula_units_Z 24
_cell_length_a 7.603330
_cell_length_b 9.627795
_cell_length_c 16.029948
_cell_angle_alpha 90.000000
_cell_angle_beta 90.000000
_cell_angle_gamma 90.000000
_cell_volume 1173.445133
_symmetry_space_group_name_H-M "P M M 2"
_symmetry_group_IT_number 25
_symmetry_cell_setting 'orthorhombic'
loop_
_space_group_symop_operation_xyz
x,y,z
-x,-y,z
-x,y,z
x,-y,z
loop_
_atom_site_type_symbol
_atom_site_label
_atom_site_fract_x
_atom_site_fract_y
_atom_site_fract_z
Si Si1 0.792086 0.158261 0.008260
Si Si2 0.211065 0.657059 0.665978
Si Si3 0.214560 0.661138 0.480103
Si Si4 0.215456 0.340163 0.162450
Si Si5 0.215068 0.159991 0.322664
Si Si6 0.708268 0.156112 0.824284
O O1 0.723287 0.261023 0.079036
O O2 0.000000 0.146855 0.023932
O O3 0.719533 0.000000 0.012403
O O4 0.771111 0.211459 0.913778
O O5 0.276010 0.500000 0.680112
O O6 0.271849 0.702425 0.573646
O O7 0.253391 0.753678 0.743407
O O8 0.000000 0.650947 0.661066
O O9 0.265696 0.500000 0.465878
O O10 0.273551 0.762822 0.406999
O O11 0.000000 0.662918 0.478813
O O12 0.273128 0.500000 0.166541
O O13 0.268763 0.250471 0.242787
O O14 0.000000 0.342774 0.162101
O O15 0.000000 0.158834 0.323082
O O16 0.272097 0.000000 0.317783
O O17 0.500000 0.146621 0.831315
O O18 0.782095 0.000000 0.814635
#
# Coordination Sequence:
#
# PCOD9337687 Si02
#       6
#     4   4   4   4   4   4
#     4   9  17  30  47  66  90 121 156 194 235 278
#     4   9  18  32  50  72  97 126 161 200 241 285
#     4   8  14  25  40  60  89 122 153 187 228 272
#     4   9  16  25  39  61  89 120 152 187 228 273
#     4   9  15  22  35  59  91 123 152 183 222 270
#     4  10  21  35  50  70  96 126 160 198 242 291
#
# _framework density 20.452596
#
# number of rings (size 3 to 8) (size 9 to 14) (size 15 to 20)
#    0.000    3.000    0.000    2.500    0.000    6.667 
#    0.000    3.333    0.000    0.000    0.000    1.167 
#    0.000    6.667    0.000    0.000    0.000    0.000 
#
# Total GULP energy -133882.196780 kJ/mol
# GULP energy per Si atom -5578.424866 kJ/mol
# Density = 2.040604 g / cm^3
# Si number density = 20.452596 Si / 1000 Ang^3
#
#
#
# Elastic Constant Matrix: (Units=GPa)
#
#
# Indices 1 2 3 4 5 6 
#
# 1 40.6490 4.9692 1.1241 0.0000 0.0000 0.0000
# 2 4.9692 149.8381 142.3493 0.0000 0.0000 0.0000
# 3 1.1241 142.3493 226.9810 0.0000 0.0000 0.0000
# 4 0.0000 0.0000 0.0000 40.9933 0.0000 0.0000
# 5 0.0000 0.0000 0.0000 0.0000 -39.7656 0.0000
# 6 0.0000 0.0000 0.0000 0.0000 0.0000 -4.0321
#
#
#
# Elastic Compliance Matrix: (Units=1/GPa)
#
#
# Indices 1 2 3 4 5 6 
#
# 1 0.024787 -0.001745 0.000972 0.000000 0.000000 0.000000
# 2 -0.001745 0.016634 -0.010423 0.000000 0.000000 0.000000
# 3 0.000972 -0.010423 0.010938 0.000000 0.000000 0.000000
# 4 0.000000 0.000000 0.000000 0.024394 0.000000 0.000000
# 5 0.000000 0.000000 0.000000 0.000000 -0.025147 0.000000
# 6 0.000000 0.000000 0.000000 0.000000 0.000000 -0.248013
#
#
# Mechanical properties :
#
#
# Convention : Reuss Voigt Hill
#
# Bulk Modulus (GPa) = 33.37160 79.37258 56.37209
# Shear Modulus (GPa) = -30.48326 17.37418 -6.55454
#
# Velocity S-wave (km/s) = -3.86480 2.91775 -1.79212
# Velocity P-wave (km/s) = 1.88776 7.08826 4.83114
#
# Compressibility (1/GPa) = 0.02996560
#
# Stress axis : x y z
#
# Youngs Moduli (GPa) = 40.34322 60.11746 91.42665
#
# Poissons Ratio (x) = 0.10492 -0.08884
# Poissons Ratio (y) = 0.07041 0.95297
# Poissons Ratio (z) = -0.03920 0.62662
#
# Static dielectric constant tensor:
#      x y z
#    x 1.752860 0.000000 0.000000 
#    y 0.000000 1.726570 0.000000 
#    z 0.000000 0.000000 1.714050 
# 
# From -- ./inp_files/5234.got.cif
#   From: 2010.05.17/outbox.cif.g08.bks.cpg/sg25_3_cif.got.tgz:5234.got - 2010.06.04 01:04:00.
