data_PCOD9337823
_publ_section_title
;
Structure prediction by ZEFSAII (Michael W. Deem and Ramdas Pophale) SiO2 
 PCOD9337823
Probable space group: P M M 2
;
_chemical_formula_sum "Si O2"
_cell_formula_units_Z 28
_cell_length_a 7.374542
_cell_length_b 21.709767
_cell_length_c 7.349657
_cell_angle_alpha 90.000000
_cell_angle_beta 90.000000
_cell_angle_gamma 90.000000
_cell_volume 1176.677062
_symmetry_space_group_name_H-M "P M M 2"
_symmetry_group_IT_number 25
_symmetry_cell_setting 'orthorhombic'
loop_
_space_group_symop_operation_xyz
x,y,z
-x,-y,z
-x,y,z
x,-y,z
loop_
_atom_site_type_symbol
_atom_site_label
_atom_site_fract_x
_atom_site_fract_y
_atom_site_fract_z
Si Si1 0.286232 0.434693 0.626360
Si Si2 0.792461 0.432905 0.201192
Si Si3 0.221420 0.829266 0.693581
Si Si4 0.220693 0.166894 0.273121
Si Si5 0.215858 0.696320 0.674394
Si Si6 0.778386 0.929725 0.980414
Si Si7 0.778745 0.301597 0.247781
O O1 0.500000 0.436821 0.594793
O O2 0.228106 0.500000 0.710231
O O3 0.202030 0.431608 0.423937
O O4 0.254505 0.372689 0.738394
O O5 0.710241 0.500000 0.153643
O O6 0.712454 0.365275 0.158726
O O7 0.000000 0.433425 0.135781
O O8 0.274631 0.836298 0.483366
O O9 0.281796 0.760772 0.755982
O O10 0.000000 0.829592 0.700334
O O11 0.280775 0.886213 0.814711
O O12 0.278090 0.108050 0.158940
O O13 0.276631 0.233046 0.189294
O O14 0.000000 0.167913 0.270952
O O15 0.272262 0.696716 0.461794
O O16 0.000000 0.700692 0.677759
O O17 0.000000 0.931160 0.979070
O O18 0.716935 0.000000 0.972506
O O19 0.000000 0.303812 0.237036
#
# Coordination Sequence:
#
# PCOD9337823 Si02
#       7
#     4   4   4   4   4   4   4
#     4   9  15  20  28  48  78 104 127 165 212 245
#     4   8  12  18  29  45  67  98 135 168 197 238
#     4   8  14  24  36  50  71 102 137 167 196 237
#     4   8  13  21  32  46  67  96 128 160 194 234
#     4   8  13  22  35  48  67 102 141 168 196 239
#     4   9  16  23  32  50  75 102 131 161 199 248
#     4   7  10  17  29  44  61  86 123 158 185 222
#
# _framework density 23.795825000000001
#
# number of rings (size 3 to 8) (size 9 to 14) (size 15 to 20)
#    0.000    3.857    0.000    3.000    0.000    1.429 
#    0.000    2.857    0.000    0.000    0.000    1.000 
#    0.000   16.571    0.000   34.143    0.000   26.571 
#
# Total GULP energy -156050.409414 kJ/mol
# GULP energy per Si atom -5573.228908 kJ/mol
# Density = 2.374166 g / cm^3
# Si number density = 23.795825 Si / 1000 Ang^3
#
#
#
# Elastic Constant Matrix: (Units=GPa)
#
#
# Indices 1 2 3 4 5 6 
#
# 1 81.7695 5.2712 -3.6006 0.0000 0.0000 0.0000
# 2 5.2712 287.1657 52.5103 0.0000 0.0000 0.0000
# 3 -3.6006 52.5103 80.4678 0.0000 0.0000 0.0000
# 4 0.0000 0.0000 0.0000 61.5255 0.0000 0.0000
# 5 0.0000 0.0000 0.0000 0.0000 0.5034 0.0000
# 6 0.0000 0.0000 0.0000 0.0000 0.0000 57.1398
#
#
#
# Elastic Compliance Matrix: (Units=1/GPa)
#
#
# Indices 1 2 3 4 5 6 
#
# 1 0.012288 -0.000370 0.000791 0.000000 0.000000 0.000000
# 2 -0.000370 0.003965 -0.002604 0.000000 0.000000 0.000000
# 3 0.000791 -0.002604 0.014162 0.000000 0.000000 0.000000
# 4 0.000000 0.000000 0.000000 0.016253 0.000000 0.000000
# 5 0.000000 0.000000 0.000000 0.000000 1.986421 0.000000
# 6 0.000000 0.000000 0.000000 0.000000 0.000000 0.017501
#
#
# Mechanical properties :
#
#
# Convention : Reuss Voigt Hill
#
# Bulk Modulus (GPa) = 38.38816 61.97387 50.18102
# Shear Modulus (GPa) = 2.42290 50.18187 26.30239
#
# Velocity S-wave (km/s) = 1.01016 4.59721 3.32827
# Velocity P-wave (km/s) = 4.18663 7.36747 5.99197
#
# Compressibility (1/GPa) = 0.02604970
#
# Stress axis : x y z
#
# Youngs Moduli (GPa) = 81.37870 252.18778 70.61084
#
# Poissons Ratio (x) = 0.09338 -0.05589
# Poissons Ratio (y) = 0.03013 0.18388
# Poissons Ratio (z) = -0.06441 0.65674
#
# Static dielectric constant tensor:
#      x y z
#    x 1.896470 0.000000 0.000000 
#    y 0.000000 1.956000 0.000000 
#    z 0.000000 0.000000 1.927540 
# 
# From -- ./inp_files/2300.got.cif
#   From: 2010.05.17/outbox.cif.g08.bks.cpg/sg25_2_cif.got.tgz:2300.got - 2010.06.04 01:04:00.
