data_PCOD9337057
_publ_section_title
;
Structure prediction by ZEFSAII (Michael W. Deem and Ramdas Pophale) SiO2 
 PCOD9337057
Probable space group: I 21 21 21
;
_chemical_formula_sum "Si O2"
_cell_formula_units_Z 20
_cell_length_a 18.000000
_cell_length_b 9.000000
_cell_length_c 12.000000
_cell_angle_alpha 90.000000
_cell_angle_beta 90.000000
_cell_angle_gamma 90.000000
_cell_volume 1944.000000
_symmetry_space_group_name_H-M "I 21 21 21"
_symmetry_group_IT_number 24
_symmetry_cell_setting 'orthorhombic'
loop_
_space_group_symop_operation_xyz
x,y,z
-x,1/2-y,z
x,-y,1/2-z
1/2-x,y,-z
1/2+x,1/2+y,1/2+z
1/2-x,-y,1/2+z
1/2+x,1/2-y,-z
-x,1/2+y,1/2-z
loop_
_atom_site_type_symbol
_atom_site_label
_atom_site_fract_x
_atom_site_fract_y
_atom_site_fract_z
Si Si1 0.373946 0.284163 0.370064
Si Si2 0.500000 0.250000 0.962477
Si Si3 0.022985 0.029415 0.619461
Si Si4 0.250000 0.543679 0.000000
Si Si5 0.662029 0.761897 0.576147
Si Si6 0.302144 0.147077 0.172464
O O1 0.406683 0.129141 0.417068
O O2 0.445044 0.386636 0.383833
O O3 0.302001 0.351600 0.426816
O O4 0.352076 0.263322 0.241224
O O5 0.575919 0.233054 0.895378
O O6 0.512014 0.388310 0.043894
O O7 0.035417 0.000000 0.750000
O O8 0.305184 0.427822 0.939023
O O9 0.715318 0.686047 0.665487
O O10 0.672963 0.674374 0.456691
O O11 0.306680 0.000000 0.250000
#
# Coordination Sequence:
#
# PCOD9337057 Si02
#       6
#     8   4   8   4   8   8
#     4  11  22  37  61  88 128 155 207 245 306 368
#     4  12  20  40  60  82 134 156 202 250 300 380
#     4  11  22  34  58  95 119 160 191 258 318 365
#     4  10  22  40  58  94 122 166 198 252 306 368
#     4  10  23  37  62  88 122 167 201 246 317 353
#     4  10  21  38  60  92 121 157 205 251 303 368
#
# _framework density 10.288066000000001
#
# number of rings (size 3 to 8) (size 9 to 14) (size 15 to 20)
#    0.000    1.600    2.000    5.400    2.800    3.200 
#    0.000    0.000    4.400    0.000    0.000    0.000 
#    0.000    0.000    0.000    0.000    0.000    0.000 
#
# Total GULP energy -111448.386225 kJ/mol
# GULP energy per Si atom -5572.419311 kJ/mol
# Density = 1.026465 g / cm^3
# Si number density = 10.288066 Si / 1000 Ang^3
#
#
#
# Elastic Constant Matrix: (Units=GPa)
#
#
# Indices 1 2 3 4 5 6 
#
# 1 178.2427 40.8001 14.9104 0.0000 0.0000 0.0000
# 2 40.8001 88.9544 19.9736 0.0000 0.0000 0.0000
# 3 14.9104 19.9736 20.9682 0.0000 0.0000 0.0000
# 4 0.0000 0.0000 0.0000 9.1885 0.0000 0.0000
# 5 0.0000 0.0000 0.0000 0.0000 -10.1032 0.0000
# 6 0.0000 0.0000 0.0000 0.0000 0.0000 33.5788
#
#
#
# Elastic Compliance Matrix: (Units=1/GPa)
#
#
# Indices 1 2 3 4 5 6 
#
# 1 0.006348 -0.002415 -0.002214 0.000000 0.000000 0.000000
# 2 -0.002415 0.015219 -0.012780 0.000000 0.000000 0.000000
# 3 -0.002214 -0.012780 0.061440 0.000000 0.000000 0.000000
# 4 0.000000 0.000000 0.000000 0.108832 0.000000 0.000000
# 5 0.000000 0.000000 0.000000 0.000000 -0.098979 0.000000
# 6 0.000000 0.000000 0.000000 0.000000 0.000000 0.029781
#
#
# Mechanical properties :
#
#
# Convention : Reuss Voigt Hill
#
# Bulk Modulus (GPa) = 20.75151 48.83705 34.79428
# Shear Modulus (GPa) = 28.81494 20.69823 24.75658
#
# Velocity S-wave (km/s) = 3.74626 3.17509 3.47244
# Velocity P-wave (km/s) = 5.36840 6.10147 5.74664
#
# Compressibility (1/GPa) = 0.04818925
#
# Stress axis : x y z
#
# Youngs Moduli (GPa) = 157.52388 65.70847 16.27615
#
# Poissons Ratio (x) = 0.15865 0.03604
# Poissons Ratio (y) = 0.38035 0.20801
# Poissons Ratio (z) = 0.34879 0.83975
#
# Static dielectric constant tensor:
#      x y z
#    x 1.780690 0.000000 0.000000 
#    y 0.000000 1.849460 0.000000 
#    z 0.000000 0.000000 1.709600 
# 
# From -- ./inp_files/21372.got.cif
#   From: 2010.05.17/outbox.ucp.g08.bks.cvg/sg24_11_cif.got.tgz:21372.got - 2010.06.11 15:20:44.
