data_PCOD9337029
_publ_section_title
;
Structure prediction by ZEFSAII (Michael W. Deem and Ramdas Pophale) SiO2 
 PCOD9337029
Probable space group: I 21 21 21
;
_chemical_formula_sum "Si O2"
_cell_formula_units_Z 64
_cell_length_a 9.820490
_cell_length_b 42.299645
_cell_length_c 7.511730
_cell_angle_alpha 90.000000
_cell_angle_beta 90.000000
_cell_angle_gamma 90.000000
_cell_volume 3120.396985
_symmetry_space_group_name_H-M "I 21 21 21"
_symmetry_group_IT_number 24
_symmetry_cell_setting 'orthorhombic'
loop_
_space_group_symop_operation_xyz
x,y,z
-x,1/2-y,z
x,-y,1/2-z
1/2-x,y,-z
1/2+x,1/2+y,1/2+z
1/2-x,-y,1/2+z
1/2+x,1/2-y,-z
-x,1/2+y,1/2-z
loop_
_atom_site_type_symbol
_atom_site_label
_atom_site_fract_x
_atom_site_fract_y
_atom_site_fract_z
Si Si1 0.595467 0.963813 0.713066
Si Si2 0.406566 0.093271 0.781743
Si Si3 0.406573 0.093271 0.218290
Si Si4 0.095481 0.536189 0.713101
Si Si5 0.905393 0.150697 0.787254
Si Si6 0.595413 0.777985 0.213721
Si Si7 0.094599 0.349302 0.212732
Si Si8 0.904586 0.777985 0.213744
O O1 0.749989 0.958861 0.781824
O O2 0.602093 0.960244 0.499985
O O3 0.556215 0.000000 0.750000
O O4 0.488665 0.937876 0.777292
O O5 0.250000 0.093630 0.723968
O O6 0.491818 0.123936 0.722386
O O7 0.405123 0.093327 0.000015
O O8 0.491827 0.123936 0.277637
O O9 0.488681 0.062125 0.277336
O O10 0.056230 0.500000 0.750000
O O11 0.952874 0.186448 0.752059
O O12 0.749994 0.147354 0.717728
O O13 0.897404 0.146872 0.999993
O O14 0.500000 0.750000 0.281920
O O15 0.749997 0.775347 0.282329
O O16 0.601057 0.774997 0.999989
O O17 0.047121 0.313551 0.247909
O O18 0.000000 0.750000 0.281945
#
# Coordination Sequence:
#
# PCOD9337029 Si02
#       8
#     8   8   8   8   8   8   8   8
#     4   9  17  30  48  68  90 118 151 184 219 262
#     4   9  17  29  46  68  92 118 148 183 224 266
#     4   9  17  29  46  68  92 118 148 183 224 266
#     4   9  17  30  48  68  90 118 151 184 219 262
#     4   9  17  30  48  68  89 115 149 186 221 260
#     4   9  18  32  48  66  90 120 150 180 219 266
#     4   9  17  30  48  68  89 115 149 186 221 260
#     4   9  18  32  48  66  90 120 150 180 219 266
#
# _framework density 20.510210000000001
#
# number of rings (size 3 to 8) (size 9 to 14) (size 15 to 20)
#    0.000    3.000    0.000    0.750    0.000    5.000 
#    0.000    1.250    0.000    7.500    0.000    0.000 
#    0.000    0.000    0.000    0.000    0.000    0.000 
#
# Total GULP energy -178562.054777 kJ/mol
# GULP energy per Si atom -5580.064212 kJ/mol
# Density = 2.046353 g / cm^3
# Si number density = 20.510210 Si / 1000 Ang^3
#
#
#
# Elastic Constant Matrix: (Units=GPa)
#
#
# Indices 1 2 3 4 5 6 
#
# 1 147.6678 155.7565 6.1595 0.0033 0.0075 0.0010
# 2 155.7565 224.9851 -1.4966 -0.0036 -0.0230 -0.0069
# 3 6.1595 -1.4966 53.3954 0.0226 -0.0182 0.0018
# 4 0.0033 -0.0036 0.0226 18.9371 -0.0011 -0.0078
# 5 0.0075 -0.0230 -0.0182 -0.0011 18.7195 -0.0047
# 6 0.0010 -0.0069 0.0018 -0.0078 -0.0047 33.6613
#
#
#
# Elastic Compliance Matrix: (Units=1/GPa)
#
#
# Indices 1 2 3 4 5 6 
#
# 1 0.025728 -0.017835 -0.003468 -0.000004 -0.000036 -0.000004
# 2 -0.017835 0.016808 0.002528 0.000003 0.000030 0.000004
# 3 -0.003468 0.002528 0.019199 -0.000022 0.000023 0.000000
# 4 -0.000004 0.000003 -0.000022 0.052806 0.000003 0.000012
# 5 -0.000036 0.000030 0.000023 0.000003 0.053420 0.000007
# 6 -0.000004 0.000004 0.000000 0.000012 0.000007 0.029708
#
#
# Mechanical properties :
#
#
# Convention : Reuss Voigt Hill
#
# Bulk Modulus (GPa) = 41.34315 82.98746 62.16530
# Shear Modulus (GPa) = 20.55245 31.97219 26.26232
#
# Velocity S-wave (km/s) = 3.16897 3.95250 3.58222
# Velocity P-wave (km/s) = 5.79577 7.83448 6.89094
#
# Compressibility (1/GPa) = 0.02418780
#
# Stress axis : x y z
#
# Youngs Moduli (GPa) = 38.86813 59.49431 52.08576
#
# Poissons Ratio (x) = 1.06105 0.18062
# Poissons Ratio (y) = 0.69319 -0.13169
# Poissons Ratio (z) = 0.13478 -0.15043
#
# Static dielectric constant tensor:
#      x y z
#    x 1.714430 0.000000 0.000000 
#    y 0.000000 1.698710 -0.000010 
#    z 0.000000 -0.000010 1.774500 
# 
# From -- ./inp_files/18911.got.cif
#   From: 2010.05.17/outbox.cif.g08.bks.cpg/sg24_10_cif.got.tgz:18911.got - 2010.06.04 00:33:39.
