data_PCOD9337795
_publ_section_title
;
Structure prediction by ZEFSAII (Michael W. Deem and Ramdas Pophale) SiO2 
 PCOD9337795
Probable space group: P M M 2
;
_chemical_formula_sum "Si O2"
_cell_formula_units_Z 20
_cell_length_a 8.709123
_cell_length_b 15.671388
_cell_length_c 7.441696
_cell_angle_alpha 90.000000
_cell_angle_beta 90.000000
_cell_angle_gamma 90.000000
_cell_volume 1015.672777
_symmetry_space_group_name_H-M "P M M 2"
_symmetry_group_IT_number 25
_symmetry_cell_setting 'orthorhombic'
loop_
_space_group_symop_operation_xyz
x,y,z
-x,-y,z
-x,y,z
x,-y,z
loop_
_atom_site_type_symbol
_atom_site_label
_atom_site_fract_x
_atom_site_fract_y
_atom_site_fract_z
Si Si1 0.180060 0.408616 0.068400
Si Si2 0.186370 0.775781 0.037766
Si Si3 0.179390 0.406350 0.631349
Si Si4 0.814517 0.098099 0.349882
Si Si5 0.681980 0.227277 0.637881
O O1 0.248519 0.500000 0.126273
O O2 0.241157 0.315519 0.119506
O O3 0.000000 0.410376 0.119687
O O4 0.185527 0.407505 0.849902
O O5 0.228801 0.853467 0.166266
O O6 0.000000 0.771534 0.025390
O O7 0.251851 0.784344 0.838534
O O8 0.234813 0.500000 0.570702
O O9 0.266034 0.321621 0.573082
O O10 0.000000 0.398700 0.581951
O O11 0.749156 0.154524 0.510703
O O12 0.000000 0.099366 0.360839
O O13 0.763714 0.000000 0.354383
O O14 0.500000 0.223282 0.642315
#
# Coordination Sequence:
#
# PCOD9337795 Si02
#       5
#     4   4   4   4   4
#     4   7  10  20  43  74 103 130 164 211 264 313
#     4   9  18  35  58  81 106 140 187 235 274 321
#     4   8  14  28  52  79 108 146 190 229 263 309
#     4  10  22  40  60  80 104 140 190 244 288 328
#     4  11  22  35  55  84 119 153 180 218 279 344
#
# _framework density 19.691382000000001
#
# number of rings (size 3 to 8) (size 9 to 14) (size 15 to 20)
#    0.000    3.000    0.000    4.200    0.000    2.400 
#    0.000    3.000    0.000    3.600    0.000    2.800 
#    0.000    0.000    0.000    0.000    0.000    0.000 
#
# Total GULP energy -111509.575913 kJ/mol
# GULP energy per Si atom -5575.478796 kJ/mol
# Density = 1.964656 g / cm^3
# Si number density = 19.691382 Si / 1000 Ang^3
#
#
#
# Elastic Constant Matrix: (Units=GPa)
#
#
# Indices 1 2 3 4 5 6 
#
# 1 19.0218 47.4363 23.6586 0.0000 0.0000 0.0000
# 2 47.4363 236.9601 78.3042 0.0000 0.0000 0.0000
# 3 23.6586 78.3042 92.8997 0.0000 0.0000 0.0000
# 4 0.0000 0.0000 0.0000 39.4179 0.0000 0.0000
# 5 0.0000 0.0000 0.0000 0.0000 -19.0104 0.0000
# 6 0.0000 0.0000 0.0000 0.0000 0.0000 5.2170
#
#
#
# Elastic Compliance Matrix: (Units=1/GPa)
#
#
# Indices 1 2 3 4 5 6 
#
# 1 0.116621 -0.018756 -0.013890 0.000000 0.000000 0.000000
# 2 -0.018756 0.008866 -0.002696 0.000000 0.000000 0.000000
# 3 -0.013890 -0.002696 0.016575 0.000000 0.000000 0.000000
# 4 0.000000 0.000000 0.000000 0.025369 0.000000 0.000000
# 5 0.000000 0.000000 0.000000 0.000000 -0.052603 0.000000
# 6 0.000000 0.000000 0.000000 0.000000 0.000000 0.191680
#
#
# Mechanical properties :
#
#
# Convention : Reuss Voigt Hill
#
# Bulk Modulus (GPa) = 14.01036 71.96443 42.98740
# Shear Modulus (GPa) = 12.46931 18.42374 15.44652
#
# Velocity S-wave (km/s) = 2.51915 3.06212 2.80381
# Velocity P-wave (km/s) = 3.94866 7.00911 5.68856
#
# Compressibility (1/GPa) = 0.07137574
#
# Stress axis : x y z
#
# Youngs Moduli (GPa) = 8.57480 112.79256 60.33354
#
# Poissons Ratio (x) = 2.11552 0.83806
# Poissons Ratio (y) = 0.16083 0.16268
# Poissons Ratio (z) = 0.11911 0.30414
#
# Static dielectric constant tensor:
#      x y z
#    x 1.659310 0.000000 0.000000 
#    y 0.000000 1.724590 0.000000 
#    z 0.000000 0.000000 1.709410 
# 
# From -- ./inp_files/1787.got.cif
#   From: 2010.05.17/outbox.cif.g08.bks.cpg/sg25_1_cif.got.tgz:1787.got - 2010.06.04 01:04:00.
