data_PCOD9337740
_publ_section_title
;
Structure prediction by ZEFSAII (Michael W. Deem and Ramdas Pophale) SiO2 
 PCOD9337740
Probable space group: P M M 2
;
_chemical_formula_sum "Si O2"
_cell_formula_units_Z 28
_cell_length_a 8.777658
_cell_length_b 9.795728
_cell_length_c 18.447044
_cell_angle_alpha 90.000000
_cell_angle_beta 90.000000
_cell_angle_gamma 90.000000
_cell_volume 1586.142335
_symmetry_space_group_name_H-M "P M M 2"
_symmetry_group_IT_number 25
_symmetry_cell_setting 'orthorhombic'
loop_
_space_group_symop_operation_xyz
x,y,z
-x,-y,z
-x,y,z
x,-y,z
loop_
_atom_site_type_symbol
_atom_site_label
_atom_site_fract_x
_atom_site_fract_y
_atom_site_fract_z
Si Si1 0.814404 0.657968 0.134570
Si Si2 0.182532 0.839971 0.269234
Si Si3 0.183163 0.340024 0.972857
Si Si4 0.683412 0.843413 0.846730
Si Si5 0.817341 0.341184 0.553597
Si Si6 0.316122 0.840604 0.681029
Si Si7 0.682315 0.841069 0.425904
O O1 0.769490 0.500000 0.144331
O O2 0.763826 0.750465 0.201320
O O3 0.000000 0.660933 0.134337
O O4 0.766373 0.703706 0.053925
O O5 0.262220 0.805646 0.345021
O O6 0.000000 0.820998 0.277794
O O7 0.209461 0.000000 0.254519
O O8 0.221836 0.500000 0.965306
O O9 0.251968 0.253610 0.908112
O O10 0.000000 0.328991 0.970346
O O11 0.500000 0.839280 0.848660
O O12 0.728337 0.808046 0.764092
O O13 0.731073 0.000000 0.859940
O O14 0.768735 0.500000 0.553586
O O15 0.757788 0.261033 0.624042
O O16 0.754029 0.259624 0.484415
O O17 0.000000 0.337553 0.552283
O O18 0.500000 0.831606 0.675679
O O19 0.276192 0.000000 0.666669
O O20 0.500000 0.834157 0.430151
O O21 0.727463 0.000000 0.439780
#
# Coordination Sequence:
#
# PCOD9337740 Si02
#       7
#     4   4   4   4   4   4   4
#     4   8  15  29  48  70  98 132 168 207 252 299
#     4   9  17  30  50  75 100 128 166 210 253 298
#     4   9  18  32  50  74 104 137 173 212 254 301
#     4   9  19  35  53  75 103 134 170 211 254 301
#     4  11  24  38  53  78 108 134 165 207 252 298
#     4   9  19  37  58  77 100 133 171 209 252 303
#     4  10  21  37  56  77 103 136 171 206 249 302
#
# _framework density 17.652892000000001
#
# number of rings (size 3 to 8) (size 9 to 14) (size 15 to 20)
#    0.000    2.714    0.000    3.000    0.000    6.857 
#    0.000    7.857    0.000    2.571    0.000    0.000 
#    0.000    0.000    0.000    0.000    0.000    0.000 
#
# Total GULP energy -156162.868038 kJ/mol
# GULP energy per Si atom -5577.245287 kJ/mol
# Density = 1.761271 g / cm^3
# Si number density = 17.652892 Si / 1000 Ang^3
#
#
#
# Elastic Constant Matrix: (Units=GPa)
#
#
# Indices 1 2 3 4 5 6 
#
# 1 21.5624 41.0088 47.4110 0.0000 0.0000 0.0000
# 2 41.0088 114.1314 126.5044 0.0000 0.0000 0.0000
# 3 47.4110 126.5044 189.8486 0.0000 0.0000 0.0000
# 4 0.0000 0.0000 0.0000 92.9284 0.0000 0.0000
# 5 0.0000 0.0000 0.0000 0.0000 48.9950 0.0000
# 6 0.0000 0.0000 0.0000 0.0000 0.0000 24.9498
#
#
#
# Elastic Compliance Matrix: (Units=1/GPa)
#
#
# Indices 1 2 3 4 5 6 
#
# 1 0.148143 -0.046757 -0.005840 0.000000 0.000000 0.000000
# 2 -0.046757 0.048274 -0.020490 0.000000 0.000000 0.000000
# 3 -0.005840 -0.020490 0.020379 0.000000 0.000000 0.000000
# 4 0.000000 0.000000 0.000000 0.010761 0.000000 0.000000
# 5 0.000000 0.000000 0.000000 0.000000 0.020410 0.000000
# 6 0.000000 0.000000 0.000000 0.000000 0.000000 0.040080
#
#
# Mechanical properties :
#
#
# Convention : Reuss Voigt Hill
#
# Bulk Modulus (GPa) = 14.15985 83.93231 49.04608
# Shear Modulus (GPa) = 10.92270 40.74917 25.83594
#
# Velocity S-wave (km/s) = 2.49016 4.80975 3.82979
# Velocity P-wave (km/s) = 4.03814 8.85969 6.88479
#
# Compressibility (1/GPa) = 0.07062221
#
# Stress axis : x y z
#
# Youngs Moduli (GPa) = 6.75025 20.71510 49.06924
#
# Poissons Ratio (x) = 0.96857 0.28654
# Poissons Ratio (y) = 0.31562 1.00545
# Poissons Ratio (z) = 0.03942 0.42446
#
# Static dielectric constant tensor:
#      x y z
#    x 1.597620 0.000000 0.000000 
#    y 0.000000 1.585730 0.000000 
#    z 0.000000 0.000000 1.590030 
# 
# From -- ./inp_files/6104.got.cif
#   From: 2010.05.17/outbox.cif.g08.bks.cpg/sg25_4_cif.got.tgz:6104.got - 2010.06.04 01:04:00.
