data_PCOD9337772
_publ_section_title
;
Structure prediction by ZEFSAII (Michael W. Deem and Ramdas Pophale) SiO2 
 PCOD9337772
Probable space group: P M M 2
;
_chemical_formula_sum "Si O2"
_cell_formula_units_Z 24
_cell_length_a 8.759716
_cell_length_b 15.242723
_cell_length_c 9.789401
_cell_angle_alpha 90.000000
_cell_angle_beta 90.000000
_cell_angle_gamma 90.000000
_cell_volume 1307.099662
_symmetry_space_group_name_H-M "P M M 2"
_symmetry_group_IT_number 25
_symmetry_cell_setting 'orthorhombic'
loop_
_space_group_symop_operation_xyz
x,y,z
-x,-y,z
-x,y,z
x,-y,z
loop_
_atom_site_type_symbol
_atom_site_label
_atom_site_fract_x
_atom_site_fract_y
_atom_site_fract_z
Si Si1 0.316950 0.896596 0.685690
Si Si2 0.316457 0.744775 0.196920
Si Si3 0.818316 0.603645 0.996176
Si Si4 0.317681 0.396747 0.700121
Si Si5 0.685677 0.900390 0.997994
Si Si6 0.818477 0.746576 0.499647
O O1 0.500000 0.882546 0.675563
O O2 0.233985 0.833328 0.580909
O O3 0.288928 0.000000 0.661420
O O4 0.269811 0.877209 0.842542
O O5 0.500000 0.744643 0.203008
O O6 0.265316 0.829480 0.108590
O O7 0.250038 0.746972 0.348219
O O8 0.258792 0.660696 0.113440
O O9 0.789801 0.500000 0.016716
O O10 0.749155 0.627575 0.848473
O O11 0.000000 0.617930 0.994983
O O12 0.500000 0.385157 0.702395
O O13 0.284428 0.500000 0.677174
O O14 0.245958 0.335675 0.585079
O O15 0.500000 0.901272 0.997889
O O16 0.736151 0.000000 0.027406
O O17 0.000000 0.741864 0.493554
#
# Coordination Sequence:
#
# PCOD9337772 Si02
#       6
#     4   4   4   4   4   4
#     4   9  18  36  62  87 111 143 187 237 285 338
#     4  11  22  36  57  83 113 151 193 234 277 332
#     4  10  21  38  60  86 116 148 182 226 284 342
#     4  10  21  39  63  87 110 142 189 239 283 336
#     4   8  16  33  58  85 108 135 178 230 278 324
#     4  12  25  38  54  80 118 156 189 234 291 344
#
# _framework density 18.361263000000001
#
# number of rings (size 3 to 8) (size 9 to 14) (size 15 to 20)
#    0.000    2.000    0.000    5.000    0.000    5.000 
#    0.000    2.500    0.000    3.500    0.000    0.000 
#    0.000    0.000    0.000    0.000    0.000    0.000 
#
# Total GULP energy -134088.389370 kJ/mol
# GULP energy per Si atom -5587.016224 kJ/mol
# Density = 1.831947 g / cm^3
# Si number density = 18.361263 Si / 1000 Ang^3
#
#
#
# Elastic Constant Matrix: (Units=GPa)
#
#
# Indices 1 2 3 4 5 6 
#
# 1 78.0155 63.5987 74.2616 0.0000 0.0000 0.0000
# 2 63.5987 100.3281 108.7878 0.0000 0.0000 0.0000
# 3 74.2616 108.7878 193.7740 0.0000 0.0000 0.0000
# 4 0.0000 0.0000 0.0000 -27.5965 0.0000 0.0000
# 5 0.0000 0.0000 0.0000 0.0000 14.4968 0.0000
# 6 0.0000 0.0000 0.0000 0.0000 0.0000 20.1840
#
#
#
# Elastic Compliance Matrix: (Units=1/GPa)
#
#
# Indices 1 2 3 4 5 6 
#
# 1 0.026789 -0.014951 -0.001873 0.000000 0.000000 0.000000
# 2 -0.014951 0.033820 -0.013257 0.000000 0.000000 0.000000
# 3 -0.001873 -0.013257 0.013321 0.000000 0.000000 0.000000
# 4 0.000000 0.000000 0.000000 -0.036236 0.000000 0.000000
# 5 0.000000 0.000000 0.000000 0.000000 0.068981 0.000000
# 6 0.000000 0.000000 0.000000 0.000000 0.000000 0.049544
#
#
# Mechanical properties :
#
#
# Convention : Reuss Voigt Hill
#
# Bulk Modulus (GPa) = 72.63242 96.15708 84.39475
# Shear Modulus (GPa) = 22.62759 9.78149 16.20454
#
# Velocity S-wave (km/s) = 3.51430 2.31059 2.97398
# Velocity P-wave (km/s) = 7.49069 7.72021 7.60631
#
# Compressibility (1/GPa) = 0.01376796
#
# Stress axis : x y z
#
# Youngs Moduli (GPa) = 37.32926 29.56848 75.06811
#
# Poissons Ratio (x) = 0.44207 0.14059
# Poissons Ratio (y) = 0.55810 0.99520
# Poissons Ratio (z) = 0.06991 0.39200
#
# Static dielectric constant tensor:
#      x y z
#    x 1.613860 0.000000 0.000000 
#    y 0.000000 1.633320 0.000000 
#    z 0.000000 0.000000 1.593120 
# 
# From -- ./inp_files/1979.got.cif
#   From: 2010.05.17/outbox.cif.g08.bks.cpg/sg25_1_cif.got.tgz:1979.got - 2010.06.04 01:04:00.
