data_PCOD9337607
_publ_section_title
;
Structure prediction by ZEFSAII (Michael W. Deem and Ramdas Pophale) SiO2 
 PCOD9337607
Probable space group: P M M 2
;
_chemical_formula_sum "Si O2"
_cell_formula_units_Z 24
_cell_length_a 18.232572
_cell_length_b 7.391453
_cell_length_c 7.946185
_cell_angle_alpha 90.000000
_cell_angle_beta 90.000000
_cell_angle_gamma 90.000000
_cell_volume 1070.869203
_symmetry_space_group_name_H-M "P M M 2"
_symmetry_group_IT_number 25
_symmetry_cell_setting 'orthorhombic'
loop_
_space_group_symop_operation_xyz
x,y,z
-x,-y,z
-x,y,z
x,-y,z
loop_
_atom_site_type_symbol
_atom_site_label
_atom_site_fract_x
_atom_site_fract_y
_atom_site_fract_z
Si Si1 0.084281 0.221015 0.498740
Si Si2 0.184873 0.221592 0.805962
Si Si3 0.187786 0.783654 0.195364
Si Si4 0.500000 0.719820 0.319562
Si Si5 0.342870 0.798217 0.773960
Si Si6 0.500000 0.204164 0.701193
Si Si7 0.347946 0.286294 0.151609
O O1 0.122432 0.275075 0.674478
O O2 0.131366 0.281815 0.336817
O O3 0.000000 0.278077 0.488971
O O4 0.085329 0.000000 0.497107
O O5 0.263913 0.282795 0.731176
O O6 0.187869 0.000000 0.808965
O O7 0.176245 0.281217 0.001283
O O8 0.271849 0.743544 0.248706
O O9 0.180147 0.000000 0.188239
O O10 0.500000 0.500000 0.332142
O O11 0.500000 0.801492 0.502489
O O12 0.575714 0.773261 0.231365
O O13 0.421841 0.708667 0.745229
O O14 0.347272 0.000000 0.696777
O O15 0.337502 0.810045 0.974718
O O16 0.500000 0.000000 0.777455
O O17 0.354227 0.500000 0.119319
#
# Coordination Sequence:
#
# PCOD9337607 Si02
#       7
#     4   4   4   2   4   2   4
#     4   9  17  28  47  76 105 134 166 205 261 319
#     4   8  15  28  45  68 100 130 160 205 254 302
#     4   9  18  32  52  76 103 134 170 216 263 307
#     4  10  23  36  46  70 106 138 173 214 256 306
#     4   9  18  33  51  74 100 130 171 216 260 305
#     4  10  21  32  50  78 104 134 173 214 260 308
#     4  10  20  35  53  72  98 137 178 214 257 307
#
# _framework density 22.411701999999998
#
# number of rings (size 3 to 8) (size 9 to 14) (size 15 to 20)
#    0.000    2.833    0.000    2.000    2.333    2.667 
#    0.000    3.333    0.000    0.500    0.000    0.000 
#    0.000    0.000    0.000    0.000    0.000    0.000 
#
# Total GULP energy -133853.369102 kJ/mol
# GULP energy per Si atom -5577.223713 kJ/mol
# Density = 2.236069 g / cm^3
# Si number density = 22.411702 Si / 1000 Ang^3
#
#
#
# Elastic Constant Matrix: (Units=GPa)
#
#
# Indices 1 2 3 4 5 6 
#
# 1 238.2125 4.8440 91.8537 0.0000 0.0000 0.0000
# 2 4.8440 77.7967 3.3327 0.0000 0.0000 0.0000
# 3 91.8537 3.3327 91.6470 0.0000 0.0000 0.0000
# 4 0.0000 0.0000 0.0000 15.2887 0.0000 0.0000
# 5 0.0000 0.0000 0.0000 0.0000 48.2520 0.0000
# 6 0.0000 0.0000 0.0000 0.0000 0.0000 -7.7803
#
#
#
# Elastic Compliance Matrix: (Units=1/GPa)
#
#
# Indices 1 2 3 4 5 6 
#
# 1 0.006844 -0.000132 -0.006854 0.000000 0.000000 0.000000
# 2 -0.000132 0.012877 -0.000335 0.000000 0.000000 0.000000
# 3 -0.006854 -0.000335 0.017793 0.000000 0.000000 0.000000
# 4 0.000000 0.000000 0.000000 0.065408 0.000000 0.000000
# 5 0.000000 0.000000 0.000000 0.000000 0.020725 0.000000
# 6 0.000000 0.000000 0.000000 0.000000 0.000000 -0.128530
#
#
# Mechanical properties :
#
#
# Convention : Reuss Voigt Hill
#
# Bulk Modulus (GPa) = 43.72693 67.52412 55.62552
# Shear Modulus (GPa) = 287.62928 31.66046 159.64487
#
# Velocity S-wave (km/s) = 11.34097 3.76263 8.44911
# Velocity P-wave (km/s) = 13.82183 7.00506 10.95705
#
# Compressibility (1/GPa) = 0.02286920
#
# Stress axis : x y z
#
# Youngs Moduli (GPa) = 146.12241 77.66003 56.20095
#
# Poissons Ratio (x) = 0.01029 0.38521
# Poissons Ratio (y) = 0.01936 0.01885
# Poissons Ratio (z) = 1.00155 0.02605
#
# Static dielectric constant tensor:
#      x y z
#    x 1.867610 0.000000 0.000000 
#    y 0.000000 1.859890 0.000000 
#    z 0.000000 0.000000 1.781550 
# 
# From -- ./inp_files/3370.got.cif
#   From: 2010.05.17/outbox.cif.g08.bks.cpg/sg25_2_cif.got.tgz:3370.got - 2010.06.04 01:04:00.
