data_PCOD9337421
_publ_section_title
;
Structure prediction by ZEFSAII (Michael W. Deem and Ramdas Pophale) SiO2 
 PCOD9337421
Probable space group: P M M 2
;
_chemical_formula_sum "Si O2"
_cell_formula_units_Z 28
_cell_length_a 7.508670
_cell_length_b 9.601229
_cell_length_c 18.951241
_cell_angle_alpha 90.000000
_cell_angle_beta 90.000000
_cell_angle_gamma 90.000000
_cell_volume 1366.241587
_symmetry_space_group_name_H-M "P M M 2"
_symmetry_group_IT_number 25
_symmetry_cell_setting 'orthorhombic'
loop_
_space_group_symop_operation_xyz
x,y,z
-x,-y,z
-x,y,z
x,-y,z
loop_
_atom_site_type_symbol
_atom_site_label
_atom_site_fract_x
_atom_site_fract_y
_atom_site_fract_z
Si Si1 0.286895 0.657269 0.983770
Si Si2 0.213587 0.658061 0.559979
Si Si3 0.713561 0.841859 0.422308
Si Si4 0.281561 0.338566 0.289965
Si Si5 0.293457 0.330284 0.135253
Si Si6 0.782649 0.161689 0.691645
Si Si7 0.213624 0.842466 0.848564
O O1 0.500000 0.648396 0.992808
O O2 0.219090 0.500000 0.973046
O O3 0.256019 0.747880 0.914971
O O4 0.216818 0.713504 0.059338
O O5 0.281635 0.500000 0.553271
O O6 0.249562 0.750427 0.491274
O O7 0.280757 0.738345 0.629471
O O8 0.000000 0.649527 0.566857
O O9 0.500000 0.849940 0.415636
O O10 0.778678 0.760610 0.352891
O O11 0.781581 0.000000 0.428516
O O12 0.500000 0.337844 0.288477
O O13 0.230151 0.500000 0.302134
O O14 0.218214 0.293089 0.211912
O O15 0.500000 0.284980 0.136937
O O16 0.291438 0.500000 0.133493
O O17 0.725474 0.204652 0.770661
O O18 0.000000 0.163502 0.690327
O O19 0.730695 0.000000 0.680383
O O20 0.000000 0.848419 0.844404
O O21 0.279520 0.000000 0.859584
#
# Coordination Sequence:
#
# PCOD9337421 Si02
#       7
#     4   4   4   4   4   4   4
#     4   9  17  29  46  70  98 124 153 191 232 274
#     4  10  20  33  51  74  95 117 151 193 233 274
#     4  10  20  32  47  70  99 127 154 186 227 275
#     4   8  13  24  44  66  88 118 155 193 231 268
#     4   7  11  22  41  64  89 118 152 189 228 269
#     4   8  15  30  50  68  88 118 155 192 229 271
#     4   9  18  32  49  69  93 122 156 191 228 274
#
# _framework density 20.494178999999999
#
# number of rings (size 3 to 8) (size 9 to 14) (size 15 to 20)
#    0.000    3.286    0.000    3.429    0.000    2.857 
#    0.000    2.857    0.000    4.286    0.000    2.000 
#    0.000    0.000    0.000    0.000    0.000    0.000 
#
# Total GULP energy -156066.814130 kJ/mol
# GULP energy per Si atom -5573.814790 kJ/mol
# Density = 2.044753 g / cm^3
# Si number density = 20.494179 Si / 1000 Ang^3
#
#
#
# Elastic Constant Matrix: (Units=GPa)
#
#
# Indices 1 2 3 4 5 6 
#
# 1 53.0234 5.0718 5.4236 0.0000 0.0000 0.0000
# 2 5.0718 128.0522 131.9136 0.0000 0.0000 0.0000
# 3 5.4236 131.9136 256.2055 0.0000 0.0000 0.0000
# 4 0.0000 0.0000 0.0000 91.1808 0.0000 0.0000
# 5 0.0000 0.0000 0.0000 0.0000 23.3100 0.0000
# 6 0.0000 0.0000 0.0000 0.0000 0.0000 11.8953
#
#
#
# Elastic Compliance Matrix: (Units=1/GPa)
#
#
# Indices 1 2 3 4 5 6 
#
# 1 0.018931 -0.000718 -0.000031 0.000000 0.000000 0.000000
# 2 -0.000718 0.016657 -0.008561 0.000000 0.000000 0.000000
# 3 -0.000031 -0.008561 0.008312 0.000000 0.000000 0.000000
# 4 0.000000 0.000000 0.000000 0.010967 0.000000 0.000000
# 5 0.000000 0.000000 0.000000 0.000000 0.042900 0.000000
# 6 0.000000 0.000000 0.000000 0.000000 0.000000 0.084067
#
#
# Mechanical properties :
#
#
# Convention : Reuss Voigt Hill
#
# Bulk Modulus (GPa) = 39.55669 80.23323 59.89496
# Shear Modulus (GPa) = 23.93709 44.93536 34.43622
#
# Velocity S-wave (km/s) = 3.42130 4.68759 4.10358
# Velocity P-wave (km/s) = 5.91189 8.27842 7.19315
#
# Compressibility (1/GPa) = 0.02528017
#
# Stress axis : x y z
#
# Youngs Moduli (GPa) = 52.82219 60.03517 120.31346
#
# Poissons Ratio (x) = 0.04308 0.00376
# Poissons Ratio (y) = 0.03790 1.03001
# Poissons Ratio (z) = 0.00165 0.51396
#
# Static dielectric constant tensor:
#      x y z
#    x 1.810380 0.000000 0.000000 
#    y 0.000000 1.704020 0.000000 
#    z 0.000000 0.000000 1.746270 
# 
# From -- ./inp_files/6414.got.cif
#   From: 2010.05.17/outbox.cif.g08.bks.cpg/sg25_4_cif.got.tgz:6414.got - 2010.06.04 01:04:00.
