data_PCOD9337484
_publ_section_title
;
Structure prediction by ZEFSAII (Michael W. Deem and Ramdas Pophale) SiO2 
 PCOD9337484
Probable space group: P M M 2
;
_chemical_formula_sum "Si O2"
_cell_formula_units_Z 32
_cell_length_a 7.421365
_cell_length_b 13.189491
_cell_length_c 12.935215
_cell_angle_alpha 90.000000
_cell_angle_beta 90.000000
_cell_angle_gamma 90.000000
_cell_volume 1266.150933
_symmetry_space_group_name_H-M "P M M 2"
_symmetry_group_IT_number 25
_symmetry_cell_setting 'orthorhombic'
loop_
_space_group_symop_operation_xyz
x,y,z
-x,-y,z
-x,y,z
x,-y,z
loop_
_atom_site_type_symbol
_atom_site_label
_atom_site_fract_x
_atom_site_fract_y
_atom_site_fract_z
Si Si1 0.293782 0.609408 0.090780
Si Si2 0.720046 0.168906 0.140839
Si Si3 0.281794 0.109802 0.912903
Si Si4 0.207230 0.662608 0.862483
Si Si5 0.219557 0.669794 0.640151
Si Si6 0.718989 0.832816 0.364281
Si Si7 0.791332 0.892684 0.592192
Si Si8 0.289955 0.607977 0.411573
O O1 0.500000 0.606975 0.127942
O O2 0.211725 0.500000 0.114680
O O3 0.215861 0.714255 0.132604
O O4 0.298075 0.624031 0.966537
O O5 0.500000 0.169625 0.139520
O O6 0.772059 0.116205 0.034164
O O7 0.773136 0.126392 0.252114
O O8 0.500000 0.113798 0.907874
O O9 0.223451 0.000000 0.871355
O O10 0.214228 0.214093 0.863463
O O11 0.278035 0.628629 0.751177
O O12 0.000000 0.631014 0.871133
O O13 0.286068 0.786188 0.629783
O O14 0.277347 0.614668 0.536120
O O15 0.000000 0.669837 0.639921
O O16 0.500000 0.834965 0.369912
O O17 0.785284 0.886183 0.467460
O O18 0.781449 0.715315 0.372056
O O19 0.000000 0.892884 0.624200
O O20 0.708779 0.000000 0.624433
O O21 0.500000 0.607475 0.382849
O O22 0.211402 0.500000 0.377644
#
# Coordination Sequence:
#
# PCOD9337484 Si02
#       8
#     4   4   4   4   4   4   4   4
#     4   9  18  33  52  72  95 126 162 196 233 282
#     4   8  15  29  49  72  96 123 156 192 230 274
#     4   9  18  33  51  71  97 128 161 196 234 280
#     4  10  20  33  50  72  97 124 157 200 243 282
#     4   9  19  34  50  68  91 123 160 194 231 278
#     4   9  17  30  49  72  97 123 153 192 233 274
#     4   9  18  33  50  67  91 123 157 193 232 276
#     4   9  18  31  47  70  98 124 152 191 236 276
#
# _framework density 25.273447999999998
#
# number of rings (size 3 to 8) (size 9 to 14) (size 15 to 20)
#    0.000    3.000    0.000    1.125    0.000    4.000 
#    0.000   10.000    0.000    0.000    0.000    5.250 
#    0.000    0.000    0.000    0.000    0.000    0.000 
#
# Total GULP energy -178758.794812 kJ/mol
# GULP energy per Si atom -5586.212338 kJ/mol
# Density = 2.521592 g / cm^3
# Si number density = 25.273448 Si / 1000 Ang^3
#
#
#
# Elastic Constant Matrix: (Units=GPa)
#
#
# Indices 1 2 3 4 5 6 
#
# 1 89.6423 -0.9545 -6.4304 0.0000 0.0000 0.0000
# 2 -0.9545 132.8286 -6.4264 0.0000 0.0000 0.0000
# 3 -6.4304 -6.4264 137.3038 0.0000 0.0000 0.0000
# 4 0.0000 0.0000 0.0000 -21.7283 0.0000 0.0000
# 5 0.0000 0.0000 0.0000 0.0000 10.0377 0.0000
# 6 0.0000 0.0000 0.0000 0.0000 0.0000 1.2817
#
#
#
# Elastic Compliance Matrix: (Units=1/GPa)
#
#
# Indices 1 2 3 4 5 6 
#
# 1 0.011195 0.000106 0.000529 0.000000 0.000000 0.000000
# 2 0.000106 0.007547 0.000358 0.000000 0.000000 0.000000
# 3 0.000529 0.000358 0.007325 0.000000 0.000000 0.000000
# 4 0.000000 0.000000 0.000000 -0.046023 0.000000 0.000000
# 5 0.000000 0.000000 0.000000 0.000000 0.099625 0.000000
# 6 0.000000 0.000000 0.000000 0.000000 0.000000 0.780185
#
#
# Mechanical properties :
#
#
# Convention : Reuss Voigt Hill
#
# Bulk Modulus (GPa) = 35.64715 36.90580 36.27647
# Shear Modulus (GPa) = 5.76557 22.82394 14.29475
#
# Velocity S-wave (km/s) = 1.51203 3.00839 2.38082
# Velocity P-wave (km/s) = 4.14530 5.16735 4.68428
#
# Compressibility (1/GPa) = 0.02805273
#
# Stress axis : x y z
#
# Youngs Moduli (GPa) = 89.32925 132.51016 136.52490
#
# Poissons Ratio (x) = -0.01405 -0.07225
# Poissons Ratio (y) = -0.00947 -0.04890
# Poissons Ratio (z) = -0.04728 -0.04746
#
# Static dielectric constant tensor:
#      x y z
#    x 1.966840 0.000000 0.000000 
#    y 0.000000 2.001860 0.000000 
#    z 0.000000 0.000000 1.961450 
# 
# From -- ./inp_files/5707.got.cif
#   From: 2010.05.17/outbox.cif.g08.bks.cpg/sg25_3_cif.got.tgz:5707.got - 2010.06.04 01:04:00.
