data_PCOD9337101
_publ_section_title
;
Structure prediction by ZEFSAII (Michael W. Deem and Ramdas Pophale) SiO2 
 PCOD9337101
Probable space group: P M M 2
;
_chemical_formula_sum "Si O2"
_cell_formula_units_Z 28
_cell_length_a 7.516435
_cell_length_b 20.787494
_cell_length_c 7.958657
_cell_angle_alpha 90.000000
_cell_angle_beta 90.000000
_cell_angle_gamma 90.000000
_cell_volume 1243.523025
_symmetry_space_group_name_H-M "P M M 2"
_symmetry_group_IT_number 25
_symmetry_cell_setting 'orthorhombic'
loop_
_space_group_symop_operation_xyz
x,y,z
-x,-y,z
-x,y,z
x,-y,z
loop_
_atom_site_type_symbol
_atom_site_label
_atom_site_fract_x
_atom_site_fract_y
_atom_site_fract_z
Si Si1 0.782203 0.925940 0.667290
Si Si2 0.286122 0.431073 0.845410
Si Si3 0.218161 0.159922 0.980438
Si Si4 0.716694 0.569371 0.447694
Si Si5 0.703101 0.708057 0.435138
Si Si6 0.795895 0.150345 0.345866
Si Si7 0.207554 0.707827 0.822764
O O1 0.726647 0.888058 0.833669
O O2 0.717664 0.886847 0.504402
O O3 0.000000 0.924423 0.667938
O O4 0.727812 0.000000 0.664674
O O5 0.500000 0.430882 0.855520
O O6 0.224164 0.500000 0.916604
O O7 0.237651 0.431429 0.646621
O O8 0.225760 0.361786 0.909327
O O9 0.272655 0.232404 0.931844
O O10 0.000000 0.160350 0.986602
O O11 0.284590 0.139935 0.163090
O O12 0.500000 0.570775 0.438523
O O13 0.774257 0.500000 0.376671
O O14 0.778737 0.638424 0.380253
O O15 0.500000 0.712377 0.376176
O O16 0.795723 0.773172 0.379230
O O17 0.702967 0.706838 0.639262
O O18 0.000000 0.128120 0.336443
O O19 0.000000 0.718845 0.786593
#
# Coordination Sequence:
#
# PCOD9337101 Si02
#       7
#     4   4   4   4   4   4   4
#     4   9  17  31  53  81 108 132 164 207 256 310
#     4   8  14  25  41  65  98 134 174 220 266 311
#     4   9  18  31  49  76 107 136 167 209 259 307
#     4   7  11  21  38  61  89 121 159 204 249 290
#     4  10  18  29  48  73 100 135 176 215 261 310
#     4  10  19  33  53  76 105 137 169 210 259 306
#     4  10  17  28  47  71 101 137 177 218 264 311
#
# _framework density 22.516673999999998
#
# number of rings (size 3 to 8) (size 9 to 14) (size 15 to 20)
#    0.000    3.000    1.429    2.571    0.000    0.857 
#    0.000    4.286    0.000    2.571    0.000    4.000 
#    0.000    0.000    0.000    0.000    0.000    0.000 
#
# Total GULP energy -156174.261468 kJ/mol
# GULP energy per Si atom -5577.652195 kJ/mol
# Density = 2.246542 g / cm^3
# Si number density = 22.516674 Si / 1000 Ang^3
#
#
#
# Elastic Constant Matrix: (Units=GPa)
#
#
# Indices 1 2 3 4 5 6 
#
# 1 58.8085 -1.5006 -0.4948 0.0000 0.0000 0.0000
# 2 -1.5006 191.9104 88.1164 0.0000 0.0000 0.0000
# 3 -0.4948 88.1164 125.6425 0.0000 0.0000 0.0000
# 4 0.0000 0.0000 0.0000 -12.0868 0.0000 0.0000
# 5 0.0000 0.0000 0.0000 0.0000 -42.1139 0.0000
# 6 0.0000 0.0000 0.0000 0.0000 0.0000 27.1487
#
#
#
# Elastic Compliance Matrix: (Units=1/GPa)
#
#
# Indices 1 2 3 4 5 6 
#
# 1 0.017008 0.000151 -0.000039 0.000000 0.000000 0.000000
# 2 0.000151 0.007687 -0.005391 0.000000 0.000000 0.000000
# 3 -0.000039 -0.005391 0.011739 0.000000 0.000000 0.000000
# 4 0.000000 0.000000 0.000000 -0.082735 0.000000 0.000000
# 5 0.000000 0.000000 0.000000 0.000000 -0.023745 0.000000
# 6 0.000000 0.000000 0.000000 0.000000 0.000000 0.036834
#
#
# Mechanical properties :
#
#
# Convention : Reuss Voigt Hill
#
# Bulk Modulus (GPa) = 38.64385 60.95593 49.79989
# Shear Modulus (GPa) = -356.41015 13.93896 -171.23559
#
# Velocity S-wave (km/s) = -12.59487 2.49077 -8.73003
# Velocity P-wave (km/s) = 13.93945 5.94997 8.91364
#
# Compressibility (1/GPa) = 0.02587734
#
# Stress axis : x y z
#
# Youngs Moduli (GPa) = 58.79633 130.08941 85.18285
#
# Poissons Ratio (x) = -0.01962 0.00330
# Poissons Ratio (y) = -0.00887 0.45918
# Poissons Ratio (z) = 0.00228 0.70125
#
# Static dielectric constant tensor:
#      x y z
#    x 1.917730 0.000000 0.000000 
#    y 0.000000 1.844980 0.000000 
#    z 0.000000 0.000000 1.824540 
# 
# From -- ./inp_files/2312.got.cif
#   From: 2010.05.17/outbox.cif.g08.bks.cpg/sg25_2_cif.got.tgz:2312.got - 2010.06.04 01:04:00.
