data_PCOD9337771
_publ_section_title
;
Structure prediction by ZEFSAII (Michael W. Deem and Ramdas Pophale) SiO2 
 PCOD9337771
Probable space group: P M M 2
;
_chemical_formula_sum "Si O2"
_cell_formula_units_Z 32
_cell_length_a 14.437787
_cell_length_b 9.229086
_cell_length_c 12.460207
_cell_angle_alpha 90.000000
_cell_angle_beta 90.000000
_cell_angle_gamma 90.000000
_cell_volume 1660.292403
_symmetry_space_group_name_H-M "P M M 2"
_symmetry_group_IT_number 25
_symmetry_cell_setting 'orthorhombic'
loop_
_space_group_symop_operation_xyz
x,y,z
-x,-y,z
-x,y,z
x,-y,z
loop_
_atom_site_type_symbol
_atom_site_label
_atom_site_fract_x
_atom_site_fract_y
_atom_site_fract_z
Si Si1 0.391393 0.329482 0.281950
Si Si2 0.612822 0.835261 0.066811
Si Si3 0.739467 0.172673 0.688088
Si Si4 0.891393 0.170518 0.866817
Si Si5 0.888428 0.832322 0.297208
Si Si6 0.760533 0.672673 0.460679
Si Si7 0.611572 0.667678 0.851559
Si Si8 0.112822 0.335261 0.081956
O O1 0.500000 0.300332 0.302859
O O2 0.382750 0.500000 0.254730
O O3 0.360922 0.236596 0.179403
O O4 0.329324 0.301196 0.385696
O O5 0.500000 0.838302 0.066591
O O6 0.646398 0.000000 0.056650
O O7 0.639810 0.740238 0.964321
O O8 0.829324 0.198804 0.763072
O O9 0.750000 0.250000 0.574384
O O10 0.655550 0.241695 0.755227
O O11 0.728170 0.000000 0.675476
O O12 0.000000 0.199667 0.845908
O O13 0.882750 0.000000 0.894037
O O14 0.860922 0.263404 0.969364
O O15 0.844450 0.741695 0.393540
O O16 0.860190 0.759762 0.184446
O O17 0.000000 0.828033 0.302974
O O18 0.859130 0.000000 0.301960
O O19 0.771830 0.500000 0.473291
O O20 0.500000 0.671967 0.845793
O O21 0.640870 0.500000 0.846808
O O22 0.146398 0.500000 0.092117
O O23 0.000000 0.338302 0.082176
#
# Coordination Sequence:
#
# PCOD9337771 Si02
#       8
#     4   4   4   4   4   4   4   4
#     4   9  19  37  59  82 111 147 184 224 275 335
#     4   9  17  31  55  87 117 143 178 226 278 333
#     4  11  24  40  58  82 112 148 192 238 281 331
#     4   9  19  37  59  82 111 147 184 224 275 335
#     4  10  21  38  60  84 113 150 188 229 280 335
#     4  11  24  40  58  82 112 148 192 238 281 331
#     4  10  21  38  60  84 113 150 188 229 280 335
#     4   9  17  31  55  87 117 143 178 226 278 333
#
# _framework density 19.273713000000001
#
# number of rings (size 3 to 8) (size 9 to 14) (size 15 to 20)
#    0.000    2.250    0.000    2.250    0.000    8.500 
#    0.000    2.500    0.000    0.000    0.000    0.000 
#    0.000    0.000    0.000    0.000    0.000    0.000 
#
# Total GULP energy -178832.739490 kJ/mol
# GULP energy per Si atom -5588.523109 kJ/mol
# Density = 1.922985 g / cm^3
# Si number density = 19.273713 Si / 1000 Ang^3
#
#
#
# Elastic Constant Matrix: (Units=GPa)
#
#
# Indices 1 2 3 4 5 6 
#
# 1 61.8229 49.1714 39.8704 0.0000 0.0000 0.0000
# 2 49.1714 146.2268 116.9678 0.0000 0.0000 0.0000
# 3 39.8704 116.9678 179.1878 0.0000 0.0000 0.0000
# 4 0.0000 0.0000 0.0000 43.6065 0.0000 0.0000
# 5 0.0000 0.0000 0.0000 0.0000 28.2680 0.0000
# 6 0.0000 0.0000 0.0000 0.0000 0.0000 21.4211
#
#
#
# Elastic Compliance Matrix: (Units=1/GPa)
#
#
# Indices 1 2 3 4 5 6 
#
# 1 0.022082 -0.007315 -0.000139 0.000000 0.000000 0.000000
# 2 -0.007315 0.016734 -0.009296 0.000000 0.000000 0.000000
# 3 -0.000139 -0.009296 0.011680 0.000000 0.000000 0.000000
# 4 0.000000 0.000000 0.000000 0.022932 0.000000 0.000000
# 5 0.000000 0.000000 0.000000 0.000000 0.035376 0.000000
# 6 0.000000 0.000000 0.000000 0.000000 0.000000 0.046683
#
#
# Mechanical properties :
#
#
# Convention : Reuss Voigt Hill
#
# Bulk Modulus (GPa) = 58.83153 88.80633 73.81893
# Shear Modulus (GPa) = 25.68681 30.74099 28.21390
#
# Velocity S-wave (km/s) = 3.65463 3.99804 3.83018
# Velocity P-wave (km/s) = 6.95693 8.21516 7.61209
#
# Compressibility (1/GPa) = 0.01699769
#
# Stress axis : x y z
#
# Youngs Moduli (GPa) = 45.28475 59.75716 85.61805
#
# Poissons Ratio (x) = 0.43710 0.01188
# Poissons Ratio (y) = 0.33124 0.79591
# Poissons Ratio (z) = 0.00628 0.55551
#
# Static dielectric constant tensor:
#      x y z
#    x 1.707780 0.000000 0.000000 
#    y 0.000000 1.670260 0.000000 
#    z 0.000000 0.000000 1.616320 
# 
# From -- ./inp_files/4224.got.cif
#   From: 2010.05.17/outbox.cif.g08.bks.cpg/sg25_3_cif.got.tgz:4224.got - 2010.06.04 01:04:00.
