data_PCOD9337832
_publ_section_title
;
Structure prediction by ZEFSAII (Michael W. Deem and Ramdas Pophale) SiO2 
 PCOD9337832
Probable space group: P M M 2
;
_chemical_formula_sum "Si O2"
_cell_formula_units_Z 32
_cell_length_a 7.456394
_cell_length_b 9.898715
_cell_length_c 21.506871
_cell_angle_alpha 90.000000
_cell_angle_beta 90.000000
_cell_angle_gamma 90.000000
_cell_volume 1587.394601
_symmetry_space_group_name_H-M "P M M 2"
_symmetry_group_IT_number 25
_symmetry_cell_setting 'orthorhombic'
loop_
_space_group_symop_operation_xyz
x,y,z
-x,-y,z
-x,y,z
x,-y,z
loop_
_atom_site_type_symbol
_atom_site_label
_atom_site_fract_x
_atom_site_fract_y
_atom_site_fract_z
Si Si1 0.280364 0.155653 0.712350
Si Si2 0.784823 0.653456 0.964817
Si Si3 0.208175 0.164601 0.211641
Si Si4 0.286240 0.653901 0.823584
Si Si5 0.285076 0.651928 0.459666
Si Si6 0.219993 0.156195 0.075798
Si Si7 0.785653 0.152595 0.345631
Si Si8 0.281444 0.344361 0.599356
O O1 0.500000 0.154165 0.712505
O O2 0.219997 0.240550 0.772553
O O3 0.223043 0.238883 0.651362
O O4 0.222408 0.000000 0.712606
O O5 0.716701 0.500000 0.971396
O O6 0.745309 0.698310 0.894492
O O7 0.000000 0.648822 0.970444
O O8 0.719286 0.751220 0.019075
O O9 0.283045 0.203592 0.144273
O O10 0.285343 0.205072 0.278743
O O11 0.000000 0.207870 0.210674
O O12 0.211264 0.000000 0.212288
O O13 0.500000 0.645443 0.814715
O O14 0.215440 0.500000 0.816374
O O15 0.500000 0.645485 0.463630
O O16 0.219294 0.500000 0.446328
O O17 0.244183 0.753279 0.404377
O O18 0.222855 0.690571 0.529104
O O19 0.000000 0.157668 0.077193
O O20 0.272142 0.000000 0.067051
O O21 0.000000 0.143011 0.337590
O O22 0.718066 0.000000 0.356491
O O23 0.500000 0.343649 0.600208
O O24 0.228220 0.500000 0.612612
#
# Coordination Sequence:
#
# PCOD9337832 Si02
#       8
#     4   4   4   4   4   4   4   4
#     4   9  16  25  40  64  88 106 132 175 216 244
#     4   9  17  28  42  62  86 108 134 172 210 242
#     4   7  11  22  40  61  84 109 139 175 212 251
#     4   9  17  29  44  60  81 112 142 164 197 250
#     4   9  18  31  46  66  92 120 150 184 221 263
#     4   8  13  23  41  62  82 107 139 173 210 251
#     4   9  17  29  46  68  92 118 149 185 224 266
#     4   8  14  26  43  61  83 112 143 174 210 253
#
# _framework density 20.158819999999999
#
# number of rings (size 3 to 8) (size 9 to 14) (size 15 to 20)
#    0.000    3.500    0.000    2.625    0.000    3.000 
#    0.000    1.875    0.000    3.750    0.000    5.250 
#    0.000    0.000    0.000    0.000    0.000    0.000 
#
# Total GULP energy -178322.343279 kJ/mol
# GULP energy per Si atom -5572.573227 kJ/mol
# Density = 2.011294 g / cm^3
# Si number density = 20.158820 Si / 1000 Ang^3
#
#
#
# Elastic Constant Matrix: (Units=GPa)
#
#
# Indices 1 2 3 4 5 6 
#
# 1 58.3469 4.8918 4.5299 0.0000 0.0000 0.0000
# 2 4.8918 115.6841 141.1439 0.0000 0.0000 0.0000
# 3 4.5299 141.1439 243.9129 0.0000 0.0000 0.0000
# 4 0.0000 0.0000 0.0000 45.6774 0.0000 0.0000
# 5 0.0000 0.0000 0.0000 0.0000 17.7617 0.0000
# 6 0.0000 0.0000 0.0000 0.0000 0.0000 3.9330
#
#
#
# Elastic Compliance Matrix: (Units=1/GPa)
#
#
# Indices 1 2 3 4 5 6 
#
# 1 0.017208 -0.001149 0.000345 0.000000 0.000000 0.000000
# 2 -0.001149 0.029481 -0.017038 0.000000 0.000000 0.000000
# 3 0.000345 -0.017038 0.013953 0.000000 0.000000 0.000000
# 4 0.000000 0.000000 0.000000 0.021893 0.000000 0.000000
# 5 0.000000 0.000000 0.000000 0.000000 0.056301 0.000000
# 6 0.000000 0.000000 0.000000 0.000000 0.000000 0.254258
#
#
# Mechanical properties :
#
#
# Convention : Reuss Voigt Hill
#
# Bulk Modulus (GPa) = 40.06673 79.89722 59.98198
# Shear Modulus (GPa) = 11.43912 31.29963 21.36938
#
# Velocity S-wave (km/s) = 2.38471 3.94465 3.25937
# Velocity P-wave (km/s) = 5.24415 7.77605 6.63204
#
# Compressibility (1/GPa) = 0.02495836
#
# Stress axis : x y z
#
# Youngs Moduli (GPa) = 58.11117 33.92049 71.67026
#
# Poissons Ratio (x) = 0.03897 -0.02474
# Poissons Ratio (y) = 0.06676 1.22113
# Poissons Ratio (z) = -0.02006 0.57794
#
# Static dielectric constant tensor:
#      x y z
#    x 1.799630 0.000000 0.000000 
#    y 0.000000 1.683140 0.000000 
#    z 0.000000 0.000000 1.724380 
# 
# From -- ./inp_files/6315.got.cif
#   From: 2010.05.17/outbox.cif.g08.bks.cpg/sg25_4_cif.got.tgz:6315.got - 2010.06.04 01:04:00.
