data_PCOD9337125
_publ_section_title
;
Structure prediction by ZEFSAII (Michael W. Deem and Ramdas Pophale) SiO2 
 PCOD9337125
Probable space group: P M M 2
;
_chemical_formula_sum "Si O2"
_cell_formula_units_Z 32
_cell_length_a 7.422173
_cell_length_b 20.305914
_cell_length_c 10.735933
_cell_angle_alpha 90.000000
_cell_angle_beta 90.000000
_cell_angle_gamma 90.000000
_cell_volume 1618.055477
_symmetry_space_group_name_H-M "P M M 2"
_symmetry_group_IT_number 25
_symmetry_cell_setting 'orthorhombic'
loop_
_space_group_symop_operation_xyz
x,y,z
-x,-y,z
-x,y,z
x,-y,z
loop_
_atom_site_type_symbol
_atom_site_label
_atom_site_fract_x
_atom_site_fract_y
_atom_site_fract_z
Si Si1 0.783046 0.714419 0.350580
Si Si2 0.216954 0.714419 0.063160
Si Si3 0.713090 0.146587 0.957571
Si Si4 0.720357 0.923812 0.206871
Si Si5 0.784545 0.429180 0.056861
Si Si6 0.720747 0.076713 0.706870
Si Si7 0.286910 0.853413 0.456170
Si Si8 0.215455 0.429180 0.356878
O O1 0.720357 0.725874 0.206870
O O2 0.736458 0.775589 0.437257
O O3 0.717175 0.642715 0.396807
O O4 0.000000 0.710877 0.344491
O O5 0.263543 0.775589 0.976483
O O6 0.282825 0.642716 0.016932
O O7 0.000000 0.710877 0.069248
O O8 0.500000 0.133355 0.956630
O O9 0.785307 0.112163 0.082380
O O10 0.783101 0.114658 0.830767
O O11 0.500000 0.920779 0.206871
O O12 0.785307 0.887837 0.331361
O O13 0.770580 0.000000 0.206872
O O14 0.713244 0.500000 0.010862
O O15 0.760804 0.428774 0.206870
O O16 0.000000 0.430056 0.034323
O O17 0.500000 0.077580 0.706870
O O18 0.783101 0.114659 0.582974
O O19 0.773583 0.000000 0.706870
O O20 0.500000 0.866644 0.457111
O O21 0.286756 0.500000 0.402877
O O22 0.000000 0.430056 0.379416
#
# Coordination Sequence:
#
# PCOD9337125 Si02
#       8
#     4   4   4   4   4   4   4   4
#     4   9  16  26  42  65  93 120 144 176 217 260
#     4   9  16  26  42  65  93 120 144 176 217 260
#     4  10  18  29  46  67  88 112 143 182 223 261
#     4   9  16  26  43  65  84 105 138 176 213 255
#     4   7  10  18  34  57  84 114 146 175 205 246
#     4   9  18  32  49  67  86 111 148 190 223 255
#     4  10  18  29  46  67  88 112 143 182 223 261
#     4   7  10  18  34  57  84 114 146 175 205 246
#
# _framework density 19.776823
#
# number of rings (size 3 to 8) (size 9 to 14) (size 15 to 20)
#    0.000    3.250    1.250    3.000    0.000    3.000 
#    0.000    0.625    0.000    5.250    0.000    4.375 
#    0.000    7.000    0.000    0.000    0.000    0.000 
#
# Total GULP energy -178290.452689 kJ/mol
# GULP energy per Si atom -5571.576647 kJ/mol
# Density = 1.973181 g / cm^3
# Si number density = 19.776823 Si / 1000 Ang^3
#
#
#
# Elastic Constant Matrix: (Units=GPa)
#
#
# Indices 1 2 3 4 5 6 
#
# 1 60.0272 -4.1565 11.4658 0.0000 0.0000 0.0000
# 2 -4.1565 223.8759 103.5571 0.0000 0.0000 0.0000
# 3 11.4658 103.5571 122.3319 0.0000 0.0000 0.0000
# 4 0.0000 0.0000 0.0000 20.5464 0.0000 0.0000
# 5 0.0000 0.0000 0.0000 0.0000 -1.1187 0.0000
# 6 0.0000 0.0000 0.0000 0.0000 0.0000 16.3136
#
#
#
# Elastic Compliance Matrix: (Units=1/GPa)
#
#
# Indices 1 2 3 4 5 6 
#
# 1 0.017379 0.001769 -0.003126 0.000000 0.000000 0.000000
# 2 0.001769 0.007521 -0.006533 0.000000 0.000000 0.000000
# 3 -0.003126 -0.006533 0.013998 0.000000 0.000000 0.000000
# 4 0.000000 0.000000 0.000000 0.048670 0.000000 0.000000
# 5 0.000000 0.000000 0.000000 0.000000 -0.893933 0.000000
# 6 0.000000 0.000000 0.000000 0.000000 0.000000 0.061299
#
#
# Mechanical properties :
#
#
# Convention : Reuss Voigt Hill
#
# Bulk Modulus (GPa) = 43.25761 69.77419 56.51590
# Shear Modulus (GPa) = -6.92924 26.83951 9.95513
#
# Velocity S-wave (km/s) = -1.87385 3.68791 2.24603
# Velocity P-wave (km/s) = 4.15194 7.31379 5.94686
#
# Compressibility (1/GPa) = 0.02311732
#
# Stress axis : x y z
#
# Youngs Moduli (GPa) = 57.54172 132.95242 71.44008
#
# Poissons Ratio (x) = -0.23515 0.22333
# Poissons Ratio (y) = -0.10177 0.46671
# Poissons Ratio (z) = 0.17988 0.86857
#
# Static dielectric constant tensor:
#      x y z
#    x 1.773750 0.000000 0.000000 
#    y 0.000000 1.747750 0.000000 
#    z 0.000000 0.000000 1.657710 
# 
# From -- ./inp_files/4487.got.cif
#   From: 2010.05.17/outbox.cif.g08.bks.cpg/sg25_3_cif.got.tgz:4487.got - 2010.06.04 01:04:00.
