data_PCOD9337987
_publ_section_title
;
Structure prediction by ZEFSAII (Michael W. Deem and Ramdas Pophale) SiO2 
 PCOD9337987
Probable space group: P M C 21
;
_chemical_formula_sum "Si O2"
_cell_formula_units_Z 32
_cell_length_a 7.822827
_cell_length_b 12.831038
_cell_length_c 14.613421
_cell_angle_alpha 90.000000
_cell_angle_beta 90.000000
_cell_angle_gamma 90.000000
_cell_volume 1466.821994
_symmetry_space_group_name_H-M "P M C 21"
_symmetry_group_IT_number 26
_symmetry_cell_setting 'orthorhombic'
loop_
_space_group_symop_operation_xyz
x,y,z
-x,-y,1/2+z
-x,y,z
x,-y,1/2+z
loop_
_atom_site_type_symbol
_atom_site_label
_atom_site_fract_x
_atom_site_fract_y
_atom_site_fract_z
Si Si1 0.801128 0.130113 0.990530
Si Si2 0.792719 0.174210 0.786749
Si Si3 0.709784 0.586442 0.807986
Si Si4 0.691933 0.748938 0.658150
Si Si5 0.299125 0.908910 0.964960
Si Si6 0.299582 0.610344 0.198172
Si Si7 0.290728 0.324158 0.504407
Si Si8 0.197072 0.054026 0.258879
O O1 0.732190 0.165363 0.891914
O O2 0.000000 0.108889 0.978740
O O3 0.723869 0.017873 0.018495
O O4 0.778979 0.221282 0.063546
O O5 0.719999 0.274411 0.737971
O O6 0.000000 0.180921 0.785906
O O7 0.746231 0.064023 0.741339
O O8 0.500000 0.590371 0.811505
O O9 0.767786 0.666665 0.729096
O O10 0.767433 0.473927 0.771009
O O11 0.765179 0.624243 0.908490
O O12 0.500000 0.714222 0.636986
O O13 0.693040 0.857767 0.712199
O O14 0.500000 0.897125 0.944988
O O15 0.240863 0.798641 0.006840
O O16 0.206789 0.927649 0.867963
O O17 0.500000 0.585180 0.188893
O O18 0.228372 0.615486 0.094850
O O19 0.500000 0.326257 0.506303
O O20 0.000000 0.066258 0.228429
#
# Coordination Sequence:
#
# PCOD9337987 Si02
#       8
#     4   4   4   4   4   4   4   4
#     4  10  22  38  55  82 122 161 193 238 299 359
#     4   9  21  40  56  77 117 156 187 234 294 349
#     4   9  19  37  58  84 119 153 191 245 297 341
#     4  11  21  35  58  87 115 154 201 243 290 348
#     4  10  18  33  56  82 115 154 196 243 290 347
#     4  10  21  36  61  88 111 150 199 243 293 348
#     4   9  18  34  55  84 116 146 186 242 293 336
#     4  10  20  35  55  82 117 156 191 238 300 352
#
# _framework density 21.815871000000001
#
# number of rings (size 3 to 8) (size 9 to 14) (size 15 to 20)
#    0.000    2.250    1.250    2.250    1.750    4.000 
#    0.000    4.375    0.000    0.000    0.000    0.000 
#    0.000    0.000    0.000    0.000    0.000    0.000 
#
# Total GULP energy -178607.736821 kJ/mol
# GULP energy per Si atom -5581.491776 kJ/mol
# Density = 2.176622 g / cm^3
# Si number density = 21.815871 Si / 1000 Ang^3
#
#
#
# Elastic Constant Matrix: (Units=GPa)
#
#
# Indices 1 2 3 4 5 6 
#
# 1 31.7078 -1.4596 -2.5084 0.0000 0.0000 0.0000
# 2 -1.4596 94.2961 34.2363 0.0000 0.0000 0.0000
# 3 -2.5084 34.2363 81.9184 0.0000 0.0000 0.0000
# 4 0.0000 0.0000 0.0000 24.7675 0.0000 0.0000
# 5 0.0000 0.0000 0.0000 0.0000 38.3180 0.0000
# 6 0.0000 0.0000 0.0000 0.0000 0.0000 23.9346
#
#
#
# Elastic Compliance Matrix: (Units=1/GPa)
#
#
# Indices 1 2 3 4 5 6 
#
# 1 0.031617 0.000163 0.000900 0.000000 0.000000 0.000000
# 2 0.000163 0.012503 -0.005220 0.000000 0.000000 0.000000
# 3 0.000900 -0.005220 0.014417 0.000000 0.000000 0.000000
# 4 0.000000 0.000000 0.000000 0.040376 0.000000 0.000000
# 5 0.000000 0.000000 0.000000 0.000000 0.026097 0.000000
# 6 0.000000 0.000000 0.000000 0.000000 0.000000 0.041781
#
#
# Mechanical properties :
#
#
# Convention : Reuss Voigt Hill
#
# Bulk Modulus (GPa) = 19.91204 29.82877 24.87040
# Shear Modulus (GPa) = 26.06271 29.24760 27.65515
#
# Velocity S-wave (km/s) = 3.46015 3.66547 3.56429
# Velocity P-wave (km/s) = 5.01105 5.62289 5.32576
#
# Compressibility (1/GPa) = 0.05022088
#
# Stress axis : x y z
#
# Youngs Moduli (GPa) = 31.62885 79.98231 69.36455
#
# Poissons Ratio (x) = -0.01300 -0.06244
# Poissons Ratio (y) = -0.00514 0.36211
# Poissons Ratio (z) = -0.02847 0.41753
#
# Static dielectric constant tensor:
#      x y z
#    x 1.800900 0.000000 0.000000 
#    y 0.000000 1.778570 0.000000 
#    z 0.000000 0.000000 1.817670 
# 
# From -- ./inp_files/4235.got.cif
#   From: 2010.05.17/outbox.cif.g08.bks.cpg/sg26_3_cif.got.tgz:4235.got - 2010.06.04 01:07:29.
