data_PCOD9337390
_publ_section_title
;
Structure prediction by ZEFSAII (Michael W. Deem and Ramdas Pophale) SiO2 
 PCOD9337390
Probable space group: P M M 2
;
_chemical_formula_sum "Si O2"
_cell_formula_units_Z 32
_cell_length_a 8.894845
_cell_length_b 14.697664
_cell_length_c 15.928925
_cell_angle_alpha 90.000000
_cell_angle_beta 90.000000
_cell_angle_gamma 90.000000
_cell_volume 2082.443211
_symmetry_space_group_name_H-M "P M M 2"
_symmetry_group_IT_number 25
_symmetry_cell_setting 'orthorhombic'
loop_
_space_group_symop_operation_xyz
x,y,z
-x,-y,z
-x,y,z
x,-y,z
loop_
_atom_site_type_symbol
_atom_site_label
_atom_site_fract_x
_atom_site_fract_y
_atom_site_fract_z
Si Si1 0.321053 0.892963 0.243460
Si Si2 0.180846 0.603898 0.665310
Si Si3 0.826802 0.110369 0.069838
Si Si4 0.320122 0.784158 0.729620
Si Si5 0.819384 0.792046 0.400865
Si Si6 0.182556 0.399087 0.469039
Si Si7 0.181921 0.893783 0.883124
Si Si8 0.680740 0.893229 0.560524
O O1 0.500000 0.886494 0.250773
O O2 0.268700 0.863077 0.150726
O O3 0.243820 0.835284 0.316160
O O4 0.279318 0.000000 0.253396
O O5 0.217981 0.500000 0.689542
O O6 0.259667 0.682195 0.717908
O O7 0.223642 0.614869 0.566906
O O8 0.000000 0.613989 0.670447
O O9 0.000000 0.139545 0.081078
O O10 0.827312 0.000000 0.067189
O O11 0.772798 0.137754 0.977040
O O12 0.500000 0.784758 0.735230
O O13 0.250734 0.833433 0.810102
O O14 0.276673 0.840248 0.645483
O O15 0.768635 0.687573 0.415510
O O16 0.760272 0.849189 0.480384
O O17 0.000000 0.794536 0.399822
O O18 0.234635 0.500000 0.442980
O O19 0.000000 0.400491 0.467116
O O20 0.000000 0.890432 0.880503
O O21 0.225721 0.000000 0.872106
O O22 0.500000 0.885253 0.550022
O O23 0.717147 0.000000 0.567662
#
# Coordination Sequence:
#
# PCOD9337390 Si02
#       8
#     4   4   4   4   4   4   4   4
#     4  10  20  32  46  66  96 130 157 186 230 283
#     4   9  17  32  52  69  89 120 159 203 245 283
#     4   8  15  30  50  70  91 117 155 201 238 268
#     4  11  21  31  46  69  98 129 160 195 236 286
#     4  11  20  30  48  70  90 118 158 198 233 274
#     4   8  15  29  48  68  89 114 149 196 242 278
#     4   9  18  32  50  71  96 126 160 199 238 278
#     4  10  21  34  43  57  91 133 163 188 223 268
#
# _framework density 15.366564
#
# number of rings (size 3 to 8) (size 9 to 14) (size 15 to 20)
#    0.000    2.500    1.250    3.375    0.000    4.500 
#    0.000    1.250    0.000    1.500    0.000    0.875 
#    0.000    3.000    0.000    0.000    0.000    0.000 
#
# Total GULP energy -178394.306061 kJ/mol
# GULP energy per Si atom -5574.822064 kJ/mol
# Density = 1.533159 g / cm^3
# Si number density = 15.366564 Si / 1000 Ang^3
#
#
#
# Elastic Constant Matrix: (Units=GPa)
#
#
# Indices 1 2 3 4 5 6 
#
# 1 27.5989 37.0685 42.6793 0.0000 0.0000 0.0000
# 2 37.0685 112.0406 74.1614 0.0000 0.0000 0.0000
# 3 42.6793 74.1614 134.8483 0.0000 0.0000 0.0000
# 4 0.0000 0.0000 0.0000 6.6542 0.0000 0.0000
# 5 0.0000 0.0000 0.0000 0.0000 23.6660 0.0000
# 6 0.0000 0.0000 0.0000 0.0000 0.0000 15.5954
#
#
#
# Elastic Compliance Matrix: (Units=1/GPa)
#
#
# Indices 1 2 3 4 5 6 
#
# 1 0.086982 -0.016598 -0.018402 0.000000 0.000000 0.000000
# 2 -0.016598 0.017201 -0.004207 0.000000 0.000000 0.000000
# 3 -0.018402 -0.004207 0.015554 0.000000 0.000000 0.000000
# 4 0.000000 0.000000 0.000000 0.150281 0.000000 0.000000
# 5 0.000000 0.000000 0.000000 0.000000 0.042255 0.000000
# 6 0.000000 0.000000 0.000000 0.000000 0.000000 0.064121
#
#
# Mechanical properties :
#
#
# Convention : Reuss Voigt Hill
#
# Bulk Modulus (GPa) = 24.19862 64.70068 44.44965
# Shear Modulus (GPa) = 10.67050 17.22170 13.94610
#
# Velocity S-wave (km/s) = 2.63800 3.35136 3.01584
# Velocity P-wave (km/s) = 5.00605 7.56120 6.41218
#
# Compressibility (1/GPa) = 0.04132467
#
# Stress axis : x y z
#
# Youngs Moduli (GPa) = 11.49657 58.13525 64.29416
#
# Poissons Ratio (x) = 0.96491 1.18313
# Poissons Ratio (y) = 0.19082 0.27048
# Poissons Ratio (z) = 0.21156 0.24457
#
# Static dielectric constant tensor:
#      x y z
#    x 1.514260 0.000000 0.000000 
#    y 0.000000 1.506610 0.000000 
#    z 0.000000 0.000000 1.496900 
# 
# From -- ./inp_files/5693.got.cif
#   From: 2010.05.17/outbox.cif.g08.bks.cpg/sg25_3_cif.got.tgz:5693.got - 2010.06.04 01:04:00.
