data_PCOD9337543
_publ_section_title
;
Structure prediction by ZEFSAII (Michael W. Deem and Ramdas Pophale) SiO2 
 PCOD9337543
Probable space group: P M M 2
;
_chemical_formula_sum "Si O2"
_cell_formula_units_Z 32
_cell_length_a 7.428865
_cell_length_b 17.604542
_cell_length_c 11.359060
_cell_angle_alpha 90.000000
_cell_angle_beta 90.000000
_cell_angle_gamma 90.000000
_cell_volume 1485.557926
_symmetry_space_group_name_H-M "P M M 2"
_symmetry_group_IT_number 25
_symmetry_cell_setting 'orthorhombic'
loop_
_space_group_symop_operation_xyz
x,y,z
-x,-y,z
-x,y,z
x,-y,z
loop_
_atom_site_type_symbol
_atom_site_label
_atom_site_fract_x
_atom_site_fract_y
_atom_site_fract_z
Si Si1 0.793076 0.585233 0.614200
Si Si2 0.220252 0.086151 0.660173
Si Si3 0.282718 0.418130 0.886729
Si Si4 0.217678 0.918344 0.184492
Si Si5 0.718667 0.274839 0.030467
Si Si6 0.207614 0.115492 0.925099
Si Si7 0.203861 0.751580 0.551839
Si Si8 0.703269 0.237685 0.287910
O O1 0.718678 0.500000 0.581454
O O2 0.791110 0.586309 0.755544
O O3 0.712677 0.668412 0.581883
O O4 0.000000 0.585671 0.570768
O O5 0.279789 0.094142 0.797279
O O6 0.277756 0.165748 0.596045
O O7 0.000000 0.086710 0.655147
O O8 0.273266 0.000000 0.619399
O O9 0.500000 0.413185 0.875994
O O10 0.236882 0.500000 0.937456
O O11 0.222352 0.351091 0.969114
O O12 0.299291 0.851425 0.258813
O O13 0.000000 0.907909 0.181975
O O14 0.257118 0.000000 0.235829
O O15 0.282552 0.915473 0.048725
O O16 0.500000 0.270200 0.034345
O O17 0.782019 0.205241 0.949870
O O18 0.781092 0.269729 0.165529
O O19 0.000000 0.090824 0.921864
O O20 0.199956 0.752247 0.410665
O O21 0.000000 0.748980 0.601047
O O22 0.500000 0.266878 0.302422
#
# Coordination Sequence:
#
# PCOD9337543 Si02
#       8
#     4   4   4   4   4   4   4   4
#     4   9  18  33  53  77 103 128 157 198 248 299
#     4   9  17  29  47  72  99 125 156 196 239 284
#     4   9  17  30  50  75 100 124 152 189 236 295
#     4   9  17  30  50  74  97 123 158 201 247 295
#     4   9  18  32  48  68  96 127 156 192 243 292
#     4   9  16  28  49  74  96 120 154 195 239 290
#     4  10  20  34  51  70  95 131 170 205 244 288
#     4  10  21  35  49  67  94 129 168 207 244 284
#
# _framework density 21.540728000000001
#
# number of rings (size 3 to 8) (size 9 to 14) (size 15 to 20)
#    0.000    2.750    0.000    1.500    0.000    4.750 
#    0.000    2.500    0.000    2.625    0.000    0.000 
#    0.000    0.000    0.000    0.000    0.000    0.000 
#
# Total GULP energy -178249.771800 kJ/mol
# GULP energy per Si atom -5570.305369 kJ/mol
# Density = 2.149170 g / cm^3
# Si number density = 21.540728 Si / 1000 Ang^3
#
#
#
# Elastic Constant Matrix: (Units=GPa)
#
#
# Indices 1 2 3 4 5 6 
#
# 1 65.2941 6.0989 0.1438 0.0000 0.0000 0.0000
# 2 6.0989 205.6012 63.3944 0.0000 0.0000 0.0000
# 3 0.1438 63.3944 67.1713 0.0000 0.0000 0.0000
# 4 0.0000 0.0000 0.0000 -22.1916 0.0000 0.0000
# 5 0.0000 0.0000 0.0000 0.0000 16.9821 0.0000
# 6 0.0000 0.0000 0.0000 0.0000 0.0000 -1.7900
#
#
#
# Elastic Compliance Matrix: (Units=1/GPa)
#
#
# Indices 1 2 3 4 5 6 
#
# 1 0.015373 -0.000629 0.000561 0.000000 0.000000 0.000000
# 2 -0.000629 0.006886 -0.006497 0.000000 0.000000 0.000000
# 3 0.000561 -0.006497 0.021018 0.000000 0.000000 0.000000
# 4 0.000000 0.000000 0.000000 -0.045062 0.000000 0.000000
# 5 0.000000 0.000000 0.000000 0.000000 0.058885 0.000000
# 6 0.000000 0.000000 0.000000 0.000000 0.000000 -0.558656
#
#
# Mechanical properties :
#
#
# Convention : Reuss Voigt Hill
#
# Bulk Modulus (GPa) = 33.17233 53.03785 43.10509
# Shear Modulus (GPa) = -10.45202 16.49539 3.02169
#
# Velocity S-wave (km/s) = -2.20516 2.77027 1.18567
# Velocity P-wave (km/s) = 2.99159 5.90831 4.68282
#
# Compressibility (1/GPa) = 0.03014560
#
# Stress axis : x y z
#
# Youngs Moduli (GPa) = 65.04981 145.22663 47.57810
#
# Poissons Ratio (x) = 0.09133 -0.02667
# Poissons Ratio (y) = 0.04091 0.30913
# Poissons Ratio (z) = -0.03647 0.94358
#
# Static dielectric constant tensor:
#      x y z
#    x 1.839510 0.000000 0.000000 
#    y 0.000000 1.834550 0.000000 
#    z 0.000000 0.000000 1.728880 
# 
# From -- ./inp_files/4414.got.cif
#   From: 2010.05.17/outbox.cif.g08.bks.cpg/sg25_3_cif.got.tgz:4414.got - 2010.06.04 01:04:00.
