data_PCOD9337519
_publ_section_title
;
Structure prediction by ZEFSAII (Michael W. Deem and Ramdas Pophale) SiO2 
 PCOD9337519
Probable space group: P M M 2
;
_chemical_formula_sum "Si O2"
_cell_formula_units_Z 26
_cell_length_a 7.204281
_cell_length_b 9.151596
_cell_length_c 18.318522
_cell_angle_alpha 90.000000
_cell_angle_beta 90.000000
_cell_angle_gamma 90.000000
_cell_volume 1207.752414
_symmetry_space_group_name_H-M "P M M 2"
_symmetry_group_IT_number 25
_symmetry_cell_setting 'orthorhombic'
loop_
_space_group_symop_operation_xyz
x,y,z
-x,-y,z
-x,y,z
x,-y,z
loop_
_atom_site_type_symbol
_atom_site_label
_atom_site_fract_x
_atom_site_fract_y
_atom_site_fract_z
Si Si1 0.774831 0.667463 0.688160
Si Si2 0.778945 0.175259 0.086657
Si Si3 0.773880 0.832223 0.542282
Si Si4 0.500000 0.266821 0.963349
Si Si5 0.226090 0.667119 0.396354
Si Si6 0.225238 0.167683 0.252109
Si Si7 0.777959 0.826288 0.837768
O O1 0.713901 0.500000 0.695392
O O2 0.714025 0.739530 0.612373
O O3 0.725954 0.763644 0.758467
O O4 0.000000 0.665722 0.686217
O O5 0.723858 0.211958 0.169925
O O6 0.000000 0.197422 0.078664
O O7 0.744431 0.000000 0.076206
O O8 0.660757 0.259042 0.027314
O O9 0.715418 0.761687 0.465879
O O10 0.000000 0.830766 0.542383
O O11 0.716523 0.000000 0.548355
O O12 0.338731 0.253193 0.899779
O O13 0.283024 0.500000 0.404702
O O14 0.286572 0.733619 0.319173
O O15 0.000000 0.669635 0.395902
O O16 0.000000 0.167671 0.252447
O O17 0.282942 0.000000 0.263697
O O18 0.000000 0.806836 0.847492
O O19 0.739229 0.000000 0.842740
#
# Coordination Sequence:
#
# PCOD9337519 Si02
#       7
#     4   4   4   2   4   4   4
#     4   9  17  30  47  67  97 138 178 215 260 314
#     4   9  17  29  47  73 104 137 175 220 268 317
#     4   9  15  23  39  66 100 135 172 215 260 306
#     4  12  21  32  53  80 107 136 173 220 273 324
#     4   9  15  22  36  62  96 133 173 213 253 303
#     4   8  14  25  40  60  91 130 168 208 256 306
#     4  10  20  33  51  77 107 137 173 219 268 317
#
# _framework density 21.527588999999999
#
# number of rings (size 3 to 8) (size 9 to 14) (size 15 to 20)
#    0.000    2.769    0.000    4.154    0.000    6.769 
#    0.000    0.385    0.000    1.846    0.000    5.385 
#    0.000    2.462    0.000    0.308    0.000    0.308 
#
# Total GULP energy -144759.086472 kJ/mol
# GULP energy per Si atom -5567.657172 kJ/mol
# Density = 2.147859 g / cm^3
# Si number density = 21.527589 Si / 1000 Ang^3
#
#
#
# Elastic Constant Matrix: (Units=GPa)
#
#
# Indices 1 2 3 4 5 6 
#
# 1 112.8748 2.3879 20.3115 0.0000 0.0000 0.0000
# 2 2.3879 32.9095 25.7835 0.0000 0.0000 0.0000
# 3 20.3115 25.7835 152.4315 0.0000 0.0000 0.0000
# 4 0.0000 0.0000 0.0000 -15.9034 0.0000 0.0000
# 5 0.0000 0.0000 0.0000 0.0000 -111.0192 0.0000
# 6 0.0000 0.0000 0.0000 0.0000 0.0000 -31.0203
#
#
#
# Elastic Compliance Matrix: (Units=1/GPa)
#
#
# Indices 1 2 3 4 5 6 
#
# 1 0.009080 0.000333 -0.001266 0.000000 0.000000 0.000000
# 2 0.000333 0.035041 -0.005971 0.000000 0.000000 0.000000
# 3 -0.001266 -0.005971 0.007739 0.000000 0.000000 0.000000
# 4 0.000000 0.000000 0.000000 -0.062880 0.000000 0.000000
# 5 0.000000 0.000000 0.000000 0.000000 -0.009007 0.000000
# 6 0.000000 0.000000 0.000000 0.000000 0.000000 -0.032237
#
#
# Mechanical properties :
#
#
# Convention : Reuss Voigt Hill
#
# Bulk Modulus (GPa) = 26.28060 43.90908 35.09484
# Shear Modulus (GPa) = -194.01145 -14.93972 -104.47558
#
# Velocity S-wave (km/s) = -9.50357 -2.63721 -6.97398
# Velocity P-wave (km/s) = 10.40142 3.34182 6.96497
#
# Compressibility (1/GPa) = 0.03805088
#
# Stress axis : x y z
#
# Youngs Moduli (GPa) = 110.12980 28.53834 129.21374
#
# Poissons Ratio (x) = -0.00951 0.16362
# Poissons Ratio (y) = -0.03670 0.77159
# Poissons Ratio (z) = 0.13946 0.17042
#
# Static dielectric constant tensor:
#      x y z
#    x 1.821750 0.000000 0.000000 
#    y 0.000000 1.747390 0.000000 
#    z 0.000000 0.000000 1.722860 
# 
# From -- ./inp_files/6101.got.cif
#   From: 2010.05.17/outbox.cif.g08.bks.cpg/sg25_4_cif.got.tgz:6101.got - 2010.06.04 01:04:00.
