data_PCOD9337839
_publ_section_title
;
Structure prediction by ZEFSAII (Michael W. Deem and Ramdas Pophale) SiO2 
 PCOD9337839
Probable space group: P M M 2
;
_chemical_formula_sum "Si O2"
_cell_formula_units_Z 32
_cell_length_a 7.446703
_cell_length_b 9.522889
_cell_length_c 21.868312
_cell_angle_alpha 90.000000
_cell_angle_beta 90.000000
_cell_angle_gamma 90.000000
_cell_volume 1550.772234
_symmetry_space_group_name_H-M "P M M 2"
_symmetry_group_IT_number 25
_symmetry_cell_setting 'orthorhombic'
loop_
_space_group_symop_operation_xyz
x,y,z
-x,-y,z
-x,y,z
x,-y,z
loop_
_atom_site_type_symbol
_atom_site_label
_atom_site_fract_x
_atom_site_fract_y
_atom_site_fract_z
Si Si1 0.786622 0.340884 0.240790
Si Si2 0.212120 0.339820 0.639765
Si Si3 0.715698 0.336267 0.505441
Si Si4 0.218827 0.837305 0.990322
Si Si5 0.219137 0.162091 0.126775
Si Si6 0.715517 0.662948 0.374068
Si Si7 0.780201 0.161500 0.754709
Si Si8 0.780603 0.661513 0.873350
O O1 0.713091 0.500000 0.241693
O O2 0.715869 0.253683 0.183542
O O3 0.761989 0.274661 0.308191
O O4 0.000000 0.351164 0.232221
O O5 0.286246 0.500000 0.641093
O O6 0.232263 0.278083 0.571433
O O7 0.281994 0.241461 0.693599
O O8 0.000000 0.352438 0.650570
O O9 0.500000 0.335491 0.504668
O O10 0.774762 0.500000 0.506245
O O11 0.777065 0.276472 0.439673
O O12 0.278445 0.738087 0.935473
O O13 0.000000 0.836715 0.989730
O O14 0.272593 0.000000 0.981028
O O15 0.274395 0.791941 0.058594
O O16 0.000000 0.165022 0.127273
O O17 0.271884 0.000000 0.134201
O O18 0.500000 0.659907 0.376233
O O19 0.778914 0.500000 0.372328
O O20 0.725317 0.248936 0.814375
O O21 0.000000 0.159885 0.754378
O O22 0.722159 0.000000 0.757020
O O23 0.722966 0.500000 0.869806
O O24 0.000000 0.661144 0.873647
#
# Coordination Sequence:
#
# PCOD9337839 Si02
#       8
#     4   4   4   4   4   4   4   4
#     4   9  16  24  37  59  82 102 130 170 206 233
#     4   9  16  25  39  60  82 102 129 168 206 235
#     4   8  14  25  41  60  81 105 132 162 199 243
#     4   8  13  21  32  46  67  99 136 165 191 233
#     4   8  14  24  36  50  73 106 137 163 197 242
#     4   8  14  25  40  58  81 107 132 160 199 245
#     4   9  16  25  36  50  73 106 137 163 196 240
#     4   9  15  21  31  49  73 101 133 168 202 234
#
# _framework density 20.634881
#
# number of rings (size 3 to 8) (size 9 to 14) (size 15 to 20)
#    0.000    3.500    0.000    2.250    0.000    4.000 
#    0.000    5.000    0.000    1.500    0.000    5.250 
#    0.000    1.000    0.000    9.750    0.000   11.750 
#
# Total GULP energy -178282.327895 kJ/mol
# GULP energy per Si atom -5571.322747 kJ/mol
# Density = 2.058792 g / cm^3
# Si number density = 20.634881 Si / 1000 Ang^3
#
#
#
# Elastic Constant Matrix: (Units=GPa)
#
#
# Indices 1 2 3 4 5 6 
#
# 1 60.0381 4.1982 3.3294 0.0000 0.0000 0.0000
# 2 4.1982 93.1748 111.6367 0.0000 0.0000 0.0000
# 3 3.3294 111.6367 261.2100 0.0000 0.0000 0.0000
# 4 0.0000 0.0000 0.0000 -30.5594 0.0000 0.0000
# 5 0.0000 0.0000 0.0000 0.0000 54.5457 0.0000
# 6 0.0000 0.0000 0.0000 0.0000 0.0000 -5.6278
#
#
#
# Elastic Compliance Matrix: (Units=1/GPa)
#
#
# Indices 1 2 3 4 5 6 
#
# 1 0.016715 -0.001020 0.000223 0.000000 0.000000 0.000000
# 2 -0.001020 0.022058 -0.009414 0.000000 0.000000 0.000000
# 3 0.000223 -0.009414 0.007849 0.000000 0.000000 0.000000
# 4 0.000000 0.000000 0.000000 -0.032723 0.000000 0.000000
# 5 0.000000 0.000000 0.000000 0.000000 0.018333 0.000000
# 6 0.000000 0.000000 0.000000 0.000000 0.000000 -0.177690
#
#
# Mechanical properties :
#
#
# Convention : Reuss Voigt Hill
#
# Bulk Modulus (GPa) = 38.16939 72.52794 55.34867
# Shear Modulus (GPa) = -42.99155 23.35563 -9.81796
#
# Velocity S-wave (km/s) = -4.56942 3.36795 -2.18364
# Velocity P-wave (km/s) = 3.04989 7.09568 4.53028
#
# Compressibility (1/GPa) = 0.02619900
#
# Stress axis : x y z
#
# Youngs Moduli (GPa) = 59.82628 45.33480 127.40501
#
# Poissons Ratio (x) = 0.04626 -0.02842
# Poissons Ratio (y) = 0.06104 1.19942
# Poissons Ratio (z) = -0.01334 0.42679
#
# Static dielectric constant tensor:
#      x y z
#    x 1.790210 0.000000 0.000000 
#    y 0.000000 1.697310 0.000000 
#    z 0.000000 0.000000 1.765300 
# 
# From -- ./inp_files/6273.got.cif
#   From: 2010.05.17/outbox.cif.g08.bks.cpg/sg25_4_cif.got.tgz:6273.got - 2010.06.04 01:04:00.
