data_PCOD9337320
_publ_section_title
;
Structure prediction by ZEFSAII (Michael W. Deem and Ramdas Pophale) SiO2 
 PCOD9337320
Probable space group: P M M 2
;
_chemical_formula_sum "Si O2"
_cell_formula_units_Z 20
_cell_length_a 7.873147
_cell_length_b 13.893888
_cell_length_c 8.986968
_cell_angle_alpha 90.000000
_cell_angle_beta 90.000000
_cell_angle_gamma 90.000000
_cell_volume 983.072051
_symmetry_space_group_name_H-M "P M M 2"
_symmetry_group_IT_number 25
_symmetry_cell_setting 'orthorhombic'
loop_
_space_group_symop_operation_xyz
x,y,z
-x,-y,z
-x,y,z
x,-y,z
loop_
_atom_site_type_symbol
_atom_site_label
_atom_site_fract_x
_atom_site_fract_y
_atom_site_fract_z
Si Si1 0.297963 0.185840 0.153880
Si Si2 0.700303 0.397445 0.792971
Si Si3 0.305447 0.000000 0.657155
Si Si4 0.190743 0.000000 0.335674
Si Si5 0.203565 0.395060 0.139607
Si Si6 0.291353 0.808555 0.807715
O O1 0.500000 0.173324 0.157348
O O2 0.219890 0.096472 0.240984
O O3 0.257647 0.293849 0.211577
O O4 0.242237 0.182593 0.980922
O O5 0.500000 0.399337 0.757740
O O6 0.775596 0.500000 0.743036
O O7 0.769966 0.294102 0.744061
O O8 0.718710 0.394736 0.972920
O O9 0.306473 0.000000 0.480494
O O10 0.229734 0.098652 0.719441
O O11 0.500000 0.000000 0.713157
O O12 0.000000 0.000000 0.393571
O O13 0.250987 0.500000 0.206782
O O14 0.000000 0.393174 0.125341
O O15 0.500000 0.804749 0.803863
#
# Coordination Sequence:
#
# PCOD9337320 Si02
#       6
#     4   4   2   2   4   4
#     4  10  19  34  56  79 101 130 170 211 251 296
#     4   8  13  23  41  67  98 129 161 199 242 288
#     4  10  19  34  52  68  92 128 165 202 250 302
#     4  12  25  38  50  70 100 132 169 212 260 308
#     4   9  16  26  43  72 108 138 162 196 245 295
#     4   8  15  28  50  76  97 121 160 206 245 287
#
# _framework density 20.344387999999999
#
# number of rings (size 3 to 8) (size 9 to 14) (size 15 to 20)
#    0.000    2.800    0.000    3.900    0.000    2.800 
#    0.000    6.000    0.000    1.200    0.000    2.800 
#    0.000    0.000    0.000    0.000    0.000    0.000 
#
# Total GULP energy -111377.587274 kJ/mol
# GULP energy per Si atom -5568.879364 kJ/mol
# Density = 2.029808 g / cm^3
# Si number density = 20.344388 Si / 1000 Ang^3
#
#
#
# Elastic Constant Matrix: (Units=GPa)
#
#
# Indices 1 2 3 4 5 6 
#
# 1 33.9726 -0.3642 -6.5235 0.0000 0.0000 0.0000
# 2 -0.3642 242.4294 46.0348 0.0000 0.0000 0.0000
# 3 -6.5235 46.0348 26.4023 0.0000 0.0000 0.0000
# 4 0.0000 0.0000 0.0000 -8.6985 0.0000 0.0000
# 5 0.0000 0.0000 0.0000 0.0000 -58.5007 0.0000
# 6 0.0000 0.0000 0.0000 0.0000 0.0000 20.5470
#
#
#
# Elastic Compliance Matrix: (Units=1/GPa)
#
#
# Indices 1 2 3 4 5 6 
#
# 1 0.031632 -0.002148 0.011560 0.000000 0.000000 0.000000
# 2 -0.002148 0.006312 -0.011537 0.000000 0.000000 0.000000
# 3 0.011560 -0.011537 0.060848 0.000000 0.000000 0.000000
# 4 0.000000 0.000000 0.000000 -0.114962 0.000000 0.000000
# 5 0.000000 0.000000 0.000000 0.000000 -0.017094 0.000000
# 6 0.000000 0.000000 0.000000 0.000000 0.000000 0.048669
#
#
# Mechanical properties :
#
#
# Convention : Reuss Voigt Hill
#
# Bulk Modulus (GPa) = 10.57708 42.34426 26.46067
# Shear Modulus (GPa) = 97.71627 8.24670 52.98149
#
# Velocity S-wave (km/s) = 6.93796 2.01553 5.10870
# Velocity P-wave (km/s) = 8.33011 5.12595 6.91615
#
# Compressibility (1/GPa) = 0.09454407
#
# Stress axis : x y z
#
# Youngs Moduli (GPa) = 31.61325 158.41766 16.43449
#
# Poissons Ratio (x) = 0.34023 -0.18999
# Poissons Ratio (y) = 0.06790 0.18960
# Poissons Ratio (z) = -0.36546 1.82766
#
# Static dielectric constant tensor:
#      x y z
#    x 1.720220 0.000000 0.000000 
#    y 0.000000 1.810540 0.000000 
#    z 0.000000 0.000000 1.663380 
# 
# From -- ./inp_files/1870.got.cif
#   From: 2010.05.17/outbox.cif.g08.bks.cpg/sg25_1_cif.got.tgz:1870.got - 2010.06.04 01:04:00.
