data_PCOD9337066
_publ_section_title
;
Structure prediction by ZEFSAII (Michael W. Deem and Ramdas Pophale) SiO2 
 PCOD9337066
Probable space group: I 21 21 21
;
_chemical_formula_sum "Si O2"
_cell_formula_units_Z 24
_cell_length_a 30.000000
_cell_length_b 9.000000
_cell_length_c 9.000000
_cell_angle_alpha 90.000000
_cell_angle_beta 90.000000
_cell_angle_gamma 90.000000
_cell_volume 2430.000000
_symmetry_space_group_name_H-M "I 21 21 21"
_symmetry_group_IT_number 24
_symmetry_cell_setting 'orthorhombic'
loop_
_space_group_symop_operation_xyz
x,y,z
-x,1/2-y,z
x,-y,1/2-z
1/2-x,y,-z
1/2+x,1/2+y,1/2+z
1/2-x,-y,1/2+z
1/2+x,1/2-y,-z
-x,1/2+y,1/2-z
loop_
_atom_site_type_symbol
_atom_site_label
_atom_site_fract_x
_atom_site_fract_y
_atom_site_fract_z
Si Si1 0.951480 0.924417 0.909319
Si Si2 0.373180 0.560236 0.592527
Si Si3 0.048447 0.069260 0.587674
Si Si4 0.777518 0.621172 0.357080
Si Si5 0.125498 0.081452 0.096017
Si Si6 0.780759 0.110681 0.363771
O O1 0.946049 0.746800 0.903075
O O2 0.999577 0.956538 0.986041
O O3 0.955102 0.000000 0.750000
O O4 0.907794 0.995156 0.977913
O O5 0.389599 0.500000 0.750000
O O6 0.375542 0.738916 0.590704
O O7 0.324161 0.482178 0.580806
O O8 0.046174 0.000000 0.750000
O O9 0.090201 0.989751 0.513609
O O10 0.754207 0.500000 0.250000
O O11 0.750000 0.674274 0.500000
O O12 0.822101 0.547418 0.424691
O O13 0.791706 0.750392 0.242063
O O14 0.114245 0.000000 0.250000
O O15 0.750000 0.154453 0.500000
O O16 0.755751 0.000000 0.250000
#
# Coordination Sequence:
#
# PCOD9337066 Si02
#       6
#     8   8   8   8   8   8
#     4  10  22  41  65  93 127 166 214 264 322 394
#     4  11  22  40  62  93 124 168 217 263 325 384
#     4  10  22  41  64  93 129 168 208 266 327 385
#     4  11  24  44  66  96 132 175 223 276 336 397
#     4  11  23  40  65  89 127 167 212 270 325 384
#     4  11  23  42  66  94 133 177 224 278 328 393
#
# _framework density 9.8765429999999999
#
# number of rings (size 3 to 8) (size 9 to 14) (size 15 to 20)
#    0.000    1.333    3.333    3.000    2.333    4.000 
#    3.000    0.000    0.000    0.000    0.000    0.000 
#    0.000    0.000    0.000    0.000    0.000    0.000 
#
# Total GULP energy -133642.218269 kJ/mol
# GULP energy per Si atom -5568.425761 kJ/mol
# Density = 0.985406 g / cm^3
# Si number density = 9.876543 Si / 1000 Ang^3
#
#
#
# Elastic Constant Matrix: (Units=GPa)
#
#
# Indices 1 2 3 4 5 6 
#
# 1 111.9017 54.4053 82.8594 0.0000 0.0000 0.0000
# 2 54.4053 117.7366 31.7637 0.0000 0.0000 0.0000
# 3 82.8594 31.7637 81.1280 0.0000 0.0000 0.0000
# 4 0.0000 0.0000 0.0000 33.9493 0.0000 0.0000
# 5 0.0000 0.0000 0.0000 0.0000 49.2123 0.0000
# 6 0.0000 0.0000 0.0000 0.0000 0.0000 29.9783
#
#
#
# Elastic Compliance Matrix: (Units=1/GPa)
#
#
# Indices 1 2 3 4 5 6 
#
# 1 0.044067 -0.009192 -0.041409 0.000000 0.000000 0.000000
# 2 -0.009192 0.011414 0.004919 0.000000 0.000000 0.000000
# 3 -0.041409 0.004919 0.052693 0.000000 0.000000 0.000000
# 4 0.000000 0.000000 0.000000 0.029456 0.000000 0.000000
# 5 0.000000 0.000000 0.000000 0.000000 0.020320 0.000000
# 6 0.000000 0.000000 0.000000 0.000000 0.000000 0.033357
#
#
# Mechanical properties :
#
#
# Convention : Reuss Voigt Hill
#
# Bulk Modulus (GPa) = 59.48534 72.09144 65.78839
# Shear Modulus (GPa) = 17.34466 32.07717 24.71092
#
# Velocity S-wave (km/s) = 2.96645 4.03414 3.54077
# Velocity P-wave (km/s) = 6.47402 7.63378 7.07769
#
# Compressibility (1/GPa) = 0.01681087
#
# Stress axis : x y z
#
# Youngs Moduli (GPa) = 22.69273 87.61292 18.97795
#
# Poissons Ratio (x) = 0.80530 0.78585
# Poissons Ratio (y) = 0.20858 -0.09335
# Poissons Ratio (z) = 0.93968 -0.43096
#
# Static dielectric constant tensor:
#      x y z
#    x 1.731420 0.000000 0.000000 
#    y 0.000000 1.721010 0.000000 
#    z 0.000000 0.000000 1.649020 
# 
# From -- ./inp_files/16832.got.cif
#   From: 2010.05.17/outbox.ucp.g08.bks.cvg/sg24_9_cif.got.tgz:16832.got - 2010.06.11 15:20:44.
