data_PCOD9337703
_publ_section_title
;
Structure prediction by ZEFSAII (Michael W. Deem and Ramdas Pophale) SiO2 
 PCOD9337703
Probable space group: P M M 2
;
_chemical_formula_sum "Si O2"
_cell_formula_units_Z 32
_cell_length_a 17.830622
_cell_length_b 16.547026
_cell_length_c 5.053629
_cell_angle_alpha 90.000000
_cell_angle_beta 90.000000
_cell_angle_gamma 90.000000
_cell_volume 1491.041731
_symmetry_space_group_name_H-M "P M M 2"
_symmetry_group_IT_number 25
_symmetry_cell_setting 'orthorhombic'
loop_
_space_group_symop_operation_xyz
x,y,z
-x,-y,z
-x,y,z
x,-y,z
loop_
_atom_site_type_symbol
_atom_site_label
_atom_site_fract_x
_atom_site_fract_y
_atom_site_fract_z
Si Si1 0.816912 0.810266 0.592340
Si Si2 0.662495 0.094235 0.629960
Si Si3 0.085761 0.775716 0.074988
Si Si4 0.590422 0.172978 0.142358
Si Si5 0.419268 0.408070 0.782242
Si Si6 0.123559 0.589387 0.113396
Si Si7 0.787090 0.374476 0.624143
Si Si8 0.645628 0.654440 0.295270
O O1 0.747631 0.871721 0.598675
O O2 0.858272 0.799988 0.311680
O O3 0.783726 0.721946 0.658693
O O4 0.880970 0.818666 0.814996
O O5 0.615566 0.108470 0.362193
O O6 0.665545 0.000000 0.696785
O O7 0.619061 0.143030 0.858443
O O8 0.086608 0.676757 0.045254
O O9 0.000000 0.798745 0.128165
O O10 0.500000 0.187464 0.142833
O O11 0.640390 0.251727 0.218675
O O12 0.500000 0.396891 0.915442
O O13 0.412658 0.500000 0.694334
O O14 0.416375 0.354500 0.522565
O O15 0.362914 0.388522 0.015453
O O16 0.087612 0.500000 0.084455
O O17 0.148060 0.599684 0.418343
O O18 0.193085 0.589420 0.906909
O O19 0.712545 0.388348 0.456834
#
# Coordination Sequence:
#
# PCOD9337703 Si02
#       8
#     4   4   4   4   4   4   4   4
#     4  10  21  41  64  91 127 161 213 258 300 385
#     4  12  26  45  71  98 129 171 211 260 337 404
#     4  10  21  38  66  96 127 173 213 256 315 373
#     4  12  26  43  67  98 132 170 217 272 329 400
#     4  11  24  39  54  78 113 155 208 269 324 373
#     4  10  21  35  54  87 129 165 209 261 310 363
#     4  10  21  35  57  81 114 162 208 258 300 362
#     4  12  23  39  62  84 117 163 217 263 325 381
#
# _framework density 21.461506
#
# number of rings (size 3 to 8) (size 9 to 14) (size 15 to 20)
#    0.000    1.125    1.250    5.250    3.500    5.750 
#    0.000    0.000    0.000    6.750    0.000    0.000 
#    0.000    0.000    0.000    0.000    0.000    0.000 
#
# Total GULP energy -178522.766931 kJ/mol
# GULP energy per Si atom -5578.836467 kJ/mol
# Density = 2.141266 g / cm^3
# Si number density = 21.461506 Si / 1000 Ang^3
#
#
#
# Elastic Constant Matrix: (Units=GPa)
#
#
# Indices 1 2 3 4 5 6 
#
# 1 84.9191 11.6327 13.1517 0.0000 0.0000 0.0000
# 2 11.6327 45.1020 13.3396 0.0000 0.0000 0.0000
# 3 13.1517 13.3396 95.9584 0.0000 0.0000 0.0000
# 4 0.0000 0.0000 0.0000 13.2216 0.0000 0.0000
# 5 0.0000 0.0000 0.0000 0.0000 21.1793 0.0000
# 6 0.0000 0.0000 0.0000 0.0000 0.0000 -22.1148
#
#
#
# Elastic Compliance Matrix: (Units=1/GPa)
#
#
# Indices 1 2 3 4 5 6 
#
# 1 0.012362 -0.002802 -0.001305 0.000000 0.000000 0.000000
# 2 -0.002802 0.023758 -0.002919 0.000000 0.000000 0.000000
# 3 -0.001305 -0.002919 0.011006 0.000000 0.000000 0.000000
# 4 0.000000 0.000000 0.000000 0.075634 0.000000 0.000000
# 5 0.000000 0.000000 0.000000 0.000000 0.047216 0.000000
# 6 0.000000 0.000000 0.000000 0.000000 0.000000 -0.045219
#
#
# Mechanical properties :
#
#
# Convention : Reuss Voigt Hill
#
# Bulk Modulus (GPa) = 30.23520 33.58084 31.90802
# Shear Modulus (GPa) = 33.37048 14.98092 24.17570
#
# Velocity S-wave (km/s) = 3.94750 2.64491 3.35993
# Velocity P-wave (km/s) = 5.90726 5.00083 5.47284
#
# Compressibility (1/GPa) = 0.03307403
#
# Stress axis : x y z
#
# Youngs Moduli (GPa) = 80.89391 42.09110 90.86178
#
# Poissons Ratio (x) = 0.11796 0.11855
# Poissons Ratio (y) = 0.22670 0.26519
# Poissons Ratio (z) = 0.10554 0.12285
#
# Static dielectric constant tensor:
#      x y z
#    x 1.874480 0.000000 0.000000 
#    y 0.000000 1.784690 0.000000 
#    z 0.000000 0.000000 1.767980 
# 
# From -- ./inp_files/1155.got.cif
#   From: 2010.05.17/outbox.cif.g08.bks.cpg/sg25_1_cif.got.tgz:1155.got - 2010.06.04 01:04:00.
