data_PCOD9337848
_publ_section_title
;
Structure prediction by ZEFSAII (Michael W. Deem and Ramdas Pophale) SiO2 
 PCOD9337848
Probable space group: P M M 2
;
_chemical_formula_sum "Si O2"
_cell_formula_units_Z 32
_cell_length_a 7.443380
_cell_length_b 9.449183
_cell_length_c 21.947465
_cell_angle_alpha 90.000000
_cell_angle_beta 90.000000
_cell_angle_gamma 90.000000
_cell_volume 1543.649925
_symmetry_space_group_name_H-M "P M M 2"
_symmetry_group_IT_number 25
_symmetry_cell_setting 'orthorhombic'
loop_
_space_group_symop_operation_xyz
x,y,z
-x,-y,z
-x,y,z
x,-y,z
loop_
_atom_site_type_symbol
_atom_site_label
_atom_site_fract_x
_atom_site_fract_y
_atom_site_fract_z
Si Si1 0.286456 0.660691 0.512400
Si Si2 0.219074 0.665341 0.778046
Si Si3 0.212753 0.838520 0.131184
Si Si4 0.784652 0.663220 0.644990
Si Si5 0.219546 0.837115 0.896227
Si Si6 0.719386 0.164831 0.397072
Si Si7 0.780129 0.662684 0.015407
Si Si8 0.284451 0.836303 0.264631
O O1 0.500000 0.650496 0.503986
O O2 0.213336 0.500000 0.512970
O O3 0.261019 0.727560 0.579489
O O4 0.215667 0.748888 0.455365
O O5 0.271127 0.500000 0.784437
O O6 0.276049 0.719075 0.710835
O O7 0.279319 0.759007 0.834614
O O8 0.000000 0.666670 0.778958
O O9 0.235876 0.775080 0.198937
O O10 0.000000 0.850525 0.121398
O O11 0.286303 0.000000 0.129973
O O12 0.281916 0.742045 0.076545
O O13 0.719441 0.500000 0.642581
O O14 0.000000 0.659923 0.647362
O O15 0.275124 0.749742 0.955728
O O16 0.000000 0.836887 0.895830
O O17 0.276643 0.000000 0.898876
O O18 0.500000 0.167368 0.397944
O O19 0.775598 0.221901 0.330254
O O20 0.770913 0.000000 0.401219
O O21 0.722393 0.500000 0.013025
O O22 0.000000 0.661674 0.015709
O O23 0.500000 0.838394 0.266392
O O24 0.221062 0.000000 0.262932
#
# Coordination Sequence:
#
# PCOD9337848 Si02
#       8
#     4   4   4   4   4   4   4   4
#     4   9  16  26  42  63  82 101 132 172 204 231
#     4   8  13  22  36  52  71  99 133 163 193 235
#     4   9  16  26  41  61  83 105 131 166 204 237
#     4   8  14  25  40  57  80 110 137 160 195 245
#     4   9  15  22  34  54  79 104 131 166 204 236
#     4   8  14  26  43  60  79 105 135 165 199 240
#     4   9  16  25  37  54  79 110 138 163 196 240
#     4   8  14  26  44  62  79 104 137 166 195 239
#
# _framework density 20.730089
#
# number of rings (size 3 to 8) (size 9 to 14) (size 15 to 20)
#    0.000    3.500    0.000    2.250    0.000    3.000 
#    0.000    1.875    0.000    3.000    0.000    0.875 
#    0.000    3.000    0.000    0.000    0.000    0.000 
#
# Total GULP energy -178275.814332 kJ/mol
# GULP energy per Si atom -5571.119198 kJ/mol
# Density = 2.068291 g / cm^3
# Si number density = 20.730089 Si / 1000 Ang^3
#
#
#
# Elastic Constant Matrix: (Units=GPa)
#
#
# Indices 1 2 3 4 5 6 
#
# 1 60.8569 3.8891 4.1264 0.0000 0.0000 0.0000
# 2 3.8891 92.2913 105.4584 0.0000 0.0000 0.0000
# 3 4.1264 105.4584 270.8561 0.0000 0.0000 0.0000
# 4 0.0000 0.0000 0.0000 35.8826 0.0000 0.0000
# 5 0.0000 0.0000 0.0000 0.0000 20.6370 0.0000
# 6 0.0000 0.0000 0.0000 0.0000 0.0000 -10.3422
#
#
#
# Elastic Compliance Matrix: (Units=1/GPa)
#
#
# Indices 1 2 3 4 5 6 
#
# 1 0.016477 -0.000734 0.000035 0.000000 0.000000 0.000000
# 2 -0.000734 0.019552 -0.007602 0.000000 0.000000 0.000000
# 3 0.000035 -0.007602 0.006651 0.000000 0.000000 0.000000
# 4 0.000000 0.000000 0.000000 0.027869 0.000000 0.000000
# 5 0.000000 0.000000 0.000000 0.000000 0.048457 0.000000
# 6 0.000000 0.000000 0.000000 0.000000 0.000000 -0.096692
#
#
# Mechanical properties :
#
#
# Convention : Reuss Voigt Hill
#
# Bulk Modulus (GPa) = 38.34605 72.32800 55.33703
# Shear Modulus (GPa) = 105.02467 29.93752 67.48110
#
# Velocity S-wave (km/s) = 7.12551 3.80433 5.71165
# Velocity P-wave (km/s) = 9.28629 7.36636 8.38148
#
# Compressibility (1/GPa) = 0.02607831
#
# Stress axis : x y z
#
# Youngs Moduli (GPa) = 60.69233 51.14518 150.35042
#
# Poissons Ratio (x) = 0.03754 -0.00523
# Poissons Ratio (y) = 0.04455 1.14289
# Poissons Ratio (z) = -0.00211 0.38878
#
# Static dielectric constant tensor:
#      x y z
#    x 1.805180 0.000000 0.000000 
#    y 0.000000 1.704660 0.000000 
#    z 0.000000 0.000000 1.772820 
# 
# From -- ./inp_files/6259.got.cif
#   From: 2010.05.17/outbox.cif.g08.bks.cpg/sg25_4_cif.got.tgz:6259.got - 2010.06.04 01:04:00.
