data_PCOD9337003
_publ_section_title
;
Structure prediction by ZEFSAII (Michael W. Deem and Ramdas Pophale) SiO2 
 PCOD9337003
Probable space group: I 21 21 21
;
_chemical_formula_sum "Si O2"
_cell_formula_units_Z 20
_cell_length_a 5.370523
_cell_length_b 10.896697
_cell_length_c 14.175991
_cell_angle_alpha 90.000000
_cell_angle_beta 90.000000
_cell_angle_gamma 90.000000
_cell_volume 829.592629
_symmetry_space_group_name_H-M "I 21 21 21"
_symmetry_group_IT_number 24
_symmetry_cell_setting 'orthorhombic'
loop_
_space_group_symop_operation_xyz
x,y,z
-x,1/2-y,z
x,-y,1/2-z
1/2-x,y,-z
1/2+x,1/2+y,1/2+z
1/2-x,-y,1/2+z
1/2+x,1/2-y,-z
-x,1/2+y,1/2-z
loop_
_atom_site_type_symbol
_atom_site_label
_atom_site_fract_x
_atom_site_fract_y
_atom_site_fract_z
Si Si1 0.000000 0.750000 0.160421
Si Si2 0.844090 0.124551 0.792443
Si Si3 0.250000 0.119967 0.500000
Si Si4 0.250000 0.459674 0.000000
O O1 0.895885 0.856011 0.226475
O O2 0.216689 0.796301 0.091621
O O3 0.000000 0.250000 0.783736
O O4 0.966863 0.000000 0.750000
O O5 0.765579 0.112221 0.901454
O O6 0.498944 0.039849 0.498967
#
# Coordination Sequence:
#
# PCOD9337003 Si02
#       4
#     4   8   4   4
#     4  12  28  48  84 120 172 226 292 346 426 512
#     4  12  29  52  83 125 170 230 278 359 427 516
#     4  12  27  53  82 124 166 234 282 352 414 524
#     4  12  29  53  86 122 176 216 290 354 436 500
#
# _framework density 24.108217
#
# number of rings (size 3 to 8) (size 9 to 14) (size 15 to 20)
#    0.000    0.000    4.000    3.600   11.200    1.600 
#    0.000    0.000    0.000    0.000    0.000    0.000 
#    0.000    0.000    0.000    0.000    0.000    0.000 
#
# Total GULP energy -56038.135794 kJ/mol
# GULP energy per Si atom -5603.813579 kJ/mol
# Density = 2.405335 g / cm^3
# Si number density = 24.108217 Si / 1000 Ang^3
#
#
#
# Elastic Constant Matrix: (Units=GPa)
#
#
# Indices 1 2 3 4 5 6 
#
# 1 139.4566 60.6343 54.7123 0.0000 0.0000 0.0000
# 2 60.6343 151.5106 83.2314 0.0000 0.0000 0.0000
# 3 54.7123 83.2314 248.6847 0.0000 0.0000 0.0000
# 4 0.0000 0.0000 0.0000 -88.9244 0.0000 0.0000
# 5 0.0000 0.0000 0.0000 0.0000 27.9495 0.0000
# 6 0.0000 0.0000 0.0000 0.0000 0.0000 22.0107
#
#
#
# Elastic Compliance Matrix: (Units=1/GPa)
#
#
# Indices 1 2 3 4 5 6 
#
# 1 0.008855 -0.003031 -0.000934 0.000000 0.000000 0.000000
# 2 -0.003031 0.009124 -0.002387 0.000000 0.000000 0.000000
# 3 -0.000934 -0.002387 0.005026 0.000000 0.000000 0.000000
# 4 0.000000 0.000000 0.000000 -0.011246 0.000000 0.000000
# 5 0.000000 0.000000 0.000000 0.000000 0.035779 0.000000
# 6 0.000000 0.000000 0.000000 0.000000 0.000000 0.045433
#
#
# Mechanical properties :
#
#
# Convention : Reuss Voigt Hill
#
# Bulk Modulus (GPa) = 97.07204 104.08978 100.58091
# Shear Modulus (GPa) = 45.82645 14.94541 30.38593
#
# Velocity S-wave (km/s) = 4.36462 2.49254 3.55406
# Velocity P-wave (km/s) = 8.10879 7.18007 7.65852
#
# Compressibility (1/GPa) = 0.01030163
#
# Stress axis : x y z
#
# Youngs Moduli (GPa) = 112.93379 109.59648 198.98510
#
# Poissons Ratio (x) = 0.33215 0.18581
# Poissons Ratio (y) = 0.34227 0.47498
# Poissons Ratio (z) = 0.10545 0.26161
#
# Static dielectric constant tensor:
#      x y z
#    x 2.181490 0.000000 0.000000 
#    y 0.000000 1.997030 0.000000 
#    z 0.000000 0.000000 1.906920 
# 
# From -- ./inp_files/1462.got.cif
#   From: 2010.05.17/outbox.cif.g08.bks.cpg/sg24_1_cif.got.tgz:1462.got - 2010.06.04 00:33:39.
