data_PCOD9337841
_publ_section_title
;
Structure prediction by ZEFSAII (Michael W. Deem and Ramdas Pophale) SiO2 
 PCOD9337841
Probable space group: P M M 2
;
_chemical_formula_sum "Si O2"
_cell_formula_units_Z 28
_cell_length_a 7.493800
_cell_length_b 9.553070
_cell_length_c 18.947088
_cell_angle_alpha 90.000000
_cell_angle_beta 90.000000
_cell_angle_gamma 90.000000
_cell_volume 1356.399217
_symmetry_space_group_name_H-M "P M M 2"
_symmetry_group_IT_number 25
_symmetry_cell_setting 'orthorhombic'
loop_
_space_group_symop_operation_xyz
x,y,z
-x,-y,z
-x,y,z
x,-y,z
loop_
_atom_site_type_symbol
_atom_site_label
_atom_site_fract_x
_atom_site_fract_y
_atom_site_fract_z
Si Si1 0.217531 0.337911 0.625000
Si Si2 0.218091 0.838920 0.490538
Si Si3 0.781518 0.661119 0.353958
Si Si4 0.211168 0.840071 0.221556
Si Si5 0.711632 0.840689 0.067158
Si Si6 0.782168 0.338496 0.782765
Si Si7 0.787626 0.841184 0.913934
O O1 0.271050 0.500000 0.613749
O O2 0.276777 0.237677 0.562199
O O3 0.272855 0.293708 0.703931
O O4 0.000000 0.337408 0.624309
O O5 0.272955 0.748796 0.422710
O O6 0.000000 0.839551 0.490863
O O7 0.275555 0.000000 0.486312
O O8 0.723753 0.500000 0.356600
O O9 0.719777 0.741469 0.283577
O O10 0.000000 0.659390 0.353575
O O11 0.234273 0.779934 0.142634
O O12 0.000000 0.851932 0.233491
O O13 0.284227 0.000000 0.223395
O O14 0.500000 0.849300 0.068411
O O15 0.787658 0.000000 0.066317
O O16 0.760117 0.776205 0.991700
O O17 0.729757 0.500000 0.791894
O O18 0.717599 0.245909 0.847838
O O19 0.000000 0.335498 0.783309
O O20 0.000000 0.850707 0.904576
O O21 0.715010 0.000000 0.914819
#
# Coordination Sequence:
#
# PCOD9337841 Si02
#       7
#     4   4   4   4   4   4   4
#     4   8  13  21  32  47  72 107 141 169 201 244
#     4   9  15  21  31  50  77 108 140 172 206 244
#     4   9  16  25  37  54  78 108 140 172 207 248
#     4   9  16  27  44  63  82 106 139 177 211 244
#     4   9  17  29  45  64  85 109 137 170 211 257
#     4   8  14  24  37  54  78 109 142 173 207 248
#     4   9  16  26  42  63  84 107 139 177 211 244
#
# _framework density 20.642892
#
# number of rings (size 3 to 8) (size 9 to 14) (size 15 to 20)
#    0.000    3.286    0.000    2.143    0.000    5.714 
#    0.000    3.571    0.000    5.143    0.000    0.000 
#    0.000    1.143    0.000   11.143    0.000   13.429 
#
# Total GULP energy -156110.933902 kJ/mol
# GULP energy per Si atom -5575.390496 kJ/mol
# Density = 2.059591 g / cm^3
# Si number density = 20.642892 Si / 1000 Ang^3
#
#
#
# Elastic Constant Matrix: (Units=GPa)
#
#
# Indices 1 2 3 4 5 6 
#
# 1 56.3304 4.7229 1.3083 0.0000 0.0000 0.0000
# 2 4.7229 116.8339 124.2610 0.0000 0.0000 0.0000
# 3 1.3083 124.2610 250.2688 0.0000 0.0000 0.0000
# 4 0.0000 0.0000 0.0000 26.0755 0.0000 0.0000
# 5 0.0000 0.0000 0.0000 0.0000 -41.4681 0.0000
# 6 0.0000 0.0000 0.0000 0.0000 0.0000 -6.0200
#
#
#
# Elastic Compliance Matrix: (Units=1/GPa)
#
#
# Indices 1 2 3 4 5 6 
#
# 1 0.017850 -0.001319 0.000561 0.000000 0.000000 0.000000
# 2 -0.001319 0.018234 -0.009046 0.000000 0.000000 0.000000
# 3 0.000561 -0.009046 0.008484 0.000000 0.000000 0.000000
# 4 0.000000 0.000000 0.000000 0.038350 0.000000 0.000000
# 5 0.000000 0.000000 0.000000 0.000000 -0.024115 0.000000
# 6 0.000000 0.000000 0.000000 0.000000 0.000000 -0.166114
#
#
# Mechanical properties :
#
#
# Convention : Reuss Voigt Hill
#
# Bulk Modulus (GPa) = 40.06263 76.00195 58.03229
# Shear Modulus (GPa) = -62.98594 15.26021 -23.86286
#
# Velocity S-wave (km/s) = -5.52977 2.72186 -3.40367
# Velocity P-wave (km/s) = 4.61753 6.83926 3.56748
#
# Compressibility (1/GPa) = 0.02496092
#
# Stress axis : x y z
#
# Youngs Moduli (GPa) = 56.02267 54.84255 117.86288
#
# Poissons Ratio (x) = 0.07232 -0.06617
# Poissons Ratio (y) = 0.07388 1.06624
# Poissons Ratio (z) = -0.03145 0.49613
#
# Static dielectric constant tensor:
#      x y z
#    x 1.762200 0.000000 0.000000 
#    y 0.000000 1.706200 0.000000 
#    z 0.000000 0.000000 1.742680 
# 
# From -- ./inp_files/6399.got.cif
#   From: 2010.05.17/outbox.cif.g08.bks.cpg/sg25_4_cif.got.tgz:6399.got - 2010.06.04 01:04:00.
