data_PCOD9337113
_publ_section_title
;
Structure prediction by ZEFSAII (Michael W. Deem and Ramdas Pophale) SiO2 
 PCOD9337113
Probable space group: P M M 2
;
_chemical_formula_sum "Si O2"
_cell_formula_units_Z 32
_cell_length_a 7.976651
_cell_length_b 14.855014
_cell_length_c 16.175729
_cell_angle_alpha 90.000000
_cell_angle_beta 90.000000
_cell_angle_gamma 90.000000
_cell_volume 1916.714899
_symmetry_space_group_name_H-M "P M M 2"
_symmetry_group_IT_number 25
_symmetry_cell_setting 'orthorhombic'
loop_
_space_group_symop_operation_xyz
x,y,z
-x,-y,z
-x,y,z
x,-y,z
loop_
_atom_site_type_symbol
_atom_site_label
_atom_site_fract_x
_atom_site_fract_y
_atom_site_fract_z
Si Si1 0.699339 0.897538 0.432080
Si Si2 0.797514 0.896623 0.071957
Si Si3 0.702459 0.212349 0.910500
Si Si4 0.800192 0.399142 0.659960
Si Si5 0.300617 0.400056 0.848364
Si Si6 0.805156 0.109091 0.251835
Si Si7 0.295081 0.896178 0.748225
Si Si8 0.702433 0.784471 0.587088
O O1 0.500000 0.904224 0.444597
O O2 0.726005 0.863498 0.338684
O O3 0.765161 0.832566 0.503805
O O4 0.768109 0.000000 0.438804
O O5 0.735549 0.863216 0.162137
O O6 0.000000 0.899901 0.077506
O O7 0.739403 0.000000 0.058044
O O8 0.749958 0.834208 0.995931
O O9 0.500000 0.214869 0.905993
O O10 0.766058 0.314395 0.898338
O O11 0.760352 0.152726 0.832279
O O12 0.746296 0.500000 0.634465
O O13 0.724222 0.381360 0.750815
O O14 0.752501 0.318785 0.599346
O O15 0.000000 0.399613 0.669527
O O16 0.500000 0.404323 0.863191
O O17 0.229796 0.500000 0.865368
O O18 0.000000 0.134592 0.255933
O O19 0.795478 0.000000 0.249476
O O20 0.500000 0.895920 0.748053
O O21 0.240374 0.840813 0.667560
O O22 0.241430 0.000000 0.745241
O O23 0.500000 0.787444 0.586931
#
# Coordination Sequence:
#
# PCOD9337113 Si02
#       8
#     4   4   4   4   4   4   4   4
#     4   9  17  28  45  70  95 118 148 186 223 259
#     4   9  18  31  45  63  90 123 154 184 221 264
#     4  10  18  28  44  67  89 116 152 186 222 263
#     4  10  20  32  46  65  88 114 148 192 233 262
#     4   9  17  31  49  66  86 114 149 187 227 271
#     4   8  15  29  46  62  85 119 153 184 223 267
#     4   9  16  26  40  60  89 121 150 177 208 253
#     4  10  18  30  46  65  90 122 153 180 218 266
#
# _framework density 16.695231
#
# number of rings (size 3 to 8) (size 9 to 14) (size 15 to 20)
#    0.000    2.750    1.250    1.875    0.000    4.500 
#    0.000    1.250    0.000    1.125    0.000    0.875 
#    0.000    3.000    0.000    0.000    0.000    0.000 
#
# Total GULP energy -178295.297028 kJ/mol
# GULP energy per Si atom -5571.728032 kJ/mol
# Density = 1.665723 g / cm^3
# Si number density = 16.695231 Si / 1000 Ang^3
#
#
#
# Elastic Constant Matrix: (Units=GPa)
#
#
# Indices 1 2 3 4 5 6 
#
# 1 9.6854 6.7719 4.8631 0.0000 0.0000 0.0000
# 2 6.7719 123.2018 81.6666 0.0000 0.0000 0.0000
# 3 4.8631 81.6666 139.8234 0.0000 0.0000 0.0000
# 4 0.0000 0.0000 0.0000 10.6639 0.0000 0.0000
# 5 0.0000 0.0000 0.0000 0.0000 32.3219 0.0000
# 6 0.0000 0.0000 0.0000 0.0000 0.0000 11.3034
#
#
#
# Elastic Compliance Matrix: (Units=1/GPa)
#
#
# Indices 1 2 3 4 5 6 
#
# 1 0.107393 -0.005592 -0.000469 0.000000 0.000000 0.000000
# 2 -0.005592 0.013536 -0.007711 0.000000 0.000000 0.000000
# 3 -0.000469 -0.007711 0.011672 0.000000 0.000000 0.000000
# 4 0.000000 0.000000 0.000000 0.093775 0.000000 0.000000
# 5 0.000000 0.000000 0.000000 0.000000 0.030939 0.000000
# 6 0.000000 0.000000 0.000000 0.000000 0.000000 0.088469
#
#
# Mechanical properties :
#
#
# Convention : Reuss Voigt Hill
#
# Bulk Modulus (GPa) = 9.51870 51.03486 30.27678
# Shear Modulus (GPa) = 12.24449 22.81844 17.53146
#
# Velocity S-wave (km/s) = 2.71110 3.70099 3.24402
# Velocity P-wave (km/s) = 3.93877 6.99271 5.67503
#
# Compressibility (1/GPa) = 0.10505635
#
# Stress axis : x y z
#
# Youngs Moduli (GPa) = 9.31157 73.87859 85.67416
#
# Poissons Ratio (x) = 0.41314 0.04018
# Poissons Ratio (y) = 0.05207 0.66066
# Poissons Ratio (z) = 0.00437 0.56970
#
# Static dielectric constant tensor:
#      x y z
#    x 1.601480 0.000000 0.000000 
#    y 0.000000 1.571770 0.000000 
#    z 0.000000 0.000000 1.561210 
# 
# From -- ./inp_files/5671.got.cif
#   From: 2010.05.17/outbox.cif.g08.bks.cpg/sg25_3_cif.got.tgz:5671.got - 2010.06.04 01:04:00.
