data_PCOD9337217
_publ_section_title
;
Structure prediction by ZEFSAII (Michael W. Deem and Ramdas Pophale) SiO2 
 PCOD9337217
Probable space group: P M M 2
;
_chemical_formula_sum "Si O2"
_cell_formula_units_Z 32
_cell_length_a 9.057371
_cell_length_b 14.695454
_cell_length_c 15.931416
_cell_angle_alpha 90.000000
_cell_angle_beta 90.000000
_cell_angle_gamma 90.000000
_cell_volume 2120.506182
_symmetry_space_group_name_H-M "P M M 2"
_symmetry_group_IT_number 25
_symmetry_cell_setting 'orthorhombic'
loop_
_space_group_symop_operation_xyz
x,y,z
-x,-y,z
-x,y,z
x,-y,z
loop_
_atom_site_type_symbol
_atom_site_label
_atom_site_fract_x
_atom_site_fract_y
_atom_site_fract_z
Si Si1 0.830144 0.610506 0.548990
Si Si2 0.676285 0.392574 0.375760
Si Si3 0.177207 0.897475 0.144007
Si Si4 0.177103 0.606682 0.048003
Si Si5 0.177576 0.709682 0.220987
Si Si6 0.677299 0.607253 0.721757
Si Si7 0.322350 0.898140 0.961866
Si Si8 0.321825 0.291628 0.891093
O O1 0.827581 0.500000 0.549885
O O2 0.743973 0.637481 0.464938
O O3 0.753218 0.638577 0.635701
O O4 0.000000 0.639881 0.545533
O O5 0.500000 0.384611 0.377936
O O6 0.712991 0.500000 0.363861
O O7 0.743768 0.335571 0.299749
O O8 0.218077 0.815100 0.205206
O O9 0.000000 0.892693 0.132388
O O10 0.214258 0.000000 0.172833
O O11 0.251988 0.883527 0.053517
O O12 0.214309 0.500000 0.052187
O O13 0.216258 0.656104 0.135221
O O14 0.000000 0.615115 0.038014
O O15 0.255055 0.653728 0.969356
O O16 0.000000 0.703169 0.231762
O O17 0.500000 0.614433 0.712685
O O18 0.711335 0.500000 0.735218
O O19 0.724683 0.664134 0.803105
O O20 0.500000 0.896413 0.970416
O O21 0.279933 0.814162 0.902757
O O22 0.279760 0.000000 0.933336
O O23 0.500000 0.298278 0.895069
#
# Coordination Sequence:
#
# PCOD9337217 Si02
#       8
#     4   4   4   4   4   4   4   4
#     4   9  17  30  48  68  89 115 147 185 229 272
#     4  10  20  32  47  68  93 121 153 188 225 268
#     4   9  17  30  48  67  87 115 152 192 232 271
#     4  10  20  31  42  60  90 125 157 188 222 261
#     4  10  19  31  46  65  91 122 154 188 227 270
#     4   9  17  29  44  63  89 119 150 185 224 267
#     4   9  17  29  45  65  89 117 151 193 235 270
#     4  10  19  30  45  65  90 122 157 189 225 270
#
# _framework density 15.090736
#
# number of rings (size 3 to 8) (size 9 to 14) (size 15 to 20)
#    0.000    2.500    1.250    1.500    0.000    5.000 
#    0.000    1.250    0.000    0.000    0.000    0.875 
#    0.000    3.000    0.000    0.000    0.000    0.000 
#
# Total GULP energy -178365.989458 kJ/mol
# GULP energy per Si atom -5573.937171 kJ/mol
# Density = 1.505639 g / cm^3
# Si number density = 15.090736 Si / 1000 Ang^3
#
#
#
# Elastic Constant Matrix: (Units=GPa)
#
#
# Indices 1 2 3 4 5 6 
#
# 1 26.7993 38.5058 47.8741 0.0000 0.0000 0.0000
# 2 38.5058 108.8684 78.8335 0.0000 0.0000 0.0000
# 3 47.8741 78.8335 147.7291 0.0000 0.0000 0.0000
# 4 0.0000 0.0000 0.0000 8.7143 0.0000 0.0000
# 5 0.0000 0.0000 0.0000 0.0000 55.3998 0.0000
# 6 0.0000 0.0000 0.0000 0.0000 0.0000 16.6864
#
#
#
# Elastic Compliance Matrix: (Units=1/GPa)
#
#
# Indices 1 2 3 4 5 6 
#
# 1 0.114011 -0.022117 -0.025145 0.000000 0.000000 0.000000
# 2 -0.022117 0.019260 -0.003111 0.000000 0.000000 0.000000
# 3 -0.025145 -0.003111 0.016578 0.000000 0.000000 0.000000
# 4 0.000000 0.000000 0.000000 0.114754 0.000000 0.000000
# 5 0.000000 0.000000 0.000000 0.000000 0.018051 0.000000
# 6 0.000000 0.000000 0.000000 0.000000 0.000000 0.059929
#
#
# Mechanical properties :
#
#
# Convention : Reuss Voigt Hill
#
# Bulk Modulus (GPa) = 20.36486 68.20264 44.28375
# Shear Modulus (GPa) = 10.87676 24.03898 17.45787
#
# Velocity S-wave (km/s) = 2.68760 3.99552 3.40495
# Velocity P-wave (km/s) = 4.81199 8.15958 6.69828
#
# Compressibility (1/GPa) = 0.04910419
#
# Stress axis : x y z
#
# Youngs Moduli (GPa) = 8.77111 51.91976 60.32189
#
# Poissons Ratio (x) = 1.14830 1.51678
# Poissons Ratio (y) = 0.19399 0.18765
# Poissons Ratio (z) = 0.22055 0.16151
#
# Static dielectric constant tensor:
#      x y z
#    x 1.505470 0.000000 0.000000 
#    y 0.000000 1.511590 0.000000 
#    z 0.000000 0.000000 1.468830 
# 
# From -- ./inp_files/5667.got.cif
#   From: 2010.05.17/outbox.cif.g08.bks.cpg/sg25_3_cif.got.tgz:5667.got - 2010.06.04 01:04:00.
