data_PCOD9337789
_publ_section_title
;
Structure prediction by ZEFSAII (Michael W. Deem and Ramdas Pophale) SiO2 
 PCOD9337789
Probable space group: P M M 2
;
_chemical_formula_sum "Si O2"
_cell_formula_units_Z 32
_cell_length_a 15.891594
_cell_length_b 18.343833
_cell_length_c 5.298899
_cell_angle_alpha 90.000000
_cell_angle_beta 90.000000
_cell_angle_gamma 90.000000
_cell_volume 1544.696601
_symmetry_space_group_name_H-M "P M M 2"
_symmetry_group_IT_number 25
_symmetry_cell_setting 'orthorhombic'
loop_
_space_group_symop_operation_xyz
x,y,z
-x,-y,z
-x,y,z
x,-y,z
loop_
_atom_site_type_symbol
_atom_site_label
_atom_site_fract_x
_atom_site_fract_y
_atom_site_fract_z
Si Si1 0.902332 0.879630 0.020530
Si Si2 0.909944 0.577154 0.750715
Si Si3 0.906042 0.289201 0.128185
Si Si4 0.196386 0.918870 0.526700
Si Si5 0.314891 0.780747 0.584694
Si Si6 0.763365 0.642513 0.477147
Si Si7 0.403353 0.416408 0.212781
Si Si8 0.404890 0.259632 0.062147
O O1 0.894138 0.791590 0.019635
O O2 0.849814 0.907411 0.259857
O O3 0.000000 0.897913 0.054230
O O4 0.868402 0.910438 0.758100
O O5 0.906418 0.500000 0.894612
O O6 0.827008 0.583848 0.587281
O O7 0.000000 0.576925 0.608980
O O8 0.911195 0.647959 0.921461
O O9 0.824924 0.313245 0.286735
O O10 0.000000 0.286989 0.256811
O O11 0.262536 0.854098 0.565428
O O12 0.233577 0.000000 0.533910
O O13 0.261679 0.708686 0.661797
O O14 0.381648 0.782921 0.809445
O O15 0.349930 0.761410 0.306489
O O16 0.677698 0.603325 0.384984
O O17 0.500000 0.412349 0.323335
O O18 0.394325 0.500000 0.119609
O O19 0.400247 0.347739 0.021667
O O20 0.500000 0.243348 0.134839
#
# Coordination Sequence:
#
# PCOD9337789 Si02
#       8
#     4   4   4   4   4   4   4   4
#     4  11  24  42  65  93 130 175 221 267 318 388
#     4  10  22  37  55  85 123 164 220 280 329 379
#     4  10  22  39  60  86 122 168 219 274 324 381
#     4  12  25  42  66  97 134 170 209 265 330 389
#     4  11  23  40  67  94 129 160 216 262 315 399
#     4  11  21  36  64  85 118 168 216 263 325 390
#     4   9  20  38  59  90 127 162 208 267 328 386
#     4  10  22  42  68  95 126 171 214 265 321 386
#
# _framework density 20.716042000000002
#
# number of rings (size 3 to 8) (size 9 to 14) (size 15 to 20)
#    0.000    1.500    1.250    3.375    5.250    3.000 
#    0.000    3.750    0.000   11.250    0.000    0.000 
#    0.000    0.000    0.000    0.000    0.000    0.000 
#
# Total GULP energy -178409.754368 kJ/mol
# GULP energy per Si atom -5575.304824 kJ/mol
# Density = 2.066889 g / cm^3
# Si number density = 20.716042 Si / 1000 Ang^3
#
#
#
# Elastic Constant Matrix: (Units=GPa)
#
#
# Indices 1 2 3 4 5 6 
#
# 1 125.0555 41.7303 12.3679 0.0000 0.0000 0.0000
# 2 41.7303 133.0858 16.4400 0.0000 0.0000 0.0000
# 3 12.3679 16.4400 42.1328 0.0000 0.0000 0.0000
# 4 0.0000 0.0000 0.0000 -5.9332 0.0000 0.0000
# 5 0.0000 0.0000 0.0000 0.0000 39.9170 0.0000
# 6 0.0000 0.0000 0.0000 0.0000 0.0000 35.0544
#
#
#
# Elastic Compliance Matrix: (Units=1/GPa)
#
#
# Indices 1 2 3 4 5 6 
#
# 1 0.009036 -0.002632 -0.001625 0.000000 0.000000 0.000000
# 2 -0.002632 0.008661 -0.002607 0.000000 0.000000 0.000000
# 3 -0.001625 -0.002607 0.025229 0.000000 0.000000 0.000000
# 4 0.000000 0.000000 0.000000 -0.168544 0.000000 0.000000
# 5 0.000000 0.000000 0.000000 0.000000 0.025052 0.000000
# 6 0.000000 0.000000 0.000000 0.000000 0.000000 0.028527
#
#
# Mechanical properties :
#
#
# Convention : Reuss Voigt Hill
#
# Bulk Modulus (GPa) = 34.25046 49.03895 41.64471
# Shear Modulus (GPa) = -102.92709 29.12337 -36.90186
#
# Velocity S-wave (km/s) = -7.05639 3.75352 -4.22515
# Velocity P-wave (km/s) = 7.05839 6.51986 1.91212
#
# Compressibility (1/GPa) = 0.02919669
#
# Stress axis : x y z
#
# Youngs Moduli (GPa) = 110.67317 115.45477 39.63734
#
# Poissons Ratio (x) = 0.30393 0.06442
# Poissons Ratio (y) = 0.29134 0.10333
# Poissons Ratio (z) = 0.17987 0.30098
#
# Static dielectric constant tensor:
#      x y z
#    x 1.776660 0.000000 0.000000 
#    y 0.000000 1.712330 0.000000 
#    z 0.000000 0.000000 1.765730 
# 
# From -- ./inp_files/983.got.cif
#   From: 2010.05.17/outbox.cif.g08.bks.cpg/sg25_1_cif.got.tgz:983.got - 2010.06.04 01:04:00.
