data_PCOD9337660
_publ_section_title
;
Structure prediction by ZEFSAII (Michael W. Deem and Ramdas Pophale) SiO2 
 PCOD9337660
Probable space group: P M M 2
;
_chemical_formula_sum "Si O2"
_cell_formula_units_Z 24
_cell_length_a 12.735327
_cell_length_b 7.842890
_cell_length_c 14.432746
_cell_angle_alpha 90.000000
_cell_angle_beta 90.000000
_cell_angle_gamma 90.000000
_cell_volume 1441.568199
_symmetry_space_group_name_H-M "P M M 2"
_symmetry_group_IT_number 25
_symmetry_cell_setting 'orthorhombic'
loop_
_space_group_symop_operation_xyz
x,y,z
-x,-y,z
-x,y,z
x,-y,z
loop_
_atom_site_type_symbol
_atom_site_label
_atom_site_fract_x
_atom_site_fract_y
_atom_site_fract_z
Si Si1 0.119647 0.205980 0.700010
Si Si2 0.128100 0.804080 0.906819
Si Si3 0.733523 0.803369 0.332898
Si Si4 0.872859 0.500000 0.037922
Si Si5 0.277831 0.695470 0.540938
Si Si6 0.500000 0.203841 0.551529
Si Si7 0.500000 0.793547 0.337778
Si Si8 0.873238 0.500000 0.255622
O O1 0.158896 0.253111 0.802941
O O2 0.188762 0.267231 0.615190
O O3 0.000000 0.266846 0.690062
O O4 0.118322 0.000000 0.699141
O O5 0.000000 0.806431 0.905976
O O6 0.161601 0.000000 0.923206
O O7 0.163156 0.669152 0.983518
O O8 0.731140 0.800610 0.445586
O O9 0.615484 0.746823 0.300446
O O10 0.819498 0.668510 0.299019
O O11 0.752225 0.000000 0.303706
O O12 0.848179 0.500000 0.146062
O O13 0.000000 0.500000 0.031942
O O14 0.273806 0.500000 0.511754
O O15 0.389683 0.732559 0.589181
O O16 0.500000 0.265711 0.444517
O O17 0.500000 0.000000 0.552965
O O18 0.500000 0.000000 0.339032
O O19 0.000000 0.500000 0.268243
#
# Coordination Sequence:
#
# PCOD9337660 Si02
#       8
#     4   4   4   2   4   2   2   2
#     4   9  18  31  47  71 102 135 170 202 241 299
#     4   8  15  29  49  71  93 123 165 208 249 292
#     4  10  20  37  55  74 103 138 173 216 257 294
#     4   9  18  32  50  68  95 126 162 211 255 293
#     4  11  20  31  49  75 104 135 170 209 250 293
#     4   9  17  31  49  69  96 131 172 209 249 293
#     4   7  14  30  56  78  90 119 172 221 261 291
#     4  11  24  37  48  76 107 137 177 205 245 321
#
# _framework density 16.648536
#
# number of rings (size 3 to 8) (size 9 to 14) (size 15 to 20)
#    0.000    2.667    0.833    3.750    1.167    2.333 
#    0.000    1.667    0.000    0.000    0.000    2.333 
#    0.000    1.333    0.000    0.000    0.000    0.000 
#
# Total GULP energy -133635.631402 kJ/mol
# GULP energy per Si atom -5568.151308 kJ/mol
# Density = 1.661064 g / cm^3
# Si number density = 16.648536 Si / 1000 Ang^3
#
#
#
# Elastic Constant Matrix: (Units=GPa)
#
#
# Indices 1 2 3 4 5 6 
#
# 1 90.7533 35.4947 37.8376 0.0000 0.0000 0.0000
# 2 35.4947 82.5593 32.3456 0.0000 0.0000 0.0000
# 3 37.8376 32.3456 68.1033 0.0000 0.0000 0.0000
# 4 0.0000 0.0000 0.0000 13.0585 0.0000 0.0000
# 5 0.0000 0.0000 0.0000 0.0000 -3.9408 0.0000
# 6 0.0000 0.0000 0.0000 0.0000 0.0000 20.1731
#
#
#
# Elastic Compliance Matrix: (Units=1/GPa)
#
#
# Indices 1 2 3 4 5 6 
#
# 1 0.015347 -0.004002 -0.006626 0.000000 0.000000 0.000000
# 2 -0.004002 0.015925 -0.005340 0.000000 0.000000 0.000000
# 3 -0.006626 -0.005340 0.020901 0.000000 0.000000 0.000000
# 4 0.000000 0.000000 0.000000 0.076579 0.000000 0.000000
# 5 0.000000 0.000000 0.000000 0.000000 -0.253754 0.000000
# 6 0.000000 0.000000 0.000000 0.000000 0.000000 0.049571
#
#
# Mechanical properties :
#
#
# Convention : Reuss Voigt Hill
#
# Bulk Modulus (GPa) = 49.41419 50.30795 49.86107
# Shear Modulus (GPa) = -136.05541 14.90735 -60.57403
#
# Velocity S-wave (km/s) = -9.04984 2.99560 -6.03846
# Velocity P-wave (km/s) = 8.91371 6.49985 4.31313
#
# Compressibility (1/GPa) = 0.02023710
#
# Stress axis : x y z
#
# Youngs Moduli (GPa) = 65.16118 62.79297 47.84455
#
# Poissons Ratio (x) = 0.25130 0.31700
# Poissons Ratio (y) = 0.26078 0.25550
# Poissons Ratio (z) = 0.43173 0.33533
#
# Static dielectric constant tensor:
#      x y z
#    x 1.577860 0.000000 0.000000 
#    y 0.000000 1.594010 0.000000 
#    z 0.000000 0.000000 1.547520 
# 
# From -- ./inp_files/4575.got.cif
#   From: 2010.05.17/outbox.cif.g08.bks.cpg/sg25_3_cif.got.tgz:4575.got - 2010.06.04 01:04:00.
