data_PCOD9337453
_publ_section_title
;
Structure prediction by ZEFSAII (Michael W. Deem and Ramdas Pophale) SiO2 
 PCOD9337453
Probable space group: P M M 2
;
_chemical_formula_sum "Si O2"
_cell_formula_units_Z 28
_cell_length_a 9.028812
_cell_length_b 9.724351
_cell_length_c 18.367683
_cell_angle_alpha 90.000000
_cell_angle_beta 90.000000
_cell_angle_gamma 90.000000
_cell_volume 1612.670390
_symmetry_space_group_name_H-M "P M M 2"
_symmetry_group_IT_number 25
_symmetry_cell_setting 'orthorhombic'
loop_
_space_group_symop_operation_xyz
x,y,z
-x,-y,z
-x,y,z
x,-y,z
loop_
_atom_site_type_symbol
_atom_site_label
_atom_site_fract_x
_atom_site_fract_y
_atom_site_fract_z
Si Si1 0.821647 0.339867 0.360730
Si Si2 0.319799 0.342482 0.098639
Si Si3 0.823209 0.337838 0.528331
Si Si4 0.320839 0.840177 0.234986
Si Si5 0.823561 0.838140 0.806879
Si Si6 0.323896 0.162115 0.654269
Si Si7 0.323436 0.336522 0.933558
O O1 0.781350 0.500000 0.347148
O O2 0.782277 0.306304 0.444516
O O3 0.745136 0.240337 0.303535
O O4 0.000000 0.330222 0.354767
O O5 0.500000 0.343863 0.098208
O O6 0.272281 0.500000 0.113573
O O7 0.272295 0.238814 0.161534
O O8 0.275269 0.303680 0.016487
O O9 0.794818 0.500000 0.539898
O O10 0.738972 0.247679 0.587079
O O11 0.000000 0.316349 0.535489
O O12 0.500000 0.833970 0.238041
O O13 0.277303 0.000000 0.234262
O O14 0.751142 0.794981 0.730271
O O15 0.759995 0.750384 0.873149
O O16 0.000000 0.823683 0.802276
O O17 0.788373 0.000000 0.817607
O O18 0.500000 0.178677 0.659915
O O19 0.291093 0.000000 0.643751
O O20 0.500000 0.311014 0.928018
O O21 0.300536 0.500000 0.923342
#
# Coordination Sequence:
#
# PCOD9337453 Si02
#       7
#     4   4   4   4   4   4   4
#     4   9  19  36  55  74  99 134 174 211 250 300
#     4   8  15  30  51  73  99 133 171 209 251 300
#     4   9  19  36  56  77 101 131 169 211 254 301
#     4  10  20  32  49  77 108 135 168 210 254 301
#     4  10  21  36  53  74 102 137 174 208 247 299
#     4  10  21  36  54  77 104 134 169 208 251 300
#     4   9  18  33  54  79 103 129 167 213 257 302
#
# _framework density 17.362504999999999
#
# number of rings (size 3 to 8) (size 9 to 14) (size 15 to 20)
#    0.000    2.714    0.000    3.000    0.000    5.714 
#    0.000    6.429    0.000    0.857    0.000    0.000 
#    0.000    0.000    0.000    0.000    0.000    0.000 
#
# Total GULP energy -156184.418436 kJ/mol
# GULP energy per Si atom -5578.014944 kJ/mol
# Density = 1.732299 g / cm^3
# Si number density = 17.362505 Si / 1000 Ang^3
#
#
#
# Elastic Constant Matrix: (Units=GPa)
#
#
# Indices 1 2 3 4 5 6 
#
# 1 28.6984 46.8526 58.2502 0.0000 0.0000 0.0000
# 2 46.8526 97.7823 114.5755 0.0000 0.0000 0.0000
# 3 58.2502 114.5755 182.9951 0.0000 0.0000 0.0000
# 4 0.0000 0.0000 0.0000 101.8908 0.0000 0.0000
# 5 0.0000 0.0000 0.0000 0.0000 66.3148 0.0000
# 6 0.0000 0.0000 0.0000 0.0000 0.0000 28.8500
#
#
#
# Elastic Compliance Matrix: (Units=1/GPa)
#
#
# Indices 1 2 3 4 5 6 
#
# 1 0.166155 -0.066228 -0.011424 0.000000 0.000000 0.000000
# 2 -0.066228 0.064793 -0.019486 0.000000 0.000000 0.000000
# 3 -0.011424 -0.019486 0.021301 0.000000 0.000000 0.000000
# 4 0.000000 0.000000 0.000000 0.009814 0.000000 0.000000
# 5 0.000000 0.000000 0.000000 0.000000 0.015080 0.000000
# 6 0.000000 0.000000 0.000000 0.000000 0.000000 0.034662
#
#
# Mechanical properties :
#
#
# Convention : Reuss Voigt Hill
#
# Bulk Modulus (GPa) = 17.24917 83.20360 50.22638
# Shear Modulus (GPa) = 9.51647 45.39762 27.45704
#
# Velocity S-wave (km/s) = 2.34370 5.11895 3.98099
# Velocity P-wave (km/s) = 4.15695 9.10844 7.07969
#
# Compressibility (1/GPa) = 0.05797382
#
# Stress axis : x y z
#
# Youngs Moduli (GPa) = 6.01847 15.43387 46.94522
#
# Poissons Ratio (x) = 1.02215 0.53629
# Poissons Ratio (y) = 0.39859 0.91478
# Poissons Ratio (z) = 0.06875 0.30074
#
# Static dielectric constant tensor:
#      x y z
#    x 1.578630 0.000000 0.000000 
#    y 0.000000 1.573740 0.000000 
#    z 0.000000 0.000000 1.570540 
# 
# From -- ./inp_files/6024.got.cif
#   From: 2010.05.17/outbox.cif.g08.bks.cpg/sg25_4_cif.got.tgz:6024.got - 2010.06.04 01:04:00.
