data_PCOD9337396
_publ_section_title
;
Structure prediction by ZEFSAII (Michael W. Deem and Ramdas Pophale) SiO2 
 PCOD9337396
Probable space group: P M M 2
;
_chemical_formula_sum "Si O2"
_cell_formula_units_Z 32
_cell_length_a 8.865395
_cell_length_b 14.599471
_cell_length_c 16.012828
_cell_angle_alpha 90.000000
_cell_angle_beta 90.000000
_cell_angle_gamma 90.000000
_cell_volume 2072.541564
_symmetry_space_group_name_H-M "P M M 2"
_symmetry_group_IT_number 25
_symmetry_cell_setting 'orthorhombic'
loop_
_space_group_symop_operation_xyz
x,y,z
-x,-y,z
-x,y,z
x,-y,z
loop_
_atom_site_type_symbol
_atom_site_label
_atom_site_fract_x
_atom_site_fract_y
_atom_site_fract_z
Si Si1 0.180239 0.391385 0.923280
Si Si2 0.319499 0.706057 0.085294
Si Si3 0.325800 0.388783 0.417137
Si Si4 0.683854 0.605601 0.600663
Si Si5 0.179880 0.895264 0.827103
Si Si6 0.681201 0.714623 0.765327
Si Si7 0.319586 0.103077 0.010439
Si Si8 0.179622 0.607709 0.243532
O O1 0.210735 0.500000 0.919932
O O2 0.251428 0.341287 0.843406
O O3 0.000000 0.377691 0.923356
O O4 0.249249 0.348751 0.007318
O O5 0.500000 0.696294 0.083174
O O6 0.256451 0.665662 0.170902
O O7 0.281755 0.813238 0.071147
O O8 0.500000 0.359774 0.406880
O O9 0.325702 0.500000 0.420612
O O10 0.267938 0.360364 0.508771
O O11 0.232345 0.362396 0.335755
O O12 0.500000 0.604408 0.598047
O O13 0.732604 0.500000 0.612851
O O14 0.729115 0.666958 0.678846
O O15 0.260353 0.818008 0.773021
O O16 0.235781 0.883187 0.922500
O O17 0.000000 0.883545 0.824018
O O18 0.216636 0.000000 0.803027
O O19 0.500000 0.712441 0.770714
O O20 0.500000 0.107506 0.994434
O O21 0.285039 0.000000 0.040799
O O22 0.221784 0.500000 0.233610
O O23 0.000000 0.614084 0.236512
#
# Coordination Sequence:
#
# PCOD9337396 Si02
#       8
#     4   4   4   4   4   4   4   4
#     4  11  23  35  45  62  95 134 165 195 231 274
#     4  11  21  32  49  71  92 123 161 197 236 281
#     4   8  14  28  49  69  90 119 156 197 236 276
#     4   8  15  28  47  71  97 124 156 194 234 277
#     4  10  20  33  49  68  92 124 160 199 243 287
#     4  11  20  31  49  72  96 126 161 198 238 283
#     4   9  18  33  51  70  91 116 152 199 245 284
#     4  10  20  32  46  67  97 129 158 193 235 279
#
# _framework density 15.43998
#
# number of rings (size 3 to 8) (size 9 to 14) (size 15 to 20)
#    0.000    2.250    1.250    3.375    0.000    5.000 
#    0.000    1.250    0.000    3.000    0.000    0.875 
#    0.000    3.000    0.000    0.000    0.000    0.000 
#
# Total GULP energy -178459.001858 kJ/mol
# GULP energy per Si atom -5576.843808 kJ/mol
# Density = 1.540484 g / cm^3
# Si number density = 15.439980 Si / 1000 Ang^3
#
#
#
# Elastic Constant Matrix: (Units=GPa)
#
#
# Indices 1 2 3 4 5 6 
#
# 1 42.2315 46.2779 41.7908 0.0000 0.0000 0.0000
# 2 46.2779 105.2652 74.0084 0.0000 0.0000 0.0000
# 3 41.7908 74.0084 138.0643 0.0000 0.0000 0.0000
# 4 0.0000 0.0000 0.0000 7.3405 0.0000 0.0000
# 5 0.0000 0.0000 0.0000 0.0000 -22.9281 0.0000
# 6 0.0000 0.0000 0.0000 0.0000 0.0000 21.2111
#
#
#
# Elastic Compliance Matrix: (Units=1/GPa)
#
#
# Indices 1 2 3 4 5 6 
#
# 1 0.047868 -0.017424 -0.005149 0.000000 0.000000 0.000000
# 2 -0.017424 0.021588 -0.006298 0.000000 0.000000 0.000000
# 3 -0.005149 -0.006298 0.012178 0.000000 0.000000 0.000000
# 4 0.000000 0.000000 0.000000 0.136230 0.000000 0.000000
# 5 0.000000 0.000000 0.000000 0.000000 -0.043615 0.000000
# 6 0.000000 0.000000 0.000000 0.000000 0.000000 0.047145
#
#
# Mechanical properties :
#
#
# Convention : Reuss Voigt Hill
#
# Bulk Modulus (GPa) = 41.85654 67.74612 54.80133
# Shear Modulus (GPa) = 17.41552 9.35696 13.38624
#
# Velocity S-wave (km/s) = 3.36214 2.46442 2.94766
# Velocity P-wave (km/s) = 6.49923 7.21597 6.86696
#
# Compressibility (1/GPa) = 0.02389113
#
# Stress axis : x y z
#
# Youngs Moduli (GPa) = 20.89078 46.32242 82.11842
#
# Poissons Ratio (x) = 0.80713 0.42284
# Poissons Ratio (y) = 0.36400 0.51717
# Poissons Ratio (z) = 0.10757 0.29173
#
# Static dielectric constant tensor:
#      x y z
#    x 1.516350 0.000000 0.000000 
#    y 0.000000 1.515390 0.000000 
#    z 0.000000 0.000000 1.499400 
# 
# From -- ./inp_files/5686.got.cif
#   From: 2010.05.17/outbox.cif.g08.bks.cpg/sg25_3_cif.got.tgz:5686.got - 2010.06.04 01:04:00.
