data_PCOD9337649
_publ_section_title
;
Structure prediction by ZEFSAII (Michael W. Deem and Ramdas Pophale) SiO2 
 PCOD9337649
Probable space group: P M M 2
;
_chemical_formula_sum "Si O2"
_cell_formula_units_Z 32
_cell_length_a 7.871546
_cell_length_b 16.035925
_cell_length_c 12.237964
_cell_angle_alpha 90.000000
_cell_angle_beta 90.000000
_cell_angle_gamma 90.000000
_cell_volume 1544.767861
_symmetry_space_group_name_H-M "P M M 2"
_symmetry_group_IT_number 25
_symmetry_cell_setting 'orthorhombic'
loop_
_space_group_symop_operation_xyz
x,y,z
-x,-y,z
-x,y,z
x,-y,z
loop_
_atom_site_type_symbol
_atom_site_label
_atom_site_fract_x
_atom_site_fract_y
_atom_site_fract_z
Si Si1 0.200602 0.909052 0.040570
Si Si2 0.201963 0.091495 0.521608
Si Si3 0.792641 0.406569 0.513589
Si Si4 0.791718 0.749365 0.658250
Si Si5 0.199133 0.327222 0.285558
Si Si6 0.794473 0.251641 0.909434
Si Si7 0.694808 0.138828 0.279494
Si Si8 0.702490 0.593593 0.058915
O O1 0.219030 0.894643 0.169965
O O2 0.000000 0.911566 0.015617
O O3 0.273379 0.000000 0.011708
O O4 0.270684 0.828714 0.976877
O O5 0.268423 0.169564 0.591191
O O6 0.227844 0.108284 0.393243
O O7 0.000000 0.089128 0.541607
O O8 0.272423 0.000000 0.549626
O O9 0.733583 0.500000 0.538557
O O10 0.737031 0.334833 0.596855
O O11 0.743525 0.378868 0.391239
O O12 0.000000 0.407947 0.515766
O O13 0.738190 0.751115 0.783986
O O14 0.000000 0.749756 0.656079
O O15 0.292400 0.239096 0.277167
O O16 0.220256 0.378288 0.174518
O O17 0.000000 0.306875 0.301086
O O18 0.000000 0.248674 0.910381
O O19 0.745286 0.336664 0.969825
O O20 0.500000 0.112373 0.276588
O O21 0.500000 0.592580 0.072710
O O22 0.759586 0.500000 0.029677
#
# Coordination Sequence:
#
# PCOD9337649 Si02
#       8
#     4   4   4   4   4   4   4   4
#     4  10  21  37  57  83 115 150 191 239 289 341
#     4  10  20  36  59  85 115 151 189 233 286 342
#     4   9  17  30  53  84 114 141 173 224 282 329
#     4   9  18  34  55  84 115 144 188 239 283 326
#     4  11  20  35  60  86 114 147 189 236 285 343
#     4  10  21  37  60  85 112 152 198 242 284 335
#     4  12  23  35  56  85 117 151 188 232 288 351
#     4  11  24  40  58  84 120 156 189 232 288 346
#
# _framework density 20.715084999999998
#
# number of rings (size 3 to 8) (size 9 to 14) (size 15 to 20)
#    0.000    1.750    2.500    2.625    0.000    4.500 
#    0.000    4.375    0.000    0.000    0.000    1.750 
#    0.000    0.000    0.000    0.000    0.000    0.000 
#
# Total GULP energy -178803.127795 kJ/mol
# GULP energy per Si atom -5587.597744 kJ/mol
# Density = 2.066794 g / cm^3
# Si number density = 20.715085 Si / 1000 Ang^3
#
#
#
# Elastic Constant Matrix: (Units=GPa)
#
#
# Indices 1 2 3 4 5 6 
#
# 1 26.1907 0.2728 -7.4861 0.0000 0.0000 0.0000
# 2 0.2728 204.3143 80.7964 0.0000 0.0000 0.0000
# 3 -7.4861 80.7964 137.1548 0.0000 0.0000 0.0000
# 4 0.0000 0.0000 0.0000 -30.4060 0.0000 0.0000
# 5 0.0000 0.0000 0.0000 0.0000 -21.9998 0.0000
# 6 0.0000 0.0000 0.0000 0.0000 0.0000 29.0337
#
#
#
# Elastic Compliance Matrix: (Units=1/GPa)
#
#
# Indices 1 2 3 4 5 6 
#
# 1 0.038998 -0.001165 0.002815 0.000000 0.000000 0.000000
# 2 -0.001165 0.006416 -0.003843 0.000000 0.000000 0.000000
# 3 0.002815 -0.003843 0.009709 0.000000 0.000000 0.000000
# 4 0.000000 0.000000 0.000000 -0.032888 0.000000 0.000000
# 5 0.000000 0.000000 0.000000 0.000000 -0.045455 0.000000
# 6 0.000000 0.000000 0.000000 0.000000 0.000000 0.034443
#
#
# Mechanical properties :
#
#
# Convention : Reuss Voigt Hill
#
# Bulk Modulus (GPa) = 19.70987 57.20288 38.45637
# Shear Modulus (GPa) = 153.74885 14.93070 84.33977
#
# Velocity S-wave (km/s) = 8.62449 2.68762 6.38769
# Velocity P-wave (km/s) = 10.42647 6.10779 8.54448
#
# Compressibility (1/GPa) = 0.05073601
#
# Stress axis : x y z
#
# Youngs Moduli (GPa) = 25.64216 155.86746 103.00185
#
# Poissons Ratio (x) = 0.18163 -0.28995
# Poissons Ratio (y) = 0.02988 0.39584
# Poissons Ratio (z) = -0.07218 0.59900
#
# Static dielectric constant tensor:
#      x y z
#    x 1.744670 0.000000 0.000000 
#    y 0.000000 1.750340 0.000000 
#    z 0.000000 0.000000 1.695170 
# 
# From -- ./inp_files/4216.got.cif
#   From: 2010.05.17/outbox.cif.g08.bks.cpg/sg25_3_cif.got.tgz:4216.got - 2010.06.04 01:04:00.
