data_PCOD9337557
_publ_section_title
;
Structure prediction by ZEFSAII (Michael W. Deem and Ramdas Pophale) SiO2 
 PCOD9337557
Probable space group: P M M 2
;
_chemical_formula_sum "Si O2"
_cell_formula_units_Z 32
_cell_length_a 7.575343
_cell_length_b 14.617332
_cell_length_c 13.428542
_cell_angle_alpha 90.000000
_cell_angle_beta 90.000000
_cell_angle_gamma 90.000000
_cell_volume 1486.959962
_symmetry_space_group_name_H-M "P M M 2"
_symmetry_group_IT_number 25
_symmetry_cell_setting 'orthorhombic'
loop_
_space_group_symop_operation_xyz
x,y,z
-x,-y,z
-x,y,z
x,-y,z
loop_
_atom_site_type_symbol
_atom_site_label
_atom_site_fract_x
_atom_site_fract_y
_atom_site_fract_z
Si Si1 0.788432 0.604641 0.121190
Si Si2 0.282539 0.711000 0.535184
Si Si3 0.212773 0.285401 0.928818
Si Si4 0.289727 0.603607 0.729790
Si Si5 0.294778 0.102098 0.461636
Si Si6 0.201662 0.111238 0.240390
Si Si7 0.288673 0.395432 0.339273
Si Si8 0.216322 0.895748 0.021247
O O1 0.720530 0.500000 0.119635
O O2 0.750656 0.644825 0.230360
O O3 0.000000 0.600855 0.112489
O O4 0.722203 0.659896 0.026193
O O5 0.500000 0.712080 0.535289
O O6 0.222512 0.656722 0.632496
O O7 0.220439 0.815809 0.527290
O O8 0.224790 0.659855 0.434530
O O9 0.261260 0.337529 0.828764
O O10 0.270709 0.180235 0.941730
O O11 0.000000 0.284639 0.932941
O O12 0.500000 0.596015 0.716184
O O13 0.219362 0.500000 0.739230
O O14 0.500000 0.093934 0.487899
O O15 0.288858 0.133144 0.345579
O O16 0.215381 0.000000 0.468927
O O17 0.000000 0.143873 0.246349
O O18 0.200034 0.000000 0.236288
O O19 0.274886 0.136364 0.131999
O O20 0.500000 0.399735 0.347608
O O21 0.220261 0.500000 0.340896
O O22 0.000000 0.897705 0.025677
O O23 0.273787 0.000000 0.002778
#
# Coordination Sequence:
#
# PCOD9337557 Si02
#       8
#     4   4   4   4   4   4   4   4
#     4   9  18  31  46  69 102 132 156 193 250 307
#     4   9  18  33  52  72  96 128 166 205 250 299
#     4  10  20  34  54  77 102 134 171 210 257 306
#     4  10  21  38  58  76  96 128 173 221 263 307
#     4   9  17  29  46  70 100 132 164 198 243 299
#     4   8  14  26  45  69  98 132 167 201 235 279
#     4   9  17  30  49  71  94 123 160 200 242 293
#     4   8  15  29  49  73 102 137 174 206 243 298
#
# _framework density 21.520417999999999
#
# number of rings (size 3 to 8) (size 9 to 14) (size 15 to 20)
#    0.000    3.000    0.000    1.500    1.750    2.750 
#    0.000    3.750    0.000    3.375    0.000    0.000 
#    0.000    0.000    0.000    0.000    0.000    0.000 
#
# Total GULP energy -178537.207797 kJ/mol
# GULP energy per Si atom -5579.287744 kJ/mol
# Density = 2.147144 g / cm^3
# Si number density = 21.520418 Si / 1000 Ang^3
#
#
#
# Elastic Constant Matrix: (Units=GPa)
#
#
# Indices 1 2 3 4 5 6 
#
# 1 46.1447 6.1906 -0.8604 0.0000 0.0000 0.0000
# 2 6.1906 157.4049 107.0337 0.0000 0.0000 0.0000
# 3 -0.8604 107.0337 162.4967 0.0000 0.0000 0.0000
# 4 0.0000 0.0000 0.0000 36.2115 0.0000 0.0000
# 5 0.0000 0.0000 0.0000 0.0000 24.8937 0.0000
# 6 0.0000 0.0000 0.0000 0.0000 0.0000 5.3674
#
#
#
# Elastic Compliance Matrix: (Units=1/GPa)
#
#
# Indices 1 2 3 4 5 6 
#
# 1 0.021923 -0.001705 0.001239 0.000000 0.000000 0.000000
# 2 -0.001705 0.011640 -0.007676 0.000000 0.000000 0.000000
# 3 0.001239 -0.007676 0.011216 0.000000 0.000000 0.000000
# 4 0.000000 0.000000 0.000000 0.027616 0.000000 0.000000
# 5 0.000000 0.000000 0.000000 0.000000 0.040171 0.000000
# 6 0.000000 0.000000 0.000000 0.000000 0.000000 0.186312
#
#
# Mechanical properties :
#
#
# Convention : Reuss Voigt Hill
#
# Bulk Modulus (GPa) = 35.09307 65.64158 50.36732
# Shear Modulus (GPa) = 15.40081 30.20667 22.80374
#
# Velocity S-wave (km/s) = 2.67804 3.75057 3.25873
# Velocity P-wave (km/s) = 5.08968 7.02310 6.13305
#
# Compressibility (1/GPa) = 0.02849566
#
# Stress axis : x y z
#
# Youngs Moduli (GPa) = 45.61474 85.91409 89.15491
#
# Poissons Ratio (x) = 0.14645 -0.11045
# Poissons Ratio (y) = 0.07776 0.68433
# Poissons Ratio (z) = -0.05651 0.65946
#
# Static dielectric constant tensor:
#      x y z
#    x 1.865200 0.000000 0.000000 
#    y 0.000000 1.825490 0.000000 
#    z 0.000000 0.000000 1.745640 
# 
# From -- ./inp_files/4241.got.cif
#   From: 2010.05.17/outbox.cif.g08.bks.cpg/sg25_3_cif.got.tgz:4241.got - 2010.06.04 01:04:00.
