data_PCOD9337523
_publ_section_title
;
Structure prediction by ZEFSAII (Michael W. Deem and Ramdas Pophale) SiO2 
 PCOD9337523
Probable space group: P M M 2
;
_chemical_formula_sum "Si O2"
_cell_formula_units_Z 28
_cell_length_a 9.826747
_cell_length_b 8.444774
_cell_length_c 18.517107
_cell_angle_alpha 90.000000
_cell_angle_beta 90.000000
_cell_angle_gamma 90.000000
_cell_volume 1536.635784
_symmetry_space_group_name_H-M "P M M 2"
_symmetry_group_IT_number 25
_symmetry_cell_setting 'orthorhombic'
loop_
_space_group_symop_operation_xyz
x,y,z
-x,-y,z
-x,y,z
x,-y,z
loop_
_atom_site_type_symbol
_atom_site_label
_atom_site_fract_x
_atom_site_fract_y
_atom_site_fract_z
Si Si1 0.657339 0.191296 0.331130
Si Si2 0.156364 0.311004 0.043030
Si Si3 0.156919 0.191105 0.198504
Si Si4 0.342898 0.190995 0.914514
Si Si5 0.843625 0.808592 0.619198
Si Si6 0.343629 0.806934 0.750903
Si Si7 0.656921 0.310653 0.490097
O O1 0.500000 0.235418 0.317701
O O2 0.752152 0.245693 0.265551
O O3 0.696185 0.258122 0.409312
O O4 0.664525 0.000000 0.334824
O O5 0.155453 0.500000 0.045807
O O6 0.207113 0.247478 0.120295
O O7 0.000000 0.254210 0.034571
O O8 0.246111 0.256060 0.976128
O O9 0.000000 0.244104 0.206504
O O10 0.158080 0.000000 0.198600
O O11 0.500000 0.237209 0.927366
O O12 0.307338 0.241805 0.832630
O O13 0.336881 0.000000 0.916054
O O14 0.761088 0.752715 0.690024
O O15 0.758607 0.757557 0.549326
O O16 0.000000 0.753099 0.617787
O O17 0.845999 0.000000 0.621322
O O18 0.500000 0.758074 0.735648
O O19 0.343567 0.000000 0.750341
O O20 0.500000 0.255903 0.502603
O O21 0.658058 0.500000 0.494218
#
# Coordination Sequence:
#
# PCOD9337523 Si02
#       7
#     4   4   4   4   4   4   4
#     4   9  18  33  53  76 100 127 163 208 254 298
#     4  10  21  35  50  72 104 140 175 208 247 299
#     4   9  18  33  52  73  98 130 168 208 250 297
#     4   9  18  33  54  79 103 129 167 213 257 302
#     4  10  20  33  52  79 106 132 167 210 254 301
#     4   8  15  30  52  76 101 130 166 209 255 301
#     4  10  21  36  53  74 102 137 174 208 247 299
#
# _framework density 18.221623000000001
#
# number of rings (size 3 to 8) (size 9 to 14) (size 15 to 20)
#    0.000    2.714    0.000    2.143    0.000    5.143 
#    0.000    5.000    0.000    0.857    0.000    0.000 
#    0.000    0.000    0.000    0.000    0.000    0.000 
#
# Total GULP energy -156179.430245 kJ/mol
# GULP energy per Si atom -5577.836794 kJ/mol
# Density = 1.818015 g / cm^3
# Si number density = 18.221623 Si / 1000 Ang^3
#
#
#
# Elastic Constant Matrix: (Units=GPa)
#
#
# Indices 1 2 3 4 5 6 
#
# 1 112.1262 19.7467 124.3717 0.0000 0.0000 0.0000
# 2 19.7467 5.6101 22.1185 0.0000 0.0000 0.0000
# 3 124.3717 22.1185 193.8833 0.0000 0.0000 0.0000
# 4 0.0000 0.0000 0.0000 -28.2814 0.0000 0.0000
# 5 0.0000 0.0000 0.0000 0.0000 258.8782 0.0000
# 6 0.0000 0.0000 0.0000 0.0000 0.0000 15.9569
#
#
#
# Elastic Compliance Matrix: (Units=1/GPa)
#
#
# Indices 1 2 3 4 5 6 
#
# 1 0.044770 -0.080615 -0.019522 0.000000 0.000000 0.000000
# 2 -0.080615 0.469119 -0.001805 0.000000 0.000000 0.000000
# 3 -0.019522 -0.001805 0.017887 0.000000 0.000000 0.000000
# 4 0.000000 0.000000 0.000000 -0.035359 0.000000 0.000000
# 5 0.000000 0.000000 0.000000 0.000000 0.003863 0.000000
# 6 0.000000 0.000000 0.000000 0.000000 0.000000 0.062669
#
#
# Mechanical properties :
#
#
# Convention : Reuss Voigt Hill
#
# Bulk Modulus (GPa) = 3.04979 71.56595 37.30787
# Shear Modulus (GPa) = 5.70691 59.00292 32.35491
#
# Velocity S-wave (km/s) = 1.77165 5.69658 4.21840
# Velocity P-wave (km/s) = 2.42123 9.09003 6.65173
#
# Compressibility (1/GPa) = 0.32789108
#
# Stress axis : x y z
#
# Youngs Moduli (GPa) = 22.33630 2.13165 55.90713
#
# Poissons Ratio (x) = 0.17184 1.09144
# Poissons Ratio (y) = 1.80064 0.10092
# Poissons Ratio (z) = 0.43606 0.00385
#
# Static dielectric constant tensor:
#      x y z
#    x 1.618940 0.000000 0.000000 
#    y 0.000000 1.619880 0.000000 
#    z 0.000000 0.000000 1.601870 
# 
# From -- ./inp_files/6109.got.cif
#   From: 2010.05.17/outbox.cif.g08.bks.cpg/sg25_4_cif.got.tgz:6109.got - 2010.06.04 01:04:00.
