data_PCOD9337388
_publ_section_title
;
Structure prediction by ZEFSAII (Michael W. Deem and Ramdas Pophale) SiO2 
 PCOD9337388
Probable space group: P M M 2
;
_chemical_formula_sum "Si O2"
_cell_formula_units_Z 32
_cell_length_a 14.851269
_cell_length_b 8.192518
_cell_length_c 16.078029
_cell_angle_alpha 90.000000
_cell_angle_beta 90.000000
_cell_angle_gamma 90.000000
_cell_volume 1956.202351
_symmetry_space_group_name_H-M "P M M 2"
_symmetry_group_IT_number 25
_symmetry_cell_setting 'orthorhombic'
loop_
_space_group_symop_operation_xyz
x,y,z
-x,-y,z
-x,y,z
x,-y,z
loop_
_atom_site_type_symbol
_atom_site_label
_atom_site_fract_x
_atom_site_fract_y
_atom_site_fract_z
Si Si1 0.600244 0.694796 0.233320
Si Si2 0.895581 0.699854 0.461713
Si Si3 0.399179 0.806667 0.046246
Si Si4 0.780553 0.307025 0.976455
Si Si5 0.109143 0.688625 0.643816
Si Si6 0.896327 0.300552 0.134728
Si Si7 0.896672 0.192367 0.823738
Si Si8 0.212371 0.699899 0.299600
O O1 0.500000 0.761849 0.251167
O O2 0.596710 0.500000 0.245718
O O3 0.619243 0.724854 0.135722
O O4 0.685260 0.756980 0.285425
O O5 0.895544 0.500000 0.463878
O O6 0.862813 0.753976 0.553261
O O7 0.834288 0.752767 0.384992
O O8 0.000000 0.748677 0.449091
O O9 0.500000 0.755885 0.019509
O O10 0.400086 0.000000 0.059985
O O11 0.318998 0.765433 0.984066
O O12 0.771774 0.500000 0.987023
O O13 0.832022 0.271363 0.891319
O O14 0.840883 0.244619 0.053983
O O15 0.137485 0.500000 0.651323
O O16 0.133787 0.777681 0.728811
O O17 0.000000 0.690819 0.639858
O O18 0.896896 0.500000 0.133648
O O19 0.846714 0.250883 0.219567
O O20 0.000000 0.246924 0.132214
O O21 0.000000 0.255748 0.831828
O O22 0.898624 0.000000 0.839244
O O23 0.212935 0.500000 0.300021
#
# Coordination Sequence:
#
# PCOD9337388 Si02
#       8
#     4   4   4   4   4   4   4   4
#     4   9  16  27  43  63  87 115 151 192 230 269
#     4   8  13  21  37  62  89 113 142 185 229 267
#     4  10  20  33  48  65  87 117 153 193 234 274
#     4  11  20  31  47  68  92 120 153 190 229 270
#     4   8  14  26  43  63  85 111 147 190 230 266
#     4   9  16  24  36  59  90 120 149 178 212 257
#     4  10  20  32  46  66  93 124 154 187 229 275
#     4   9  14  22  37  61  89 117 147 182 225 268
#
# _framework density 16.358225999999998
#
# number of rings (size 3 to 8) (size 9 to 14) (size 15 to 20)
#    0.000    2.750    1.250    2.625    0.000    3.500 
#    0.000    0.000    0.000    0.750    0.000    0.875 
#    0.000    3.000    0.000    0.000    0.000    0.000 
#
# Total GULP energy -178300.400367 kJ/mol
# GULP energy per Si atom -5571.887511 kJ/mol
# Density = 1.632099 g / cm^3
# Si number density = 16.358226 Si / 1000 Ang^3
#
#
#
# Elastic Constant Matrix: (Units=GPa)
#
#
# Indices 1 2 3 4 5 6 
#
# 1 109.4377 6.0453 58.0088 0.0000 0.0000 0.0000
# 2 6.0453 7.6441 0.3100 0.0000 0.0000 0.0000
# 3 58.0088 0.3100 104.3624 0.0000 0.0000 0.0000
# 4 0.0000 0.0000 0.0000 -8.6481 0.0000 0.0000
# 5 0.0000 0.0000 0.0000 0.0000 9.8657 0.0000
# 6 0.0000 0.0000 0.0000 0.0000 0.0000 10.7980
#
#
#
# Elastic Compliance Matrix: (Units=1/GPa)
#
#
# Indices 1 2 3 4 5 6 
#
# 1 0.013759 -0.010572 -0.007616 0.000000 0.000000 0.000000
# 2 -0.010572 0.138959 0.005464 0.000000 0.000000 0.000000
# 3 -0.007616 0.005464 0.013799 0.000000 0.000000 0.000000
# 4 0.000000 0.000000 0.000000 -0.115632 0.000000 0.000000
# 5 0.000000 0.000000 0.000000 0.000000 0.101361 0.000000
# 6 0.000000 0.000000 0.000000 0.000000 0.000000 0.092610
#
#
# Mechanical properties :
#
#
# Convention : Reuss Voigt Hill
#
# Bulk Modulus (GPa) = 7.08882 38.90804 22.99843
# Shear Modulus (GPa) = 15.75664 12.87514 14.31589
#
# Velocity S-wave (km/s) = 3.10695 2.80853 2.96150
# Velocity P-wave (km/s) = 4.14895 5.86121 5.07777
#
# Compressibility (1/GPa) = 0.14106726
#
# Stress axis : x y z
#
# Youngs Moduli (GPa) = 72.68135 7.19638 72.46810
#
# Poissons Ratio (x) = 0.07608 0.55193
# Poissons Ratio (y) = 0.76839 -0.39594
# Poissons Ratio (z) = 0.55356 -0.03932
#
# Static dielectric constant tensor:
#      x y z
#    x 1.556490 0.000000 0.000000 
#    y 0.000000 1.571510 0.000000 
#    z 0.000000 0.000000 1.541640 
# 
# From -- ./inp_files/5737.got.cif
#   From: 2010.05.17/outbox.cif.g08.bks.cpg/sg25_3_cif.got.tgz:5737.got - 2010.06.04 01:04:00.
