data_PCOD9337249
_publ_section_title
;
Structure prediction by ZEFSAII (Michael W. Deem and Ramdas Pophale) SiO2 
 PCOD9337249
Probable space group: P M M 2
;
_chemical_formula_sum "Si O2"
_cell_formula_units_Z 32
_cell_length_a 7.677627
_cell_length_b 17.513409
_cell_length_c 11.554542
_cell_angle_alpha 90.000000
_cell_angle_beta 90.000000
_cell_angle_gamma 90.000000
_cell_volume 1553.640146
_symmetry_space_group_name_H-M "P M M 2"
_symmetry_group_IT_number 25
_symmetry_cell_setting 'orthorhombic'
loop_
_space_group_symop_operation_xyz
x,y,z
-x,-y,z
-x,y,z
x,-y,z
loop_
_atom_site_type_symbol
_atom_site_label
_atom_site_fract_x
_atom_site_fract_y
_atom_site_fract_z
Si Si1 0.290257 0.582781 0.160480
Si Si2 0.203640 0.585949 0.642611
Si Si3 0.301044 0.085698 0.601588
Si Si4 0.791792 0.256245 0.518952
Si Si5 0.701892 0.617327 0.903722
Si Si6 0.801345 0.737189 0.262647
Si Si7 0.208678 0.082904 0.865904
Si Si8 0.212168 0.225110 0.011491
O O1 0.500000 0.596434 0.158675
O O2 0.257596 0.500000 0.210131
O O3 0.200316 0.647625 0.233675
O O4 0.230765 0.584618 0.026181
O O5 0.276645 0.500000 0.614001
O O6 0.273674 0.666558 0.586659
O O7 0.214964 0.595332 0.782218
O O8 0.000000 0.582929 0.611356
O O9 0.500000 0.084353 0.561258
O O10 0.231205 0.169864 0.567317
O O11 0.292749 0.087203 0.740536
O O12 0.225010 0.000000 0.569457
O O13 0.719348 0.253099 0.388028
O O14 0.000000 0.267417 0.513195
O O15 0.500000 0.595428 0.894154
O O16 0.720284 0.706990 0.930570
O O17 0.723400 0.769802 0.143522
O O18 0.000000 0.766401 0.269707
O O19 0.000000 0.090905 0.847107
O O20 0.242117 0.000000 0.916563
O O21 0.265198 0.147651 0.952029
O O22 0.000000 0.231752 0.014297
#
# Coordination Sequence:
#
# PCOD9337249 Si02
#       8
#     4   4   4   4   4   4   4   4
#     4   9  18  32  49  70  97 128 162 204 254 303
#     4  10  21  35  50  71 102 138 173 211 257 307
#     4  10  21  36  55  80 107 134 168 211 256 303
#     4  10  21  37  55  75 102 138 177 215 255 299
#     4  10  19  31  49  73 100 129 164 207 254 304
#     4   9  19  34  51  72  97 128 169 210 246 292
#     4   9  17  30  50  75 102 130 158 194 246 306
#     4   9  17  31  50  73 101 130 162 202 250 303
#
# _framework density 20.596789999999999
#
# number of rings (size 3 to 8) (size 9 to 14) (size 15 to 20)
#    0.000    2.500    0.000    1.875    0.000    7.250 
#    0.000    1.875    0.000    2.250    0.000    1.750 
#    0.000    0.000    0.000    0.000    0.000    0.000 
#
# Total GULP energy -178161.119615 kJ/mol
# GULP energy per Si atom -5567.534988 kJ/mol
# Density = 2.054991 g / cm^3
# Si number density = 20.596790 Si / 1000 Ang^3
#
#
#
# Elastic Constant Matrix: (Units=GPa)
#
#
# Indices 1 2 3 4 5 6 
#
# 1 32.8973 9.6268 1.1243 0.0000 0.0000 0.0000
# 2 9.6268 162.7240 65.6521 0.0000 0.0000 0.0000
# 3 1.1243 65.6521 73.5430 0.0000 0.0000 0.0000
# 4 0.0000 0.0000 0.0000 -60.5870 0.0000 0.0000
# 5 0.0000 0.0000 0.0000 0.0000 82.7244 0.0000
# 6 0.0000 0.0000 0.0000 0.0000 0.0000 72.4536
#
#
#
# Elastic Compliance Matrix: (Units=1/GPa)
#
#
# Indices 1 2 3 4 5 6 
#
# 1 0.031089 -0.002575 0.001823 0.000000 0.000000 0.000000
# 2 -0.002575 0.009818 -0.008725 0.000000 0.000000 0.000000
# 3 0.001823 -0.008725 0.021359 0.000000 0.000000 0.000000
# 4 0.000000 0.000000 0.000000 -0.016505 0.000000 0.000000
# 5 0.000000 0.000000 0.000000 0.000000 0.012088 0.000000
# 6 0.000000 0.000000 0.000000 0.000000 0.000000 0.013802
#
#
# Mechanical properties :
#
#
# Convention : Reuss Voigt Hill
#
# Bulk Modulus (GPa) = 23.08832 46.88565 34.98698
# Shear Modulus (GPa) = 47.60044 31.76894 39.68469
#
# Velocity S-wave (km/s) = 4.81257 3.93163 4.39423
# Velocity P-wave (km/s) = 6.48961 6.58963 6.53981
#
# Compressibility (1/GPa) = 0.04331194
#
# Stress axis : x y z
#
# Youngs Moduli (GPa) = 32.16589 101.85464 46.81966
#
# Poissons Ratio (x) = 0.26226 -0.08537
# Poissons Ratio (y) = 0.08282 0.40851
# Poissons Ratio (z) = -0.05865 0.88869
#
# Static dielectric constant tensor:
#      x y z
#    x 1.687790 0.000000 0.000000 
#    y 0.000000 1.802240 0.000000 
#    z 0.000000 0.000000 1.712780 
# 
# From -- ./inp_files/4259.got.cif
#   From: 2010.05.17/outbox.cif.g08.bks.cpg/sg25_3_cif.got.tgz:4259.got - 2010.06.04 01:04:00.
