data_PCOD9337018
_publ_section_title
;
Structure prediction by ZEFSAII (Michael W. Deem and Ramdas Pophale) SiO2 
 PCOD9337018
Probable space group: I 21 21 21
;
_chemical_formula_sum "Si O2"
_cell_formula_units_Z 20
_cell_length_a 5.000753
_cell_length_b 15.586132
_cell_length_c 9.720072
_cell_angle_alpha 90.000000
_cell_angle_beta 90.000000
_cell_angle_gamma 90.000000
_cell_volume 757.605704
_symmetry_space_group_name_H-M "I 21 21 21"
_symmetry_group_IT_number 24
_symmetry_cell_setting 'orthorhombic'
loop_
_space_group_symop_operation_xyz
x,y,z
-x,1/2-y,z
x,-y,1/2-z
1/2-x,y,-z
1/2+x,1/2+y,1/2+z
1/2-x,-y,1/2+z
1/2+x,1/2-y,-z
-x,1/2+y,1/2-z
loop_
_atom_site_type_symbol
_atom_site_label
_atom_site_fract_x
_atom_site_fract_y
_atom_site_fract_z
Si Si1 0.171761 0.500000 0.750000
Si Si2 0.015067 0.372902 0.410016
Si Si3 0.172847 0.835402 0.659682
O O1 0.361791 0.464202 0.631253
O O2 0.993992 0.579577 0.699983
O O3 0.750000 0.380290 0.500000
O O4 0.922836 0.336209 0.263740
O O5 0.250000 0.327955 0.500000
O O6 0.250000 0.838008 0.500000
O O7 0.000000 0.750000 0.683738
#
# Coordination Sequence:
#
# PCOD9337018 Si02
#       3
#     4   8   8
#     4  12  30  56  92 132 190 252 300 388 462 578
#     4  12  29  55  89 132 178 246 310 376 460 554
#     4  12  33  58  94 139 191 245 315 387 470 559
#
# _framework density 26.398958
#
# number of rings (size 3 to 8) (size 9 to 14) (size 15 to 20)
#    0.000    0.000    4.000    1.200   16.800    0.000 
#    7.200    0.000    0.000    0.000    0.000    0.000 
#    0.000    0.000    0.000    0.000    0.000    0.000 
#
# Total GULP energy -56170.144398 kJ/mol
# GULP energy per Si atom -5617.014440 kJ/mol
# Density = 2.633887 g / cm^3
# Si number density = 26.398958 Si / 1000 Ang^3
#
#
#
# Elastic Constant Matrix: (Units=GPa)
#
#
# Indices 1 2 3 4 5 6 
#
# 1 215.5500 86.9168 115.6608 0.0000 0.0000 0.0000
# 2 86.9168 212.5956 58.0742 0.0004 0.0002 0.0001
# 3 115.6608 58.0742 254.9871 0.0003 0.0003 0.0000
# 4 0.0000 0.0004 0.0003 -24.0712 0.0004 0.0001
# 5 0.0000 0.0002 0.0003 0.0004 4.0237 0.0001
# 6 0.0000 0.0001 0.0000 0.0001 0.0001 57.6202
#
#
#
# Elastic Compliance Matrix: (Units=1/GPa)
#
#
# Indices 1 2 3 4 5 6 
#
# 1 0.006912 -0.002100 -0.002657 0.000000 0.000000 0.000000
# 2 -0.002100 0.005654 -0.000335 0.000000 0.000000 0.000000
# 3 -0.002657 -0.000335 0.005203 0.000000 0.000000 0.000000
# 4 0.000000 0.000000 0.000000 -0.041543 0.000004 0.000000
# 5 0.000000 0.000000 0.000000 0.000004 0.248529 0.000000
# 6 0.000000 0.000000 0.000000 0.000000 0.000000 0.017355
#
#
# Mechanical properties :
#
#
# Convention : Reuss Voigt Hill
#
# Bulk Modulus (GPa) = 131.84163 133.82626 132.83395
# Shear Modulus (GPa) = 19.62158 35.67992 27.65075
#
# Velocity S-wave (km/s) = 2.72926 3.68035 3.23990
# Velocity P-wave (km/s) = 7.74482 8.29842 8.02639
#
# Compressibility (1/GPa) = 0.00758486
#
# Stress axis : x y z
#
# Youngs Moduli (GPa) = 144.68231 176.86998 192.18870
#
# Poissons Ratio (x) = 0.37143 0.51061
# Poissons Ratio (y) = 0.30383 0.06441
# Poissons Ratio (z) = 0.38440 0.05928
#
# Static dielectric constant tensor:
#      x y z
#    x 2.192450 0.000000 0.000000 
#    y 0.000000 2.062970 0.000000 
#    z 0.000000 0.000000 2.069790 
# 
# From -- ./inp_files/8022.got.cif
#   From: 2010.05.17/outbox.cif.g08.bks.cpg/sg24_5_cif.got.tgz:8022.got - 2010.06.04 00:33:39.
