data_PCOD9337056
_publ_section_title
;
Structure prediction by ZEFSAII (Michael W. Deem and Ramdas Pophale) SiO2 
 PCOD9337056
Probable space group: I 21 21 21
;
_chemical_formula_sum "Si O2"
_cell_formula_units_Z 24
_cell_length_a 12.000000
_cell_length_b 24.000000
_cell_length_c 9.000000
_cell_angle_alpha 90.000000
_cell_angle_beta 90.000000
_cell_angle_gamma 90.000000
_cell_volume 2592.000000
_symmetry_space_group_name_H-M "I 21 21 21"
_symmetry_group_IT_number 24
_symmetry_cell_setting 'orthorhombic'
loop_
_space_group_symop_operation_xyz
x,y,z
-x,1/2-y,z
x,-y,1/2-z
1/2-x,y,-z
1/2+x,1/2+y,1/2+z
1/2-x,-y,1/2+z
1/2+x,1/2-y,-z
-x,1/2+y,1/2-z
loop_
_atom_site_type_symbol
_atom_site_label
_atom_site_fract_x
_atom_site_fract_y
_atom_site_fract_z
Si Si1 0.398429 0.857857 0.582217
Si Si2 0.688439 0.665061 0.247251
Si Si3 0.123852 0.662768 0.547957
Si Si4 0.000000 0.250000 0.745795
Si Si5 0.063682 0.014028 0.091955
Si Si6 0.750000 0.574682 0.000000
Si Si7 0.855482 0.036986 0.892326
O O1 0.363929 0.848477 0.409752
O O2 0.317512 0.824416 0.695725
O O3 0.530904 0.844082 0.583190
O O4 0.384315 0.924097 0.606291
O O5 0.599274 0.709951 0.178313
O O6 0.702161 0.614553 0.130604
O O7 0.250000 0.675718 0.500000
O O8 0.075814 0.709963 0.653342
O O9 0.128297 0.603155 0.631220
O O10 0.009695 0.000000 0.250000
O O11 0.154152 0.966932 0.057542
O O12 0.968897 0.016454 0.968667
O O13 0.834722 0.000000 0.750000
O O14 0.750000 0.031835 0.000000
#
# Coordination Sequence:
#
# PCOD9337056 Si02
#       7
#     8   8   8   4   8   4   8
#     4   9  19  36  58  88 124 148 202 251 295 363
#     4  10  21  38  58  83 115 159 200 254 298 361
#     4   9  20  35  59  91 118 154 202 249 298 360
#     4  10  22  36  64  80 120 156 208 250 308 350
#     4  11  22  34  57  93 126 160 195 243 311 381
#     4  12  24  34  62  86 126 160 196 244 326 364
#     4  10  22  40  64  89 126 163 203 249 304 371
#
# _framework density 9.2592590000000001
#
# number of rings (size 3 to 8) (size 9 to 14) (size 15 to 20)
#    0.000    2.000    1.667    1.500   11.667    0.000 
#    0.000    0.000    5.500    0.000    0.000    0.000 
#    0.000    0.000    0.000    0.000    0.000    0.000 
#
# Total GULP energy -133618.523544 kJ/mol
# GULP energy per Si atom -5567.438481 kJ/mol
# Density = 0.923818 g / cm^3
# Si number density = 9.259259 Si / 1000 Ang^3
#
#
#
# Elastic Constant Matrix: (Units=GPa)
#
#
# Indices 1 2 3 4 5 6 
#
# 1 136.5755 56.4073 11.9089 0.0000 0.0001 0.0001
# 2 56.4073 83.7431 20.0839 -0.0001 0.0000 0.0000
# 3 11.9089 20.0839 35.4751 -0.0001 -0.0002 0.0000
# 4 0.0000 -0.0001 -0.0001 11.7687 0.0000 0.0000
# 5 0.0001 0.0000 -0.0002 0.0000 10.3486 0.0003
# 6 0.0001 0.0000 0.0000 0.0000 0.0003 63.3071
#
#
#
# Elastic Compliance Matrix: (Units=1/GPa)
#
#
# Indices 1 2 3 4 5 6 
#
# 1 0.010153 -0.006967 0.000536 0.000000 0.000000 0.000000
# 2 -0.006967 0.018599 -0.008191 0.000000 0.000000 0.000000
# 3 0.000536 -0.008191 0.032646 0.000000 0.000001 0.000000
# 4 0.000000 0.000000 0.000000 0.084971 0.000000 0.000000
# 5 0.000000 0.000000 0.000001 0.000000 0.096631 0.000000
# 6 0.000000 0.000000 0.000000 0.000000 0.000000 0.015796
#
#
# Mechanical properties :
#
#
# Convention : Reuss Voigt Hill
#
# Bulk Modulus (GPa) = 31.10037 48.06598 39.58318
# Shear Modulus (GPa) = 16.73605 28.24447 22.49026
#
# Velocity S-wave (km/s) = 3.00950 3.90962 3.48871
# Velocity P-wave (km/s) = 5.37650 6.81118 6.13592
#
# Compressibility (1/GPa) = 0.03215396
#
# Stress axis : x y z
#
# Youngs Moduli (GPa) = 98.49541 53.76758 30.63180
#
# Poissons Ratio (x) = 0.37461 -0.01642
# Poissons Ratio (y) = 0.68624 0.25089
# Poissons Ratio (z) = -0.05281 0.44039
#
# Static dielectric constant tensor:
#      x y z
#    x 1.692380 0.000000 0.000000 
#    y 0.000000 1.675920 0.000000 
#    z 0.000000 0.000000 1.589440 
# 
# From -- ./inp_files/11315.got.cif
#   From: 2010.05.17/outbox.ucp.g08.bks.cvg/sg24_6_cif.got.tgz:11315.got - 2010.06.11 15:20:44.
