data_PCOD9337627
_publ_section_title
;
Structure prediction by ZEFSAII (Michael W. Deem and Ramdas Pophale) SiO2 
 PCOD9337627
Probable space group: P M M 2
;
_chemical_formula_sum "Si O2"
_cell_formula_units_Z 20
_cell_length_a 11.752471
_cell_length_b 8.767097
_cell_length_c 10.442732
_cell_angle_alpha 90.000000
_cell_angle_beta 90.000000
_cell_angle_gamma 90.000000
_cell_volume 1075.967448
_symmetry_space_group_name_H-M "P M M 2"
_symmetry_group_IT_number 25
_symmetry_cell_setting 'orthorhombic'
loop_
_space_group_symop_operation_xyz
x,y,z
-x,-y,z
-x,y,z
x,-y,z
loop_
_atom_site_type_symbol
_atom_site_label
_atom_site_fract_x
_atom_site_fract_y
_atom_site_fract_z
Si Si1 0.132026 0.315693 0.433460
Si Si2 0.500000 0.814372 0.785145
Si Si3 0.500000 0.817527 0.084571
Si Si4 0.256275 0.183659 0.680625
Si Si5 0.864636 0.822035 0.946362
Si Si6 0.266477 0.318975 0.179253
O O1 0.130703 0.500000 0.434382
O O2 0.198732 0.257274 0.557493
O O3 0.199482 0.266107 0.305992
O O4 0.000000 0.263964 0.432648
O O5 0.614658 0.766761 0.712315
O O6 0.500000 0.000000 0.788040
O O7 0.500000 0.765527 0.934626
O O8 0.612335 0.758705 0.155224
O O9 0.500000 0.000000 0.082925
O O10 0.183724 0.219694 0.807573
O O11 0.255931 0.000000 0.664857
O O12 0.000000 0.810297 0.947449
O O13 0.832431 0.000000 0.969192
O O14 0.809671 0.721756 0.056575
O O15 0.282772 0.500000 0.188461
#
# Coordination Sequence:
#
# PCOD9337627 Si02
#       6
#     4   2   2   4   4   4
#     4  10  23  42  59  81 120 163 198 240 295 351
#     4   9  18  36  61  86 118 150 185 237 298 349
#     4  11  21  40  65  88 120 156 193 247 302 355
#     4  10  20  37  61  88 116 152 197 246 296 348
#     4  10  20  35  58  88 118 152 200 253 301 350
#     4  11  23  39  60  87 120 158 199 245 297 355
#
# _framework density 18.587921999999999
#
# number of rings (size 3 to 8) (size 9 to 14) (size 15 to 20)
#    0.000    1.800    2.000    2.100    0.000    5.600 
#    0.000    2.500    0.000    0.000    0.000    0.000 
#    0.000    0.000    0.000    0.000    0.000    0.000 
#
# Total GULP energy -111714.870473 kJ/mol
# GULP energy per Si atom -5585.743524 kJ/mol
# Density = 1.854562 g / cm^3
# Si number density = 18.587922 Si / 1000 Ang^3
#
#
#
# Elastic Constant Matrix: (Units=GPa)
#
#
# Indices 1 2 3 4 5 6 
#
# 1 158.0222 38.2084 94.3318 0.0000 0.0000 0.0000
# 2 38.2084 21.9027 37.6903 0.0000 0.0000 0.0000
# 3 94.3318 37.6903 159.0242 0.0000 0.0000 0.0000
# 4 0.0000 0.0000 0.0000 35.4072 0.0000 0.0000
# 5 0.0000 0.0000 0.0000 0.0000 50.9146 0.0000
# 6 0.0000 0.0000 0.0000 0.0000 0.0000 30.4302
#
#
#
# Elastic Compliance Matrix: (Units=1/GPa)
#
#
# Indices 1 2 3 4 5 6 
#
# 1 0.012093 -0.014779 -0.003671 0.000000 0.000000 0.000000
# 2 -0.014779 0.095165 -0.013788 0.000000 0.000000 0.000000
# 3 -0.003671 -0.013788 0.011734 0.000000 0.000000 0.000000
# 4 0.000000 0.000000 0.000000 0.028243 0.000000 0.000000
# 5 0.000000 0.000000 0.000000 0.000000 0.019641 0.000000
# 6 0.000000 0.000000 0.000000 0.000000 0.000000 0.032862
#
#
# Mechanical properties :
#
#
# Convention : Reuss Voigt Hill
#
# Bulk Modulus (GPa) = 18.34335 75.49000 46.91668
# Shear Modulus (GPa) = 17.70635 34.59832 26.15233
#
# Velocity S-wave (km/s) = 3.08973 4.31900 3.75501
# Velocity P-wave (km/s) = 4.75588 8.09767 6.64043
#
# Compressibility (1/GPa) = 0.05451566
#
# Stress axis : x y z
#
# Youngs Moduli (GPa) = 82.69349 10.50808 85.22512
#
# Poissons Ratio (x) = 0.15530 0.31283
# Poissons Ratio (y) = 1.22214 1.17510
# Poissons Ratio (z) = 0.30353 0.14489
#
# Static dielectric constant tensor:
#      x y z
#    x 1.620090 0.000000 0.000000 
#    y 0.000000 1.640240 0.000000 
#    z 0.000000 0.000000 1.606360 
# 
# From -- ./inp_files/2544.got.cif
#   From: 2010.05.17/outbox.cif.g08.bks.cpg/sg25_2_cif.got.tgz:2544.got - 2010.06.04 01:04:00.
