data_PCOD9337162
_publ_section_title
;
Structure prediction by ZEFSAII (Michael W. Deem and Ramdas Pophale) SiO2 
 PCOD9337162
Probable space group: P M M 2
;
_chemical_formula_sum "Si O2"
_cell_formula_units_Z 32
_cell_length_a 15.125139
_cell_length_b 8.473589
_cell_length_c 12.752245
_cell_angle_alpha 90.000000
_cell_angle_beta 90.000000
_cell_angle_gamma 90.000000
_cell_volume 1634.381425
_symmetry_space_group_name_H-M "P M M 2"
_symmetry_group_IT_number 25
_symmetry_cell_setting 'orthorhombic'
loop_
_space_group_symop_operation_xyz
x,y,z
-x,-y,z
-x,y,z
x,-y,z
loop_
_atom_site_type_symbol
_atom_site_label
_atom_site_fract_x
_atom_site_fract_y
_atom_site_fract_z
Si Si1 0.225147 0.690945 0.393250
Si Si2 0.897832 0.689977 0.586142
Si Si3 0.401214 0.188630 0.305089
Si Si4 0.789352 0.813181 0.782684
Si Si5 0.595971 0.189324 0.847232
Si Si6 0.637320 0.681138 0.073208
Si Si7 0.095143 0.307798 0.215299
Si Si8 0.839784 0.681905 0.001492
O O1 0.225964 0.500000 0.393525
O O2 0.165856 0.744528 0.491298
O O3 0.325012 0.748266 0.381443
O O4 0.173708 0.746607 0.288961
O O5 0.902044 0.500000 0.578888
O O6 0.847858 0.735415 0.692715
O O7 0.000000 0.747405 0.581362
O O8 0.500000 0.240351 0.335694
O O9 0.384573 0.245747 0.185558
O O10 0.397969 0.000000 0.305357
O O11 0.687245 0.752049 0.793701
O O12 0.833479 0.778105 0.895155
O O13 0.785999 0.000000 0.764234
O O14 0.500000 0.246742 0.807166
O O15 0.597484 0.000000 0.837491
O O16 0.600877 0.230879 0.970743
O O17 0.606938 0.500000 0.072049
O O18 0.742514 0.679997 0.053836
O O19 0.100757 0.500000 0.210603
O O20 0.000000 0.267810 0.262267
O O21 0.101202 0.253442 0.095636
O O22 0.864074 0.500000 0.976581
#
# Coordination Sequence:
#
# PCOD9337162 Si02
#       8
#     4   4   4   4   4   4   4   4
#     4  10  20  38  61  85 110 139 184 238 283 328
#     4  10  22  41  65  88 109 140 184 234 287 342
#     4  11  23  36  52  78 114 155 192 225 271 333
#     4  10  21  36  56  82 113 149 190 235 278 326
#     4   9  18  33  52  77 112 153 192 228 275 333
#     4  10  18  30  50  79 113 150 192 234 273 320
#     4   9  16  29  53  83 111 140 175 220 279 341
#     4   9  17  31  51  79 115 150 184 226 278 332
#
# _framework density 19.579274000000002
#
# number of rings (size 3 to 8) (size 9 to 14) (size 15 to 20)
#    0.000    2.250    1.250    1.875    0.000    6.500 
#    0.000    1.875    0.000    4.125    0.000    0.000 
#    0.000    0.000    0.000    0.000    0.000    0.000 
#
# Total GULP energy -178453.510407 kJ/mol
# GULP energy per Si atom -5576.672200 kJ/mol
# Density = 1.953471 g / cm^3
# Si number density = 19.579274 Si / 1000 Ang^3
#
#
#
# Elastic Constant Matrix: (Units=GPa)
#
#
# Indices 1 2 3 4 5 6 
#
# 1 151.5404 17.8906 74.8841 0.0000 0.0000 0.0000
# 2 17.8906 12.2904 10.8318 0.0000 0.0000 0.0000
# 3 74.8841 10.8318 98.6873 0.0000 0.0000 0.0000
# 4 0.0000 0.0000 0.0000 8.3535 0.0000 0.0000
# 5 0.0000 0.0000 0.0000 0.0000 11.9241 0.0000
# 6 0.0000 0.0000 0.0000 0.0000 0.0000 14.7503
#
#
#
# Elastic Compliance Matrix: (Units=1/GPa)
#
#
# Indices 1 2 3 4 5 6 
#
# 1 0.011588 -0.010096 -0.007685 0.000000 0.000000 0.000000
# 2 -0.010096 0.098873 -0.003191 0.000000 0.000000 0.000000
# 3 -0.007685 -0.003191 0.016315 0.000000 0.000000 0.000000
# 4 0.000000 0.000000 0.000000 0.119711 0.000000 0.000000
# 5 0.000000 0.000000 0.000000 0.000000 0.083864 0.000000
# 6 0.000000 0.000000 0.000000 0.000000 0.000000 0.067795
#
#
# Mechanical properties :
#
#
# Convention : Reuss Voigt Hill
#
# Bulk Modulus (GPa) = 11.78811 52.19234 31.99023
# Shear Modulus (GPa) = 10.67537 17.59967 14.13752
#
# Velocity S-wave (km/s) = 2.33757 3.00141 2.69004
# Velocity P-wave (km/s) = 3.64958 6.22303 5.10125
#
# Compressibility (1/GPa) = 0.08483124
#
# Stress axis : x y z
#
# Youngs Moduli (GPa) = 86.29251 10.11401 61.29359
#
# Poissons Ratio (x) = 0.10211 0.47106
# Poissons Ratio (y) = 0.87118 0.19562
# Poissons Ratio (z) = 0.66318 0.03228
#
# Static dielectric constant tensor:
#      x y z
#    x 1.751770 0.000000 0.000000 
#    y 0.000000 1.680900 0.000000 
#    z 0.000000 0.000000 1.662210 
# 
# From -- ./inp_files/4891.got.cif
#   From: 2010.05.17/outbox.cif.g08.bks.cpg/sg25_3_cif.got.tgz:4891.got - 2010.06.04 01:04:00.
