data_PCOD9337527
_publ_section_title
;
Structure prediction by ZEFSAII (Michael W. Deem and Ramdas Pophale) SiO2 
 PCOD9337527
Probable space group: P M M 2
;
_chemical_formula_sum "Si O2"
_cell_formula_units_Z 24
_cell_length_a 12.725875
_cell_length_b 8.961968
_cell_length_c 12.099213
_cell_angle_alpha 90.000000
_cell_angle_beta 90.000000
_cell_angle_gamma 90.000000
_cell_volume 1379.901746
_symmetry_space_group_name_H-M "P M M 2"
_symmetry_group_IT_number 25
_symmetry_cell_setting 'orthorhombic'
loop_
_space_group_symop_operation_xyz
x,y,z
-x,-y,z
-x,y,z
x,-y,z
loop_
_atom_site_type_symbol
_atom_site_label
_atom_site_fract_x
_atom_site_fract_y
_atom_site_fract_z
Si Si1 0.500000 0.320552 0.974850
Si Si2 0.500000 0.821029 0.733882
Si Si3 0.298171 0.320227 0.121613
Si Si4 0.123619 0.822438 0.976347
Si Si5 0.296121 0.178926 0.588695
Si Si6 0.376122 0.679678 0.365821
Si Si7 0.124273 0.322419 0.740718
O O1 0.500000 0.500000 0.966028
O O2 0.500000 0.251506 0.853860
O O3 0.396727 0.277678 0.044090
O O4 0.603354 0.779076 0.664464
O O5 0.500000 0.000000 0.745823
O O6 0.287014 0.500000 0.116193
O O7 0.326328 0.280698 0.247476
O O8 0.195389 0.243446 0.072611
O O9 0.153746 0.746796 0.859709
O O10 0.000000 0.791652 0.994925
O O11 0.137648 0.000000 0.967365
O O12 0.318359 0.242184 0.467283
O O13 0.288686 0.000000 0.585932
O O14 0.500000 0.719407 0.366313
O O15 0.369623 0.500000 0.377920
O O16 0.194194 0.751611 0.646241
O O17 0.140972 0.500000 0.743225
O O18 0.000000 0.294015 0.724128
#
# Coordination Sequence:
#
# PCOD9337527 Si02
#       7
#     2   2   4   4   4   4   4
#     4  10  20  33  52  80 110 139 175 224 275 326
#     4  10  22  35  48  76 114 145 175 220 273 330
#     4  10  20  36  57  82 111 144 187 232 276 329
#     4  10  21  37  57  83 115 149 185 228 281 336
#     4  11  22  37  56  81 115 148 187 231 278 336
#     4  10  20  37  59  81 110 150 192 233 279 330
#     4  10  21  38  60  85 112 145 188 234 282 336
#
# _framework density 17.392541999999999
#
# number of rings (size 3 to 8) (size 9 to 14) (size 15 to 20)
#    0.000    1.833    1.667    2.500    0.000    7.333 
#    0.000    0.833    0.000    1.000    0.000    0.000 
#    0.000    0.000    0.000    0.000    0.000    0.000 
#
# Total GULP energy -134071.290063 kJ/mol
# GULP energy per Si atom -5586.303753 kJ/mol
# Density = 1.735296 g / cm^3
# Si number density = 17.392542 Si / 1000 Ang^3
#
#
#
# Elastic Constant Matrix: (Units=GPa)
#
#
# Indices 1 2 3 4 5 6 
#
# 1 87.1418 50.3136 78.3219 0.0000 0.0000 0.0000
# 2 50.3136 43.1261 60.9777 0.0000 0.0000 0.0000
# 3 78.3219 60.9777 171.8421 0.0000 0.0000 0.0000
# 4 0.0000 0.0000 0.0000 136.4454 0.0000 0.0000
# 5 0.0000 0.0000 0.0000 0.0000 26.1883 0.0000
# 6 0.0000 0.0000 0.0000 0.0000 0.0000 22.6218
#
#
#
# Elastic Compliance Matrix: (Units=1/GPa)
#
#
# Indices 1 2 3 4 5 6 
#
# 1 0.035919 -0.037645 -0.003013 0.000000 0.000000 0.000000
# 2 -0.037645 0.085992 -0.013356 0.000000 0.000000 0.000000
# 3 -0.003013 -0.013356 0.011932 0.000000 0.000000 0.000000
# 4 0.000000 0.000000 0.000000 0.007329 0.000000 0.000000
# 5 0.000000 0.000000 0.000000 0.000000 0.038185 0.000000
# 6 0.000000 0.000000 0.000000 0.000000 0.000000 0.044205
#
#
# Mechanical properties :
#
#
# Convention : Reuss Voigt Hill
#
# Bulk Modulus (GPa) = 38.73830 75.70404 57.22117
# Shear Modulus (GPa) = 14.69749 44.55088 29.62419
#
# Velocity S-wave (km/s) = 2.91012 5.06661 4.13155
# Velocity P-wave (km/s) = 5.79767 8.82319 7.46531
#
# Compressibility (1/GPa) = 0.02581425
#
# Stress axis : x y z
#
# Youngs Moduli (GPa) = 27.84060 11.62903 83.80999
#
# Poissons Ratio (x) = 0.43778 0.25249
# Poissons Ratio (y) = 1.04807 1.11937
# Poissons Ratio (z) = 0.08387 0.15532
#
# Static dielectric constant tensor:
#      x y z
#    x 1.582330 0.000000 0.000000 
#    y 0.000000 1.578010 0.000000 
#    z 0.000000 0.000000 1.555370 
# 
# From -- ./inp_files/4544.got.cif
#   From: 2010.05.17/outbox.cif.g08.bks.cpg/sg25_3_cif.got.tgz:4544.got - 2010.06.04 01:04:00.
