data_PCOD9337499
_publ_section_title
;
Structure prediction by ZEFSAII (Michael W. Deem and Ramdas Pophale) SiO2 
 PCOD9337499
Probable space group: P M M 2
;
_chemical_formula_sum "Si O2"
_cell_formula_units_Z 28
_cell_length_a 9.270514
_cell_length_b 9.256037
_cell_length_c 18.632923
_cell_angle_alpha 90.000000
_cell_angle_beta 90.000000
_cell_angle_gamma 90.000000
_cell_volume 1598.857967
_symmetry_space_group_name_H-M "P M M 2"
_symmetry_group_IT_number 25
_symmetry_cell_setting 'orthorhombic'
loop_
_space_group_symop_operation_xyz
x,y,z
-x,-y,z
-x,y,z
x,-y,z
loop_
_atom_site_type_symbol
_atom_site_label
_atom_site_fract_x
_atom_site_fract_y
_atom_site_fract_z
Si Si1 0.330285 0.826433 0.609010
Si Si2 0.173869 0.830980 0.175420
Si Si3 0.169799 0.325923 0.479025
Si Si4 0.327199 0.329796 0.044955
Si Si5 0.165891 0.175905 0.753418
Si Si6 0.671599 0.828281 0.897696
Si Si7 0.824589 0.333747 0.318345
O O1 0.500000 0.795781 0.613643
O O2 0.259677 0.750026 0.540799
O O3 0.251232 0.778966 0.682221
O O4 0.312360 0.000000 0.602539
O O5 0.246963 0.746109 0.110529
O O6 0.220380 0.764347 0.251895
O O7 0.000000 0.816024 0.170622
O O8 0.209215 0.000000 0.171602
O O9 0.181055 0.500000 0.483862
O O10 0.219021 0.285535 0.398242
O O11 0.000000 0.288931 0.486687
O O12 0.500000 0.310955 0.053149
O O13 0.295924 0.500000 0.043762
O O14 0.286213 0.256470 0.969394
O O15 0.243472 0.220553 0.826951
O O16 0.000000 0.222853 0.750914
O O17 0.167813 0.000000 0.753676
O O18 0.500000 0.809074 0.886000
O O19 0.696907 0.000000 0.908291
O O20 0.778511 0.500000 0.307052
O O21 0.000000 0.334621 0.319722
#
# Coordination Sequence:
#
# PCOD9337499 Si02
#       7
#     4   4   4   4   4   4   4
#     4  10  20  33  50  74 104 137 173 210 249 297
#     4  10  20  33  52  79 106 132 167 210 254 301
#     4   9  18  33  53  76 101 131 169 211 255 304
#     4  10  21  36  53  74 102 137 174 208 247 299
#     4   9  17  30  50  75 100 128 166 211 256 300
#     4   9  17  31  51  72  96 128 165 207 256 306
#     4   8  15  30  51  73  99 132 168 207 253 303
#
# _framework density 17.512501
#
# number of rings (size 3 to 8) (size 9 to 14) (size 15 to 20)
#    0.000    2.714    0.000    2.571    0.000    5.714 
#    0.000    4.286    0.000    3.429    0.000    0.000 
#    0.000    0.000    0.000    0.000    0.000    0.000 
#
# Total GULP energy -156159.015529 kJ/mol
# GULP energy per Si atom -5577.107697 kJ/mol
# Density = 1.747264 g / cm^3
# Si number density = 17.512501 Si / 1000 Ang^3
#
#
#
# Elastic Constant Matrix: (Units=GPa)
#
#
# Indices 1 2 3 4 5 6 
#
# 1 64.9287 48.6143 86.3210 0.0000 0.0000 0.0000
# 2 48.6143 61.5566 84.7863 0.0000 0.0000 0.0000
# 3 86.3210 84.7863 217.0275 0.0000 0.0000 0.0000
# 4 0.0000 0.0000 0.0000 141.3301 0.0000 0.0000
# 5 0.0000 0.0000 0.0000 0.0000 111.3301 0.0000
# 6 0.0000 0.0000 0.0000 0.0000 0.0000 21.5711
#
#
#
# Elastic Compliance Matrix: (Units=1/GPa)
#
#
# Indices 1 2 3 4 5 6 
#
# 1 0.043867 -0.022974 -0.008472 0.000000 0.000000 0.000000
# 2 -0.022974 0.047202 -0.009303 0.000000 0.000000 0.000000
# 3 -0.008472 -0.009303 0.011612 0.000000 0.000000 0.000000
# 4 0.000000 0.000000 0.000000 0.007076 0.000000 0.000000
# 5 0.000000 0.000000 0.000000 0.000000 0.008982 0.000000
# 6 0.000000 0.000000 0.000000 0.000000 0.000000 0.046358
#
#
# Mechanical properties :
#
#
# Convention : Reuss Voigt Hill
#
# Bulk Modulus (GPa) = 47.20895 86.99510 67.10202
# Shear Modulus (GPa) = 19.71166 63.09900 41.40533
#
# Velocity S-wave (km/s) = 3.35860 6.00908 4.86771
# Velocity P-wave (km/s) = 6.48507 9.89592 8.36616
#
# Compressibility (1/GPa) = 0.02118243
#
# Stress axis : x y z
#
# Youngs Moduli (GPa) = 22.79627 21.18532 86.11893
#
# Poissons Ratio (x) = 0.48672 0.72963
# Poissons Ratio (y) = 0.52373 0.80115
# Poissons Ratio (z) = 0.19314 0.19708
#
# Static dielectric constant tensor:
#      x y z
#    x 1.585480 0.000000 0.000000 
#    y 0.000000 1.579930 0.000000 
#    z 0.000000 0.000000 1.577990 
# 
# From -- ./inp_files/6025.got.cif
#   From: 2010.05.17/outbox.cif.g08.bks.cpg/sg25_4_cif.got.tgz:6025.got - 2010.06.04 01:04:00.
