data_PCOD9337501
_publ_section_title
;
Structure prediction by ZEFSAII (Michael W. Deem and Ramdas Pophale) SiO2 
 PCOD9337501
Probable space group: P M M 2
;
_chemical_formula_sum "Si O2"
_cell_formula_units_Z 28
_cell_length_a 9.599957
_cell_length_b 7.516809
_cell_length_c 18.927632
_cell_angle_alpha 90.000000
_cell_angle_beta 90.000000
_cell_angle_gamma 90.000000
_cell_volume 1365.837670
_symmetry_space_group_name_H-M "P M M 2"
_symmetry_group_IT_number 25
_symmetry_cell_setting 'orthorhombic'
loop_
_space_group_symop_operation_xyz
x,y,z
-x,-y,z
-x,y,z
x,-y,z
loop_
_atom_site_type_symbol
_atom_site_label
_atom_site_fract_x
_atom_site_fract_y
_atom_site_fract_z
Si Si1 0.842599 0.789635 0.529040
Si Si2 0.343486 0.710318 0.393824
Si Si3 0.661423 0.281899 0.972754
Si Si4 0.161206 0.282571 0.263803
Si Si5 0.160953 0.283291 0.106059
Si Si6 0.330417 0.293394 0.819313
Si Si7 0.340681 0.714385 0.665462
O O1 0.747618 0.727333 0.464281
O O2 0.763254 0.755034 0.602307
O O3 0.000000 0.715194 0.527835
O O4 0.853269 0.000000 0.521005
O O5 0.500000 0.782929 0.402138
O O6 0.356823 0.500000 0.380930
O O7 0.259328 0.782905 0.326515
O O8 0.500000 0.231578 0.980616
O O9 0.665195 0.500000 0.970955
O O10 0.748579 0.221810 0.040073
O O11 0.713143 0.219076 0.895460
O O12 0.161307 0.500000 0.264755
O O13 0.206293 0.228220 0.184829
O O14 0.000000 0.229170 0.274594
O O15 0.165343 0.500000 0.105472
O O16 0.000000 0.231553 0.097600
O O17 0.500000 0.291490 0.820274
O O18 0.285765 0.500000 0.819004
O O19 0.292927 0.216887 0.742680
O O20 0.500000 0.775940 0.651183
O O21 0.348142 0.500000 0.671138
#
# Coordination Sequence:
#
# PCOD9337501 Si02
#       7
#     4   4   4   4   4   4   4
#     4  11  24  38  50  67  93 123 153 186 228 279
#     4  10  20  33  51  74  95 117 151 193 233 274
#     4   8  12  18  30  49  76 112 148 178 212 256
#     4   8  14  25  40  58  84 119 153 184 222 267
#     4   8  13  20  30  48  78 115 150 181 215 256
#     4   7  11  21  37  58  84 113 145 181 221 265
#     4   9  17  31  52  74  94 119 154 194 233 274
#
# _framework density 20.500240000000002
#
# number of rings (size 3 to 8) (size 9 to 14) (size 15 to 20)
#    0.000    3.286    0.000    3.857    0.000    4.571 
#    0.000    3.571    0.000    2.571    0.000    0.000 
#    0.000    1.143    0.000    7.429    0.000   11.286 
#
# Total GULP energy -156065.483046 kJ/mol
# GULP energy per Si atom -5573.767252 kJ/mol
# Density = 2.045358 g / cm^3
# Si number density = 20.500240 Si / 1000 Ang^3
#
#
#
# Elastic Constant Matrix: (Units=GPa)
#
#
# Indices 1 2 3 4 5 6 
#
# 1 119.4458 3.5754 119.3979 0.0000 0.0000 0.0000
# 2 3.5754 52.2648 -0.6605 0.0000 0.0000 0.0000
# 3 119.3979 -0.6605 233.2278 0.0000 0.0000 0.0000
# 4 0.0000 0.0000 0.0000 -45.7546 0.0000 0.0000
# 5 0.0000 0.0000 0.0000 0.0000 -640.7980 0.0000
# 6 0.0000 0.0000 0.0000 0.0000 0.0000 236.7948
#
#
#
# Elastic Compliance Matrix: (Units=1/GPa)
#
#
# Indices 1 2 3 4 5 6 
#
# 1 0.017233 -0.001290 -0.008826 0.000000 0.000000 0.000000
# 2 -0.001290 0.019231 0.000715 0.000000 0.000000 0.000000
# 3 -0.008826 0.000715 0.008808 0.000000 0.000000 0.000000
# 4 0.000000 0.000000 0.000000 -0.021856 0.000000 0.000000
# 5 0.000000 0.000000 0.000000 0.000000 -0.001561 0.000000
# 6 0.000000 0.000000 0.000000 0.000000 0.000000 0.004223
#
#
# Mechanical properties :
#
#
# Convention : Reuss Voigt Hill
#
# Bulk Modulus (GPa) = 37.77979 72.17375 54.97677
# Shear Modulus (GPa) = 93.10366 -71.10985 10.99690
#
# Velocity S-wave (km/s) = 6.74644 -5.89598 2.31860
# Velocity P-wave (km/s) = 8.89691 3.32678 5.83470
#
# Compressibility (1/GPa) = 0.02646918
#
# Stress axis : x y z
#
# Youngs Moduli (GPa) = 58.02860 52.00032 113.53406
#
# Poissons Ratio (x) = 0.06710 1.00203
# Poissons Ratio (y) = 0.07488 -0.08119
# Poissons Ratio (z) = 0.51215 -0.03718
#
# Static dielectric constant tensor:
#      x y z
#    x 1.708400 0.000000 0.000000 
#    y 0.000000 1.778070 0.000000 
#    z 0.000000 0.000000 1.747190 
# 
# From -- ./inp_files/6400.got.cif
#   From: 2010.05.17/outbox.cif.g08.bks.cpg/sg25_4_cif.got.tgz:6400.got - 2010.06.04 01:04:00.
