data_PCOD9337436
_publ_section_title
;
Structure prediction by ZEFSAII (Michael W. Deem and Ramdas Pophale) SiO2 
 PCOD9337436
Probable space group: P M M 2
;
_chemical_formula_sum "Si O2"
_cell_formula_units_Z 28
_cell_length_a 7.467865
_cell_length_b 9.564488
_cell_length_c 18.954353
_cell_angle_alpha 90.000000
_cell_angle_beta 90.000000
_cell_angle_gamma 90.000000
_cell_volume 1353.839402
_symmetry_space_group_name_H-M "P M M 2"
_symmetry_group_IT_number 25
_symmetry_cell_setting 'orthorhombic'
loop_
_space_group_symop_operation_xyz
x,y,z
-x,-y,z
-x,y,z
x,-y,z
loop_
_atom_site_type_symbol
_atom_site_label
_atom_site_fract_x
_atom_site_fract_y
_atom_site_fract_z
Si Si1 0.285435 0.158749 0.212080
Si Si2 0.281365 0.336735 0.079111
Si Si3 0.781478 0.838780 0.640468
Si Si4 0.285317 0.338826 0.924663
Si Si5 0.785327 0.341478 0.350497
Si Si6 0.212923 0.341421 0.771292
Si Si7 0.781561 0.161824 0.482614
O O1 0.500000 0.150214 0.204691
O O2 0.217834 0.241522 0.143289
O O3 0.250461 0.248889 0.281735
O O4 0.216967 0.000000 0.217813
O O5 0.500000 0.336249 0.080422
O O6 0.228779 0.500000 0.087232
O O7 0.225408 0.284311 0.001076
O O8 0.716687 0.745982 0.705373
O O9 0.726818 0.794110 0.561596
O O10 0.000000 0.836106 0.641068
O O11 0.728476 0.000000 0.649605
O O12 0.500000 0.341887 0.927175
O O13 0.220213 0.500000 0.921942
O O14 0.238693 0.275199 0.848950
O O15 0.716983 0.500000 0.343464
O O16 0.718285 0.261683 0.420195
O O17 0.000000 0.349964 0.357423
O O18 0.286106 0.500000 0.771990
O O19 0.000000 0.351467 0.761636
O O20 0.000000 0.162399 0.481656
O O21 0.727730 0.000000 0.471318
#
# Coordination Sequence:
#
# PCOD9337436 Si02
#       7
#     4   4   4   4   4   4   4
#     4  10  20  33  50  71  94 122 155 189 228 275
#     4   8  14  27  47  66  84 112 151 189 221 260
#     4   8  14  25  41  61  86 117 149 178 214 262
#     4   8  14  26  44  63  84 114 148 178 215 265
#     4  10  20  32  48  72  98 122 151 189 232 275
#     4   9  16  25  40  64  89 110 139 183 225 256
#     4   8  14  26  44  64  87 117 151 185 221 263
#
# _framework density 20.681920999999999
#
# number of rings (size 3 to 8) (size 9 to 14) (size 15 to 20)
#    0.000    3.286    0.000    2.571    0.000    2.286 
#    0.000    4.286    0.000    4.714    0.000    4.000 
#    0.000    0.000    0.000    0.000    0.000    0.000 
#
# Total GULP energy -156092.875070 kJ/mol
# GULP energy per Si atom -5574.745538 kJ/mol
# Density = 2.063485 g / cm^3
# Si number density = 20.681921 Si / 1000 Ang^3
#
#
#
# Elastic Constant Matrix: (Units=GPa)
#
#
# Indices 1 2 3 4 5 6 
#
# 1 59.2373 4.8995 3.0199 0.0000 0.0000 0.0000
# 2 4.8995 120.0743 124.7785 0.0000 0.0000 0.0000
# 3 3.0199 124.7785 253.2248 0.0000 0.0000 0.0000
# 4 0.0000 0.0000 0.0000 86.5217 0.0000 0.0000
# 5 0.0000 0.0000 0.0000 0.0000 21.6859 0.0000
# 6 0.0000 0.0000 0.0000 0.0000 0.0000 2.9355
#
#
#
# Elastic Compliance Matrix: (Units=1/GPa)
#
#
# Indices 1 2 3 4 5 6 
#
# 1 0.016948 -0.000987 0.000284 0.000000 0.000000 0.000000
# 2 -0.000987 0.017126 -0.008427 0.000000 0.000000 0.000000
# 3 0.000284 -0.008427 0.008098 0.000000 0.000000 0.000000
# 4 0.000000 0.000000 0.000000 0.011558 0.000000 0.000000
# 5 0.000000 0.000000 0.000000 0.000000 0.046113 0.000000
# 6 0.000000 0.000000 0.000000 0.000000 0.000000 0.340653
#
#
# Mechanical properties :
#
#
# Convention : Reuss Voigt Hill
#
# Bulk Modulus (GPa) = 41.81875 77.54803 59.68339
# Shear Modulus (GPa) = 10.71292 42.21786 26.46539
#
# Velocity S-wave (km/s) = 2.27840 4.52297 3.58109
# Velocity P-wave (km/s) = 5.21395 8.05315 6.78375
#
# Compressibility (1/GPa) = 0.02391272
#
# Stress axis : x y z
#
# Youngs Moduli (GPa) = 59.00269 58.39206 123.48497
#
# Poissons Ratio (x) = 0.05762 -0.03509
# Poissons Ratio (y) = 0.05823 1.04061
# Poissons Ratio (z) = -0.01677 0.49207
#
# Static dielectric constant tensor:
#      x y z
#    x 1.810680 0.000000 0.000000 
#    y 0.000000 1.713480 0.000000 
#    z 0.000000 0.000000 1.746700 
# 
# From -- ./inp_files/6390.got.cif
#   From: 2010.05.17/outbox.cif.g08.bks.cpg/sg25_4_cif.got.tgz:6390.got - 2010.06.04 01:04:00.
