data_PCOD9337099
_publ_section_title
;
Structure prediction by ZEFSAII (Michael W. Deem and Ramdas Pophale) SiO2 
 PCOD9337099
Probable space group: P M M 2
;
_chemical_formula_sum "Si O2"
_cell_formula_units_Z 32
_cell_length_a 7.991842
_cell_length_b 14.975636
_cell_length_c 15.952348
_cell_angle_alpha 90.000000
_cell_angle_beta 90.000000
_cell_angle_gamma 90.000000
_cell_volume 1909.223538
_symmetry_space_group_name_H-M "P M M 2"
_symmetry_group_IT_number 25
_symmetry_cell_setting 'orthorhombic'
loop_
_space_group_symop_operation_xyz
x,y,z
-x,-y,z
-x,y,z
x,-y,z
loop_
_atom_site_type_symbol
_atom_site_label
_atom_site_fract_x
_atom_site_fract_y
_atom_site_fract_z
Si Si1 0.696019 0.897565 0.692660
Si Si2 0.794516 0.103494 0.326417
Si Si3 0.801568 0.217136 0.169544
Si Si4 0.204146 0.401074 0.099750
Si Si5 0.803530 0.210928 0.850342
Si Si6 0.193796 0.891818 0.510125
Si Si7 0.697167 0.101954 0.011436
Si Si8 0.203647 0.598519 0.903532
O O1 0.500000 0.900094 0.712126
O O2 0.779329 0.834149 0.760544
O O3 0.718614 0.866727 0.596656
O O4 0.761477 0.000000 0.698843
O O5 0.734623 0.164532 0.250176
O O6 0.740042 0.136102 0.418852
O O7 0.000000 0.103315 0.327869
O O8 0.744395 0.000000 0.313878
O O9 0.733130 0.316085 0.151264
O O10 0.000000 0.226833 0.183724
O O11 0.778659 0.158383 0.086030
O O12 0.258418 0.500000 0.127262
O O13 0.000000 0.400091 0.102186
O O14 0.248657 0.390283 0.001654
O O15 0.723145 0.150550 0.922793
O O16 0.739219 0.312871 0.855574
O O17 0.000000 0.213510 0.870467
O O18 0.000000 0.864767 0.517107
O O19 0.198665 0.000000 0.506380
O O20 0.500000 0.099281 0.028864
O O21 0.760890 0.000000 0.008482
O O22 0.262593 0.500000 0.875894
O O23 0.000000 0.596265 0.899517
#
# Coordination Sequence:
#
# PCOD9337099 Si02
#       8
#     4   4   4   4   4   4   4   4
#     4  10  20  32  45  64  92 121 146 180 225 265
#     4   8  14  24  41  66  91 111 140 188 230 254
#     4  10  17  28  47  68  87 116 155 187 217 260
#     4   8  13  23  41  65  90 113 142 184 227 260
#     4  11  20  31  49  69  85 113 153 185 216 262
#     4   8  14  27  45  63  84 112 147 186 224 261
#     4  11  23  34  41  56  90 128 153 179 217 257
#     4   8  14  26  44  66  89 110 139 183 227 260
#
# _framework density 16.760739999999998
#
# number of rings (size 3 to 8) (size 9 to 14) (size 15 to 20)
#    0.000    2.750    1.250    3.375    0.000    3.750 
#    0.000    0.625    0.000    4.875    0.000    0.875 
#    0.000    5.000    0.000    0.000    0.000    0.000 
#
# Total GULP energy -178290.124258 kJ/mol
# GULP energy per Si atom -5571.566383 kJ/mol
# Density = 1.672259 g / cm^3
# Si number density = 16.760740 Si / 1000 Ang^3
#
#
#
# Elastic Constant Matrix: (Units=GPa)
#
#
# Indices 1 2 3 4 5 6 
#
# 1 10.0104 1.9098 -6.1944 0.0000 0.0000 0.0000
# 2 1.9098 133.3838 62.1804 0.0000 0.0000 0.0000
# 3 -6.1944 62.1804 96.3482 0.0000 0.0000 0.0000
# 4 0.0000 0.0000 0.0000 6.6787 0.0000 0.0000
# 5 0.0000 0.0000 0.0000 0.0000 -7.3903 0.0000
# 6 0.0000 0.0000 0.0000 0.0000 0.0000 -4.1369
#
#
#
# Elastic Compliance Matrix: (Units=1/GPa)
#
#
# Indices 1 2 3 4 5 6 
#
# 1 0.108250 -0.006857 0.011385 0.000000 0.000000 0.000000
# 2 -0.006857 0.011158 -0.007642 0.000000 0.000000 0.000000
# 3 0.011385 -0.007642 0.016043 0.000000 0.000000 0.000000
# 4 0.000000 0.000000 0.000000 0.149731 0.000000 0.000000
# 5 0.000000 0.000000 0.000000 0.000000 -0.135312 0.000000
# 6 0.000000 0.000000 0.000000 0.000000 0.000000 -0.241724
#
#
# Mechanical properties :
#
#
# Convention : Reuss Voigt Hill
#
# Bulk Modulus (GPa) = 7.73859 39.50376 23.62118
# Shear Modulus (GPa) = -117.50186 11.15338 -53.17424
#
# Velocity S-wave (km/s) = -8.38198 2.58242 -5.63865
# Velocity P-wave (km/s) = 9.43661 5.70195 5.31683
#
# Compressibility (1/GPa) = 0.12922248
#
# Stress axis : x y z
#
# Youngs Moduli (GPa) = 9.23788 89.62374 62.33338
#
# Poissons Ratio (x) = 0.61459 -0.70968
# Poissons Ratio (y) = 0.06335 0.47634
# Poissons Ratio (z) = -0.10517 0.68488
#
# Static dielectric constant tensor:
#      x y z
#    x 1.599200 0.000000 0.000000 
#    y 0.000000 1.582830 0.000000 
#    z 0.000000 0.000000 1.553120 
# 
# From -- ./inp_files/5687.got.cif
#   From: 2010.05.17/outbox.cif.g08.bks.cpg/sg25_3_cif.got.tgz:5687.got - 2010.06.04 01:04:00.
