data_PCOD9337782
_publ_section_title
;
Structure prediction by ZEFSAII (Michael W. Deem and Ramdas Pophale) SiO2 
 PCOD9337782
Probable space group: P M M 2
;
_chemical_formula_sum "Si O2"
_cell_formula_units_Z 24
_cell_length_a 13.027271
_cell_length_b 8.593065
_cell_length_c 12.066568
_cell_angle_alpha 90.000000
_cell_angle_beta 90.000000
_cell_angle_gamma 90.000000
_cell_volume 1350.782138
_symmetry_space_group_name_H-M "P M M 2"
_symmetry_group_IT_number 25
_symmetry_cell_setting 'orthorhombic'
loop_
_space_group_symop_operation_xyz
x,y,z
-x,-y,z
-x,y,z
x,-y,z
loop_
_atom_site_type_symbol
_atom_site_label
_atom_site_fract_x
_atom_site_fract_y
_atom_site_fract_z
Si Si1 0.304604 0.186711 0.105500
Si Si2 0.619641 0.687664 0.333720
Si Si3 0.313716 0.686231 0.580183
Si Si4 0.500000 0.184789 0.726053
Si Si5 0.119118 0.812264 0.702541
Si Si6 0.500000 0.314905 0.973389
Si Si7 0.883962 0.189464 0.957544
O O1 0.318745 0.244539 0.230465
O O2 0.305875 0.000000 0.104289
O O3 0.400352 0.247962 0.034623
O O4 0.200879 0.241741 0.044736
O O5 0.500000 0.736609 0.326566
O O6 0.621437 0.500000 0.326715
O O7 0.664616 0.732832 0.453133
O O8 0.325547 0.500000 0.587491
O O9 0.399857 0.763692 0.657553
O O10 0.202014 0.735806 0.622735
O O11 0.500000 0.264733 0.845737
O O12 0.500000 0.000000 0.741134
O O13 0.141087 0.766244 0.830576
O O14 0.000000 0.772497 0.679151
O O15 0.128103 0.000000 0.695865
O O16 0.500000 0.500000 0.983355
O O17 0.000000 0.241116 0.982634
O O18 0.884598 0.000000 0.958482
#
# Coordination Sequence:
#
# PCOD9337782 Si02
#       7
#     4   4   4   2   4   2   4
#     4  11  21  34  57  86 111 140 189 236 275 328
#     4  10  21  39  57  74 108 155 191 225 278 341
#     4  11  22  38  58  81 111 148 192 234 285 346
#     4  12  24  37  56  83 114 143 181 235 289 340
#     4   9  18  35  59  85 114 149 187 229 284 343
#     4  12  24  37  54  79 116 151 179 221 281 342
#     4   8  16  33  56  81 111 144 175 218 276 331
#
# _framework density 17.767482999999999
#
# number of rings (size 3 to 8) (size 9 to 14) (size 15 to 20)
#    0.000    1.833    1.667    4.500    0.000    3.000 
#    0.000    1.667    0.000    7.000    0.000    0.000 
#    0.000    0.000    0.000    0.000    0.000    0.000 
#
# Total GULP energy -134043.255572 kJ/mol
# GULP energy per Si atom -5585.135649 kJ/mol
# Density = 1.772704 g / cm^3
# Si number density = 17.767483 Si / 1000 Ang^3
#
#
#
# Elastic Constant Matrix: (Units=GPa)
#
#
# Indices 1 2 3 4 5 6 
#
# 1 104.1287 13.5234 60.6790 0.0000 0.0000 0.0000
# 2 13.5234 21.6214 12.9472 0.0000 0.0000 0.0000
# 3 60.6790 12.9472 118.0066 0.0000 0.0000 0.0000
# 4 0.0000 0.0000 0.0000 34.1760 0.0000 0.0000
# 5 0.0000 0.0000 0.0000 0.0000 3.1481 0.0000
# 6 0.0000 0.0000 0.0000 0.0000 0.0000 11.1950
#
#
#
# Elastic Compliance Matrix: (Units=1/GPa)
#
#
# Indices 1 2 3 4 5 6 
#
# 1 0.014166 -0.004815 -0.006756 0.000000 0.000000 0.000000
# 2 -0.004815 0.051139 -0.003135 0.000000 0.000000 0.000000
# 3 -0.006756 -0.003135 0.012292 0.000000 0.000000 0.000000
# 4 0.000000 0.000000 0.000000 0.029260 0.000000 0.000000
# 5 0.000000 0.000000 0.000000 0.000000 0.317651 0.000000
# 6 0.000000 0.000000 0.000000 0.000000 0.000000 0.089326
#
#
# Mechanical properties :
#
#
# Convention : Reuss Voigt Hill
#
# Bulk Modulus (GPa) = 20.75305 46.45065 33.60185
# Shear Modulus (GPa) = 8.93965 20.14429 14.54197
#
# Velocity S-wave (km/s) = 2.24553 3.37081 2.86398
# Velocity P-wave (km/s) = 4.29289 6.43041 5.46713
#
# Compressibility (1/GPa) = 0.04818568
#
# Stress axis : x y z
#
# Youngs Moduli (GPa) = 70.59386 19.55453 81.35471
#
# Poissons Ratio (x) = 0.09415 0.54961
# Poissons Ratio (y) = 0.33988 0.25505
# Poissons Ratio (z) = 0.47691 0.06131
#
# Static dielectric constant tensor:
#      x y z
#    x 1.593100 0.000000 0.000000 
#    y 0.000000 1.604010 0.000000 
#    z 0.000000 0.000000 1.584770 
# 
# From -- ./inp_files/4558.got.cif
#   From: 2010.05.17/outbox.cif.g08.bks.cpg/sg25_3_cif.got.tgz:4558.got - 2010.06.04 01:04:00.
