data_PCOD9337941
_publ_section_title
;
Structure prediction by ZEFSAII (Michael W. Deem and Ramdas Pophale) SiO2 
 PCOD9337941
Probable space group: P M C 21
;
_chemical_formula_sum "Si O2"
_cell_formula_units_Z 32
_cell_length_a 7.492878
_cell_length_b 11.115084
_cell_length_c 14.612139
_cell_angle_alpha 90.000000
_cell_angle_beta 90.000000
_cell_angle_gamma 90.000000
_cell_volume 1216.956922
_symmetry_space_group_name_H-M "P M C 21"
_symmetry_group_IT_number 26
_symmetry_cell_setting 'orthorhombic'
loop_
_space_group_symop_operation_xyz
x,y,z
-x,-y,1/2+z
-x,y,z
x,-y,1/2+z
loop_
_atom_site_type_symbol
_atom_site_label
_atom_site_fract_x
_atom_site_fract_y
_atom_site_fract_z
Si Si1 0.714210 0.807959 0.289410
Si Si2 0.780263 0.191091 0.452200
Si Si3 0.217741 0.041113 0.066658
Si Si4 0.290033 0.424324 0.901556
Si Si5 0.789763 0.662933 0.116543
Si Si6 0.214428 0.562916 0.732957
Si Si7 0.209054 0.295483 0.071540
Si Si8 0.206609 0.927648 0.774218
O O1 0.500000 0.811156 0.293779
O O2 0.782933 0.693965 0.348062
O O3 0.769287 0.776450 0.185094
O O4 0.786268 0.938016 0.317243
O O5 0.719058 0.300983 0.516764
O O6 0.719874 0.166469 0.348453
O O7 0.000000 0.195860 0.449871
O O8 0.722633 0.072213 0.508648
O O9 0.278389 0.171683 0.028986
O O10 0.279569 0.051196 0.172389
O O11 0.000000 0.030493 0.066311
O O12 0.500000 0.412024 0.905559
O O13 0.251367 0.539018 0.838808
O O14 0.225904 0.408957 0.004575
O O15 0.714363 0.553055 0.176198
O O16 0.000000 0.639755 0.106013
O O17 0.281171 0.673361 0.672019
O O18 0.000000 0.564440 0.727674
O O19 0.000000 0.274756 0.082159
O O20 0.000000 0.893138 0.761317
#
# Coordination Sequence:
#
# PCOD9337941 Si02
#       8
#     4   4   4   4   4   4   4   4
#     4  10  19  31  49  75 104 135 174 218 258 302
#     4   9  16  27  48  76  98 128 173 211 250 310
#     4   9  17  30  49  77 108 137 171 213 265 319
#     4  10  21  36  56  81 107 144 187 222 266 326
#     4   9  16  31  52  73  99 129 170 214 259 312
#     4   9  19  35  56  82 108 137 175 230 280 314
#     4  10  20  36  56  82 112 141 179 227 275 320
#     4  10  18  30  50  74 102 139 173 209 263 321
#
# _framework density 26.295096000000001
#
# number of rings (size 3 to 8) (size 9 to 14) (size 15 to 20)
#    0.000    2.500    1.250    1.500    0.000    3.000 
#    2.250    1.250    0.000    0.000    0.000    0.000 
#    0.000    0.000    0.000    0.000    0.000    0.000 
#
# Total GULP energy -178818.772332 kJ/mol
# GULP energy per Si atom -5588.086635 kJ/mol
# Density = 2.623525 g / cm^3
# Si number density = 26.295096 Si / 1000 Ang^3
#
#
#
# Elastic Constant Matrix: (Units=GPa)
#
#
# Indices 1 2 3 4 5 6 
#
# 1 83.5168 -1.9844 -2.5397 0.0000 0.0000 0.0000
# 2 -1.9844 65.5644 12.8358 0.0000 0.0000 0.0000
# 3 -2.5397 12.8358 143.4357 0.0000 0.0000 0.0000
# 4 0.0000 0.0000 0.0000 41.2544 0.0000 0.0000
# 5 0.0000 0.0000 0.0000 0.0000 134.4199 0.0000
# 6 0.0000 0.0000 0.0000 0.0000 0.0000 -7.7650
#
#
#
# Elastic Compliance Matrix: (Units=1/GPa)
#
#
# Indices 1 2 3 4 5 6 
#
# 1 0.011987 0.000327 0.000183 0.000000 0.000000 0.000000
# 2 0.000327 0.015533 -0.001384 0.000000 0.000000 0.000000
# 3 0.000183 -0.001384 0.007099 0.000000 0.000000 0.000000
# 4 0.000000 0.000000 0.000000 0.024240 0.000000 0.000000
# 5 0.000000 0.000000 0.000000 0.000000 0.007439 0.000000
# 6 0.000000 0.000000 0.000000 0.000000 0.000000 -0.128783
#
#
# Mechanical properties :
#
#
# Convention : Reuss Voigt Hill
#
# Bulk Modulus (GPa) = 30.42255 34.34894 32.38574
# Shear Modulus (GPa) = -100.44314 52.52888 -23.95713
#
# Velocity S-wave (km/s) = -6.18719 4.47438 -3.02170
# Velocity P-wave (km/s) = 6.28069 6.30751 0.41085
#
# Compressibility (1/GPa) = 0.03287036
#
# Stress axis : x y z
#
# Youngs Moduli (GPa) = 83.42394 64.37872 140.86731
#
# Poissons Ratio (x) = -0.02105 -0.02578
# Poissons Ratio (y) = -0.02728 0.19499
# Poissons Ratio (z) = -0.01526 0.08912
#
# Static dielectric constant tensor:
#      x y z
#    x 1.945400 0.000000 0.000000 
#    y 0.000000 2.120580 0.000000 
#    z 0.000000 0.000000 2.114690 
# 
# From -- ./inp_files/4142.got.cif
#   From: 2010.05.17/outbox.cif.g08.bks.cpg/sg26_3_cif.got.tgz:4142.got - 2010.06.04 01:07:29.
