data_PCOD9337935
_publ_section_title
;
Structure prediction by ZEFSAII (Michael W. Deem and Ramdas Pophale) SiO2 
 PCOD9337935
Probable space group: P M C 21
;
_chemical_formula_sum "Si O2"
_cell_formula_units_Z 24
_cell_length_a 8.394567
_cell_length_b 9.505508
_cell_length_c 16.809120
_cell_angle_alpha 90.000000
_cell_angle_beta 90.000000
_cell_angle_gamma 90.000000
_cell_volume 1341.277406
_symmetry_space_group_name_H-M "P M C 21"
_symmetry_group_IT_number 26
_symmetry_cell_setting 'orthorhombic'
loop_
_space_group_symop_operation_xyz
x,y,z
-x,-y,1/2+z
-x,y,z
x,-y,1/2+z
loop_
_atom_site_type_symbol
_atom_site_label
_atom_site_fract_x
_atom_site_fract_y
_atom_site_fract_z
Si Si1 0.809352 0.662548 0.474530
Si Si2 0.190426 0.833356 0.804244
Si Si3 0.313097 0.073380 0.900129
Si Si4 0.312648 0.184242 0.132565
Si Si5 0.813581 0.080961 0.553701
Si Si6 0.194102 0.340946 0.460024
O O1 0.732148 0.763716 0.407964
O O2 0.763979 0.727890 0.560229
O O3 0.754517 0.501457 0.468206
O O4 0.000000 0.667083 0.465807
O O5 0.241317 0.779912 0.718123
O O6 0.242078 0.729659 0.876101
O O7 0.000000 0.847500 0.807518
O O8 0.268996 0.985222 0.822284
O O9 0.500000 0.056536 0.918151
O O10 0.209223 0.998931 0.969269
O O11 0.500000 0.207780 0.131375
O O12 0.276828 0.019446 0.114584
O O13 0.755342 0.237635 0.532127
O O14 0.000000 0.083813 0.574879
O O15 0.000000 0.338864 0.461326
#
# Coordination Sequence:
#
# PCOD9337935 Si02
#       6
#     4   4   4   4   4   4
#     4  10  18  33  54  76 101 135 170 205 246 300
#     4  10  19  35  55  75  97 130 171 214 256 300
#     4  10  18  30  48  74 101 128 161 202 244 293
#     4  11  21  33  49  76 105 132 166 210 256 302
#     4   9  16  31  52  73  95 129 169 204 240 290
#     4   8  17  32  54  78  99 126 171 213 246 293
#
# _framework density 17.893391000000001
#
# number of rings (size 3 to 8) (size 9 to 14) (size 15 to 20)
#    0.000    2.333    0.000    7.500    0.000    0.000 
#    0.000   11.667    0.000    4.000    0.000    0.000 
#    0.000    0.000    0.000    0.000    0.000    0.000 
#
# Total GULP energy -133745.415798 kJ/mol
# GULP energy per Si atom -5572.725658 kJ/mol
# Density = 1.785266 g / cm^3
# Si number density = 17.893391 Si / 1000 Ang^3
#
#
#
# Elastic Constant Matrix: (Units=GPa)
#
#
# Indices 1 2 3 4 5 6 
#
# 1 47.8998 12.7933 7.9781 0.0000 0.0000 0.0000
# 2 12.7933 134.6217 31.3446 0.0000 0.0000 0.0000
# 3 7.9781 31.3446 69.1644 0.0000 0.0000 0.0000
# 4 0.0000 0.0000 0.0000 17.3023 0.0000 0.0000
# 5 0.0000 0.0000 0.0000 0.0000 5.0552 0.0000
# 6 0.0000 0.0000 0.0000 0.0000 0.0000 -14.9947
#
#
#
# Elastic Compliance Matrix: (Units=1/GPa)
#
#
# Indices 1 2 3 4 5 6 
#
# 1 0.021608 -0.001647 -0.001746 0.000000 0.000000 0.000000
# 2 -0.001647 0.008430 -0.003630 0.000000 0.000000 0.000000
# 3 -0.001746 -0.003630 0.016305 0.000000 0.000000 0.000000
# 4 0.000000 0.000000 0.000000 0.057796 0.000000 0.000000
# 5 0.000000 0.000000 0.000000 0.000000 0.197815 0.000000
# 6 0.000000 0.000000 0.000000 0.000000 0.000000 -0.066690
#
#
# Mechanical properties :
#
#
# Convention : Reuss Voigt Hill
#
# Bulk Modulus (GPa) = 30.96374 39.54643 35.25509
# Shear Modulus (GPa) = 19.22518 14.77722 17.00120
#
# Velocity S-wave (km/s) = 3.28140 2.87687 3.08578
# Velocity P-wave (km/s) = 5.63018 5.76058 5.69576
#
# Compressibility (1/GPa) = 0.03229584
#
# Stress axis : x y z
#
# Youngs Moduli (GPa) = 46.28005 118.62372 61.33087
#
# Poissons Ratio (x) = 0.19535 0.10709
# Poissons Ratio (y) = 0.07622 0.22266
# Poissons Ratio (z) = 0.08081 0.43066
#
# Static dielectric constant tensor:
#      x y z
#    x 1.601640 0.000000 0.000000 
#    y 0.000000 1.650540 0.000000 
#    z 0.000000 0.000000 1.619440 
# 
# From -- ./inp_files/4879.got.cif
#   From: 2010.05.17/outbox.cif.g08.bks.cpg/sg26_3_cif.got.tgz:4879.got - 2010.06.04 01:07:29.
