data_PCOD9337769
_publ_section_title
;
Structure prediction by ZEFSAII (Michael W. Deem and Ramdas Pophale) SiO2 
 PCOD9337769
Probable space group: P M M 2
;
_chemical_formula_sum "Si O2"
_cell_formula_units_Z 20
_cell_length_a 9.096113
_cell_length_b 7.367363
_cell_length_c 15.346216
_cell_angle_alpha 90.000000
_cell_angle_beta 90.000000
_cell_angle_gamma 90.000000
_cell_volume 1028.416941
_symmetry_space_group_name_H-M "P M M 2"
_symmetry_group_IT_number 25
_symmetry_cell_setting 'orthorhombic'
loop_
_space_group_symop_operation_xyz
x,y,z
-x,-y,z
-x,y,z
x,-y,z
loop_
_atom_site_type_symbol
_atom_site_label
_atom_site_fract_x
_atom_site_fract_y
_atom_site_fract_z
Si Si1 0.330774 0.721375 0.993750
Si Si2 0.326405 0.717051 0.348185
Si Si3 0.168674 0.279063 0.169069
Si Si4 0.175617 0.713643 0.815330
Si Si5 0.821726 0.000000 0.673136
Si Si6 0.177265 0.000000 0.472840
O O1 0.500000 0.777620 0.998045
O O2 0.327900 0.500000 0.994419
O O3 0.255816 0.776048 0.903239
O O4 0.242464 0.781540 0.079075
O O5 0.500000 0.755867 0.351395
O O6 0.306389 0.500000 0.357673
O O7 0.260958 0.771963 0.254220
O O8 0.241027 0.826496 0.422138
O O9 0.168260 0.500000 0.167070
O O10 0.000000 0.219750 0.176053
O O11 0.203692 0.500000 0.803147
O O12 0.000000 0.737529 0.827292
O O13 0.222398 0.826814 0.730939
O O14 0.772858 0.000000 0.573529
O O15 0.000000 0.000000 0.669830
O O16 0.000000 0.000000 0.469096
#
# Coordination Sequence:
#
# PCOD9337769 Si02
#       6
#     4   4   4   4   2   2
#     4   9  16  27  46  75 110 144 177 215 262 318
#     4  10  21  38  59  83 114 151 188 229 280 336
#     4   9  16  28  50  80 111 144 183 224 267 320
#     4   9  17  32  54  77 103 137 176 218 264 316
#     4   9  20  37  56  79 104 133 175 226 276 325
#     4  11  23  39  60  85 112 143 185 238 290 339
#
# _framework density 19.447365999999999
#
# number of rings (size 3 to 8) (size 9 to 14) (size 15 to 20)
#    0.000    2.600    0.000    2.100    0.000    6.800 
#    0.000    5.500    0.000    3.600    0.000    0.000 
#    0.000    0.000    0.000    0.000    0.000    0.000 
#
# Total GULP energy -111701.304955 kJ/mol
# GULP energy per Si atom -5585.065248 kJ/mol
# Density = 1.940310 g / cm^3
# Si number density = 19.447366 Si / 1000 Ang^3
#
#
#
# Elastic Constant Matrix: (Units=GPa)
#
#
# Indices 1 2 3 4 5 6 
#
# 1 113.7012 44.0101 88.8168 0.0000 0.0000 0.0000
# 2 44.0101 81.3382 59.2544 0.0000 0.0000 0.0000
# 3 88.8168 59.2544 217.2050 0.0000 0.0000 0.0000
# 4 0.0000 0.0000 0.0000 34.4042 0.0000 0.0000
# 5 0.0000 0.0000 0.0000 0.0000 -9.7000 0.0000
# 6 0.0000 0.0000 0.0000 0.0000 0.0000 12.8091
#
#
#
# Elastic Compliance Matrix: (Units=1/GPa)
#
#
# Indices 1 2 3 4 5 6 
#
# 1 0.014010 -0.004252 -0.004569 0.000000 0.000000 0.000000
# 2 -0.004252 0.016634 -0.002799 0.000000 0.000000 0.000000
# 3 -0.004569 -0.002799 0.007236 0.000000 0.000000 0.000000
# 4 0.000000 0.000000 0.000000 0.029066 0.000000 0.000000
# 5 0.000000 0.000000 0.000000 0.000000 -0.103093 0.000000
# 6 0.000000 0.000000 0.000000 0.000000 0.000000 0.078070
#
#
# Mechanical properties :
#
#
# Convention : Reuss Voigt Hill
#
# Bulk Modulus (GPa) = 68.30696 88.48966 78.39831
# Shear Modulus (GPa) = 71.38593 22.18019 46.78306
#
# Velocity S-wave (km/s) = 6.06522 3.38083 4.91004
# Velocity P-wave (km/s) = 9.17875 7.80006 8.51735
#
# Compressibility (1/GPa) = 0.01463980
#
# Stress axis : x y z
#
# Youngs Moduli (GPa) = 71.37981 60.11714 138.20279
#
# Poissons Ratio (x) = 0.25562 0.63140
# Poissons Ratio (y) = 0.30351 0.38686
# Poissons Ratio (z) = 0.32611 0.16828
#
# Static dielectric constant tensor:
#      x y z
#    x 1.646040 0.000000 0.000000 
#    y 0.000000 1.730760 0.000000 
#    z 0.000000 0.000000 1.634470 
# 
# From -- ./inp_files/5186.got.cif
#   From: 2010.05.17/outbox.cif.g08.bks.cpg/sg25_3_cif.got.tgz:5186.got - 2010.06.04 01:04:00.
