data_PCOD9337334
_publ_section_title
;
Structure prediction by ZEFSAII (Michael W. Deem and Ramdas Pophale) SiO2 
 PCOD9337334
Probable space group: P M M 2
;
_chemical_formula_sum "Si O2"
_cell_formula_units_Z 32
_cell_length_a 16.128819
_cell_length_b 7.824006
_cell_length_c 12.084777
_cell_angle_alpha 90.000000
_cell_angle_beta 90.000000
_cell_angle_gamma 90.000000
_cell_volume 1525.001897
_symmetry_space_group_name_H-M "P M M 2"
_symmetry_group_IT_number 25
_symmetry_cell_setting 'orthorhombic'
loop_
_space_group_symop_operation_xyz
x,y,z
-x,-y,z
-x,y,z
x,-y,z
loop_
_atom_site_type_symbol
_atom_site_label
_atom_site_fract_x
_atom_site_fract_y
_atom_site_fract_z
Si Si1 0.908937 0.703189 0.012240
Si Si2 0.251597 0.298578 0.889272
Si Si3 0.155795 0.793158 0.251920
Si Si4 0.092606 0.208939 0.491387
Si Si5 0.590605 0.294666 0.020754
Si Si6 0.348507 0.205012 0.262536
Si Si7 0.407833 0.700614 0.502536
Si Si8 0.753185 0.200058 0.638148
O O1 0.913090 0.500000 0.990819
O O2 0.886661 0.727772 0.140894
O O3 0.000000 0.776233 0.988676
O O4 0.833133 0.775385 0.940178
O O5 0.250847 0.500000 0.917197
O O6 0.255301 0.281589 0.758159
O O7 0.333022 0.225124 0.948926
O O8 0.111501 0.738817 0.365131
O O9 0.252183 0.739871 0.256441
O O10 0.153897 0.000000 0.248038
O O11 0.167841 0.268176 0.569157
O O12 0.000000 0.262364 0.524906
O O13 0.094413 0.000000 0.492048
O O14 0.500000 0.227351 0.988977
O O15 0.588572 0.500000 0.006826
O O16 0.607829 0.257622 0.149244
O O17 0.390988 0.277476 0.372025
O O18 0.349920 0.000000 0.272054
O O19 0.500000 0.769112 0.528836
O O20 0.407269 0.500000 0.529281
O O21 0.330721 0.780478 0.567496
O O22 0.767894 0.000000 0.656327
#
# Coordination Sequence:
#
# PCOD9337334 Si02
#       8
#     4   4   4   4   4   4   4   4
#     4  10  21  37  58  85 117 153 194 239 286 338
#     4  10  22  40  58  80 113 155 197 242 289 339
#     4  10  19  34  58  86 117 152 188 231 288 349
#     4   9  18  35  58  84 116 152 187 228 284 346
#     4  10  21  38  60  84 112 151 194 232 282 349
#     4  11  21  35  59  91 122 150 186 236 290 342
#     4  11  24  41  62  87 117 156 196 233 285 354
#     4  11  23  40  61  87 116 150 196 249 294 337
#
# _framework density 20.98358
#
# number of rings (size 3 to 8) (size 9 to 14) (size 15 to 20)
#    0.000    1.750    2.500    1.875    0.000    6.000 
#    0.000    1.250    0.000    1.875    0.000    0.000 
#    0.000    0.000    0.000    0.000    0.000    0.000 
#
# Total GULP energy -178809.844805 kJ/mol
# GULP energy per Si atom -5587.807650 kJ/mol
# Density = 2.093582 g / cm^3
# Si number density = 20.983580 Si / 1000 Ang^3
#
#
#
# Elastic Constant Matrix: (Units=GPa)
#
#
# Indices 1 2 3 4 5 6 
#
# 1 204.2835 6.6622 70.8067 0.0000 0.0000 0.0000
# 2 6.6622 23.0103 -17.6686 0.0000 0.0000 0.0000
# 3 70.8067 -17.6686 110.6591 0.0000 0.0000 0.0000
# 4 0.0000 0.0000 0.0000 32.4044 0.0000 0.0000
# 5 0.0000 0.0000 0.0000 0.0000 3.8566 0.0000
# 6 0.0000 0.0000 0.0000 0.0000 0.0000 11.8217
#
#
#
# Elastic Compliance Matrix: (Units=1/GPa)
#
#
# Indices 1 2 3 4 5 6 
#
# 1 0.006994 -0.006224 -0.005469 0.000000 0.000000 0.000000
# 2 -0.006224 0.055071 0.012776 0.000000 0.000000 0.000000
# 3 -0.005469 0.012776 0.014576 0.000000 0.000000 0.000000
# 4 0.000000 0.000000 0.000000 0.030860 0.000000 0.000000
# 5 0.000000 0.000000 0.000000 0.000000 0.259299 0.000000
# 6 0.000000 0.000000 0.000000 0.000000 0.000000 0.084590
#
#
# Mechanical properties :
#
#
# Convention : Reuss Voigt Hill
#
# Bulk Modulus (GPa) = 12.68946 50.83926 31.76436
# Shear Modulus (GPa) = 10.51542 28.16006 19.33774
#
# Velocity S-wave (km/s) = 2.24101 3.66731 3.03902
# Velocity P-wave (km/s) = 3.57164 6.49715 5.24259
#
# Compressibility (1/GPa) = 0.07880555
#
# Stress axis : x y z
#
# Youngs Moduli (GPa) = 142.98638 18.15848 68.60656
#
# Poissons Ratio (x) = 0.11302 0.37519
# Poissons Ratio (y) = 0.88996 -0.87649
# Poissons Ratio (z) = 0.78196 -0.23198
#
# Static dielectric constant tensor:
#      x y z
#    x 1.783920 0.000000 0.000000 
#    y 0.000000 1.761120 0.000000 
#    z 0.000000 0.000000 1.689240 
# 
# From -- ./inp_files/4168.got.cif
#   From: 2010.05.17/outbox.cif.g08.bks.cpg/sg25_3_cif.got.tgz:4168.got - 2010.06.04 01:04:00.
