data_PCOD9337275
_publ_section_title
;
Structure prediction by ZEFSAII (Michael W. Deem and Ramdas Pophale) SiO2 
 PCOD9337275
Probable space group: P M M 2
;
_chemical_formula_sum "Si O2"
_cell_formula_units_Z 32
_cell_length_a 20.277490
_cell_length_b 10.933911
_cell_length_c 8.603899
_cell_angle_alpha 90.000000
_cell_angle_beta 90.000000
_cell_angle_gamma 90.000000
_cell_volume 1907.589986
_symmetry_space_group_name_H-M "P M M 2"
_symmetry_group_IT_number 25
_symmetry_cell_setting 'orthorhombic'
loop_
_space_group_symop_operation_xyz
x,y,z
-x,-y,z
-x,y,z
x,-y,z
loop_
_atom_site_type_symbol
_atom_site_label
_atom_site_fract_x
_atom_site_fract_y
_atom_site_fract_z
Si Si1 0.275220 0.282238 0.200620
Si Si2 0.653815 0.366568 0.498831
Si Si3 0.224780 0.282239 0.700620
Si Si4 0.421375 0.860097 0.637720
Si Si5 0.676573 0.140566 0.912938
Si Si6 0.921375 0.860097 0.137720
Si Si7 0.153815 0.366568 0.998831
Si Si8 0.823427 0.859434 0.412939
O O1 0.317395 0.355732 0.325389
O O2 0.216375 0.355015 0.115476
O O3 0.237262 0.178405 0.300767
O O4 0.318725 0.224517 0.064016
O O5 0.622311 0.500000 0.521966
O O6 0.716375 0.355015 0.615475
O O7 0.608886 0.248487 0.534190
O O8 0.262738 0.178405 0.800766
O O9 0.181275 0.224518 0.564017
O O10 0.182605 0.355732 0.825390
O O11 0.500000 0.851926 0.643195
O O12 0.388288 0.844192 0.807436
O O13 0.403522 0.000000 0.587124
O O14 0.682738 0.000000 0.959120
O O15 0.891114 0.751513 0.034191
O O16 0.888287 0.844193 0.307436
O O17 0.000000 0.851926 0.143195
O O18 0.903522 0.000000 0.087123
O O19 0.122311 0.500000 0.021966
O O20 0.817261 0.000000 0.459121
#
# Coordination Sequence:
#
# PCOD9337275 Si02
#       8
#     4   4   4   4   4   4   4   4
#     4   9  18  29  46  75 102 126 158 197 244 290
#     4  10  19  32  51  73 100 131 161 197 241 290
#     4   9  18  29  46  75 102 126 158 197 244 290
#     4   9  19  35  52  71  96 128 166 204 241 283
#     4   9  16  28  48  72 100 130 160 198 241 288
#     4   9  19  35  52  71  96 128 166 204 241 283
#     4  10  19  32  51  73 100 131 161 197 241 290
#     4   9  16  28  48  72 100 130 160 198 241 288
#
# _framework density 16.775092999999998
#
# number of rings (size 3 to 8) (size 9 to 14) (size 15 to 20)
#    0.000    2.750    0.000    1.500    0.000    7.500 
#    0.000    2.500    0.000    3.000    0.000    0.000 
#    0.000    0.000    0.000    0.000    0.000    0.000 
#
# Total GULP energy -178216.909025 kJ/mol
# GULP energy per Si atom -5569.278407 kJ/mol
# Density = 1.673691 g / cm^3
# Si number density = 16.775093 Si / 1000 Ang^3
#
#
#
# Elastic Constant Matrix: (Units=GPa)
#
#
# Indices 1 2 3 4 5 6 
#
# 1 58.6127 49.5788 23.8326 0.0000 0.0000 0.0000
# 2 49.5788 126.8541 42.4644 0.0000 0.0000 0.0000
# 3 23.8326 42.4644 80.2215 0.0000 0.0000 0.0000
# 4 0.0000 0.0000 0.0000 5.3555 0.0000 0.0000
# 5 0.0000 0.0000 0.0000 0.0000 12.9359 0.0000
# 6 0.0000 0.0000 0.0000 0.0000 0.0000 12.8374
#
#
#
# Elastic Compliance Matrix: (Units=1/GPa)
#
#
# Indices 1 2 3 4 5 6 
#
# 1 0.026013 -0.009212 -0.002852 0.000000 0.000000 0.000000
# 2 -0.009212 0.012843 -0.004062 0.000000 0.000000 0.000000
# 3 -0.002852 -0.004062 0.015463 0.000000 0.000000 0.000000
# 4 0.000000 0.000000 0.000000 0.186725 0.000000 0.000000
# 5 0.000000 0.000000 0.000000 0.000000 0.077304 0.000000
# 6 0.000000 0.000000 0.000000 0.000000 0.000000 0.077898
#
#
# Mechanical properties :
#
#
# Convention : Reuss Voigt Hill
#
# Bulk Modulus (GPa) = 45.31474 55.27110 50.29292
# Shear Modulus (GPa) = 11.47177 16.21325 13.84251
#
# Velocity S-wave (km/s) = 2.61790 3.11224 2.87572
# Velocity P-wave (km/s) = 6.01744 6.77751 6.40875
#
# Compressibility (1/GPa) = 0.02206787
#
# Stress axis : x y z
#
# Youngs Moduli (GPa) = 38.44241 77.86295 64.67202
#
# Poissons Ratio (x) = 0.71728 0.18443
# Poissons Ratio (y) = 0.35414 0.26267
# Poissons Ratio (z) = 0.10963 0.31625
#
# Static dielectric constant tensor:
#      x y z
#    x 1.546230 0.000000 0.000000 
#    y 0.000000 1.599940 0.000000 
#    z 0.000000 0.000000 1.552110 
# 
# From -- ./inp_files/3507.got.cif
#   From: 2010.05.17/outbox.cif.g08.bks.cpg/sg25_2_cif.got.tgz:3507.got - 2010.06.04 01:04:00.
