data_PCOD9337313
_publ_section_title
;
Structure prediction by ZEFSAII (Michael W. Deem and Ramdas Pophale) SiO2 
 PCOD9337313
Probable space group: P M M 2
;
_chemical_formula_sum "Si O2"
_cell_formula_units_Z 32
_cell_length_a 8.280668
_cell_length_b 15.198059
_cell_length_c 12.756847
_cell_angle_alpha 90.000000
_cell_angle_beta 90.000000
_cell_angle_gamma 90.000000
_cell_volume 1605.450226
_symmetry_space_group_name_H-M "P M M 2"
_symmetry_group_IT_number 25
_symmetry_cell_setting 'orthorhombic'
loop_
_space_group_symop_operation_xyz
x,y,z
-x,-y,z
-x,y,z
x,-y,z
loop_
_atom_site_type_symbol
_atom_site_label
_atom_site_fract_x
_atom_site_fract_y
_atom_site_fract_z
Si Si1 0.807332 0.597016 0.153430
Si Si2 0.194961 0.898276 0.880527
Si Si3 0.810610 0.180310 0.446432
Si Si4 0.306997 0.779638 0.073970
Si Si5 0.693328 0.095016 0.255659
Si Si6 0.803915 0.788135 0.680217
Si Si7 0.806383 0.404803 0.618148
Si Si8 0.312884 0.634868 0.387237
O O1 0.750287 0.500000 0.119439
O O2 0.739896 0.677931 0.086075
O O3 0.761338 0.607806 0.276202
O O4 0.000000 0.599917 0.145890
O O5 0.254316 0.847622 0.775909
O O6 0.000000 0.902295 0.875498
O O7 0.252724 0.000000 0.889217
O O8 0.241204 0.835452 0.976958
O O9 0.775991 0.101817 0.368112
O O10 0.766415 0.168832 0.567527
O O11 0.707971 0.260542 0.399581
O O12 0.000000 0.204987 0.443192
O O13 0.500000 0.785951 0.072009
O O14 0.247354 0.828804 0.179071
O O15 0.500000 0.102801 0.268863
O O16 0.726076 0.000000 0.206155
O O17 0.746315 0.686058 0.671368
O O18 0.000000 0.784399 0.688415
O O19 0.745362 0.500000 0.657241
O O20 0.768612 0.399826 0.493811
O O21 0.000000 0.404177 0.629778
O O22 0.500000 0.610163 0.387586
#
# Coordination Sequence:
#
# PCOD9337313 Si02
#       8
#     4   4   4   4   4   4   4   4
#     4  11  23  38  58  85 116 151 193 238 283 338
#     4  10  21  39  63  86 111 149 198 248 295 346
#     4  10  19  33  55  82 115 153 193 237 285 337
#     4  11  23  40  61  84 115 152 191 240 293 346
#     4  10  21  36  54  80 115 152 186 228 290 354
#     4   8  17  34  55  81 111 144 190 245 292 337
#     4   9  17  31  52  78 110 150 194 239 287 340
#     4  11  20  31  50  79 117 158 194 230 279 338
#
# _framework density 19.932105
#
# number of rings (size 3 to 8) (size 9 to 14) (size 15 to 20)
#    0.000    2.000    1.250    3.750    0.000    4.750 
#    0.000    5.000    0.000    2.250    0.000    0.000 
#    0.000    0.000    0.000    0.000    0.000    0.000 
#
# Total GULP energy -178503.497579 kJ/mol
# GULP energy per Si atom -5578.234299 kJ/mol
# Density = 1.988674 g / cm^3
# Si number density = 19.932105 Si / 1000 Ang^3
#
#
#
# Elastic Constant Matrix: (Units=GPa)
#
#
# Indices 1 2 3 4 5 6 
#
# 1 20.6254 15.4260 10.8790 0.0000 0.0000 0.0000
# 2 15.4260 162.1270 78.4807 0.0000 0.0000 0.0000
# 3 10.8790 78.4807 115.6366 0.0000 0.0000 0.0000
# 4 0.0000 0.0000 0.0000 -16.4491 0.0000 0.0000
# 5 0.0000 0.0000 0.0000 0.0000 -20.0523 0.0000
# 6 0.0000 0.0000 0.0000 0.0000 0.0000 11.3731
#
#
#
# Elastic Compliance Matrix: (Units=1/GPa)
#
#
# Indices 1 2 3 4 5 6 
#
# 1 0.052610 -0.003887 -0.002312 0.000000 0.000000 0.000000
# 2 -0.003887 0.009473 -0.006063 0.000000 0.000000 0.000000
# 3 -0.002312 -0.006063 0.012980 0.000000 0.000000 0.000000
# 4 0.000000 0.000000 0.000000 -0.060794 0.000000 0.000000
# 5 0.000000 0.000000 0.000000 0.000000 -0.049870 0.000000
# 6 0.000000 0.000000 0.000000 0.000000 0.000000 0.087927
#
#
# Mechanical properties :
#
#
# Convention : Reuss Voigt Hill
#
# Bulk Modulus (GPa) = 19.78637 56.44005 38.11321
# Shear Modulus (GPa) = 53.36322 7.88123 30.62223
#
# Velocity S-wave (km/s) = 5.17983 1.99063 3.92385
# Velocity P-wave (km/s) = 6.76185 5.80182 6.30015
#
# Compressibility (1/GPa) = 0.05053984
#
# Stress axis : x y z
#
# Youngs Moduli (GPa) = 19.00771 105.56363 77.03892
#
# Poissons Ratio (x) = 0.41030 0.17809
# Poissons Ratio (y) = 0.07388 0.46712
# Poissons Ratio (z) = 0.04394 0.64008
#
# Static dielectric constant tensor:
#      x y z
#    x 1.709520 0.000000 0.000000 
#    y 0.000000 1.795460 0.000000 
#    z 0.000000 0.000000 1.685790 
# 
# From -- ./inp_files/4306.got.cif
#   From: 2010.05.17/outbox.cif.g08.bks.cpg/sg25_3_cif.got.tgz:4306.got - 2010.06.04 01:04:00.
