data_PCOD9337928
_publ_section_title
;
Structure prediction by ZEFSAII (Michael W. Deem and Ramdas Pophale) SiO2 
 PCOD9337928
Probable space group: P M C 21
;
_chemical_formula_sum "Si O2"
_cell_formula_units_Z 32
_cell_length_a 8.973741
_cell_length_b 21.618094
_cell_length_c 9.898539
_cell_angle_alpha 90.000000
_cell_angle_beta 90.000000
_cell_angle_gamma 90.000000
_cell_volume 1920.268820
_symmetry_space_group_name_H-M "P M C 21"
_symmetry_group_IT_number 26
_symmetry_cell_setting 'orthorhombic'
loop_
_space_group_symop_operation_xyz
x,y,z
-x,-y,1/2+z
-x,y,z
x,-y,1/2+z
loop_
_atom_site_type_symbol
_atom_site_label
_atom_site_fract_x
_atom_site_fract_y
_atom_site_fract_z
Si Si1 0.821967 0.400736 0.850230
Si Si2 0.677505 0.464421 0.353057
Si Si3 0.677495 0.638889 0.075109
Si Si4 0.173828 0.049977 0.648727
Si Si5 0.821043 0.732387 0.868044
Si Si6 0.323848 0.003115 0.394570
Si Si7 0.175414 0.872707 0.901117
Si Si8 0.178162 0.369089 0.150850
O O1 0.759469 0.470387 0.858059
O O2 0.749744 0.368259 0.721137
O O3 0.000000 0.402251 0.834766
O O4 0.785717 0.368384 0.992948
O O5 0.500000 0.473589 0.342703
O O6 0.709204 0.422791 0.485720
O O7 0.735837 0.424023 0.227102
O O8 0.500000 0.644699 0.085277
O O9 0.744192 0.695496 0.989683
O O10 0.242408 0.001666 0.539800
O O11 0.187210 0.113577 0.562843
O O12 0.000000 0.037558 0.672415
O O13 0.262765 0.045573 0.786994
O O14 0.776750 0.804081 0.863884
O O15 0.787320 0.693722 0.732302
O O16 0.000000 0.730897 0.887851
O O17 0.500000 0.000156 0.409962
O O18 0.271754 0.071161 0.341103
O O19 0.000000 0.881288 0.866951
O O20 0.000000 0.380274 0.164236
#
# Coordination Sequence:
#
# PCOD9337928 Si02
#       8
#     4   4   4   4   4   4   4   4
#     4  11  21  32  48  71  98 126 159 202 253 300
#     4  10  20  33  49  71  96 125 161 199 246 304
#     4  10  21  34  50  73  99 130 163 201 251 298
#     4   9  17  31  50  75 105 136 169 202 247 299
#     4   9  17  35  57  74  94 126 173 212 240 288
#     4  10  18  29  49  78 107 134 165 206 251 293
#     4   8  17  31  53  76  99 133 171 206 246 296
#     4   9  19  33  52  74  96 124 161 206 248 290
#
# _framework density 16.664334
#
# number of rings (size 3 to 8) (size 9 to 14) (size 15 to 20)
#    0.750    1.750    0.000    3.000    0.000    5.000 
#    0.000    0.000    2.750    0.000    0.000    0.000 
#    0.000    0.000    0.000    0.000    0.000    0.000 
#
# Total GULP energy -178225.228823 kJ/mol
# GULP energy per Si atom -5569.538401 kJ/mol
# Density = 1.662641 g / cm^3
# Si number density = 16.664334 Si / 1000 Ang^3
#
#
#
# Elastic Constant Matrix: (Units=GPa)
#
#
# Indices 1 2 3 4 5 6 
#
# 1 48.6319 12.0035 25.5698 0.0000 0.0000 0.0000
# 2 12.0035 41.2853 3.4735 0.0000 0.0000 0.0000
# 3 25.5698 3.4735 86.5187 0.0000 0.0000 0.0000
# 4 0.0000 0.0000 0.0000 5.3304 0.0000 0.0000
# 5 0.0000 0.0000 0.0000 0.0000 21.1032 0.0000
# 6 0.0000 0.0000 0.0000 0.0000 0.0000 12.8747
#
#
#
# Elastic Compliance Matrix: (Units=1/GPa)
#
#
# Indices 1 2 3 4 5 6 
#
# 1 0.026215 -0.006994 -0.007467 0.000000 0.000000 0.000000
# 2 -0.006994 0.026170 0.001016 0.000000 0.000000 0.000000
# 3 -0.007467 0.001016 0.013724 0.000000 0.000000 0.000000
# 4 0.000000 0.000000 0.000000 0.187602 0.000000 0.000000
# 5 0.000000 0.000000 0.000000 0.000000 0.047386 0.000000
# 6 0.000000 0.000000 0.000000 0.000000 0.000000 0.077672
#
#
# Mechanical properties :
#
#
# Convention : Reuss Voigt Hill
#
# Bulk Modulus (GPa) = 25.49705 28.72549 27.11127
# Shear Modulus (GPa) = 11.94086 16.88760 14.41423
#
# Velocity S-wave (km/s) = 2.67975 3.18684 2.94424
# Velocity P-wave (km/s) = 4.99083 5.55126 5.27848
#
# Compressibility (1/GPa) = 0.03922022
#
# Stress axis : x y z
#
# Youngs Moduli (GPa) = 38.14658 38.21232 72.86446
#
# Poissons Ratio (x) = 0.26724 0.54406
# Poissons Ratio (y) = 0.26678 -0.07405
# Poissons Ratio (z) = 0.28483 -0.03883
#
# Static dielectric constant tensor:
#      x y z
#    x 1.554150 0.000000 0.000000 
#    y 0.000000 1.549580 0.000000 
#    z 0.000000 0.000000 1.561740 
# 
# From -- ./inp_files/1604.got.cif
#   From: 2010.05.17/outbox.cif.g08.bks.cpg/sg26_1_cif.got.tgz:1604.got - 2010.06.04 01:07:29.
