data_PCOD9337044
_publ_section_title
;
Structure prediction by ZEFSAII (Michael W. Deem and Ramdas Pophale) SiO2 
 PCOD9337044
Probable space group: I 21 21 21
;
_chemical_formula_sum "Si O2"
_cell_formula_units_Z 32
_cell_length_a 9.000000
_cell_length_b 21.000000
_cell_length_c 18.000000
_cell_angle_alpha 90.000000
_cell_angle_beta 90.000000
_cell_angle_gamma 90.000000
_cell_volume 3402.000000
_symmetry_space_group_name_H-M "I 21 21 21"
_symmetry_group_IT_number 24
_symmetry_cell_setting 'orthorhombic'
loop_
_space_group_symop_operation_xyz
x,y,z
-x,1/2-y,z
x,-y,1/2-z
1/2-x,y,-z
1/2+x,1/2+y,1/2+z
1/2-x,-y,1/2+z
1/2+x,1/2-y,-z
-x,1/2+y,1/2-z
loop_
_atom_site_type_symbol
_atom_site_label
_atom_site_fract_x
_atom_site_fract_y
_atom_site_fract_z
Si Si1 0.400724 0.186879 0.449427
Si Si2 0.321709 0.988113 0.920340
Si Si3 0.322408 0.748667 0.420513
Si Si4 0.253683 0.122385 0.316784
Si Si5 0.564919 0.183559 0.651344
Si Si6 0.606509 0.811150 0.684150
Si Si7 0.187965 0.876293 0.350815
Si Si8 0.898640 0.086103 0.464452
O O1 0.500000 0.250000 0.451992
O O2 0.250000 0.192101 0.500000
O O3 0.352941 0.170188 0.365309
O O4 0.496936 0.128097 0.481355
O O5 0.242520 0.945038 0.858099
O O6 0.493294 0.965808 0.927525
O O7 0.299890 0.060472 0.898208
O O8 0.250000 0.975182 0.000000
O O9 0.500000 0.750000 0.423087
O O10 0.250000 0.735816 0.500000
O O11 0.251747 0.696605 0.364964
O O12 0.259443 0.816577 0.392865
O O13 0.270501 0.119270 0.228805
O O14 0.085246 0.146145 0.329022
O O15 0.500000 0.250000 0.621434
O O16 0.646880 0.192722 0.729068
O O17 0.652286 0.140301 0.594359
O O18 0.500000 0.750000 0.671232
O O19 0.489153 0.866214 0.664917
O O20 0.750000 0.058828 0.500000
#
# Coordination Sequence:
#
# PCOD9337044 Si02
#       8
#     8   8   8   8   8   8   8   8
#     4  12  22  37  58  90 127 171 212 251 314 378
#     4  11  20  40  60  82 120 158 210 255 300 372
#     4  11  22  40  62  90 123 148 193 259 318 375
#     4  10  20  37  56  87 120 154 204 261 293 366
#     4   9  17  32  56  78 117 156 197 238 300 372
#     4   8  17  36  58  86 116 147 192 249 301 368
#     4  10  21  37  65  90 109 163 205 243 325 377
#     4  11  22  36  55  86 122 164 207 261 305 353
#
# _framework density 9.4062319999999993
#
# number of rings (size 3 to 8) (size 9 to 14) (size 15 to 20)
#    0.000    1.750    3.750    3.375    1.750    0.500 
#    2.250    3.125    0.000    0.000    6.500    0.000 
#    0.000    0.000    0.000    0.000    0.000    0.000 
#
# Total GULP energy -178409.631627 kJ/mol
# GULP energy per Si atom -5575.300988 kJ/mol
# Density = 0.938482 g / cm^3
# Si number density = 9.406232 Si / 1000 Ang^3
#
#
#
# Elastic Constant Matrix: (Units=GPa)
#
#
# Indices 1 2 3 4 5 6 
#
# 1 89.4533 13.3287 43.8976 0.0000 0.0000 0.0000
# 2 13.3287 61.6372 15.9555 0.0000 0.0000 0.0000
# 3 43.8976 15.9555 95.1304 0.0000 0.0000 0.0000
# 4 0.0000 0.0000 0.0000 49.1261 0.0000 0.0000
# 5 0.0000 0.0000 0.0000 0.0000 21.4848 0.0000
# 6 0.0000 0.0000 0.0000 0.0000 0.0000 18.8339
#
#
#
# Elastic Compliance Matrix: (Units=1/GPa)
#
#
# Indices 1 2 3 4 5 6 
#
# 1 0.014579 -0.001475 -0.006480 0.000000 0.000000 0.000000
# 2 -0.001475 0.017110 -0.002189 0.000000 0.000000 0.000000
# 3 -0.006480 -0.002189 0.013869 0.000000 0.000000 0.000000
# 4 0.000000 0.000000 0.000000 0.020356 0.000000 0.000000
# 5 0.000000 0.000000 0.000000 0.000000 0.046544 0.000000
# 6 0.000000 0.000000 0.000000 0.000000 0.000000 0.053096
#
#
# Mechanical properties :
#
#
# Convention : Reuss Voigt Hill
#
# Bulk Modulus (GPa) = 39.57348 43.62049 41.59699
# Shear Modulus (GPa) = 25.73810 29.42492 27.58151
#
# Velocity S-wave (km/s) = 3.70285 3.95918 3.83316
# Velocity P-wave (km/s) = 6.27399 6.64361 6.46144
#
# Compressibility (1/GPa) = 0.02526945
#
# Stress axis : x y z
#
# Youngs Moduli (GPa) = 68.59325 58.44677 72.10258
#
# Poissons Ratio (x) = 0.08622 0.46721
# Poissons Ratio (y) = 0.10119 0.15783
# Poissons Ratio (z) = 0.44447 0.12794
#
# Static dielectric constant tensor:
#      x y z
#    x 1.575240 0.000000 0.000000 
#    y 0.000000 1.677650 0.000000 
#    z 0.000000 0.000000 1.709310 
# 
# From -- ./inp_files/29836.got.cif
#   From: 2010.05.17/outbox.ucp.g08.bks.cvg/sg24_15_cif.got.tgz:29836.got - 2010.06.11 15:20:44.
