data_PCOD9337189
_publ_section_title
;
Structure prediction by ZEFSAII (Michael W. Deem and Ramdas Pophale) SiO2 
 PCOD9337189
Probable space group: P M M 2
;
_chemical_formula_sum "Si O2"
_cell_formula_units_Z 24
_cell_length_a 12.242681
_cell_length_b 7.494332
_cell_length_c 13.086560
_cell_angle_alpha 90.000000
_cell_angle_beta 90.000000
_cell_angle_gamma 90.000000
_cell_volume 1200.701250
_symmetry_space_group_name_H-M "P M M 2"
_symmetry_group_IT_number 25
_symmetry_cell_setting 'orthorhombic'
loop_
_space_group_symop_operation_xyz
x,y,z
-x,-y,z
-x,y,z
x,-y,z
loop_
_atom_site_type_symbol
_atom_site_label
_atom_site_fract_x
_atom_site_fract_y
_atom_site_fract_z
Si Si1 0.123983 0.713098 0.924420
Si Si2 0.500000 0.283567 0.655652
Si Si3 0.736832 0.781311 0.350035
Si Si4 0.124296 0.214354 0.158201
Si Si5 0.500000 0.788510 0.413973
Si Si6 0.125324 0.215961 0.548336
Si Si7 0.727722 0.709166 0.743896
O O1 0.117916 0.500000 0.908738
O O2 0.209954 0.785486 0.842400
O O3 0.000000 0.783381 0.910011
O O4 0.155800 0.743343 0.041953
O O5 0.500000 0.500000 0.658318
O O6 0.500000 0.235270 0.536179
O O7 0.389629 0.216963 0.709867
O O8 0.793255 0.721932 0.245142
O O9 0.613242 0.718267 0.367938
O O10 0.810930 0.727160 0.446472
O O11 0.735374 0.000000 0.350099
O O12 0.000000 0.280590 0.174585
O O13 0.120319 0.000000 0.166747
O O14 0.500000 0.000000 0.394157
O O15 0.191217 0.275425 0.647792
O O16 0.000000 0.276766 0.549407
O O17 0.124652 0.000000 0.548688
O O18 0.708757 0.500000 0.764910
#
# Coordination Sequence:
#
# PCOD9337189 Si02
#       7
#     4   2   4   4   2   4   4
#     4   9  18  33  51  70  95 128 164 202 247 297
#     4  10  20  34  51  72  98 132 171 207 244 293
#     4   9  17  30  49  73  99 128 162 199 244 294
#     4   9  17  31  51  72  96 127 162 201 245 293
#     4  10  18  32  53  72  96 134 169 199 244 299
#     4  10  19  30  48  75 103 128 160 204 249 298
#     4  10  20  34  51  71  99 133 167 205 250 298
#
# _framework density 19.988319000000001
#
# number of rings (size 3 to 8) (size 9 to 14) (size 15 to 20)
#    0.000    2.500    1.667    1.000    0.000    3.667 
#    0.000    4.167    0.000    2.000    0.000    0.000 
#    0.000    0.000    0.000    0.000    0.000    0.000 
#
# Total GULP energy -133983.482620 kJ/mol
# GULP energy per Si atom -5582.645109 kJ/mol
# Density = 1.994282 g / cm^3
# Si number density = 19.988319 Si / 1000 Ang^3
#
#
#
# Elastic Constant Matrix: (Units=GPa)
#
#
# Indices 1 2 3 4 5 6 
#
# 1 196.4903 -0.9770 122.2811 0.0000 0.0000 0.0000
# 2 -0.9770 51.3075 -10.2578 0.0000 0.0000 0.0000
# 3 122.2811 -10.2578 171.7158 0.0000 0.0000 0.0000
# 4 0.0000 0.0000 0.0000 22.5511 0.0000 0.0000
# 5 0.0000 0.0000 0.0000 0.0000 19.0620 0.0000
# 6 0.0000 0.0000 0.0000 0.0000 0.0000 8.4447
#
#
#
# Elastic Compliance Matrix: (Units=1/GPa)
#
#
# Indices 1 2 3 4 5 6 
#
# 1 0.009206 -0.001149 -0.006625 0.000000 0.000000 0.000000
# 2 -0.001149 0.019869 0.002005 0.000000 0.000000 0.000000
# 3 -0.006625 0.002005 0.010661 0.000000 0.000000 0.000000
# 4 0.000000 0.000000 0.000000 0.044344 0.000000 0.000000
# 5 0.000000 0.000000 0.000000 0.000000 0.052460 0.000000
# 6 0.000000 0.000000 0.000000 0.000000 0.000000 0.118418
#
#
# Mechanical properties :
#
#
# Convention : Reuss Voigt Hill
#
# Bulk Modulus (GPa) = 35.46160 71.28960 53.37560
# Shear Modulus (GPa) = 18.12285 30.57605 24.34945
#
# Velocity S-wave (km/s) = 3.01437 3.91538 3.49404
# Velocity P-wave (km/s) = 5.46762 7.49555 6.56042
#
# Compressibility (1/GPa) = 0.02819952
#
# Stress axis : x y z
#
# Youngs Moduli (GPa) = 108.62239 50.32882 93.80190
#
# Poissons Ratio (x) = 0.05783 0.62139
# Poissons Ratio (y) = 0.12482 -0.18810
# Poissons Ratio (z) = 0.71957 -0.10092
#
# Static dielectric constant tensor:
#      x y z
#    x 1.704270 0.000000 0.000000 
#    y 0.000000 1.769760 0.000000 
#    z 0.000000 0.000000 1.661430 
# 
# From -- ./inp_files/2660.got.cif
#   From: 2010.05.17/outbox.cif.g08.bks.cpg/sg25_2_cif.got.tgz:2660.got - 2010.06.04 01:04:00.
