data_PCOD9337457
_publ_section_title
;
Structure prediction by ZEFSAII (Michael W. Deem and Ramdas Pophale) SiO2 
 PCOD9337457
Probable space group: P M M 2
;
_chemical_formula_sum "Si O2"
_cell_formula_units_Z 32
_cell_length_a 7.429266
_cell_length_b 9.525032
_cell_length_c 21.876504
_cell_angle_alpha 90.000000
_cell_angle_beta 90.000000
_cell_angle_gamma 90.000000
_cell_volume 1548.068850
_symmetry_space_group_name_H-M "P M M 2"
_symmetry_group_IT_number 25
_symmetry_cell_setting 'orthorhombic'
loop_
_space_group_symop_operation_xyz
x,y,z
-x,-y,z
-x,y,z
x,-y,z
loop_
_atom_site_type_symbol
_atom_site_label
_atom_site_fract_x
_atom_site_fract_y
_atom_site_fract_z
Si Si1 0.715597 0.659667 0.612370
Si Si2 0.712864 0.170452 0.991902
Si Si3 0.279954 0.163114 0.727541
Si Si4 0.220576 0.161405 0.360161
Si Si5 0.283278 0.839196 0.124974
Si Si6 0.717939 0.832935 0.860484
Si Si7 0.785342 0.660294 0.475764
Si Si8 0.213989 0.341393 0.244574
O O1 0.500000 0.653774 0.618395
O O2 0.785033 0.500000 0.614812
O O3 0.782923 0.750744 0.668973
O O4 0.752313 0.714973 0.544261
O O5 0.500000 0.204063 0.991582
O O6 0.784496 0.212653 0.058440
O O7 0.727198 0.000000 0.991576
O O8 0.785688 0.221229 0.926242
O O9 0.500000 0.165097 0.727785
O O10 0.222095 0.221063 0.794181
O O11 0.227352 0.000000 0.722590
O O12 0.280569 0.240680 0.421594
O O13 0.282125 0.247996 0.300880
O O14 0.000000 0.160346 0.359993
O O15 0.278187 0.000000 0.357997
O O16 0.500000 0.846058 0.120454
O O17 0.240533 0.738737 0.180922
O O18 0.220366 0.000000 0.135752
O O19 0.500000 0.819975 0.861904
O O20 0.756379 0.000000 0.859199
O O21 0.714362 0.500000 0.471790
O O22 0.000000 0.651326 0.468248
O O23 0.286370 0.500000 0.243758
O O24 0.000000 0.351957 0.253935
#
# Coordination Sequence:
#
# PCOD9337457 Si02
#       8
#     4   4   4   4   4   4   4   4
#     4   9  17  28  41  59  85 113 137 166 207 249
#     4   7  10  18  34  57  84 111 138 171 212 255
#     4   8  13  21  35  56  81 109 140 172 206 246
#     4   9  17  30  49  70  88 107 137 180 222 254
#     4   9  17  29  46  69  95 120 147 183 227 270
#     4   7   9  15  30  53  79 106 137 171 206 246
#     4   9  17  30  47  64  82 107 139 171 204 250
#     4  10  20  33  49  68  90 119 153 184 216 260
#
# _framework density 20.670914
#
# number of rings (size 3 to 8) (size 9 to 14) (size 15 to 20)
#    0.000    3.500    0.000    3.000    0.000    3.000 
#    0.000    0.625    0.000    3.000    0.000    4.375 
#    0.000    5.000    0.000    0.000    0.000    0.000 
#
# Total GULP energy -178286.828802 kJ/mol
# GULP energy per Si atom -5571.463400 kJ/mol
# Density = 2.062387 g / cm^3
# Si number density = 20.670914 Si / 1000 Ang^3
#
#
#
# Elastic Constant Matrix: (Units=GPa)
#
#
# Indices 1 2 3 4 5 6 
#
# 1 63.7879 5.1833 3.0784 0.0000 0.0000 0.0000
# 2 5.1833 92.7232 110.1138 0.0000 0.0000 0.0000
# 3 3.0784 110.1138 268.3685 0.0000 0.0000 0.0000
# 4 0.0000 0.0000 0.0000 -45.9174 0.0000 0.0000
# 5 0.0000 0.0000 0.0000 0.0000 20.5471 0.0000
# 6 0.0000 0.0000 0.0000 0.0000 0.0000 -85.4790
#
#
#
# Elastic Compliance Matrix: (Units=1/GPa)
#
#
# Indices 1 2 3 4 5 6 
#
# 1 0.015766 -0.001300 0.000353 0.000000 0.000000 0.000000
# 2 -0.001300 0.021141 -0.008659 0.000000 0.000000 0.000000
# 3 0.000353 -0.008659 0.007275 0.000000 0.000000 0.000000
# 4 0.000000 0.000000 0.000000 -0.021778 0.000000 0.000000
# 5 0.000000 0.000000 0.000000 0.000000 0.048669 0.000000
# 6 0.000000 0.000000 0.000000 0.000000 0.000000 -0.011699
#
#
# Mechanical properties :
#
#
# Convention : Reuss Voigt Hill
#
# Bulk Modulus (GPa) = 40.05114 73.51453 56.78283
# Shear Modulus (GPa) = 57.53087 -1.73627 27.89730
#
# Velocity S-wave (km/s) = 5.28131 -0.91749 3.67766
# Velocity P-wave (km/s) = 7.52378 5.87529 6.75005
#
# Compressibility (1/GPa) = 0.02496808
#
# Stress axis : x y z
#
# Youngs Moduli (GPa) = 63.42929 47.30155 137.45329
#
# Poissons Ratio (x) = 0.06149 -0.04846
# Poissons Ratio (y) = 0.08246 1.19026
# Poissons Ratio (z) = -0.02236 0.40960
#
# Static dielectric constant tensor:
#      x y z
#    x 1.815180 0.000000 0.000000 
#    y 0.000000 1.697950 0.000000 
#    z 0.000000 0.000000 1.770580 
# 
# From -- ./inp_files/6365.got.cif
#   From: 2010.05.17/outbox.cif.g08.bks.cpg/sg25_4_cif.got.tgz:6365.got - 2010.06.04 01:04:00.
