data_PCOD9337145
_publ_section_title
;
Structure prediction by ZEFSAII (Michael W. Deem and Ramdas Pophale) SiO2 
 PCOD9337145
Probable space group: P M M 2
;
_chemical_formula_sum "Si O2"
_cell_formula_units_Z 16
_cell_length_a 7.517226
_cell_length_b 9.238411
_cell_length_c 12.234488
_cell_angle_alpha 90.000000
_cell_angle_beta 90.000000
_cell_angle_gamma 90.000000
_cell_volume 849.651221
_symmetry_space_group_name_H-M "P M M 2"
_symmetry_group_IT_number 25
_symmetry_cell_setting 'orthorhombic'
loop_
_space_group_symop_operation_xyz
x,y,z
-x,-y,z
-x,y,z
x,-y,z
loop_
_atom_site_type_symbol
_atom_site_label
_atom_site_fract_x
_atom_site_fract_y
_atom_site_fract_z
Si Si1 0.707765 0.160804 0.257380
Si Si2 0.500000 0.673206 0.822169
Si Si3 0.205752 0.168747 0.680360
Si Si4 0.500000 0.825547 0.054388
Si Si5 0.283842 0.335917 0.461400
O O1 0.500000 0.144403 0.292179
O O2 0.779550 0.273786 0.344434
O O3 0.787991 0.000000 0.262458
O O4 0.672937 0.206378 0.131576
O O5 0.500000 0.500000 0.821163
O O6 0.669372 0.736456 0.757622
O O7 0.500000 0.737310 0.944116
O O8 0.224530 0.230445 0.557961
O O9 0.000000 0.178478 0.713492
O O10 0.259736 0.000000 0.683497
O O11 0.500000 0.000000 0.036514
O O12 0.500000 0.340825 0.464156
O O13 0.221859 0.500000 0.479197
#
# Coordination Sequence:
#
# PCOD9337145 Si02
#       5
#     4   2   4   2   4
#     4   7  13  26  47  75 105 140 181 222 265 320
#     4  12  24  37  58  85 114 151 187 233 291 340
#     4  11  24  40  59  82 111 151 196 238 278 331
#     4   8  16  31  52  79 108 145 191 231 269 326
#     4  10  18  29  51  83 115 145 176 220 282 335
#
# _framework density 18.831257000000001
#
# number of rings (size 3 to 8) (size 9 to 14) (size 15 to 20)
#    0.750    1.750    1.250    2.625    0.000    4.000 
#    0.000    0.000    0.000    1.500    0.000   10.500 
#    0.000    0.000    0.000    0.000    0.000    0.000 
#
# Total GULP energy -89077.451282 kJ/mol
# GULP energy per Si atom -5567.340705 kJ/mol
# Density = 1.878840 g / cm^3
# Si number density = 18.831257 Si / 1000 Ang^3
#
#
#
# Elastic Constant Matrix: (Units=GPa)
#
#
# Indices 1 2 3 4 5 6 
#
# 1 66.3424 36.7941 28.5720 0.0000 0.0000 0.0000
# 2 36.7941 144.9042 90.2992 0.0000 0.0000 0.0000
# 3 28.5720 90.2992 138.0607 0.0000 0.0000 0.0000
# 4 0.0000 0.0000 0.0000 -18.2767 0.0000 0.0000
# 5 0.0000 0.0000 0.0000 0.0000 -14.2052 0.0000
# 6 0.0000 0.0000 0.0000 0.0000 0.0000 -3.0457
#
#
#
# Elastic Compliance Matrix: (Units=1/GPa)
#
#
# Indices 1 2 3 4 5 6 
#
# 1 0.017665 -0.003726 -0.001219 0.000000 0.000000 0.000000
# 2 -0.003726 0.012435 -0.007362 0.000000 0.000000 0.000000
# 3 -0.001219 -0.007362 0.012311 0.000000 0.000000 0.000000
# 4 0.000000 0.000000 0.000000 -0.054714 0.000000 0.000000
# 5 0.000000 0.000000 0.000000 0.000000 -0.070397 0.000000
# 6 0.000000 0.000000 0.000000 0.000000 0.000000 -0.328335
#
#
# Mechanical properties :
#
#
# Convention : Reuss Voigt Hill
#
# Bulk Modulus (GPa) = 56.19016 73.40421 64.79719
# Shear Modulus (GPa) = -13.14096 5.80395 -3.66850
#
# Velocity S-wave (km/s) = -2.64451 1.75749 -1.39726
# Velocity P-wave (km/s) = 4.53641 6.57138 5.64632
#
# Compressibility (1/GPa) = 0.01779671
#
# Stress axis : x y z
#
# Youngs Moduli (GPa) = 56.61022 80.41842 81.23079
#
# Poissons Ratio (x) = 0.29963 0.09900
# Poissons Ratio (y) = 0.21092 0.59803
# Poissons Ratio (z) = 0.06900 0.59204
#
# Static dielectric constant tensor:
#      x y z
#    x 1.693870 0.000000 0.000000 
#    y 0.000000 1.647310 0.000000 
#    z 0.000000 0.000000 1.656920 
# 
# From -- ./inp_files/3683.got.cif
#   From: 2010.05.17/outbox.cif.g08.bks.cpg/sg25_2_cif.got.tgz:3683.got - 2010.06.04 01:04:00.
