data_PCOD9337718
_publ_section_title
;
Structure prediction by ZEFSAII (Michael W. Deem and Ramdas Pophale) SiO2 
 PCOD9337718
Probable space group: P M M 2
;
_chemical_formula_sum "Si O2"
_cell_formula_units_Z 28
_cell_length_a 9.899470
_cell_length_b 7.867842
_cell_length_c 18.486244
_cell_angle_alpha 90.000000
_cell_angle_beta 90.000000
_cell_angle_gamma 90.000000
_cell_volume 1439.846698
_symmetry_space_group_name_H-M "P M M 2"
_symmetry_group_IT_number 25
_symmetry_cell_setting 'orthorhombic'
loop_
_space_group_symop_operation_xyz
x,y,z
-x,-y,z
-x,y,z
x,-y,z
loop_
_atom_site_type_symbol
_atom_site_label
_atom_site_fract_x
_atom_site_fract_y
_atom_site_fract_z
Si Si1 0.154304 0.704456 0.939290
Si Si2 0.345699 0.704804 0.488039
Si Si3 0.346764 0.297033 0.066325
Si Si4 0.345633 0.795236 0.648392
Si Si5 0.154085 0.205192 0.776531
Si Si6 0.153738 0.294720 0.360107
Si Si7 0.845960 0.797705 0.196616
O O1 0.148989 0.500000 0.945891
O O2 0.196881 0.746197 0.857520
O O3 0.000000 0.768404 0.950000
O O4 0.258106 0.770901 0.999187
O O5 0.500000 0.768225 0.481769
O O6 0.349562 0.500000 0.483495
O O7 0.295176 0.750126 0.568189
O O8 0.252435 0.768071 0.422945
O O9 0.500000 0.229357 0.069962
O O10 0.356949 0.500000 0.056351
O O11 0.260586 0.268238 0.138696
O O12 0.500000 0.731754 0.654749
O O13 0.251758 0.731875 0.713233
O O14 0.349627 0.000000 0.653025
O O15 0.000000 0.266281 0.766593
O O16 0.152057 0.000000 0.773052
O O17 0.152394 0.500000 0.363283
O O18 0.193874 0.245684 0.278813
O O19 0.000000 0.234088 0.371302
O O20 0.000000 0.731066 0.184639
O O21 0.851048 0.000000 0.189542
#
# Coordination Sequence:
#
# PCOD9337718 Si02
#       7
#     4   4   4   4   4   4   4
#     4   9  18  33  52  73  98 129 164 202 246 295
#     4   9  18  32  49  70  96 126 161 200 242 289
#     4  10  21  36  54  77 104 134 169 208 251 300
#     4   9  18  32  48  67  94 128 162 195 238 292
#     4   9  18  32  49  70  96 126 161 200 242 289
#     4   9  18  33  52  73  98 129 164 202 246 295
#     4  10  21  36  54  77 104 134 169 208 251 300
#
# _framework density 19.446514000000001
#
# number of rings (size 3 to 8) (size 9 to 14) (size 15 to 20)
#    0.000    2.714    0.000    0.857    0.000    5.143 
#    0.000    2.857    0.000    0.000    0.000    0.000 
#    0.000    0.000    0.000    0.000    0.000    0.000 
#
# Total GULP energy -156201.964833 kJ/mol
# GULP energy per Si atom -5578.641601 kJ/mol
# Density = 1.940225 g / cm^3
# Si number density = 19.446514 Si / 1000 Ang^3
#
#
#
# Elastic Constant Matrix: (Units=GPa)
#
#
# Indices 1 2 3 4 5 6 
#
# 1 118.1502 7.1089 130.9588 0.0000 0.0000 0.0000
# 2 7.1089 18.0829 -0.5533 0.0000 0.0000 0.0000
# 3 130.9588 -0.5533 196.1214 0.0000 0.0000 0.0000
# 4 0.0000 0.0000 0.0000 33.7717 0.0000 0.0000
# 5 0.0000 0.0000 0.0000 0.0000 80.1773 0.0000
# 6 0.0000 0.0000 0.0000 0.0000 0.0000 -11.3943
#
#
#
# Elastic Compliance Matrix: (Units=1/GPa)
#
#
# Indices 1 2 3 4 5 6 
#
# 1 0.036218 -0.014980 -0.024227 0.000000 0.000000 0.000000
# 2 -0.014980 0.061501 0.010176 0.000000 0.000000 0.000000
# 3 -0.024227 0.010176 0.021305 0.000000 0.000000 0.000000
# 4 0.000000 0.000000 0.000000 0.029611 0.000000 0.000000
# 5 0.000000 0.000000 0.000000 0.000000 0.012472 0.000000
# 6 0.000000 0.000000 0.000000 0.000000 0.000000 -0.087764
#
#
# Mechanical properties :
#
#
# Convention : Reuss Voigt Hill
#
# Bulk Modulus (GPa) = 16.40325 67.48703 41.94514
# Shear Modulus (GPa) = 32.95425 33.50029 33.22727
#
# Velocity S-wave (km/s) = 4.12103 4.15503 4.13807
# Velocity P-wave (km/s) = 5.57649 7.60252 6.66692
#
# Compressibility (1/GPa) = 0.06096352
#
# Stress axis : x y z
#
# Youngs Moduli (GPa) = 27.61038 16.25988 46.93766
#
# Poissons Ratio (x) = 0.24357 1.13715
# Poissons Ratio (y) = 0.41359 -0.47764
# Poissons Ratio (z) = 0.66891 -0.16546
#
# Static dielectric constant tensor:
#      x y z
#    x 1.690470 0.000000 0.000000 
#    y 0.000000 1.699480 0.000000 
#    z 0.000000 0.000000 1.649890 
# 
# From -- ./inp_files/6073.got.cif
#   From: 2010.05.17/outbox.cif.g08.bks.cpg/sg25_4_cif.got.tgz:6073.got - 2010.06.04 01:04:00.
