data_PCOD9337562
_publ_section_title
;
Structure prediction by ZEFSAII (Michael W. Deem and Ramdas Pophale) SiO2 
 PCOD9337562
Probable space group: P M M 2
;
_chemical_formula_sum "Si O2"
_cell_formula_units_Z 20
_cell_length_a 7.657181
_cell_length_b 9.533347
_cell_length_c 13.155281
_cell_angle_alpha 90.000000
_cell_angle_beta 90.000000
_cell_angle_gamma 90.000000
_cell_volume 960.316616
_symmetry_space_group_name_H-M "P M M 2"
_symmetry_group_IT_number 25
_symmetry_cell_setting 'orthorhombic'
loop_
_space_group_symop_operation_xyz
x,y,z
-x,-y,z
-x,y,z
x,-y,z
loop_
_atom_site_type_symbol
_atom_site_label
_atom_site_fract_x
_atom_site_fract_y
_atom_site_fract_z
Si Si1 0.287122 0.339033 0.871590
Si Si2 0.205778 0.841690 0.447760
Si Si3 0.293599 0.657772 0.254586
Si Si4 0.710863 0.660148 0.641903
Si Si5 0.285715 0.839036 0.064274
O O1 0.500000 0.337152 0.871412
O O2 0.235480 0.500000 0.893367
O O3 0.231081 0.304030 0.756619
O O4 0.229573 0.234813 0.959725
O O5 0.275970 0.742237 0.359081
O O6 0.234218 0.768539 0.556213
O O7 0.000000 0.850785 0.430488
O O8 0.278928 0.000000 0.444318
O O9 0.500000 0.644337 0.235197
O O10 0.220725 0.500000 0.261178
O O11 0.223788 0.748575 0.160535
O O12 0.500000 0.657978 0.642532
O O13 0.768793 0.500000 0.618955
O O14 0.500000 0.839323 0.064863
O O15 0.229808 0.000000 0.071291
#
# Coordination Sequence:
#
# PCOD9337562 Si02
#       5
#     4   4   4   4   4
#     4   8  14  26  45  71 103 133 161 199 246 294
#     4  11  24  38  51  71 101 135 170 210 257 305
#     4  10  20  34  54  78 102 131 169 210 251 298
#     4   9  18  33  54  79 104 132 169 210 250 295
#     4   9  16  26  44  73 106 135 163 199 246 297
#
# _framework density 20.826463
#
# number of rings (size 3 to 8) (size 9 to 14) (size 15 to 20)
#    0.000    2.600    0.000    3.600    0.000    8.800 
#    0.000    2.000    0.000    1.200    0.000    5.600 
#    0.000    0.000    0.000    0.000    0.000    0.000 
#
# Total GULP energy -111665.933284 kJ/mol
# GULP energy per Si atom -5583.296664 kJ/mol
# Density = 2.077906 g / cm^3
# Si number density = 20.826463 Si / 1000 Ang^3
#
#
#
# Elastic Constant Matrix: (Units=GPa)
#
#
# Indices 1 2 3 4 5 6 
#
# 1 35.9249 4.5898 -5.0909 0.0000 0.0000 0.0000
# 2 4.5898 209.8538 132.7559 0.0000 0.0000 0.0000
# 3 -5.0909 132.7559 157.0609 0.0000 0.0000 0.0000
# 4 0.0000 0.0000 0.0000 248.8696 0.0000 0.0000
# 5 0.0000 0.0000 0.0000 0.0000 -55.7128 0.0000
# 6 0.0000 0.0000 0.0000 0.0000 0.0000 -8.9862
#
#
#
# Elastic Compliance Matrix: (Units=1/GPa)
#
#
# Indices 1 2 3 4 5 6 
#
# 1 0.028612 -0.002606 0.003130 0.000000 0.000000 0.000000
# 2 -0.002606 0.010479 -0.008942 0.000000 0.000000 0.000000
# 3 0.003130 -0.008942 0.014026 0.000000 0.000000 0.000000
# 4 0.000000 0.000000 0.000000 0.004018 0.000000 0.000000
# 5 0.000000 0.000000 0.000000 0.000000 -0.017949 0.000000
# 6 0.000000 0.000000 0.000000 0.000000 0.000000 -0.111281
#
#
# Mechanical properties :
#
#
# Convention : Reuss Voigt Hill
#
# Bulk Modulus (GPa) = 27.56147 74.14990 50.85568
# Shear Modulus (GPa) = -115.83349 54.87311 -30.48019
#
# Velocity S-wave (km/s) = -7.46587 5.13858 -3.82976
# Velocity P-wave (km/s) = 7.81385 8.41948 2.21713
#
# Compressibility (1/GPa) = 0.03628253
#
# Stress axis : x y z
#
# Youngs Moduli (GPa) = 34.94992 95.43020 71.29396
#
# Poissons Ratio (x) = 0.24868 -0.22316
# Poissons Ratio (y) = 0.09108 0.63749
# Poissons Ratio (z) = -0.10940 0.85331
#
# Static dielectric constant tensor:
#      x y z
#    x 1.776440 0.000000 0.000000 
#    y 0.000000 1.711820 0.000000 
#    z 0.000000 0.000000 1.709700 
# 
# From -- ./inp_files/3769.got.cif
#   From: 2010.05.17/outbox.cif.g08.bks.cpg/sg25_2_cif.got.tgz:3769.got - 2010.06.04 01:04:00.
