data_PCOD9337955
_publ_section_title
;
Structure prediction by ZEFSAII (Michael W. Deem and Ramdas Pophale) SiO2 
 PCOD9337955
Probable space group: P M C 21
;
_chemical_formula_sum "Si O2"
_cell_formula_units_Z 32
_cell_length_a 7.311107
_cell_length_b 11.863726
_cell_length_c 16.971108
_cell_angle_alpha 90.000000
_cell_angle_beta 90.000000
_cell_angle_gamma 90.000000
_cell_volume 1472.022489
_symmetry_space_group_name_H-M "P M C 21"
_symmetry_group_IT_number 26
_symmetry_cell_setting 'orthorhombic'
loop_
_space_group_symop_operation_xyz
x,y,z
-x,-y,1/2+z
-x,y,z
x,-y,1/2+z
loop_
_atom_site_type_symbol
_atom_site_label
_atom_site_fract_x
_atom_site_fract_y
_atom_site_fract_z
Si Si1 0.276368 0.301866 0.576520
Si Si2 0.275607 0.445105 0.030870
Si Si3 0.705026 0.258995 0.148966
Si Si4 0.276407 0.812052 0.240902
Si Si5 0.288107 0.209693 0.413403
Si Si6 0.290791 0.636031 0.362599
Si Si7 0.218503 0.594384 0.797601
Si Si8 0.275789 0.929344 0.761981
O O1 0.500000 0.302223 0.575046
O O2 0.218598 0.432052 0.562704
O O3 0.219759 0.247847 0.659505
O O4 0.214415 0.226603 0.501451
O O5 0.500000 0.447836 0.033244
O O6 0.212475 0.338574 0.082582
O O7 0.213284 0.416720 0.942447
O O8 0.500000 0.229052 0.121959
O O9 0.698478 0.341767 0.223856
O O10 0.787336 0.147412 0.188353
O O11 0.500000 0.808508 0.241140
O O12 0.211142 0.741665 0.316679
O O13 0.223636 0.941990 0.249444
O O14 0.500000 0.177666 0.422438
O O15 0.276390 0.333576 0.373824
O O16 0.213820 0.126327 0.345172
O O17 0.500000 0.665652 0.381881
O O18 0.285597 0.532388 0.302105
O O19 0.000000 0.596726 0.791910
O O20 0.500000 0.922021 0.762342
#
# Coordination Sequence:
#
# PCOD9337955 Si02
#       8
#     4   4   4   4   4   4   4   4
#     4   9  15  25  44  69  96 125 162 200 240 287
#     4   9  16  27  47  74  94 122 166 200 238 294
#     4   9  17  31  51  71  97 130 162 199 241 290
#     4   9  17  28  45  73 102 129 161 203 244 285
#     4   9  16  30  51  70  96 132 163 199 242 290
#     4  10  18  31  50  69 100 133 161 198 244 298
#     4  11  20  30  48  74 100 125 161 203 250 294
#     4   8  15  28  44  68  99 126 160 200 243 284
#
# _framework density 21.738797999999999
#
# number of rings (size 3 to 8) (size 9 to 14) (size 15 to 20)
#    0.000    2.750    1.250    2.625    0.000    2.000 
#    2.250    0.625    0.000    3.000    0.000    0.000 
#    0.000    0.000    0.000    0.000    0.000    0.000 
#
# Total GULP energy -178470.420371 kJ/mol
# GULP energy per Si atom -5577.200637 kJ/mol
# Density = 2.168932 g / cm^3
# Si number density = 21.738798 Si / 1000 Ang^3
#
#
#
# Elastic Constant Matrix: (Units=GPa)
#
#
# Indices 1 2 3 4 5 6 
#
# 1 93.8229 -2.6599 4.4426 0.0000 0.0000 0.0000
# 2 -2.6599 193.4063 85.0860 0.0000 0.0000 0.0000
# 3 4.4426 85.0860 95.4889 0.0000 0.0000 0.0000
# 4 0.0000 0.0000 0.0000 28.2934 0.0000 0.0000
# 5 0.0000 0.0000 0.0000 0.0000 15.4059 0.0000
# 6 0.0000 0.0000 0.0000 0.0000 0.0000 -79.3841
#
#
#
# Elastic Compliance Matrix: (Units=1/GPa)
#
#
# Indices 1 2 3 4 5 6 
#
# 1 0.010725 0.000604 -0.001037 0.000000 0.000000 0.000000
# 2 0.000604 0.008538 -0.007636 0.000000 0.000000 0.000000
# 3 -0.001037 -0.007636 0.017325 0.000000 0.000000 0.000000
# 4 0.000000 0.000000 0.000000 0.035344 0.000000 0.000000
# 5 0.000000 0.000000 0.000000 0.000000 0.064910 0.000000
# 6 0.000000 0.000000 0.000000 0.000000 0.000000 -0.012597
#
#
# Mechanical properties :
#
#
# Convention : Reuss Voigt Hill
#
# Bulk Modulus (GPa) = 48.90203 61.82839 55.36521
# Shear Modulus (GPa) = 33.96754 12.58634 23.27694
#
# Velocity S-wave (km/s) = 3.95717 2.40881 3.27579
# Velocity P-wave (km/s) = 6.58962 6.01994 6.31121
#
# Compressibility (1/GPa) = 0.02044905
#
# Stress axis : x y z
#
# Youngs Moduli (GPa) = 93.24372 117.12202 57.72080
#
# Poissons Ratio (x) = -0.07070 0.05985
# Poissons Ratio (y) = -0.05628 0.44076
# Poissons Ratio (z) = 0.09668 0.89435
#
# Static dielectric constant tensor:
#      x y z
#    x 1.800980 0.000000 0.000000 
#    y 0.000000 1.754550 0.000000 
#    z 0.000000 0.000000 1.815920 
# 
# From -- ./inp_files/4993.got.cif
#   From: 2010.05.17/outbox.cif.g08.bks.cpg/sg26_3_cif.got.tgz:4993.got - 2010.06.04 01:07:29.
