data_PCOD9337925
_publ_section_title
;
Structure prediction by ZEFSAII (Michael W. Deem and Ramdas Pophale) SiO2 
 PCOD9337925
Probable space group: P M C 21
;
_chemical_formula_sum "Si O2"
_cell_formula_units_Z 32
_cell_length_a 13.180874
_cell_length_b 16.095460
_cell_length_c 8.895280
_cell_angle_alpha 90.000000
_cell_angle_beta 90.000000
_cell_angle_gamma 90.000000
_cell_volume 1887.153491
_symmetry_space_group_name_H-M "P M C 21"
_symmetry_group_IT_number 26
_symmetry_cell_setting 'orthorhombic'
loop_
_space_group_symop_operation_xyz
x,y,z
-x,-y,1/2+z
-x,y,z
x,-y,1/2+z
loop_
_atom_site_type_symbol
_atom_site_label
_atom_site_fract_x
_atom_site_fract_y
_atom_site_fract_z
Si Si1 0.612160 0.901700 0.202020
Si Si2 0.622921 0.618962 0.214136
Si Si3 0.223402 0.035888 0.237363
Si Si4 0.382380 0.313816 0.171856
Si Si5 0.622112 0.455341 0.388393
Si Si6 0.712403 0.769028 0.382661
Si Si7 0.879932 0.897307 0.441618
Si Si8 0.387550 0.156382 0.379427
O O1 0.500000 0.936561 0.215821
O O2 0.639998 0.848210 0.348064
O O3 0.693846 0.972232 0.170159
O O4 0.614732 0.841498 0.058714
O O5 0.500000 0.635835 0.213995
O O6 0.644059 0.549956 0.343397
O O7 0.687086 0.699928 0.257735
O O8 0.651252 0.579246 0.052227
O O9 0.160177 0.081222 0.108410
O O10 0.293639 0.101551 0.324455
O O11 0.154265 0.976603 0.340968
O O12 0.500000 0.325969 0.120276
O O13 0.342830 0.397206 0.250308
O O14 0.383176 0.245895 0.304278
O O15 0.317898 0.274738 0.037899
O O16 0.500000 0.448377 0.386348
O O17 0.821333 0.814091 0.386763
O O18 0.000000 0.887498 0.437150
O O19 0.500000 0.121412 0.338985
#
# Coordination Sequence:
#
# PCOD9337925 Si02
#       8
#     4   4   4   4   4   4   4   4
#     4  10  20  32  48  73 107 141 171 207 258 323
#     4  10  18  31  49  77 113 150 180 210 251 308
#     4  11  20  38  54  74 100 132 176 220 273 327
#     4  10  18  29  47  75 108 142 174 210 252 308
#     4   9  18  30  49  77 116 153 182 207 241 305
#     4  11  21  33  52  75 105 139 181 223 270 317
#     4  11  24  40  58  75  97 133 182 240 287 319
#     4  10  19  31  48  74 108 140 169 205 255 319
#
# _framework density 16.956754
#
# number of rings (size 3 to 8) (size 9 to 14) (size 15 to 20)
#    0.000    1.750    2.500    3.375    0.000    4.000 
#    0.000    0.000    0.000    0.000    0.000    3.500 
#    0.000    0.000    0.000    0.000    0.000    0.000 
#
# Total GULP energy -178421.447499 kJ/mol
# GULP energy per Si atom -5575.670234 kJ/mol
# Density = 1.691816 g / cm^3
# Si number density = 16.956754 Si / 1000 Ang^3
#
#
#
# Elastic Constant Matrix: (Units=GPa)
#
#
# Indices 1 2 3 4 5 6 
#
# 1 107.0038 42.7700 29.2981 0.0000 0.0000 0.0000
# 2 42.7700 86.6587 21.7232 0.0000 0.0000 0.0000
# 3 29.2981 21.7232 42.1762 0.0000 0.0000 0.0000
# 4 0.0000 0.0000 0.0000 33.5673 0.0000 0.0000
# 5 0.0000 0.0000 0.0000 0.0000 11.6274 0.0000
# 6 0.0000 0.0000 0.0000 0.0000 0.0000 14.5720
#
#
#
# Elastic Compliance Matrix: (Units=1/GPa)
#
#
# Indices 1 2 3 4 5 6 
#
# 1 0.013072 -0.004794 -0.006611 0.000000 0.000000 0.000000
# 2 -0.004794 0.015009 -0.004400 0.000000 0.000000 0.000000
# 3 -0.006611 -0.004400 0.030569 0.000000 0.000000 0.000000
# 4 0.000000 0.000000 0.000000 0.029791 0.000000 0.000000
# 5 0.000000 0.000000 0.000000 0.000000 0.086004 0.000000
# 6 0.000000 0.000000 0.000000 0.000000 0.000000 0.068625
#
#
# Mechanical properties :
#
#
# Convention : Reuss Voigt Hill
#
# Bulk Modulus (GPa) = 36.98425 47.04680 42.01552
# Shear Modulus (GPa) = 17.62471 21.42316 19.52393
#
# Velocity S-wave (km/s) = 3.22746 3.55829 3.39690
# Velocity P-wave (km/s) = 5.97887 6.68486 6.34170
#
# Compressibility (1/GPa) = 0.02703854
#
# Stress axis : x y z
#
# Youngs Moduli (GPa) = 76.49968 66.62804 32.71312
#
# Poissons Ratio (x) = 0.31944 0.21627
# Poissons Ratio (y) = 0.36677 0.14394
# Poissons Ratio (z) = 0.50575 0.29316
#
# Static dielectric constant tensor:
#      x y z
#    x 1.536680 0.000000 0.000000 
#    y 0.000000 1.606640 0.000000 
#    z 0.000000 0.000000 1.615180 
# 
# From -- ./inp_files/1982.got.cif
#   From: 2010.05.17/outbox.cif.g08.bks.cpg/sg26_1_cif.got.tgz:1982.got - 2010.06.04 01:07:29.
