data_PCOD9337139
_publ_section_title
;
Structure prediction by ZEFSAII (Michael W. Deem and Ramdas Pophale) SiO2 
 PCOD9337139
Probable space group: P M M 2
;
_chemical_formula_sum "Si O2"
_cell_formula_units_Z 32
_cell_length_a 7.686508
_cell_length_b 14.478070
_cell_length_c 14.490950
_cell_angle_alpha 90.000000
_cell_angle_beta 90.000000
_cell_angle_gamma 90.000000
_cell_volume 1612.636976
_symmetry_space_group_name_H-M "P M M 2"
_symmetry_group_IT_number 25
_symmetry_cell_setting 'orthorhombic'
loop_
_space_group_symop_operation_xyz
x,y,z
-x,-y,z
-x,y,z
x,-y,z
loop_
_atom_site_type_symbol
_atom_site_label
_atom_site_fract_x
_atom_site_fract_y
_atom_site_fract_z
Si Si1 0.308055 0.246693 0.118450
Si Si2 0.209524 0.102980 0.476117
Si Si3 0.792489 0.395327 0.968874
Si Si4 0.788521 0.608771 0.763591
Si Si5 0.705434 0.893199 0.761692
Si Si6 0.709849 0.897014 0.259763
Si Si7 0.203315 0.108920 0.970644
Si Si8 0.804303 0.750147 0.616487
O O1 0.500000 0.275054 0.149393
O O2 0.238398 0.331239 0.057337
O O3 0.220110 0.191499 0.203338
O O4 0.311994 0.165305 0.043178
O O5 0.249639 0.110749 0.367916
O O6 0.278023 0.192010 0.532043
O O7 0.000000 0.102826 0.488200
O O8 0.272443 0.000000 0.506697
O O9 0.726701 0.500000 0.982824
O O10 0.000000 0.400490 0.958455
O O11 0.728497 0.361799 0.867134
O O12 0.750587 0.500000 0.755519
O O13 0.721718 0.666545 0.675555
O O14 0.000000 0.619704 0.761589
O O15 0.500000 0.883223 0.743528
O O16 0.744042 0.868066 0.866904
O O17 0.810588 0.829285 0.694039
O O18 0.754041 0.000000 0.750030
O O19 0.500000 0.897137 0.248135
O O20 0.772422 0.000000 0.229232
O O21 0.000000 0.131831 0.983972
O O22 0.227375 0.000000 0.982669
O O23 0.000000 0.721439 0.588108
#
# Coordination Sequence:
#
# PCOD9337139 Si02
#       8
#     4   4   4   4   4   4   4   4
#     4  11  21  32  50  74  98 125 161 207 255 302
#     4   9  18  31  47  70  98 126 161 206 249 290
#     4   9  18  33  52  74 101 133 169 206 243 292
#     4   8  15  29  49  72  97 126 160 196 235 281
#     4  10  20  31  43  64  96 130 161 195 236 285
#     4   9  19  35  52  70  95 129 166 202 244 296
#     4  10  20  32  46  66  95 131 165 196 237 293
#     4  10  18  29  49  73  96 125 161 201 245 292
#
# _framework density 19.843274999999998
#
# number of rings (size 3 to 8) (size 9 to 14) (size 15 to 20)
#    0.000    2.500    0.000    3.375    0.000    5.250 
#    0.000    2.500    0.000    1.875    0.000    1.750 
#    0.000    0.000    0.000    0.000    0.000    0.000 
#
# Total GULP energy -178325.485251 kJ/mol
# GULP energy per Si atom -5572.671414 kJ/mol
# Density = 1.979811 g / cm^3
# Si number density = 19.843275 Si / 1000 Ang^3
#
#
#
# Elastic Constant Matrix: (Units=GPa)
#
#
# Indices 1 2 3 4 5 6 
#
# 1 29.8405 12.6271 -3.8811 0.0000 0.0000 0.0000
# 2 12.6271 102.4607 58.0090 0.0000 0.0000 0.0000
# 3 -3.8811 58.0090 91.1043 0.0000 0.0000 0.0000
# 4 0.0000 0.0000 0.0000 38.1121 0.0000 0.0000
# 5 0.0000 0.0000 0.0000 0.0000 19.4108 0.0000
# 6 0.0000 0.0000 0.0000 0.0000 0.0000 7.8442
#
#
#
# Elastic Compliance Matrix: (Units=1/GPa)
#
#
# Indices 1 2 3 4 5 6 
#
# 1 0.038174 -0.008796 0.007227 0.000000 0.000000 0.000000
# 2 -0.008796 0.017288 -0.011383 0.000000 0.000000 0.000000
# 3 0.007227 -0.011383 0.018532 0.000000 0.000000 0.000000
# 4 0.000000 0.000000 0.000000 0.026238 0.000000 0.000000
# 5 0.000000 0.000000 0.000000 0.000000 0.051518 0.000000
# 6 0.000000 0.000000 0.000000 0.000000 0.000000 0.127483
#
#
# Mechanical properties :
#
#
# Convention : Reuss Voigt Hill
#
# Bulk Modulus (GPa) = 20.79423 39.65727 30.22575
# Shear Modulus (GPa) = 15.56822 23.51678 19.54250
#
# Velocity S-wave (km/s) = 2.80404 3.44630 3.14162
# Velocity P-wave (km/s) = 4.58099 5.98871 5.33151
#
# Compressibility (1/GPa) = 0.04809026
#
# Stress axis : x y z
#
# Youngs Moduli (GPa) = 26.19614 57.84272 53.96065
#
# Poissons Ratio (x) = 0.50879 -0.38997
# Poissons Ratio (y) = 0.23042 0.61422
# Poissons Ratio (z) = -0.18932 0.65841
#
# Static dielectric constant tensor:
#      x y z
#    x 1.775960 0.000000 0.000000 
#    y 0.000000 1.724020 0.000000 
#    z 0.000000 0.000000 1.726380 
# 
# From -- ./inp_files/5715.got.cif
#   From: 2010.05.17/outbox.cif.g08.bks.cpg/sg25_3_cif.got.tgz:5715.got - 2010.06.04 01:04:00.
