data_PCOD9337917
_publ_section_title
;
Structure prediction by ZEFSAII (Michael W. Deem and Ramdas Pophale) SiO2 
 PCOD9337917
Probable space group: P M C 21
;
_chemical_formula_sum "Si O2"
_cell_formula_units_Z 24
_cell_length_a 7.908483
_cell_length_b 9.457230
_cell_length_c 15.675536
_cell_angle_alpha 90.000000
_cell_angle_beta 90.000000
_cell_angle_gamma 90.000000
_cell_volume 1172.410060
_symmetry_space_group_name_H-M "P M C 21"
_symmetry_group_IT_number 26
_symmetry_cell_setting 'orthorhombic'
loop_
_space_group_symop_operation_xyz
x,y,z
-x,-y,1/2+z
-x,y,z
x,-y,1/2+z
loop_
_atom_site_type_symbol
_atom_site_label
_atom_site_fract_x
_atom_site_fract_y
_atom_site_fract_z
Si Si1 0.306017 0.267130 0.613160
Si Si2 0.500000 0.458671 0.389806
Si Si3 0.500000 0.799827 0.678016
Si Si4 0.192139 0.744622 0.924789
Si Si5 0.500000 0.740032 0.475406
Si Si6 0.192049 0.932892 0.455616
Si Si7 0.186555 0.020223 0.162338
Si Si8 0.500000 0.477359 0.711835
O O1 0.500000 0.219633 0.589227
O O2 0.202283 0.282057 0.527103
O O3 0.228016 0.145091 0.671117
O O4 0.339878 0.411218 0.663261
O O5 0.664682 0.359083 0.389423
O O6 0.500000 0.570015 0.467737
O O7 0.500000 0.564469 0.309876
O O8 0.500000 0.779477 0.575573
O O9 0.500000 0.643944 0.713497
O O10 0.666897 0.885878 0.701750
O O11 0.231136 0.912328 0.916483
O O12 0.000000 0.718809 0.895241
O O13 0.333053 0.815698 0.437588
O O14 0.190525 0.955957 0.559063
O O15 0.000000 0.893449 0.431305
O O16 0.000000 0.055025 0.193750
#
# Coordination Sequence:
#
# PCOD9337917 Si02
#       8
#     4   2   2   4   2   4   4   2
#     4   9  16  34  57  82 102 137 184 219 269 319
#     4  12  23  38  50  76 116 152 185 216 268 320
#     4  10  17  34  53  78 107 134 175 222 270 320
#     4  10  19  35  61  83 103 137 184 230 271 322
#     4  10  19  30  57  78 103 136 171 220 270 318
#     4   8  16  30  52  83 105 124 166 224 276 315
#     4   9  16  29  55  84 106 129 168 228 277 316
#     4  10  23  36  54  72 114 158 181 218 264 322
#
# _framework density 20.470654
#
# number of rings (size 3 to 8) (size 9 to 14) (size 15 to 20)
#    0.500    2.000    1.667    3.000    2.333    0.667 
#    0.000   10.833    0.000    2.000    0.000    0.000 
#    0.000    0.000    0.000    0.000    0.000    0.000 
#
# Total GULP energy -133821.083230 kJ/mol
# GULP energy per Si atom -5575.878468 kJ/mol
# Density = 2.042406 g / cm^3
# Si number density = 20.470654 Si / 1000 Ang^3
#
#
#
# Elastic Constant Matrix: (Units=GPa)
#
#
# Indices 1 2 3 4 5 6 
#
# 1 147.3269 60.4123 6.8093 0.0000 0.0000 0.0000
# 2 60.4123 92.3487 12.7206 0.0000 0.0000 0.0000
# 3 6.8093 12.7206 11.6447 0.0000 0.0000 0.0000
# 4 0.0000 0.0000 0.0000 2.3820 0.0000 0.0000
# 5 0.0000 0.0000 0.0000 0.0000 -1.0954 0.0000
# 6 0.0000 0.0000 0.0000 0.0000 0.0000 1.1964
#
#
#
# Elastic Compliance Matrix: (Units=1/GPa)
#
#
# Indices 1 2 3 4 5 6 
#
# 1 0.009296 -0.006277 0.001421 0.000000 0.000000 0.000000
# 2 -0.006277 0.016985 -0.014884 0.000000 0.000000 0.000000
# 3 0.001421 -0.014884 0.101304 0.000000 0.000000 0.000000
# 4 0.000000 0.000000 0.000000 0.419810 0.000000 0.000000
# 5 0.000000 0.000000 0.000000 0.000000 -0.912917 0.000000
# 6 0.000000 0.000000 0.000000 0.000000 0.000000 0.835832
#
#
# Mechanical properties :
#
#
# Convention : Reuss Voigt Hill
#
# Bulk Modulus (GPa) = 11.34999 45.68938 28.51968
# Shear Modulus (GPa) = 9.27373 11.92182 10.59777
#
# Velocity S-wave (km/s) = 2.13075 2.41588 2.27778
# Velocity P-wave (km/s) = 3.40735 5.49089 4.56946
#
# Compressibility (1/GPa) = 0.08810579
#
# Stress axis : x y z
#
# Youngs Moduli (GPa) = 107.57545 58.87599 9.87125
#
# Poissons Ratio (x) = 0.36955 -0.01403
# Poissons Ratio (y) = 0.67523 0.14692
# Poissons Ratio (z) = -0.15287 0.87630
#
# Static dielectric constant tensor:
#      x y z
#    x 1.733560 0.000000 0.000000 
#    y 0.000000 1.715010 0.000000 
#    z 0.000000 0.000000 1.861740 
# 
# From -- ./inp_files/5295.got.cif
#   From: 2010.05.17/outbox.cif.g08.bks.cpg/sg26_3_cif.got.tgz:5295.got - 2010.06.04 01:07:29.
