data_PCOD9337302
_publ_section_title
;
Structure prediction by ZEFSAII (Michael W. Deem and Ramdas Pophale) SiO2 
 PCOD9337302
Probable space group: P M M 2
;
_chemical_formula_sum "Si O2"
_cell_formula_units_Z 24
_cell_length_a 8.345726
_cell_length_b 7.374110
_cell_length_c 17.260973
_cell_angle_alpha 90.000000
_cell_angle_beta 90.000000
_cell_angle_gamma 90.000000
_cell_volume 1062.280005
_symmetry_space_group_name_H-M "P M M 2"
_symmetry_group_IT_number 25
_symmetry_cell_setting 'orthorhombic'
loop_
_space_group_symop_operation_xyz
x,y,z
-x,-y,z
-x,y,z
x,-y,z
loop_
_atom_site_type_symbol
_atom_site_label
_atom_site_fract_x
_atom_site_fract_y
_atom_site_fract_z
Si Si1 0.318335 0.720856 0.921920
Si Si2 0.180639 0.283147 0.759216
Si Si3 0.823376 0.721217 0.082370
Si Si4 0.321193 0.216250 0.590934
Si Si5 0.500000 0.284441 0.166302
Si Si6 0.176200 0.221440 0.433391
Si Si7 0.500000 0.216584 0.348585
O O1 0.500000 0.776801 0.938903
O O2 0.317634 0.500000 0.920663
O O3 0.265921 0.784273 0.837019
O O4 0.204943 0.773643 0.992738
O O5 0.172903 0.500000 0.767572
O O6 0.267969 0.249939 0.678398
O O7 0.000000 0.212787 0.754671
O O8 0.823600 0.500000 0.085511
O O9 0.666659 0.784113 0.129356
O O10 0.000000 0.780599 0.109132
O O11 0.500000 0.288242 0.577853
O O12 0.203816 0.278053 0.522837
O O13 0.328599 0.000000 0.582141
O O14 0.500000 0.500000 0.150698
O O15 0.500000 0.253724 0.257670
O O16 0.333833 0.282888 0.386788
O O17 0.000000 0.280949 0.406104
O O18 0.175033 0.000000 0.430137
O O19 0.500000 0.000000 0.361183
#
# Coordination Sequence:
#
# PCOD9337302 Si02
#       7
#     4   4   4   4   2   4   2
#     4   9  15  26  45  69  98 133 172 208 242 285
#     4  10  20  31  45  72 107 138 171 211 254 299
#     4   9  16  28  48  73 101 133 168 204 243 293
#     4  10  19  33  53  75  99 131 174 216 252 297
#     4  10  20  34  52  77 104 128 158 203 256 300
#     4   9  17  32  55  78  99 128 168 210 246 289
#     4  10  20  36  56  77 100 128 164 203 246 304
#
# _framework density 22.592911000000001
#
# number of rings (size 3 to 8) (size 9 to 14) (size 15 to 20)
#    0.000    2.500    1.667    1.500    0.000    4.667 
#    0.000    0.833    0.000    2.000    0.000    0.000 
#    0.000    0.000    0.000    0.000    0.000    0.000 
#
# Total GULP energy -134036.001997 kJ/mol
# GULP energy per Si atom -5584.833417 kJ/mol
# Density = 2.254149 g / cm^3
# Si number density = 22.592911 Si / 1000 Ang^3
#
#
#
# Elastic Constant Matrix: (Units=GPa)
#
#
# Indices 1 2 3 4 5 6 
#
# 1 218.6332 7.7706 85.9199 0.0000 0.0000 0.0000
# 2 7.7706 79.1120 -6.8468 0.0000 0.0000 0.0000
# 3 85.9199 -6.8468 137.2902 0.0000 0.0000 0.0000
# 4 0.0000 0.0000 0.0000 20.4077 0.0000 0.0000
# 5 0.0000 0.0000 0.0000 0.0000 8.9147 0.0000
# 6 0.0000 0.0000 0.0000 0.0000 0.0000 -7.4134
#
#
#
# Elastic Compliance Matrix: (Units=1/GPa)
#
#
# Indices 1 2 3 4 5 6 
#
# 1 0.006134 -0.000939 -0.003886 0.000000 0.000000 0.000000
# 2 -0.000939 0.012839 0.001228 0.000000 0.000000 0.000000
# 3 -0.003886 0.001228 0.009777 0.000000 0.000000 0.000000
# 4 0.000000 0.000000 0.000000 0.049001 0.000000 0.000000
# 5 0.000000 0.000000 0.000000 0.000000 0.112174 0.000000
# 6 0.000000 0.000000 0.000000 0.000000 0.000000 -0.134890
#
#
# Mechanical properties :
#
#
# Convention : Reuss Voigt Hill
#
# Bulk Modulus (GPa) = 46.39006 67.63586 57.01296
# Shear Modulus (GPa) = 72.03127 27.59458 49.81293
#
# Velocity S-wave (km/s) = 5.65256 3.49862 4.70063
# Velocity P-wave (km/s) = 7.94856 6.80604 7.39938
#
# Compressibility (1/GPa) = 0.02155634
#
# Stress axis : x y z
#
# Youngs Moduli (GPa) = 163.01728 77.88905 102.28150
#
# Poissons Ratio (x) = 0.07312 0.39745
# Poissons Ratio (y) = 0.15305 -0.12558
# Poissons Ratio (z) = 0.63346 -0.09563
#
# Static dielectric constant tensor:
#      x y z
#    x 1.839830 0.000000 0.000000 
#    y 0.000000 1.883790 0.000000 
#    z 0.000000 0.000000 1.795090 
# 
# From -- ./inp_files/3992.got.cif
#   From: 2010.05.17/outbox.cif.g08.bks.cpg/sg25_2_cif.got.tgz:3992.got - 2010.06.04 01:04:00.
