data_PCOD9337008
_publ_section_title
;
Structure prediction by ZEFSAII (Michael W. Deem and Ramdas Pophale) SiO2 
 PCOD9337008
Probable space group: I 21 21 21
;
_chemical_formula_sum "Si O2"
_cell_formula_units_Z 24
_cell_length_a 5.159461
_cell_length_b 19.957349
_cell_length_c 10.025867
_cell_angle_alpha 90.000000
_cell_angle_beta 90.000000
_cell_angle_gamma 90.000000
_cell_volume 1032.355142
_symmetry_space_group_name_H-M "I 21 21 21"
_symmetry_group_IT_number 24
_symmetry_cell_setting 'orthorhombic'
loop_
_space_group_symop_operation_xyz
x,y,z
-x,1/2-y,z
x,-y,1/2-z
1/2-x,y,-z
1/2+x,1/2+y,1/2+z
1/2-x,-y,1/2+z
1/2+x,1/2-y,-z
-x,1/2+y,1/2-z
loop_
_atom_site_type_symbol
_atom_site_label
_atom_site_fract_x
_atom_site_fract_y
_atom_site_fract_z
Si Si1 0.501285 0.624667 0.588535
Si Si2 0.084873 0.500000 0.250000
Si Si3 0.500000 0.250000 0.728079
Si Si4 0.750000 0.081424 0.500000
Si Si5 0.250000 0.824292 0.000000
O O1 0.250000 0.608655 0.500000
O O2 0.569660 0.559726 0.677663
O O3 0.425954 0.687314 0.680802
O O4 0.750000 0.642386 0.500000
O O5 0.243584 0.463579 0.367086
O O6 0.280375 0.222302 0.629133
O O7 0.499197 0.128323 0.496698
#
# Coordination Sequence:
#
# PCOD9337008 Si02
#       5
#     8   4   4   4   4
#     4  12  30  49  77 111 155 206 256 316 392 460
#     4  12  28  52  80 114 160 208 256 328 380 468
#     4  12  28  50  80 110 160 196 264 316 392 456
#     4  12  29  50  80 116 159 204 264 314 395 456
#     4  12  29  48  80 116 147 206 256 326 379 466
#
# _framework density 23.247814000000002
#
# number of rings (size 3 to 8) (size 9 to 14) (size 15 to 20)
#    0.000    0.000    5.000    2.000    7.000    5.333 
#    0.000    0.000    0.000    0.000    0.000    0.000 
#    0.000    0.000    0.000    0.000    0.000    0.000 
#
# Total GULP energy -67257.034770 kJ/mol
# GULP energy per Si atom -5604.752897 kJ/mol
# Density = 2.319490 g / cm^3
# Si number density = 23.247814 Si / 1000 Ang^3
#
#
#
# Elastic Constant Matrix: (Units=GPa)
#
#
# Indices 1 2 3 4 5 6 
#
# 1 138.1170 50.6552 51.3049 0.0000 0.0000 0.0000
# 2 50.6552 184.1058 80.1658 0.0000 0.0000 0.0000
# 3 51.3049 80.1658 155.4304 -0.0001 0.0000 0.0000
# 4 0.0000 0.0000 -0.0001 34.6102 0.0000 0.0000
# 5 0.0000 0.0000 0.0000 0.0000 19.1583 0.0000
# 6 0.0000 0.0000 0.0000 0.0000 0.0000 21.5180
#
#
#
# Elastic Compliance Matrix: (Units=1/GPa)
#
#
# Indices 1 2 3 4 5 6 
#
# 1 0.008541 -0.001447 -0.002073 0.000000 0.000000 0.000000
# 2 -0.001447 0.007250 -0.003262 0.000000 0.000000 0.000000
# 3 -0.002073 -0.003262 0.008800 0.000000 0.000000 0.000000
# 4 0.000000 0.000000 0.000000 0.028893 0.000000 0.000000
# 5 0.000000 0.000000 0.000000 0.000000 0.052197 0.000000
# 6 0.000000 0.000000 0.000000 0.000000 0.000000 0.046473
#
#
# Mechanical properties :
#
#
# Convention : Reuss Voigt Hill
#
# Bulk Modulus (GPa) = 90.68007 93.54498 92.11252
# Shear Modulus (GPa) = 29.51711 34.75912 32.13811
#
# Velocity S-wave (km/s) = 3.56711 3.87092 3.72212
# Velocity P-wave (km/s) = 7.48707 7.76558 7.62760
#
# Compressibility (1/GPa) = 0.01102778
#
# Stress axis : x y z
#
# Youngs Moduli (GPa) = 117.08195 137.92867 113.63476
#
# Poissons Ratio (x) = 0.19965 0.23553
# Poissons Ratio (y) = 0.16947 0.37063
# Poissons Ratio (z) = 0.24267 0.44987
#
# Static dielectric constant tensor:
#      x y z
#    x 1.799570 0.000000 0.000000 
#    y 0.000000 1.862980 0.000000 
#    z 0.000000 0.000000 1.889490 
# 
# From -- ./inp_files/876.got.cif
#   From: 2010.05.17/outbox.cif.g08.bks.cpg/sg24_1_cif.got.tgz:876.got - 2010.06.04 00:33:39.
