data_PCOD9337768
_publ_section_title
;
Structure prediction by ZEFSAII (Michael W. Deem and Ramdas Pophale) SiO2 
 PCOD9337768
Probable space group: P M M 2
;
_chemical_formula_sum "Si O2"
_cell_formula_units_Z 21
_cell_length_a 7.221563
_cell_length_b 10.317445
_cell_length_c 12.812669
_cell_angle_alpha 90.000000
_cell_angle_beta 90.000000
_cell_angle_gamma 90.000000
_cell_volume 954.647355
_symmetry_space_group_name_H-M "P M M 2"
_symmetry_group_IT_number 25
_symmetry_cell_setting 'orthorhombic'
loop_
_space_group_symop_operation_xyz
x,y,z
-x,-y,z
-x,y,z
x,-y,z
loop_
_atom_site_type_symbol
_atom_site_label
_atom_site_fract_x
_atom_site_fract_y
_atom_site_fract_z
Si Si1 0.222563 0.639989 0.089690
Si Si2 0.224398 0.352001 0.510432
Si Si3 0.225427 0.850027 0.925316
Si Si4 0.221616 0.770931 0.295967
Si Si5 0.774964 0.350471 0.746572
Si Si6 0.500000 0.000000 0.248036
O O1 0.290324 0.500000 0.051765
O O2 0.256181 0.657280 0.212304
O O3 0.000000 0.638696 0.075670
O O4 0.285774 0.765251 0.025125
O O5 0.281351 0.500000 0.491413
O O6 0.279763 0.264548 0.413448
O O7 0.281716 0.317531 0.627960
O O8 0.000000 0.350778 0.510830
O O9 0.282156 0.760554 0.827211
O O10 0.000000 0.854951 0.925016
O O11 0.287374 0.000000 0.924923
O O12 0.000000 0.795825 0.295212
O O13 0.338752 0.888947 0.255010
O O14 0.718196 0.500000 0.769831
O O15 0.000000 0.352729 0.749271
#
# Coordination Sequence:
#
# PCOD9337768 Si02
#       6
#     4   4   4   4   4   1
#     4   9  17  30  52  79 108 147 192 237 284 335
#     4   8  14  28  52  79 107 143 187 237 288 333
#     4   9  16  24  38  68 111 151 187 231 281 335
#     4  10  21  38  59  83 114 150 189 234 283 338
#     4   8  13  23  41  68 105 145 185 231 280 331
#     4  12  26  40  54  82 118 160 192 224 280 348
#
# _framework density 21.997651999999999
#
# number of rings (size 3 to 8) (size 9 to 14) (size 15 to 20)
#    0.000    3.048    0.000    2.571    1.333    4.571 
#    1.714    1.905    0.000    0.000    0.000    2.667 
#    0.000    3.048    0.000    0.381    0.000    0.000 
#
# Total GULP energy -116933.464767 kJ/mol
# GULP energy per Si atom -5568.260227 kJ/mol
# Density = 2.194758 g / cm^3
# Si number density = 21.997652 Si / 1000 Ang^3
#
#
#
# Elastic Constant Matrix: (Units=GPa)
#
#
# Indices 1 2 3 4 5 6 
#
# 1 104.7474 19.1295 13.8188 0.0000 0.0000 0.0000
# 2 19.1295 177.2475 82.0147 0.0000 0.0000 0.0000
# 3 13.8188 82.0147 125.9021 0.0000 0.0000 0.0000
# 4 0.0000 0.0000 0.0000 -232.2969 0.0000 0.0000
# 5 0.0000 0.0000 0.0000 0.0000 -24.0502 0.0000
# 6 0.0000 0.0000 0.0000 0.0000 0.0000 55.7862
#
#
#
# Elastic Compliance Matrix: (Units=1/GPa)
#
#
# Indices 1 2 3 4 5 6 
#
# 1 0.009765 -0.000799 -0.000552 0.000000 0.000000 0.000000
# 2 -0.000799 0.008141 -0.005216 0.000000 0.000000 0.000000
# 3 -0.000552 -0.005216 0.011401 0.000000 0.000000 0.000000
# 4 0.000000 0.000000 0.000000 -0.004305 0.000000 0.000000
# 5 0.000000 0.000000 0.000000 0.000000 -0.041580 0.000000
# 6 0.000000 0.000000 0.000000 0.000000 0.000000 0.017926
#
#
# Mechanical properties :
#
#
# Convention : Reuss Voigt Hill
#
# Bulk Modulus (GPa) = 61.82154 70.86923 66.34538
# Shear Modulus (GPa) = 251.59953 -20.58327 115.50813
#
# Velocity S-wave (km/s) = 10.70626 -3.06225 7.25419
# Velocity P-wave (km/s) = 13.45350 4.44787 10.01948
#
# Compressibility (1/GPa) = 0.01617559
#
# Stress axis : x y z
#
# Youngs Moduli (GPa) = 102.40232 122.82806 87.71245
#
# Poissons Ratio (x) = 0.09811 0.04838
# Poissons Ratio (y) = 0.08179 0.45749
# Poissons Ratio (z) = 0.05648 0.64065
#
# Static dielectric constant tensor:
#      x y z
#    x 1.839460 0.000000 0.000000 
#    y 0.000000 1.888560 0.000000 
#    z 0.000000 0.000000 1.806590 
# 
# From -- ./inp_files/5149.got.cif
#   From: 2010.05.17/outbox.cif.g08.bks.cpg/sg25_3_cif.got.tgz:5149.got - 2010.06.04 01:04:00.
