data_PCOD9337317
_publ_section_title
;
Structure prediction by ZEFSAII (Michael W. Deem and Ramdas Pophale) SiO2 
 PCOD9337317
Probable space group: P M M 2
;
_chemical_formula_sum "Si O2"
_cell_formula_units_Z 24
_cell_length_a 14.642001
_cell_length_b 8.070085
_cell_length_c 10.579890
_cell_angle_alpha 90.000000
_cell_angle_beta 90.000000
_cell_angle_gamma 90.000000
_cell_volume 1250.143000
_symmetry_space_group_name_H-M "P M M 2"
_symmetry_group_IT_number 25
_symmetry_cell_setting 'orthorhombic'
loop_
_space_group_symop_operation_xyz
x,y,z
-x,-y,z
-x,y,z
x,-y,z
loop_
_atom_site_type_symbol
_atom_site_label
_atom_site_fract_x
_atom_site_fract_y
_atom_site_fract_z
Si Si1 0.897819 0.797899 0.492250
Si Si2 0.709899 0.796950 0.381908
Si Si3 0.708908 0.694241 0.887240
Si Si4 0.603866 0.802447 0.134833
Si Si5 0.897127 0.200044 0.785464
Si Si6 0.604256 0.799796 0.634767
O O1 0.814290 0.742999 0.405030
O O2 0.881314 0.749138 0.638806
O O3 0.000000 0.743574 0.456224
O O4 0.898086 0.000000 0.491693
O O5 0.661124 0.737661 0.254668
O O6 0.652571 0.745998 0.505394
O O7 0.710598 0.000000 0.379681
O O8 0.698973 0.500000 0.902049
O O9 0.815441 0.738211 0.872264
O O10 0.660485 0.748081 0.757362
O O11 0.658423 0.775083 0.005777
O O12 0.500000 0.736210 0.128847
O O13 0.596487 0.000000 0.153141
O O14 0.000000 0.252825 0.820586
O O15 0.895107 0.000000 0.786934
O O16 0.500000 0.740668 0.641835
O O17 0.603049 0.000000 0.632696
#
# Coordination Sequence:
#
# PCOD9337317 Si02
#       6
#     4   4   4   4   4   4
#     4   8  13  24  49  84 113 133 160 211 274 327
#     4   9  16  30  54  82 108 134 175 231 284 328
#     4  12  24  36  52  77 112 151 185 221 272 329
#     4  10  21  37  56  77 105 146 192 234 277 325
#     4   9  17  33  59  86 110 139 178 224 273 323
#     4  10  19  33  56  82 106 135 179 236 286 326
#
# _framework density 19.197804000000001
#
# number of rings (size 3 to 8) (size 9 to 14) (size 15 to 20)
#    0.000    2.333    1.667    3.500    0.000    5.000 
#    0.000    1.667    0.000    5.000    0.000    0.000 
#    0.000    0.000    0.000    0.000    0.000    0.000 
#
# Total GULP energy -133924.216786 kJ/mol
# GULP energy per Si atom -5580.175699 kJ/mol
# Density = 1.915411 g / cm^3
# Si number density = 19.197804 Si / 1000 Ang^3
#
#
#
# Elastic Constant Matrix: (Units=GPa)
#
#
# Indices 1 2 3 4 5 6 
#
# 1 182.9206 4.8121 77.7357 0.0000 0.0000 0.0000
# 2 4.8121 9.6423 -1.7179 0.0000 0.0000 0.0000
# 3 77.7357 -1.7179 114.4698 0.0000 0.0000 0.0000
# 4 0.0000 0.0000 0.0000 -28.8172 0.0000 0.0000
# 5 0.0000 0.0000 0.0000 0.0000 -149.7537 0.0000
# 6 0.0000 0.0000 0.0000 0.0000 0.0000 -5.3828
#
#
#
# Elastic Compliance Matrix: (Units=1/GPa)
#
#
# Indices 1 2 3 4 5 6 
#
# 1 0.007911 -0.004918 -0.005446 0.000000 0.000000 0.000000
# 2 -0.004918 0.107045 0.004946 0.000000 0.000000 0.000000
# 3 -0.005446 0.004946 0.012508 0.000000 0.000000 0.000000
# 4 0.000000 0.000000 0.000000 -0.034701 0.000000 0.000000
# 5 0.000000 0.000000 0.000000 0.000000 -0.006678 0.000000
# 6 0.000000 0.000000 0.000000 0.000000 0.000000 -0.185778
#
#
# Mechanical properties :
#
#
# Convention : Reuss Voigt Hill
#
# Bulk Modulus (GPa) = 8.57418 52.07694 30.32556
# Shear Modulus (GPa) = -100.03728 -21.71056 -60.87392
#
# Velocity S-wave (km/s) = -7.22647 -3.36652 -5.63716
# Velocity P-wave (km/s) = 8.07175 3.47479 5.15165
#
# Compressibility (1/GPa) = 0.11662919
#
# Stress axis : x y z
#
# Youngs Moduli (GPa) = 126.41380 9.34183 79.94650
#
# Poissons Ratio (x) = 0.04594 0.43537
# Poissons Ratio (y) = 0.62171 -0.39544
# Poissons Ratio (z) = 0.68842 -0.04621
#
# Static dielectric constant tensor:
#      x y z
#    x 1.689310 0.000000 0.000000 
#    y 0.000000 1.675310 0.000000 
#    z 0.000000 0.000000 1.647260 
# 
# From -- ./inp_files/3078.got.cif
#   From: 2010.05.17/outbox.cif.g08.bks.cpg/sg25_2_cif.got.tgz:3078.got - 2010.06.04 01:04:00.
