data_PCOD9337312
_publ_section_title
;
Structure prediction by ZEFSAII (Michael W. Deem and Ramdas Pophale) SiO2 
 PCOD9337312
Probable space group: P M M 2
;
_chemical_formula_sum "Si O2"
_cell_formula_units_Z 32
_cell_length_a 8.524743
_cell_length_b 15.137757
_cell_length_c 12.774691
_cell_angle_alpha 90.000000
_cell_angle_beta 90.000000
_cell_angle_gamma 90.000000
_cell_volume 1648.516234
_symmetry_space_group_name_H-M "P M M 2"
_symmetry_group_IT_number 25
_symmetry_cell_setting 'orthorhombic'
loop_
_space_group_symop_operation_xyz
x,y,z
-x,-y,z
-x,y,z
x,-y,z
loop_
_atom_site_type_symbol
_atom_site_label
_atom_site_fract_x
_atom_site_fract_y
_atom_site_fract_z
Si Si1 0.686475 0.276269 0.600290
Si Si2 0.180971 0.662106 0.212281
Si Si3 0.810630 0.098743 0.517356
Si Si4 0.181888 0.864116 0.283392
Si Si5 0.314109 0.714737 0.993900
Si Si6 0.189474 0.596404 0.426972
Si Si7 0.308078 0.602363 0.793739
Si Si8 0.810113 0.096439 0.052887
O O1 0.500000 0.271058 0.607655
O O2 0.751996 0.177626 0.590174
O O3 0.735412 0.327709 0.495531
O O4 0.743873 0.337034 0.696303
O O5 0.182309 0.759203 0.265310
O O6 0.272501 0.669510 0.104534
O O7 0.239954 0.601254 0.305914
O O8 0.000000 0.639896 0.187898
O O9 0.751579 0.112299 0.397011
O O10 0.000000 0.104502 0.513893
O O11 0.766896 0.000000 0.551507
O O12 0.248918 0.900030 0.173991
O O13 0.000000 0.893806 0.286423
O O14 0.500000 0.723108 0.984513
O O15 0.245785 0.814296 0.996898
O O16 0.257663 0.652932 0.899221
O O17 0.228399 0.500000 0.471194
O O18 0.000000 0.607102 0.427513
O O19 0.500000 0.600521 0.792785
O O20 0.256358 0.500000 0.788118
O O21 0.000000 0.101257 0.056630
O O22 0.766589 0.000000 0.008524
#
# Coordination Sequence:
#
# PCOD9337312 Si02
#       8
#     4   4   4   4   4   4   4   4
#     4  11  22  37  58  81 110 143 183 235 281 325
#     4   9  17  32  52  76 112 149 176 211 266 331
#     4  10  19  33  55  81 111 149 188 223 267 327
#     4   8  13  26  49  73 101 142 184 211 244 308
#     4  10  20  34  55  81 107 137 182 234 275 314
#     4  10  20  35  56  81 111 147 182 219 272 338
#     4   9  20  40  61  78 101 142 189 228 275 332
#     4   9  17  31  52  78 110 149 185 215 260 324
#
# _framework density 19.411394000000001
#
# number of rings (size 3 to 8) (size 9 to 14) (size 15 to 20)
#    0.000    2.500    1.250    2.250    0.000    3.750 
#    0.000    3.125    0.000    9.375    0.000    0.000 
#    0.000    0.000    0.000    0.000    0.000    0.000 
#
# Total GULP energy -178372.786497 kJ/mol
# GULP energy per Si atom -5574.149578 kJ/mol
# Density = 1.936721 g / cm^3
# Si number density = 19.411394 Si / 1000 Ang^3
#
#
#
# Elastic Constant Matrix: (Units=GPa)
#
#
# Indices 1 2 3 4 5 6 
#
# 1 15.6859 26.4352 17.5282 0.0000 0.0000 0.0000
# 2 26.4352 163.6483 78.2938 0.0000 0.0000 0.0000
# 3 17.5282 78.2938 101.9262 0.0000 0.0000 0.0000
# 4 0.0000 0.0000 0.0000 18.3379 0.0000 0.0000
# 5 0.0000 0.0000 0.0000 0.0000 26.1569 0.0000
# 6 0.0000 0.0000 0.0000 0.0000 0.0000 15.1254
#
#
#
# Elastic Compliance Matrix: (Units=1/GPa)
#
#
# Indices 1 2 3 4 5 6 
#
# 1 0.090529 -0.011345 -0.006854 0.000000 0.000000 0.000000
# 2 -0.011345 0.011083 -0.006562 0.000000 0.000000 0.000000
# 3 -0.006854 -0.006562 0.016030 0.000000 0.000000 0.000000
# 4 0.000000 0.000000 0.000000 0.054532 0.000000 0.000000
# 5 0.000000 0.000000 0.000000 0.000000 0.038231 0.000000
# 6 0.000000 0.000000 0.000000 0.000000 0.000000 0.066114
#
#
# Mechanical properties :
#
#
# Convention : Reuss Voigt Hill
#
# Bulk Modulus (GPa) = 14.67979 58.41943 36.54961
# Shear Modulus (GPa) = 14.33699 22.52424 18.43062
#
# Velocity S-wave (km/s) = 2.72064 3.41010 3.08470
# Velocity P-wave (km/s) = 4.17709 6.75765 5.61756
#
# Compressibility (1/GPa) = 0.06812087
#
# Stress axis : x y z
#
# Youngs Moduli (GPa) = 11.04613 90.22990 62.38135
#
# Poissons Ratio (x) = 1.02363 0.42756
# Poissons Ratio (y) = 0.12531 0.40936
# Poissons Ratio (z) = 0.07571 0.59211
#
# Static dielectric constant tensor:
#      x y z
#    x 1.676930 0.000000 0.000000 
#    y 0.000000 1.715870 0.000000 
#    z 0.000000 0.000000 1.683160 
# 
# From -- ./inp_files/4172.got.cif
#   From: 2010.05.17/outbox.cif.g08.bks.cpg/sg25_3_cif.got.tgz:4172.got - 2010.06.04 01:04:00.
