data_PCOD9337329
_publ_section_title
;
Structure prediction by ZEFSAII (Michael W. Deem and Ramdas Pophale) SiO2 
 PCOD9337329
Probable space group: P M M 2
;
_chemical_formula_sum "Si O2"
_cell_formula_units_Z 32
_cell_length_a 7.893609
_cell_length_b 15.226267
_cell_length_c 12.581506
_cell_angle_alpha 90.000000
_cell_angle_beta 90.000000
_cell_angle_gamma 90.000000
_cell_volume 1512.173700
_symmetry_space_group_name_H-M "P M M 2"
_symmetry_group_IT_number 25
_symmetry_cell_setting 'orthorhombic'
loop_
_space_group_symop_operation_xyz
x,y,z
-x,-y,z
-x,y,z
x,-y,z
loop_
_atom_site_type_symbol
_atom_site_label
_atom_site_fract_x
_atom_site_fract_y
_atom_site_fract_z
Si Si1 0.303678 0.660831 0.586890
Si Si2 0.197120 0.595939 0.370495
Si Si3 0.701182 0.599718 0.022559
Si Si4 0.301857 0.134086 0.537404
Si Si5 0.200581 0.290354 0.819448
Si Si6 0.801048 0.904809 0.771884
Si Si7 0.695764 0.272649 0.202434
Si Si8 0.292443 0.096405 0.299189
O O1 0.500000 0.635266 0.591979
O O2 0.214494 0.604066 0.497056
O O3 0.291593 0.760860 0.545025
O O4 0.231625 0.664800 0.705220
O O5 0.258484 0.500000 0.335484
O O6 0.297397 0.671969 0.311184
O O7 0.000000 0.604989 0.342518
O O8 0.500000 0.592152 0.043220
O O9 0.770174 0.500000 0.022485
O O10 0.723993 0.649679 0.911451
O O11 0.774126 0.664226 0.113267
O O12 0.500000 0.108817 0.544735
O O13 0.214296 0.099579 0.643672
O O14 0.236796 0.105608 0.422223
O O15 0.269405 0.189211 0.813260
O O16 0.000000 0.284653 0.836746
O O17 0.000000 0.905132 0.798862
O O18 0.728513 0.000000 0.806295
O O19 0.500000 0.257433 0.171801
O O20 0.770997 0.177525 0.228935
O O21 0.500000 0.102152 0.302496
O O22 0.246465 0.000000 0.259258
#
# Coordination Sequence:
#
# PCOD9337329 Si02
#       8
#     4   4   4   4   4   4   4   4
#     4  10  19  34  56  81 112 149 186 224 271 328
#     4  11  23  36  53  81 115 148 182 225 281 338
#     4  10  22  40  61  82 105 140 188 239 286 335
#     4   9  16  28  48  76 109 146 185 221 260 311
#     4  10  21  37  58  83 112 144 182 231 283 331
#     4   9  18  32  50  76 111 149 185 219 264 323
#     4  10  20  38  60  82 110 145 187 232 277 327
#     4   9  16  28  50  81 114 145 179 221 270 321
#
# _framework density 21.161588999999999
#
# number of rings (size 3 to 8) (size 9 to 14) (size 15 to 20)
#    0.000    2.250    1.250    1.875    0.000    4.500 
#    0.000    0.625    0.000    1.125    0.000    0.000 
#    0.000    0.000    0.000    0.000    0.000    0.000 
#
# Total GULP energy -178536.513259 kJ/mol
# GULP energy per Si atom -5579.266039 kJ/mol
# Density = 2.111342 g / cm^3
# Si number density = 21.161589 Si / 1000 Ang^3
#
#
#
# Elastic Constant Matrix: (Units=GPa)
#
#
# Indices 1 2 3 4 5 6 
#
# 1 25.0792 6.2396 -10.5752 0.0000 0.0000 0.0000
# 2 6.2396 156.9158 65.6367 0.0000 0.0000 0.0000
# 3 -10.5752 65.6367 90.0394 0.0000 0.0000 0.0000
# 4 0.0000 0.0000 0.0000 46.9447 0.0000 0.0000
# 5 0.0000 0.0000 0.0000 0.0000 151.7673 0.0000
# 6 0.0000 0.0000 0.0000 0.0000 0.0000 0.4293
#
#
#
# Elastic Compliance Matrix: (Units=1/GPa)
#
#
# Indices 1 2 3 4 5 6 
#
# 1 0.045345 -0.005799 0.009553 0.000000 0.000000 0.000000
# 2 -0.005799 0.009910 -0.007905 0.000000 0.000000 0.000000
# 3 0.009553 -0.007905 0.017991 0.000000 0.000000 0.000000
# 4 0.000000 0.000000 0.000000 0.021302 0.000000 0.000000
# 5 0.000000 0.000000 0.000000 0.000000 0.006589 0.000000
# 6 0.000000 0.000000 0.000000 0.000000 0.000000 2.329512
#
#
# Mechanical properties :
#
#
# Convention : Reuss Voigt Hill
#
# Bulk Modulus (GPa) = 15.39799 43.84851 29.62325
# Shear Modulus (GPa) = 2.03203 53.87714 27.95458
#
# Velocity S-wave (km/s) = 0.98098 5.05125 3.63851
# Velocity P-wave (km/s) = 2.92836 7.40176 5.62855
#
# Compressibility (1/GPa) = 0.06494355
#
# Stress axis : x y z
#
# Youngs Moduli (GPa) = 22.05321 100.90585 55.58281
#
# Poissons Ratio (x) = 0.58517 -0.53100
# Poissons Ratio (y) = 0.12789 0.43941
# Poissons Ratio (z) = -0.21068 0.79771
#
# Static dielectric constant tensor:
#      x y z
#    x 1.764410 0.000000 0.000000 
#    y 0.000000 1.804870 0.000000 
#    z 0.000000 0.000000 1.738600 
# 
# From -- ./inp_files/4218.got.cif
#   From: 2010.05.17/outbox.cif.g08.bks.cpg/sg25_3_cif.got.tgz:4218.got - 2010.06.04 01:04:00.
