data_PCOD9337661
_publ_section_title
;
Structure prediction by ZEFSAII (Michael W. Deem and Ramdas Pophale) SiO2 
 PCOD9337661
Probable space group: P M M 2
;
_chemical_formula_sum "Si O2"
_cell_formula_units_Z 20
_cell_length_a 8.104735
_cell_length_b 7.755601
_cell_length_c 15.047777
_cell_angle_alpha 90.000000
_cell_angle_beta 90.000000
_cell_angle_gamma 90.000000
_cell_volume 945.859486
_symmetry_space_group_name_H-M "P M M 2"
_symmetry_group_IT_number 25
_symmetry_cell_setting 'orthorhombic'
loop_
_space_group_symop_operation_xyz
x,y,z
-x,-y,z
-x,y,z
x,-y,z
loop_
_atom_site_type_symbol
_atom_site_label
_atom_site_fract_x
_atom_site_fract_y
_atom_site_fract_z
Si Si1 0.500000 0.212956 0.701010
Si Si2 0.178714 0.707499 0.017119
Si Si3 0.500000 0.203902 0.903291
Si Si4 0.813180 0.202222 0.589960
Si Si5 0.691045 0.708236 0.202473
Si Si6 0.197689 0.700026 0.391754
O O1 0.500000 0.272476 0.802855
O O2 0.666122 0.272348 0.650714
O O3 0.500000 0.000000 0.698217
O O4 0.174238 0.500000 0.022336
O O5 0.206962 0.772145 0.118023
O O6 0.000000 0.767962 0.983419
O O7 0.335404 0.748653 0.956931
O O8 0.500000 0.000000 0.895380
O O9 0.763217 0.217354 0.486376
O O10 0.000000 0.276512 0.599630
O O11 0.826116 0.000000 0.610952
O O12 0.500000 0.737702 0.182002
O O13 0.717984 0.500000 0.207676
O O14 0.731152 0.775830 0.300640
O O15 0.250378 0.500000 0.398262
O O16 0.000000 0.704982 0.382139
#
# Coordination Sequence:
#
# PCOD9337661 Si02
#       6
#     2   4   2   4   4   4
#     4   9  20  37  56  75  98 134 177 217 262 323
#     4  10  20  37  61  84 110 147 187 226 271 326
#     4  11  23  39  58  83 112 140 181 235 286 333
#     4   9  18  34  54  74  99 134 174 213 256 311
#     4   9  16  28  50  78 107 140 179 215 253 314
#     4   9  17  29  47  75 107 136 171 213 255 303
#
# _framework density 21.144787999999998
#
# number of rings (size 3 to 8) (size 9 to 14) (size 15 to 20)
#    0.000    2.600    1.000    0.900    1.400    3.600 
#    0.000    5.000    0.000    4.800    0.000    0.000 
#    0.000    0.000    0.000    0.000    0.000    0.000 
#
# Total GULP energy -111562.987646 kJ/mol
# GULP energy per Si atom -5578.149382 kJ/mol
# Density = 2.109666 g / cm^3
# Si number density = 21.144788 Si / 1000 Ang^3
#
#
#
# Elastic Constant Matrix: (Units=GPa)
#
#
# Indices 1 2 3 4 5 6 
#
# 1 146.0867 13.1421 114.3079 0.0000 0.0000 0.0000
# 2 13.1421 28.1354 2.3424 0.0000 0.0000 0.0000
# 3 114.3079 2.3424 154.9787 0.0000 0.0000 0.0000
# 4 0.0000 0.0000 0.0000 22.6409 0.0000 0.0000
# 5 0.0000 0.0000 0.0000 0.0000 1.2710 0.0000
# 6 0.0000 0.0000 0.0000 0.0000 0.0000 -3.2486
#
#
#
# Elastic Compliance Matrix: (Units=1/GPa)
#
#
# Indices 1 2 3 4 5 6 
#
# 1 0.017501 -0.007109 -0.012801 0.000000 0.000000 0.000000
# 2 -0.007109 0.038475 0.004662 0.000000 0.000000 0.000000
# 3 -0.012801 0.004662 0.015823 0.000000 0.000000 0.000000
# 4 0.000000 0.000000 0.000000 0.044168 0.000000 0.000000
# 5 0.000000 0.000000 0.000000 0.000000 0.786766 0.000000
# 6 0.000000 0.000000 0.000000 0.000000 0.000000 -0.307825
#
#
# Mechanical properties :
#
#
# Convention : Reuss Voigt Hill
#
# Bulk Modulus (GPa) = 24.21098 65.42061 44.81579
# Shear Modulus (GPa) = 7.82263 17.42656 12.62460
#
# Velocity S-wave (km/s) = 1.92551 2.87392 2.44612
# Velocity P-wave (km/s) = 4.05196 6.48221 5.40544
#
# Compressibility (1/GPa) = 0.04130358
#
# Stress axis : x y z
#
# Youngs Moduli (GPa) = 57.13994 25.99099 63.19722
#
# Poissons Ratio (x) = 0.18477 0.80897
# Poissons Ratio (y) = 0.40621 -0.29461
# Poissons Ratio (z) = 0.73143 -0.12117
#
# Static dielectric constant tensor:
#      x y z
#    x 1.746310 0.000000 0.000000 
#    y 0.000000 1.797510 0.000000 
#    z 0.000000 0.000000 1.762180 
# 
# From -- ./inp_files/5132.got.cif
#   From: 2010.05.17/outbox.cif.g08.bks.cpg/sg25_3_cif.got.tgz:5132.got - 2010.06.04 01:04:00.
