data_PCOD9337910
_publ_section_title
;
Structure prediction by ZEFSAII (Michael W. Deem and Ramdas Pophale) SiO2 
 PCOD9337910
Probable space group: P M C 21
;
_chemical_formula_sum "Si O2"
_cell_formula_units_Z 32
_cell_length_a 7.727427
_cell_length_b 10.341295
_cell_length_c 20.687802
_cell_angle_alpha 90.000000
_cell_angle_beta 90.000000
_cell_angle_gamma 90.000000
_cell_volume 1653.195404
_symmetry_space_group_name_H-M "P M C 21"
_symmetry_group_IT_number 26
_symmetry_cell_setting 'orthorhombic'
loop_
_space_group_symop_operation_xyz
x,y,z
-x,-y,1/2+z
-x,y,z
x,-y,1/2+z
loop_
_atom_site_type_symbol
_atom_site_label
_atom_site_fract_x
_atom_site_fract_y
_atom_site_fract_z
Si Si1 0.212571 0.554096 0.713660
Si Si2 0.212954 0.321752 0.964024
Si Si3 0.792002 0.912315 0.550252
Si Si4 0.791543 0.842770 0.694926
Si Si5 0.203030 0.523087 0.071020
Si Si6 0.295137 0.876736 0.228953
Si Si7 0.797156 0.648562 0.319196
Si Si8 0.705136 0.808035 0.084883
O O1 0.264521 0.703632 0.721067
O O2 0.272886 0.506694 0.642811
O O3 0.275445 0.458628 0.769813
O O4 0.000000 0.548769 0.713647
O O5 0.275680 0.345422 0.891392
O O6 0.000000 0.321908 0.962381
O O7 0.267008 0.184375 0.994428
O O8 0.271767 0.432010 0.014307
O O9 0.729545 0.862539 0.620747
O O10 0.000000 0.905794 0.551910
O O11 0.742872 0.062090 0.545240
O O12 0.000000 0.841029 0.692944
O O13 0.738151 0.970417 0.733671
O O14 0.222195 0.674780 0.057939
O O15 0.000000 0.491207 0.074949
O O16 0.500000 0.855574 0.229438
O O17 0.217662 0.786670 0.283935
O O18 0.226453 0.832934 0.158071
O O19 0.000000 0.617599 0.326126
O O20 0.500000 0.793140 0.089309
#
# Coordination Sequence:
#
# PCOD9337910 Si02
#       8
#     4   4   4   4   4   4   4   4
#     4   9  16  28  51  78 100 127 168 210 251 301
#     4   9  18  32  53  79 104 129 167 215 256 301
#     4   9  16  30  51  73  96 127 165 207 254 299
#     4   9  16  29  51  75  97 125 166 212 254 298
#     4  10  17  31  53  77 103 134 168 209 259 306
#     4  10  20  33  48  72 104 135 169 209 252 299
#     4  10  19  33  53  77 103 134 170 209 255 306
#     4  10  20  32  48  75 105 131 167 213 251 294
#
# _framework density 19.356451
#
# number of rings (size 3 to 8) (size 9 to 14) (size 15 to 20)
#    0.000    2.500    2.500    0.750    0.000    1.000 
#    0.000    4.375    0.000    4.500    0.000    0.000 
#    0.000    0.000    0.000    0.000    0.000    0.000 
#
# Total GULP energy -178499.530021 kJ/mol
# GULP energy per Si atom -5578.110313 kJ/mol
# Density = 1.931239 g / cm^3
# Si number density = 19.356451 Si / 1000 Ang^3
#
#
#
# Elastic Constant Matrix: (Units=GPa)
#
#
# Indices 1 2 3 4 5 6 
#
# 1 24.8989 -13.0220 2.0192 0.0000 0.0000 0.0000
# 2 -13.0220 136.3428 75.4663 0.0000 0.0000 0.0000
# 3 2.0192 75.4663 122.7246 0.0000 0.0000 0.0000
# 4 0.0000 0.0000 0.0000 23.2503 0.0000 0.0000
# 5 0.0000 0.0000 0.0000 0.0000 -0.2638 0.0000
# 6 0.0000 0.0000 0.0000 0.0000 0.0000 -55.6956
#
#
#
# Elastic Compliance Matrix: (Units=1/GPa)
#
#
# Indices 1 2 3 4 5 6 
#
# 1 0.044241 0.007016 -0.005042 0.000000 0.000000 0.000000
# 2 0.007016 0.012232 -0.007637 0.000000 0.000000 0.000000
# 3 -0.005042 -0.007637 0.012927 0.000000 0.000000 0.000000
# 4 0.000000 0.000000 0.000000 0.043010 0.000000 0.000000
# 5 0.000000 0.000000 0.000000 0.000000 -3.791458 0.000000
# 6 0.000000 0.000000 0.000000 0.000000 0.000000 -0.017955
#
#
# Mechanical properties :
#
#
# Convention : Reuss Voigt Hill
#
# Bulk Modulus (GPa) = 17.21942 45.87702 31.54822
# Shear Modulus (GPa) = -1.36377 8.09171 3.36397
#
# Velocity S-wave (km/s) = -0.84029 2.04681 1.31973
# Velocity P-wave (km/s) = 2.82380 5.41651 4.31928
#
# Compressibility (1/GPa) = 0.05807398
#
# Stress axis : x y z
#
# Youngs Moduli (GPa) = 22.60353 81.75476 77.35466
#
# Poissons Ratio (x) = -0.57363 0.39006
# Poissons Ratio (y) = -0.15860 0.59076
# Poissons Ratio (z) = 0.11398 0.62436
#
# Static dielectric constant tensor:
#      x y z
#    x 1.706810 0.000000 0.000000 
#    y 0.000000 1.672670 0.000000 
#    z 0.000000 0.000000 1.665530 
# 
# From -- ./inp_files/5193.got.cif
#   From: 2010.05.17/outbox.cif.g08.bks.cpg/sg26_3_cif.got.tgz:5193.got - 2010.06.04 01:07:29.
