data_PCOD9337665
_publ_section_title
;
Structure prediction by ZEFSAII (Michael W. Deem and Ramdas Pophale) SiO2 
 PCOD9337665
Probable space group: P M M 2
;
_chemical_formula_sum "Si O2"
_cell_formula_units_Z 24
_cell_length_a 8.959342
_cell_length_b 8.226381
_cell_length_c 17.504556
_cell_angle_alpha 90.000000
_cell_angle_beta 90.000000
_cell_angle_gamma 90.000000
_cell_volume 1290.137605
_symmetry_space_group_name_H-M "P M M 2"
_symmetry_group_IT_number 25
_symmetry_cell_setting 'orthorhombic'
loop_
_space_group_symop_operation_xyz
x,y,z
-x,-y,z
-x,y,z
x,-y,z
loop_
_atom_site_type_symbol
_atom_site_label
_atom_site_fract_x
_atom_site_fract_y
_atom_site_fract_z
Si Si1 0.170830 0.805943 0.900540
Si Si2 0.168579 0.307613 0.063384
Si Si3 0.678959 0.806514 0.740306
Si Si4 0.168718 0.315491 0.357448
Si Si5 0.677530 0.500000 0.484175
Si Si6 0.179744 0.500000 0.650952
Si Si7 0.333689 0.809742 0.213228
O O1 0.268825 0.766536 0.826764
O O2 0.000000 0.741022 0.892310
O O3 0.161279 0.000000 0.902612
O O4 0.232553 0.751583 0.982483
O O5 0.158566 0.500000 0.058441
O O6 0.257234 0.265482 0.139253
O O7 0.000000 0.238138 0.069495
O O8 0.500000 0.794541 0.732873
O O9 0.756290 0.666422 0.689256
O O10 0.718722 0.000000 0.725261
O O11 0.160301 0.500000 0.324888
O O12 0.267295 0.345702 0.433085
O O13 0.242570 0.213519 0.291065
O O14 0.000000 0.263786 0.376042
O O15 0.500000 0.500000 0.493290
O O16 0.762768 0.500000 0.563842
O O17 0.000000 0.500000 0.655418
O O18 0.500000 0.741417 0.224358
O O19 0.343151 0.000000 0.197837
#
# Coordination Sequence:
#
# PCOD9337665 Si02
#       7
#     4   4   4   4   2   2   4
#     4   9  18  34  55  80 113 154 197 243 297 352
#     4  10  21  35  53  79 111 148 195 244 291 347
#     4  10  22  40  62  91 127 164 205 255 310 365
#     4   9  19  36  59  84 110 142 183 226 277 340
#     4  10  20  38  64  91 120 151 184 230 290 349
#     4  12  24  40  66  95 126 163 206 250 298 367
#     4  11  23  36  52  78 111 150 196 242 291 343
#
# _framework density 18.602667
#
# number of rings (size 3 to 8) (size 9 to 14) (size 15 to 20)
#    0.500    1.500    0.000    3.750    1.167    6.000 
#    0.000    2.500    0.000    5.000    0.000    0.000 
#    0.000    0.000    0.000    0.000    0.000    0.000 
#
# Total GULP energy -133723.071809 kJ/mol
# GULP energy per Si atom -5571.794659 kJ/mol
# Density = 1.856033 g / cm^3
# Si number density = 18.602667 Si / 1000 Ang^3
#
#
#
# Elastic Constant Matrix: (Units=GPa)
#
#
# Indices 1 2 3 4 5 6 
#
# 1 110.8411 32.6566 56.2255 0.0000 0.0000 0.0000
# 2 32.6566 51.0713 46.6817 0.0000 0.0000 0.0000
# 3 56.2255 46.6817 139.7316 0.0000 0.0000 0.0000
# 4 0.0000 0.0000 0.0000 87.5045 0.0000 0.0000
# 5 0.0000 0.0000 0.0000 0.0000 51.2349 0.0000
# 6 0.0000 0.0000 0.0000 0.0000 0.0000 21.9817
#
#
#
# Elastic Compliance Matrix: (Units=1/GPa)
#
#
# Indices 1 2 3 4 5 6 
#
# 1 0.012078 -0.004723 -0.003282 0.000000 0.000000 0.000000
# 2 -0.004723 0.030035 -0.008134 0.000000 0.000000 0.000000
# 3 -0.003282 -0.008134 0.011195 0.000000 0.000000 0.000000
# 4 0.000000 0.000000 0.000000 0.011428 0.000000 0.000000
# 5 0.000000 0.000000 0.000000 0.000000 0.019518 0.000000
# 6 0.000000 0.000000 0.000000 0.000000 0.000000 0.045492
#
#
# Mechanical properties :
#
#
# Convention : Reuss Voigt Hill
#
# Bulk Modulus (GPa) = 47.55103 63.64129 55.59616
# Shear Modulus (GPa) = 29.57972 43.21622 36.39797
#
# Velocity S-wave (km/s) = 3.99191 4.82510 4.42815
# Velocity P-wave (km/s) = 6.84573 8.08253 7.48970
#
# Compressibility (1/GPa) = 0.02103004
#
# Stress axis : x y z
#
# Youngs Moduli (GPa) = 82.79211 33.29431 89.32899
#
# Poissons Ratio (x) = 0.15726 0.29320
# Poissons Ratio (y) = 0.39105 0.72657
# Poissons Ratio (z) = 0.27174 0.27080
#
# Static dielectric constant tensor:
#      x y z
#    x 1.680020 0.000000 0.000000 
#    y 0.000000 1.565480 0.000000 
#    z 0.000000 0.000000 1.616560 
# 
# From -- ./inp_files/6006.got.cif
#   From: 2010.05.17/outbox.cif.g08.bks.cpg/sg25_4_cif.got.tgz:6006.got - 2010.06.04 01:04:00.
