data_PCOD9337679
_publ_section_title
;
Structure prediction by ZEFSAII (Michael W. Deem and Ramdas Pophale) SiO2 
 PCOD9337679
Probable space group: P M M 2
;
_chemical_formula_sum "Si O2"
_cell_formula_units_Z 28
_cell_length_a 7.469757
_cell_length_b 9.705115
_cell_length_c 18.763329
_cell_angle_alpha 90.000000
_cell_angle_beta 90.000000
_cell_angle_gamma 90.000000
_cell_volume 1360.244735
_symmetry_space_group_name_H-M "P M M 2"
_symmetry_group_IT_number 25
_symmetry_cell_setting 'orthorhombic'
loop_
_space_group_symop_operation_xyz
x,y,z
-x,-y,z
-x,y,z
x,-y,z
loop_
_atom_site_type_symbol
_atom_site_label
_atom_site_fract_x
_atom_site_fract_y
_atom_site_fract_z
Si Si1 0.281836 0.157899 0.069640
Si Si2 0.787687 0.654824 0.364620
Si Si3 0.719117 0.341507 0.937522
Si Si4 0.211928 0.843097 0.491461
Si Si5 0.714960 0.159484 0.647421
Si Si6 0.715558 0.843964 0.230832
Si Si7 0.281558 0.839356 0.803399
O O1 0.500000 0.159793 0.069449
O O2 0.224223 0.190513 0.150418
O O3 0.229266 0.000000 0.053473
O O4 0.222546 0.262828 0.009033
O O5 0.714231 0.500000 0.361666
O O6 0.713187 0.747232 0.429226
O O7 0.766488 0.736011 0.290818
O O8 0.000000 0.643163 0.377255
O O9 0.500000 0.340697 0.937391
O O10 0.775777 0.500000 0.935565
O O11 0.777575 0.255389 0.868357
O O12 0.233381 0.781323 0.570866
O O13 0.000000 0.855534 0.479358
O O14 0.286018 0.000000 0.489922
O O15 0.500000 0.159448 0.648825
O O16 0.774686 0.212886 0.724703
O O17 0.776440 0.000000 0.645474
O O18 0.500000 0.847926 0.228965
O O19 0.777235 0.000000 0.248144
O O20 0.500000 0.839467 0.804281
O O21 0.228351 0.000000 0.811724
#
# Coordination Sequence:
#
# PCOD9337679 Si02
#       7
#     4   4   4   4   4   4   4
#     4   8  14  25  40  59  85 115 145 178 218 263
#     4  10  21  35  49  67  93 124 156 188 225 274
#     4   9  15  21  32  54  84 115 144 174 211 255
#     4   9  17  30  48  67  86 111 146 187 227 266
#     4   8  14  25  42  64  87 111 142 180 221 264
#     4   9  18  32  50  72  95 119 151 192 235 276
#     4   8  13  22  36  53  76 108 142 174 211 256
#
# _framework density 20.584533
#
# number of rings (size 3 to 8) (size 9 to 14) (size 15 to 20)
#    0.000    3.286    0.000    2.571    0.000    4.000 
#    0.000    3.571    0.000    0.857    0.000    1.000 
#    0.000    5.714    0.000    0.000    0.000    0.000 
#
# Total GULP energy -156106.535271 kJ/mol
# GULP energy per Si atom -5575.233403 kJ/mol
# Density = 2.053768 g / cm^3
# Si number density = 20.584533 Si / 1000 Ang^3
#
#
#
# Elastic Constant Matrix: (Units=GPa)
#
#
# Indices 1 2 3 4 5 6 
#
# 1 56.9602 5.5427 1.3610 0.0000 0.0000 0.0000
# 2 5.5427 139.4248 133.5558 0.0000 0.0000 0.0000
# 3 1.3610 133.5558 207.4664 0.0000 0.0000 0.0000
# 4 0.0000 0.0000 0.0000 -6.0124 0.0000 0.0000
# 5 0.0000 0.0000 0.0000 0.0000 31.4508 0.0000
# 6 0.0000 0.0000 0.0000 0.0000 0.0000 2.4904
#
#
#
# Elastic Compliance Matrix: (Units=1/GPa)
#
#
# Indices 1 2 3 4 5 6 
#
# 1 0.017685 -0.001544 0.000878 0.000000 0.000000 0.000000
# 2 -0.001544 0.018844 -0.012121 0.000000 0.000000 0.000000
# 3 0.000878 -0.012121 0.012617 0.000000 0.000000 0.000000
# 4 0.000000 0.000000 0.000000 -0.166323 0.000000 0.000000
# 5 0.000000 0.000000 0.000000 0.000000 0.031796 0.000000
# 6 0.000000 0.000000 0.000000 0.000000 0.000000 0.401540
#
#
# Mechanical properties :
#
#
# Convention : Reuss Voigt Hill
#
# Bulk Modulus (GPa) = 42.42165 76.08560 59.25363
# Shear Modulus (GPa) = 14.30244 23.14523 18.72384
#
# Velocity S-wave (km/s) = 2.63879 3.35684 3.01924
# Velocity P-wave (km/s) = 5.47152 7.21577 6.40331
#
# Compressibility (1/GPa) = 0.02357287
#
# Stress axis : x y z
#
# Youngs Moduli (GPa) = 56.54384 53.06627 79.25771
#
# Poissons Ratio (x) = 0.08194 -0.06959
# Poissons Ratio (y) = 0.08731 0.96067
# Poissons Ratio (z) = -0.04965 0.64321
#
# Static dielectric constant tensor:
#      x y z
#    x 1.786980 0.000000 0.000000 
#    y 0.000000 1.700930 0.000000 
#    z 0.000000 0.000000 1.738040 
# 
# From -- ./inp_files/6331.got.cif
#   From: 2010.05.17/outbox.cif.g08.bks.cpg/sg25_4_cif.got.tgz:6331.got - 2010.06.04 01:04:00.
