data_PCOD9337693
_publ_section_title
;
Structure prediction by ZEFSAII (Michael W. Deem and Ramdas Pophale) SiO2 
 PCOD9337693
Probable space group: P M M 2
;
_chemical_formula_sum "Si O2"
_cell_formula_units_Z 28
_cell_length_a 9.580975
_cell_length_b 8.341439
_cell_length_c 18.806287
_cell_angle_alpha 90.000000
_cell_angle_beta 90.000000
_cell_angle_gamma 90.000000
_cell_volume 1502.981880
_symmetry_space_group_name_H-M "P M M 2"
_symmetry_group_IT_number 25
_symmetry_cell_setting 'orthorhombic'
loop_
_space_group_symop_operation_xyz
x,y,z
-x,-y,z
-x,y,z
x,-y,z
loop_
_atom_site_type_symbol
_atom_site_label
_atom_site_fract_x
_atom_site_fract_y
_atom_site_fract_z
Si Si1 0.161499 0.194384 0.710970
Si Si2 0.161010 0.306358 0.979386
Si Si3 0.839216 0.808274 0.135693
Si Si4 0.660002 0.693894 0.844354
Si Si5 0.340667 0.308371 0.267999
Si Si6 0.838780 0.805740 0.400863
Si Si7 0.169787 0.814651 0.555798
O O1 0.258072 0.251244 0.774512
O O2 0.208808 0.254918 0.632640
O O3 0.000000 0.244081 0.722681
O O4 0.162149 0.000000 0.708360
O O5 0.163147 0.500000 0.980683
O O6 0.258123 0.250977 0.914929
O O7 0.000000 0.255273 0.967598
O O8 0.205093 0.245605 0.056912
O O9 0.741175 0.743598 0.197430
O O10 0.000000 0.752048 0.145998
O O11 0.839458 0.000000 0.138882
O O12 0.500000 0.749140 0.844030
O O13 0.660052 0.500000 0.845477
O O14 0.500000 0.248332 0.267203
O O15 0.343172 0.500000 0.270403
O O16 0.258343 0.247115 0.336924
O O17 0.791066 0.744730 0.479012
O O18 0.000000 0.755244 0.388824
O O19 0.839768 0.000000 0.404026
O O20 0.000000 0.817360 0.555730
O O21 0.217509 0.000000 0.555828
#
# Coordination Sequence:
#
# PCOD9337693 Si02
#       7
#     4   4   4   4   4   4   4
#     4   9  17  31  53  78 102 131 170 215 259 302
#     4   9  18  34  55  76 100 133 171 209 250 298
#     4  10  21  37  58  83 106 128 161 207 256 304
#     4  10  21  35  50  72 105 142 175 207 248 299
#     4  11  24  38  51  72 105 142 175 206 245 296
#     4   9  17  32  56  81 102 128 167 214 260 305
#     4   7  12  26  49  76 102 127 161 209 260 304
#
# _framework density 18.629633999999999
#
# number of rings (size 3 to 8) (size 9 to 14) (size 15 to 20)
#    0.000    2.714    0.000    3.429    0.000    6.286 
#    0.000    4.286    0.000    6.857    0.000    0.000 
#    0.000    0.000    0.000    0.000    0.000    0.000 
#
# Total GULP energy -156123.869536 kJ/mol
# GULP energy per Si atom -5575.852483 kJ/mol
# Density = 1.858723 g / cm^3
# Si number density = 18.629634 Si / 1000 Ang^3
#
#
#
# Elastic Constant Matrix: (Units=GPa)
#
#
# Indices 1 2 3 4 5 6 
#
# 1 109.8229 18.3282 120.1367 0.0000 0.0000 0.0000
# 2 18.3282 10.6702 22.9165 0.0000 0.0000 0.0000
# 3 120.1367 22.9165 225.3375 0.0000 0.0000 0.0000
# 4 0.0000 0.0000 0.0000 41.1687 0.0000 0.0000
# 5 0.0000 0.0000 0.0000 0.0000 -9.5621 0.0000
# 6 0.0000 0.0000 0.0000 0.0000 0.0000 19.7597
#
#
#
# Elastic Compliance Matrix: (Units=1/GPa)
#
#
# Indices 1 2 3 4 5 6 
#
# 1 0.024215 -0.017743 -0.011106 0.000000 0.000000 0.000000
# 2 -0.017743 0.132909 -0.004057 0.000000 0.000000 0.000000
# 3 -0.011106 -0.004057 0.010771 0.000000 0.000000 0.000000
# 4 0.000000 0.000000 0.000000 0.024290 0.000000 0.000000
# 5 0.000000 0.000000 0.000000 0.000000 -0.104580 0.000000
# 6 0.000000 0.000000 0.000000 0.000000 0.000000 0.050608
#
#
# Mechanical properties :
#
#
# Convention : Reuss Voigt Hill
#
# Bulk Modulus (GPa) = 9.79584 74.28816 42.04200
# Shear Modulus (GPa) = 21.00365 22.56987 21.78676
#
# Velocity S-wave (km/s) = 3.36137 3.48444 3.42346
# Velocity P-wave (km/s) = 4.50940 7.49342 6.18409
#
# Compressibility (1/GPa) = 0.10208412
#
# Stress axis : x y z
#
# Youngs Moduli (GPa) = 41.29601 7.52395 92.83860
#
# Poissons Ratio (x) = 0.13349 1.03105
# Poissons Ratio (y) = 0.73270 0.37667
# Poissons Ratio (z) = 0.45863 0.03053
#
# Static dielectric constant tensor:
#      x y z
#    x 1.625460 0.000000 0.000000 
#    y 0.000000 1.653390 0.000000 
#    z 0.000000 0.000000 1.648350 
# 
# From -- ./inp_files/6047.got.cif
#   From: 2010.05.17/outbox.cif.g08.bks.cpg/sg25_4_cif.got.tgz:6047.got - 2010.06.04 01:04:00.
