data_PCOD9337673
_publ_section_title
;
Structure prediction by ZEFSAII (Michael W. Deem and Ramdas Pophale) SiO2 
 PCOD9337673
Probable space group: P M M 2
;
_chemical_formula_sum "Si O2"
_cell_formula_units_Z 32
_cell_length_a 13.141466
_cell_length_b 7.286782
_cell_length_c 13.162258
_cell_angle_alpha 90.000000
_cell_angle_beta 90.000000
_cell_angle_gamma 90.000000
_cell_volume 1260.404636
_symmetry_space_group_name_H-M "P M M 2"
_symmetry_group_IT_number 25
_symmetry_cell_setting 'orthorhombic'
loop_
_space_group_symop_operation_xyz
x,y,z
-x,-y,z
-x,y,z
x,-y,z
loop_
_atom_site_type_symbol
_atom_site_label
_atom_site_fract_x
_atom_site_fract_y
_atom_site_fract_z
Si Si1 0.609770 0.776133 0.683380
Si Si2 0.831800 0.776455 0.411353
Si Si3 0.339894 0.209071 0.905665
Si Si4 0.609382 0.776787 0.346689
Si Si5 0.108024 0.776913 0.187702
Si Si6 0.889417 0.710566 0.858253
Si Si7 0.834688 0.221902 0.629716
Si Si8 0.328597 0.775849 0.122729
O O1 0.500000 0.719504 0.642067
O O2 0.620196 0.712011 0.800330
O O3 0.715394 0.723710 0.631968
O O4 0.610970 0.000000 0.682283
O O5 0.713451 0.719996 0.400158
O O6 0.883744 0.721619 0.306164
O O7 0.875164 0.718541 0.519986
O O8 0.834264 0.000000 0.411636
O O9 0.216270 0.204627 0.896628
O O10 0.376494 0.000000 0.905896
O O11 0.368641 0.289399 0.014448
O O12 0.500000 0.716851 0.387207
O O13 0.618562 0.723857 0.227865
O O14 0.610516 0.000000 0.350441
O O15 0.210794 0.718325 0.133457
O O16 0.000000 0.716317 0.144778
O O17 0.109742 0.000000 0.185880
O O18 0.886664 0.500000 0.891096
O O19 0.882664 0.714095 0.734987
O O20 0.000000 0.789404 0.887476
O O21 0.840921 0.000000 0.634170
O O22 0.331343 0.000000 0.120425
#
# Coordination Sequence:
#
# PCOD9337673 Si02
#       8
#     4   4   4   4   4   4   4   4
#     4   8  14  24  38  59  86 111 137 174 216 250
#     4   8  14  23  35  56  85 113 143 175 207 249
#     4   9  17  29  46  67  89 115 149 186 219 256
#     4   8  13  21  34  57  93 128 148 170 212 260
#     4   8  13  21  32  49  77 107 130 161 208 250
#     4  10  21  35  48  63  86 115 145 182 232 284
#     4   9  17  29  46  67  89 115 149 186 219 256
#     4   8  14  23  35  56  85 113 143 175 207 249
#
# _framework density 25.388672
#
# number of rings (size 3 to 8) (size 9 to 14) (size 15 to 20)
#    0.000    3.500    0.000    2.625    0.000    3.000 
#    0.000    7.500    0.000    6.000    0.000    3.500 
#    0.000   10.000    0.000    0.000    0.000    0.000 
#
# Total GULP energy -178691.058593 kJ/mol
# GULP energy per Si atom -5584.095581 kJ/mol
# Density = 2.533089 g / cm^3
# Si number density = 25.388672 Si / 1000 Ang^3
#
#
#
# Elastic Constant Matrix: (Units=GPa)
#
#
# Indices 1 2 3 4 5 6 
#
# 1 132.3766 -2.8009 -8.8953 0.0000 0.0000 0.0000
# 2 -2.8009 108.9152 -4.9739 0.0000 0.0000 0.0000
# 3 -8.8953 -4.9739 117.7530 0.0000 0.0000 0.0000
# 4 0.0000 0.0000 0.0000 145.2953 0.0000 0.0000
# 5 0.0000 0.0000 0.0000 0.0000 -17.7727 0.0000
# 6 0.0000 0.0000 0.0000 0.0000 0.0000 -1.1327
#
#
#
# Elastic Compliance Matrix: (Units=1/GPa)
#
#
# Indices 1 2 3 4 5 6 
#
# 1 0.007598 0.000222 0.000583 0.000000 0.000000 0.000000
# 2 0.000222 0.009206 0.000406 0.000000 0.000000 0.000000
# 3 0.000583 0.000406 0.008554 0.000000 0.000000 0.000000
# 4 0.000000 0.000000 0.000000 0.006883 0.000000 0.000000
# 5 0.000000 0.000000 0.000000 0.000000 -0.056266 0.000000
# 6 0.000000 0.000000 0.000000 0.000000 0.000000 -0.882838
#
#
# Mechanical properties :
#
#
# Convention : Reuss Voigt Hill
#
# Bulk Modulus (GPa) = 35.99795 36.18942 36.09368
# Shear Modulus (GPa) = -5.55540 50.32562 22.38511
#
# Velocity S-wave (km/s) = -1.48084 4.45703 2.97256
# Velocity P-wave (km/s) = 3.35942 6.38529 5.10184
#
# Compressibility (1/GPa) = 0.02777936
#
# Stress axis : x y z
#
# Youngs Moduli (GPa) = 131.61179 108.62845 116.91050
#
# Poissons Ratio (x) = -0.02412 -0.06820
# Poissons Ratio (y) = -0.02922 -0.04742
# Poissons Ratio (z) = -0.07678 -0.04406
#
# Static dielectric constant tensor:
#      x y z
#    x 1.969680 0.000000 0.000000 
#    y 0.000000 1.965480 0.000000 
#    z 0.000000 0.000000 1.963080 
# 
# From -- ./inp_files/5939.got.cif
#   From: 2010.05.17/outbox.cif.g08.bks.cpg/sg25_3_cif.got.tgz:5939.got - 2010.06.04 01:04:00.
