data_PCOD9337552
_publ_section_title
;
Structure prediction by ZEFSAII (Michael W. Deem and Ramdas Pophale) SiO2 
 PCOD9337552
Probable space group: P M M 2
;
_chemical_formula_sum "Si O2"
_cell_formula_units_Z 28
_cell_length_a 7.477720
_cell_length_b 9.435555
_cell_length_c 18.488681
_cell_angle_alpha 90.000000
_cell_angle_beta 90.000000
_cell_angle_gamma 90.000000
_cell_volume 1304.495481
_symmetry_space_group_name_H-M "P M M 2"
_symmetry_group_IT_number 25
_symmetry_cell_setting 'orthorhombic'
loop_
_space_group_symop_operation_xyz
x,y,z
-x,-y,z
-x,y,z
x,-y,z
loop_
_atom_site_type_symbol
_atom_site_label
_atom_site_fract_x
_atom_site_fract_y
_atom_site_fract_z
Si Si1 0.781006 0.662989 0.688370
Si Si2 0.784407 0.161780 0.103854
Si Si3 0.781690 0.836846 0.546537
Si Si4 0.290508 0.340612 0.963300
Si Si5 0.218681 0.662718 0.405401
Si Si6 0.217918 0.163268 0.266639
Si Si7 0.790586 0.841001 0.824761
O O1 0.722633 0.500000 0.686315
O O2 0.726512 0.750277 0.617495
O O3 0.717558 0.743141 0.760512
O O4 0.000000 0.660255 0.688694
O O5 0.724698 0.200696 0.185071
O O6 0.000000 0.158370 0.104963
O O7 0.724093 0.000000 0.088394
O O8 0.732106 0.269453 0.041464
O O9 0.725029 0.756222 0.473886
O O10 0.000000 0.838081 0.546295
O O11 0.723391 0.000000 0.548274
O O12 0.500000 0.350662 0.948800
O O13 0.214501 0.500000 0.960653
O O14 0.218760 0.237913 0.901235
O O15 0.275350 0.500000 0.411815
O O16 0.277621 0.734217 0.330431
O O17 0.000000 0.663183 0.405224
O O18 0.000000 0.165859 0.266681
O O19 0.269805 0.000000 0.280725
O O20 0.000000 0.855721 0.807731
O O21 0.714331 0.000000 0.827822
#
# Coordination Sequence:
#
# PCOD9337552 Si02
#       7
#     4   4   4   4   4   4   4
#     4   9  16  26  41  62  89 120 154 193 236 281
#     4   9  18  33  53  75  97 124 161 202 243 290
#     4   9  15  22  33  51  80 119 158 193 231 275
#     4  11  24  38  51  71  99 128 159 197 242 291
#     4   9  15  21  31  51  81 117 155 191 229 275
#     4   8  14  25  40  59  85 116 150 189 232 278
#     4  10  20  34  53  75  97 124 161 201 241 289
#
# _framework density 21.464238000000002
#
# number of rings (size 3 to 8) (size 9 to 14) (size 15 to 20)
#    0.000    2.714    0.000    3.429    0.000    9.714 
#    0.000    1.429    0.000    0.000    0.000    0.000 
#    0.000    1.143    0.000    8.286    0.000   12.571 
#
# Total GULP energy -156389.991358 kJ/mol
# GULP energy per Si atom -5585.356834 kJ/mol
# Density = 2.141538 g / cm^3
# Si number density = 21.464238 Si / 1000 Ang^3
#
#
#
# Elastic Constant Matrix: (Units=GPa)
#
#
# Indices 1 2 3 4 5 6 
#
# 1 58.3116 3.2412 -5.6342 0.0000 0.0000 0.0000
# 2 3.2412 224.9878 135.0175 0.0000 0.0000 0.0000
# 3 -5.6342 135.0175 173.4690 0.0000 0.0000 0.0000
# 4 0.0000 0.0000 0.0000 106.1948 0.0000 0.0000
# 5 0.0000 0.0000 0.0000 0.0000 -45.4914 0.0000
# 6 0.0000 0.0000 0.0000 0.0000 0.0000 -36.9479
#
#
#
# Elastic Compliance Matrix: (Units=1/GPa)
#
#
# Indices 1 2 3 4 5 6 
#
# 1 0.017348 -0.001103 0.001422 0.000000 0.000000 0.000000
# 2 -0.001103 0.008411 -0.006582 0.000000 0.000000 0.000000
# 3 0.001422 -0.006582 0.010934 0.000000 0.000000 0.000000
# 4 0.000000 0.000000 0.000000 0.009417 0.000000 0.000000
# 5 0.000000 0.000000 0.000000 0.000000 -0.021982 0.000000
# 6 0.000000 0.000000 0.000000 0.000000 0.000000 -0.027065
#
#
# Mechanical properties :
#
#
# Convention : Reuss Voigt Hill
#
# Bulk Modulus (GPa) = 41.38025 80.22416 60.80220
# Shear Modulus (GPa) = 283.38483 26.36068 154.87275
#
# Velocity S-wave (km/s) = 11.50274 3.50826 8.50356
# Velocity P-wave (km/s) = 13.99064 7.33944 11.17151
#
# Compressibility (1/GPa) = 0.02416612
#
# Stress axis : x y z
#
# Youngs Moduli (GPa) = 57.64345 118.89800 91.45769
#
# Poissons Ratio (x) = 0.13120 -0.13008
# Poissons Ratio (y) = 0.06361 0.60198
# Poissons Ratio (z) = -0.08199 0.78260
#
# Static dielectric constant tensor:
#      x y z
#    x 1.813010 0.000000 0.000000 
#    y 0.000000 1.740160 0.000000 
#    z 0.000000 0.000000 1.729190 
# 
# From -- ./inp_files/6102.got.cif
#   From: 2010.05.17/outbox.cif.g08.bks.cpg/sg25_4_cif.got.tgz:6102.got - 2010.06.04 01:04:00.
