data_PCOD9337794
_publ_section_title
;
Structure prediction by ZEFSAII (Michael W. Deem and Ramdas Pophale) SiO2 
 PCOD9337794
Probable space group: P M M 2
;
_chemical_formula_sum "Si O2"
_cell_formula_units_Z 20
_cell_length_a 9.497460
_cell_length_b 7.332262
_cell_length_c 15.027580
_cell_angle_alpha 90.000000
_cell_angle_beta 90.000000
_cell_angle_gamma 90.000000
_cell_volume 1046.488588
_symmetry_space_group_name_H-M "P M M 2"
_symmetry_group_IT_number 25
_symmetry_cell_setting 'orthorhombic'
loop_
_space_group_symop_operation_xyz
x,y,z
-x,-y,z
-x,y,z
x,-y,z
loop_
_atom_site_type_symbol
_atom_site_label
_atom_site_fract_x
_atom_site_fract_y
_atom_site_fract_z
Si Si1 0.333607 0.781603 0.254710
Si Si2 0.830904 0.500000 0.136176
Si Si3 0.838853 0.777501 0.626463
Si Si4 0.666807 0.500000 0.952453
Si Si5 0.339415 0.778257 0.457969
Si Si6 0.664786 0.784657 0.799191
O O1 0.500000 0.740995 0.239040
O O2 0.234094 0.673140 0.188376
O O3 0.301620 0.727297 0.357061
O O4 0.317039 0.000000 0.246689
O O5 0.000000 0.500000 0.136073
O O6 0.765383 0.500000 0.037678
O O7 0.761641 0.716672 0.536589
O O8 0.756696 0.722944 0.715402
O O9 0.000000 0.719793 0.628649
O O10 0.835964 0.000000 0.625549
O O11 0.500000 0.500000 0.977458
O O12 0.693289 0.672779 0.888423
O O13 0.500000 0.721093 0.475349
O O14 0.339176 0.000000 0.458636
O O15 0.500000 0.757778 0.776908
O O16 0.687873 0.000000 0.813256
#
# Coordination Sequence:
#
# PCOD9337794 Si02
#       6
#     4   2   4   2   4   4
#     4   9  19  38  63  86 110 147 194 238 277 323
#     4  12  26  40  57  84 117 148 179 228 294 352
#     4   9  16  26  45  76 112 146 175 208 258 321
#     4  10  22  40  59  78 101 134 183 234 276 326
#     4   8  14  27  50  79 108 140 180 223 264 309
#     4   9  18  34  56  79 103 135 177 224 269 314
#
# _framework density 19.111530999999999
#
# number of rings (size 3 to 8) (size 9 to 14) (size 15 to 20)
#    0.000    2.800    0.000    2.700    0.000    5.200 
#    0.000    5.000    0.000    2.400    0.000    0.000 
#    0.000    0.000    0.000    0.000    0.000    0.000 
#
# Total GULP energy -111664.869164 kJ/mol
# GULP energy per Si atom -5583.243458 kJ/mol
# Density = 1.906803 g / cm^3
# Si number density = 19.111531 Si / 1000 Ang^3
#
#
#
# Elastic Constant Matrix: (Units=GPa)
#
#
# Indices 1 2 3 4 5 6 
#
# 1 147.6702 54.4058 138.2469 0.0000 0.0000 0.0000
# 2 54.4058 86.2346 54.2062 0.0000 0.0000 0.0000
# 3 138.2469 54.2062 179.8438 0.0000 0.0000 0.0000
# 4 0.0000 0.0000 0.0000 27.6648 0.0000 0.0000
# 5 0.0000 0.0000 0.0000 0.0000 -9.0331 0.0000
# 6 0.0000 0.0000 0.0000 0.0000 0.0000 11.2225
#
#
#
# Elastic Compliance Matrix: (Units=1/GPa)
#
#
# Indices 1 2 3 4 5 6 
#
# 1 0.025590 -0.004663 -0.018266 0.000000 0.000000 0.000000
# 2 -0.004663 0.015157 -0.000984 0.000000 0.000000 0.000000
# 3 -0.018266 -0.000984 0.019898 0.000000 0.000000 0.000000
# 4 0.000000 0.000000 0.000000 0.036147 0.000000 0.000000
# 5 0.000000 0.000000 0.000000 0.000000 -0.110704 0.000000
# 6 0.000000 0.000000 0.000000 0.000000 0.000000 0.089107
#
#
# Mechanical properties :
#
#
# Convention : Reuss Voigt Hill
#
# Bulk Modulus (GPa) = 78.00725 100.82960 89.41843
# Shear Modulus (GPa) = 39.27974 17.09682 28.18828
#
# Velocity S-wave (km/s) = 4.53845 2.99420 3.84466
# Velocity P-wave (km/s) = 8.26854 8.05150 8.16074
#
# Compressibility (1/GPa) = 0.01281932
#
# Stress axis : x y z
#
# Youngs Moduli (GPa) = 39.07795 65.97761 50.25710
#
# Poissons Ratio (x) = 0.30767 0.91797
# Poissons Ratio (y) = 0.18223 0.04944
# Poissons Ratio (z) = 0.71378 0.06490
#
# Static dielectric constant tensor:
#      x y z
#    x 1.629290 0.000000 0.000000 
#    y 0.000000 1.721320 0.000000 
#    z 0.000000 0.000000 1.628130 
# 
# From -- ./inp_files/5174.got.cif
#   From: 2010.05.17/outbox.cif.g08.bks.cpg/sg25_3_cif.got.tgz:5174.got - 2010.06.04 01:04:00.
