data_PCOD9337827
_publ_section_title
;
Structure prediction by ZEFSAII (Michael W. Deem and Ramdas Pophale) SiO2 
 PCOD9337827
Probable space group: P M M 2
;
_chemical_formula_sum "Si O2"
_cell_formula_units_Z 32
_cell_length_a 9.484618
_cell_length_b 7.426885
_cell_length_c 21.910428
_cell_angle_alpha 90.000000
_cell_angle_beta 90.000000
_cell_angle_gamma 90.000000
_cell_volume 1543.396121
_symmetry_space_group_name_H-M "P M M 2"
_symmetry_group_IT_number 25
_symmetry_cell_setting 'orthorhombic'
loop_
_space_group_symop_operation_xyz
x,y,z
-x,-y,z
-x,y,z
x,-y,z
loop_
_atom_site_type_symbol
_atom_site_label
_atom_site_fract_x
_atom_site_fract_y
_atom_site_fract_z
Si Si1 0.336358 0.720477 0.480770
Si Si2 0.838913 0.214733 0.229020
Si Si3 0.337921 0.779846 0.113209
Si Si4 0.337417 0.283541 0.744416
Si Si5 0.328905 0.286172 0.613587
Si Si6 0.839720 0.284310 0.365124
Si Si7 0.338807 0.213849 0.878383
Si Si8 0.162182 0.779782 0.994198
O O1 0.500000 0.771694 0.475058
O O2 0.333157 0.500000 0.481642
O O3 0.282074 0.782895 0.547400
O O4 0.249723 0.782654 0.422277
O O5 0.740281 0.281481 0.174744
O O6 0.783063 0.247146 0.297331
O O7 0.000000 0.285627 0.225512
O O8 0.847963 0.000000 0.221377
O O9 0.500000 0.721736 0.110224
O O10 0.339069 0.000000 0.113557
O O11 0.249316 0.724916 0.053920
O O12 0.500000 0.218350 0.747436
O O13 0.341426 0.500000 0.740306
O O14 0.277106 0.217006 0.679489
O O15 0.275955 0.240749 0.810592
O O16 0.500000 0.266722 0.614370
O O17 0.299603 0.500000 0.612889
O O18 0.845462 0.500000 0.370951
O O19 0.000000 0.214840 0.367095
O O20 0.500000 0.286497 0.880298
O O21 0.242120 0.281964 0.933114
O O22 0.349919 0.000000 0.887134
O O23 0.000000 0.721775 0.996516
O O24 0.161000 0.000000 0.993795
#
# Coordination Sequence:
#
# PCOD9337827 Si02
#       8
#     4   4   4   4   4   4   4   4
#     4   8  13  22  38  59  80 103 134 170 203 236
#     4   9  17  29  44  61  82 109 137 162 194 241
#     4   9  16  26  42  64  86 105 130 169 208 234
#     4   8  13  22  38  59  81 106 135 165 199 241
#     4   7  10  18  34  56  78 100 131 168 200 233
#     4   9  17  28  42  61  84 108 134 166 202 237
#     4   9  16  25  39  61  85 105 129 166 206 237
#     4   9  16  26  41  60  82 109 138 165 196 238
#
# _framework density 20.733498000000001
#
# number of rings (size 3 to 8) (size 9 to 14) (size 15 to 20)
#    0.000    3.500    0.000    2.250    0.000    3.500 
#    0.000    0.000    0.000    2.625    0.000    3.500 
#    0.000    0.000    0.000    0.000    0.000    0.000 
#
# Total GULP energy -178298.910959 kJ/mol
# GULP energy per Si atom -5571.840967 kJ/mol
# Density = 2.068631 g / cm^3
# Si number density = 20.733498 Si / 1000 Ang^3
#
#
#
# Elastic Constant Matrix: (Units=GPa)
#
#
# Indices 1 2 3 4 5 6 
#
# 1 87.5198 4.7189 107.0230 0.0000 0.0000 0.0000
# 2 4.7189 64.6701 2.9940 0.0000 0.0000 0.0000
# 3 107.0230 2.9940 274.2150 0.0000 0.0000 0.0000
# 4 0.0000 0.0000 0.0000 16.4736 0.0000 0.0000
# 5 0.0000 0.0000 0.0000 0.0000 -42.3824 0.0000
# 6 0.0000 0.0000 0.0000 0.0000 0.0000 -13.4153
#
#
#
# Elastic Compliance Matrix: (Units=1/GPa)
#
#
# Indices 1 2 3 4 5 6 
#
# 1 0.021952 -0.001206 -0.008554 0.000000 0.000000 0.000000
# 2 -0.001206 0.015537 0.000301 0.000000 0.000000 0.000000
# 3 -0.008554 0.000301 0.006982 0.000000 0.000000 0.000000
# 4 0.000000 0.000000 0.000000 0.060703 0.000000 0.000000
# 5 0.000000 0.000000 0.000000 0.000000 -0.023595 0.000000
# 6 0.000000 0.000000 0.000000 0.000000 0.000000 -0.074541
#
#
# Mechanical properties :
#
#
# Convention : Reuss Voigt Hill
#
# Bulk Modulus (GPa) = 39.13486 72.87518 56.00502
# Shear Modulus (GPa) = 145.03928 12.91311 78.97619
#
# Velocity S-wave (km/s) = 8.37293 2.49833 6.17850
# Velocity P-wave (km/s) = 10.60145 6.59902 8.83000
#
# Compressibility (1/GPa) = 0.02555266
#
# Stress axis : x y z
#
# Youngs Moduli (GPa) = 45.55491 64.36187 143.22294
#
# Poissons Ratio (x) = 0.07760 1.22517
# Poissons Ratio (y) = 0.05493 -0.04310
# Poissons Ratio (z) = 0.38969 -0.01937
#
# Static dielectric constant tensor:
#      x y z
#    x 1.700890 0.000000 0.000000 
#    y 0.000000 1.812540 0.000000 
#    z 0.000000 0.000000 1.769870 
# 
# From -- ./inp_files/6312.got.cif
#   From: 2010.05.17/outbox.cif.g08.bks.cpg/sg25_4_cif.got.tgz:6312.got - 2010.06.04 01:04:00.
