data_PCOD9337536
_publ_section_title
;
Structure prediction by ZEFSAII (Michael W. Deem and Ramdas Pophale) SiO2 
 PCOD9337536
Probable space group: P M M 2
;
_chemical_formula_sum "Si O2"
_cell_formula_units_Z 24
_cell_length_a 8.724341
_cell_length_b 12.011103
_cell_length_c 13.060820
_cell_angle_alpha 90.000000
_cell_angle_beta 90.000000
_cell_angle_gamma 90.000000
_cell_volume 1368.629723
_symmetry_space_group_name_H-M "P M M 2"
_symmetry_group_IT_number 25
_symmetry_cell_setting 'orthorhombic'
loop_
_space_group_symop_operation_xyz
x,y,z
-x,-y,z
-x,y,z
x,-y,z
loop_
_atom_site_type_symbol
_atom_site_label
_atom_site_fract_x
_atom_site_fract_y
_atom_site_fract_z
Si Si1 0.815153 0.871779 0.757800
Si Si2 0.684714 0.728396 0.174815
Si Si3 0.683592 0.130329 0.377428
Si Si4 0.816660 0.270925 0.562701
Si Si5 0.315034 0.128405 0.980263
Si Si6 0.817688 0.500000 0.254573
Si Si7 0.317466 0.500000 0.484773
O O1 0.766544 0.788948 0.667711
O O2 0.749747 0.842139 0.868937
O O3 0.000000 0.869990 0.762269
O O4 0.768428 0.000000 0.734940
O O5 0.500000 0.714272 0.171672
O O6 0.719297 0.808752 0.270792
O O7 0.760797 0.610186 0.196631
O O8 0.734129 0.788971 0.070419
O O9 0.500000 0.141264 0.394034
O O10 0.770139 0.191073 0.469080
O O11 0.720748 0.000000 0.372666
O O12 0.740252 0.389623 0.541797
O O13 0.000000 0.284240 0.564778
O O14 0.500000 0.130646 0.976455
O O15 0.269505 0.000000 0.002721
O O16 0.748081 0.500000 0.369156
O O17 0.000000 0.500000 0.263012
O O18 0.500000 0.500000 0.478181
#
# Coordination Sequence:
#
# PCOD9337536 Si02
#       7
#     4   4   4   4   4   2   2
#     4   9  19  36  57  82 115 151 183 224 280 334
#     4  10  20  36  57  81 113 149 186 230 280 329
#     4  10  20  33  53  82 114 147 182 224 279 339
#     4  11  22  37  57  82 112 147 189 234 281 335
#     4   9  18  34  58  86 114 146 186 230 275 328
#     4  12  24  38  57  82 111 148 191 231 275 335
#     4  12  24  40  59  80 109 148 189 233 285 339
#
# _framework density 17.535788
#
# number of rings (size 3 to 8) (size 9 to 14) (size 15 to 20)
#    0.000    1.833    1.667    3.000    0.000    5.000 
#    0.000    2.500    0.000    3.000    0.000    0.000 
#    0.000    0.000    0.000    0.000    0.000    0.000 
#
# Total GULP energy -134042.637777 kJ/mol
# GULP energy per Si atom -5585.109907 kJ/mol
# Density = 1.749588 g / cm^3
# Si number density = 17.535788 Si / 1000 Ang^3
#
#
#
# Elastic Constant Matrix: (Units=GPa)
#
#
# Indices 1 2 3 4 5 6 
#
# 1 46.4143 59.5746 55.3969 0.0000 0.0000 0.0000
# 2 59.5746 162.6205 110.9207 0.0000 0.0000 0.0000
# 3 55.3969 110.9207 168.7982 0.0000 0.0000 0.0000
# 4 0.0000 0.0000 0.0000 16.1080 0.0000 0.0000
# 5 0.0000 0.0000 0.0000 0.0000 36.9414 0.0000
# 6 0.0000 0.0000 0.0000 0.0000 0.0000 24.9526
#
#
#
# Elastic Compliance Matrix: (Units=1/GPa)
#
#
# Indices 1 2 3 4 5 6 
#
# 1 0.044944 -0.011606 -0.007123 0.000000 0.000000 0.000000
# 2 -0.011606 0.014141 -0.005484 0.000000 0.000000 0.000000
# 3 -0.007123 -0.005484 0.011865 0.000000 0.000000 0.000000
# 4 0.000000 0.000000 0.000000 0.062081 0.000000 0.000000
# 5 0.000000 0.000000 0.000000 0.000000 0.027070 0.000000
# 6 0.000000 0.000000 0.000000 0.000000 0.000000 0.040076
#
#
# Mechanical properties :
#
#
# Convention : Reuss Voigt Hill
#
# Bulk Modulus (GPa) = 44.39601 92.17973 68.28787
# Shear Modulus (GPa) = 19.52273 25.72978 22.62626
#
# Velocity S-wave (km/s) = 3.34025 3.83465 3.59596
# Velocity P-wave (km/s) = 6.34418 8.50217 7.50118
#
# Compressibility (1/GPa) = 0.02252455
#
# Stress axis : x y z
#
# Youngs Moduli (GPa) = 22.25005 70.71428 84.27894
#
# Poissons Ratio (x) = 0.82072 0.60033
# Poissons Ratio (y) = 0.25824 0.46216
# Poissons Ratio (z) = 0.15849 0.38777
#
# Static dielectric constant tensor:
#      x y z
#    x 1.592490 0.000000 0.000000 
#    y 0.000000 1.580160 0.000000 
#    z 0.000000 0.000000 1.570440 
# 
# From -- ./inp_files/3959.got.cif
#   From: 2010.05.17/outbox.cif.g08.bks.cpg/sg25_2_cif.got.tgz:3959.got - 2010.06.04 01:04:00.
