data_PCOD9337542
_publ_section_title
;
Structure prediction by ZEFSAII (Michael W. Deem and Ramdas Pophale) SiO2 
 PCOD9337542
Probable space group: P M M 2
;
_chemical_formula_sum "Si O2"
_cell_formula_units_Z 28
_cell_length_a 7.342620
_cell_length_b 8.332179
_cell_length_c 20.156145
_cell_angle_alpha 90.000000
_cell_angle_beta 90.000000
_cell_angle_gamma 90.000000
_cell_volume 1233.153438
_symmetry_space_group_name_H-M "P M M 2"
_symmetry_group_IT_number 25
_symmetry_cell_setting 'orthorhombic'
loop_
_space_group_symop_operation_xyz
x,y,z
-x,-y,z
-x,y,z
x,-y,z
loop_
_atom_site_type_symbol
_atom_site_label
_atom_site_fract_x
_atom_site_fract_y
_atom_site_fract_z
Si Si1 0.718390 0.000000 0.916330
Si Si2 0.782219 0.817454 0.555790
Si Si3 0.221302 0.179402 0.277873
Si Si4 0.785160 0.000000 0.072343
Si Si5 0.221935 0.682986 0.415995
Si Si6 0.777734 0.324379 0.142516
Si Si7 0.283664 0.184294 0.701515
Si Si8 0.277609 0.678976 0.840046
O O1 0.782639 0.165823 0.882253
O O2 0.500000 0.000000 0.908205
O O3 0.762026 0.000000 0.993695
O O4 0.714369 0.736431 0.488625
O O5 0.746513 0.745032 0.628212
O O6 0.000000 0.823525 0.549867
O O7 0.712582 0.000000 0.557951
O O8 0.283150 0.217255 0.352246
O O9 0.275409 0.298774 0.219435
O O10 0.000000 0.183736 0.279699
O O11 0.275009 0.000000 0.258450
O O12 0.714127 0.167304 0.102684
O O13 0.000000 0.000000 0.088624
O O14 0.271894 0.500000 0.404331
O O15 0.000000 0.692412 0.417131
O O16 0.718185 0.500000 0.118510
O O17 0.000000 0.324444 0.140025
O O18 0.500000 0.171866 0.709624
O O19 0.219521 0.285862 0.764149
O O20 0.211487 0.000000 0.703414
O O21 0.500000 0.677768 0.842143
O O22 0.219109 0.500000 0.861160
#
# Coordination Sequence:
#
# PCOD9337542 Si02
#       8
#     2   4   4   2   4   4   4   4
#     4  10  20  36  56  76  99 126 158 194 233 282
#     4   9  17  28  41  61  91 125 155 188 236 286
#     4   9  14  22  38  60  87 121 161 199 233 273
#     4  10  20  34  50  74 103 130 156 188 237 288
#     4   9  16  24  35  55  86 122 157 194 236 278
#     4   9  16  27  44  67  97 130 162 196 235 280
#     4   9  16  29  49  69  89 117 155 197 235 274
#     4   9  17  31  53  77  97 121 158 201 239 275
#
# _framework density 22.706014
#
# number of rings (size 3 to 8) (size 9 to 14) (size 15 to 20)
#    0.000    2.857    1.429    0.857    0.000    4.571 
#    0.000    0.714    0.000    0.857    0.000    1.000 
#    0.000    2.286    0.000    0.000    0.000    0.000 
#
# Total GULP energy -156275.165559 kJ/mol
# GULP energy per Si atom -5581.255913 kJ/mol
# Density = 2.265433 g / cm^3
# Si number density = 22.706014 Si / 1000 Ang^3
#
#
#
# Elastic Constant Matrix: (Units=GPa)
#
#
# Indices 1 2 3 4 5 6 
#
# 1 84.9106 5.2596 -6.5666 0.0000 0.0000 0.0000
# 2 5.2596 170.7729 84.3726 0.0000 0.0000 0.0000
# 3 -6.5666 84.3726 140.6058 0.0000 0.0000 0.0000
# 4 0.0000 0.0000 0.0000 10.6612 0.0000 0.0000
# 5 0.0000 0.0000 0.0000 0.0000 21.0414 0.0000
# 6 0.0000 0.0000 0.0000 0.0000 0.0000 -10.4632
#
#
#
# Elastic Compliance Matrix: (Units=1/GPa)
#
#
# Indices 1 2 3 4 5 6 
#
# 1 0.011919 -0.000913 0.001104 0.000000 0.000000 0.000000
# 2 -0.000913 0.008393 -0.005079 0.000000 0.000000 0.000000
# 3 0.001104 -0.005079 0.010211 0.000000 0.000000 0.000000
# 4 0.000000 0.000000 0.000000 0.093798 0.000000 0.000000
# 5 0.000000 0.000000 0.000000 0.000000 0.047525 0.000000
# 6 0.000000 0.000000 0.000000 0.000000 0.000000 -0.095573
#
#
# Mechanical properties :
#
#
# Convention : Reuss Voigt Hill
#
# Bulk Modulus (GPa) = 48.19568 62.49116 55.34342
# Shear Modulus (GPa) = 53.78375 25.12948 39.45661
#
# Velocity S-wave (km/s) = 4.87221 3.33037 4.17311
# Velocity P-wave (km/s) = 7.27484 6.50923 6.90266
#
# Compressibility (1/GPa) = 0.02074875
#
# Stress axis : x y z
#
# Youngs Moduli (GPa) = 83.89945 119.14351 97.92924
#
# Poissons Ratio (x) = 0.10874 -0.10815
# Poissons Ratio (y) = 0.07657 0.49739
# Poissons Ratio (z) = -0.09265 0.60514
#
# Static dielectric constant tensor:
#      x y z
#    x 1.893190 0.000000 0.000000 
#    y 0.000000 1.826600 0.000000 
#    z 0.000000 0.000000 1.816480 
# 
# From -- ./inp_files/6348.got.cif
#   From: 2010.05.17/outbox.cif.g08.bks.cpg/sg25_4_cif.got.tgz:6348.got - 2010.06.04 01:04:00.
