data_PCOD9337956
_publ_section_title
;
Structure prediction by ZEFSAII (Michael W. Deem and Ramdas Pophale) SiO2 
 PCOD9337956
Probable space group: P M C 21
;
_chemical_formula_sum "Si O2"
_cell_formula_units_Z 32
_cell_length_a 8.030001
_cell_length_b 7.014135
_cell_length_c 22.366095
_cell_angle_alpha 90.000000
_cell_angle_beta 90.000000
_cell_angle_gamma 90.000000
_cell_volume 1259.736999
_symmetry_space_group_name_H-M "P M C 21"
_symmetry_group_IT_number 26
_symmetry_cell_setting 'orthorhombic'
loop_
_space_group_symop_operation_xyz
x,y,z
-x,-y,1/2+z
-x,y,z
x,-y,1/2+z
loop_
_atom_site_type_symbol
_atom_site_label
_atom_site_fract_x
_atom_site_fract_y
_atom_site_fract_z
Si Si1 0.187802 0.162204 0.570770
Si Si2 0.797842 0.063534 0.694365
Si Si3 0.696566 0.110829 0.442443
Si Si4 0.695694 0.443345 0.105136
Si Si5 0.702448 0.310149 0.976137
Si Si6 0.693969 0.568234 0.353814
Si Si7 0.802510 0.003625 0.822942
Si Si8 0.805007 0.495022 0.226036
O O1 0.266179 0.038864 0.625770
O O2 0.190410 0.370276 0.600030
O O3 0.000000 0.097897 0.558957
O O4 0.273963 0.202460 0.507256
O O5 0.749869 0.952116 0.755117
O O6 0.756831 0.282348 0.714028
O O7 0.000000 0.047853 0.688637
O O8 0.500000 0.112759 0.432975
O O9 0.760529 0.898668 0.458247
O O10 0.771777 0.144076 0.376930
O O11 0.500000 0.492202 0.098853
O O12 0.745853 0.333114 0.045271
O O13 0.720747 0.374504 0.172893
O O14 0.500000 0.313258 0.973435
O O15 0.759483 0.450491 0.922493
O O16 0.500000 0.518293 0.354743
O O17 0.713079 0.796883 0.340730
O O18 0.770665 0.469042 0.296001
O O19 0.000000 0.044339 0.820414
O O20 0.000000 0.470501 0.217590
#
# Coordination Sequence:
#
# PCOD9337956 Si02
#       8
#     4   4   4   4   4   4   4   4
#     4  10  19  32  48  71  99 126 155 195 241 287
#     4   7  13  25  42  62  88 116 146 185 231 274
#     4  10  19  32  48  70  97 127 161 197 233 283
#     4  10  18  31  50  71  94 126 160 195 238 285
#     4   8  17  31  48  70  97 123 156 197 235 277
#     4   9  15  26  44  67  92 121 155 195 236 279
#     4   9  15  26  44  67  92 120 152 195 242 280
#     4   9  16  27  42  66  95 121 153 197 236 275
#
# _framework density 25.402128999999999
#
# number of rings (size 3 to 8) (size 9 to 14) (size 15 to 20)
#    0.000    3.000    0.000    4.500    0.000    0.000 
#    0.000    9.375    0.000    1.500    0.000    5.250 
#    0.000    0.000    0.000    0.000    0.000    0.000 
#
# Total GULP energy -178356.680441 kJ/mol
# GULP energy per Si atom -5573.646264 kJ/mol
# Density = 2.534431 g / cm^3
# Si number density = 25.402129 Si / 1000 Ang^3
#
#
#
# Elastic Constant Matrix: (Units=GPa)
#
#
# Indices 1 2 3 4 5 6 
#
# 1 49.7592 -5.3110 24.6947 0.0000 0.0000 0.0000
# 2 -5.3110 44.0244 54.2220 0.0000 0.0000 0.0000
# 3 24.6947 54.2220 276.0228 0.0000 0.0000 0.0000
# 4 0.0000 0.0000 0.0000 54.1548 0.0000 0.0000
# 5 0.0000 0.0000 0.0000 0.0000 36.7994 0.0000
# 6 0.0000 0.0000 0.0000 0.0000 0.0000 -3.5739
#
#
#
# Elastic Compliance Matrix: (Units=1/GPa)
#
#
# Indices 1 2 3 4 5 6 
#
# 1 0.022494 0.006849 -0.003358 0.000000 0.000000 0.000000
# 2 0.006849 0.032050 -0.006909 0.000000 0.000000 0.000000
# 3 -0.003358 -0.006909 0.005280 0.000000 0.000000 0.000000
# 4 0.000000 0.000000 0.000000 0.018466 0.000000 0.000000
# 5 0.000000 0.000000 0.000000 0.000000 0.027174 0.000000
# 6 0.000000 0.000000 0.000000 0.000000 0.000000 -0.279803
#
#
# Mechanical properties :
#
#
# Convention : Reuss Voigt Hill
#
# Bulk Modulus (GPa) = 18.87134 57.44641 38.15888
# Shear Modulus (GPa) = -33.36882 37.22276 1.92697
#
# Velocity S-wave (km/s) = -3.62833 3.83213 0.87191
# Velocity P-wave (km/s) = 3.17928 6.49955 4.00851
#
# Compressibility (1/GPa) = 0.05299040
#
# Stress axis : x y z
#
# Youngs Moduli (GPa) = 44.45553 31.20126 189.37742
#
# Poissons Ratio (x) = -0.21371 0.63593
# Poissons Ratio (y) = -0.30450 1.30835
# Poissons Ratio (z) = 0.14928 0.21556
#
# Static dielectric constant tensor:
#      x y z
#    x 1.880690 0.000000 0.000000 
#    y 0.000000 2.131300 0.000000 
#    z 0.000000 0.000000 2.187490 
# 
# From -- ./inp_files/5368.got.cif
#   From: 2010.05.17/outbox.cif.g08.bks.cpg/sg26_3_cif.got.tgz:5368.got - 2010.06.04 01:07:29.
