data_PCOD9337814
_publ_section_title
;
Structure prediction by ZEFSAII (Michael W. Deem and Ramdas Pophale) SiO2 
 PCOD9337814
Probable space group: P M M 2
;
_chemical_formula_sum "Si O2"
_cell_formula_units_Z 32
_cell_length_a 8.989798
_cell_length_b 14.234480
_cell_length_c 13.183998
_cell_angle_alpha 90.000000
_cell_angle_beta 90.000000
_cell_angle_gamma 90.000000
_cell_volume 1687.091620
_symmetry_space_group_name_H-M "P M M 2"
_symmetry_group_IT_number 25
_symmetry_cell_setting 'orthorhombic'
loop_
_space_group_symop_operation_xyz
x,y,z
-x,-y,z
-x,y,z
x,-y,z
loop_
_atom_site_type_symbol
_atom_site_label
_atom_site_fract_x
_atom_site_fract_y
_atom_site_fract_z
Si Si1 0.822296 0.705142 0.316940
Si Si2 0.677479 0.388818 0.512434
Si Si3 0.668897 0.114009 0.014217
Si Si4 0.679727 0.109562 0.786725
Si Si5 0.823145 0.286577 0.703796
Si Si6 0.674915 0.613291 0.893317
Si Si7 0.178459 0.893423 0.222948
Si Si8 0.674393 0.613218 0.123862
O O1 0.740172 0.656130 0.409687
O O2 0.779030 0.814787 0.304199
O O3 0.773412 0.656660 0.211822
O O4 0.000000 0.698322 0.329893
O O5 0.500000 0.376286 0.518065
O O6 0.708886 0.500000 0.513081
O O7 0.753954 0.340121 0.608296
O O8 0.500000 0.148646 0.026461
O O9 0.763050 0.138144 0.112605
O O10 0.663152 0.000000 0.012089
O O11 0.723661 0.138906 0.901986
O O12 0.500000 0.116942 0.781807
O O13 0.757193 0.181597 0.711786
O O14 0.718023 0.000000 0.771213
O O15 0.770220 0.339814 0.805676
O O16 0.000000 0.284754 0.697168
O O17 0.500000 0.636341 0.877411
O O18 0.687991 0.500000 0.887831
O O19 0.714057 0.642238 0.008637
O O20 0.000000 0.895685 0.218837
O O21 0.231904 0.000000 0.242745
O O22 0.500000 0.636641 0.140794
O O23 0.685638 0.500000 0.127656
#
# Coordination Sequence:
#
# PCOD9337814 Si02
#       8
#     4   4   4   4   4   4   4   4
#     4  11  23  37  58  88 119 151 193 243 301 356
#     4  11  25  46  69  88 110 148 199 249 299 361
#     4   8  15  29  51  79 110 149 197 243 281 321
#     4   9  19  37  59  84 118 160 205 248 289 341
#     4  12  25  38  59  90 122 154 193 243 305 363
#     4   9  19  37  59  83 115 156 199 242 292 354
#     4   9  19  35  53  78 118 161 195 231 282 345
#     4   9  19  36  57  82 114 153 194 236 288 352
#
# _framework density 18.967554
#
# number of rings (size 3 to 8) (size 9 to 14) (size 15 to 20)
#    0.000    2.250    0.000    4.125    1.750    6.750 
#    0.000    3.125    0.000    2.250    0.000    0.000 
#    0.000    0.000    0.000    0.000    0.000    0.000 
#
# Total GULP energy -178727.190799 kJ/mol
# GULP energy per Si atom -5585.224712 kJ/mol
# Density = 1.892438 g / cm^3
# Si number density = 18.967554 Si / 1000 Ang^3
#
#
#
# Elastic Constant Matrix: (Units=GPa)
#
#
# Indices 1 2 3 4 5 6 
#
# 1 62.9792 64.9143 62.2549 0.0000 0.0000 0.0000
# 2 64.9143 122.9987 80.1997 0.0000 0.0000 0.0000
# 3 62.2549 80.1997 124.3623 0.0000 0.0000 0.0000
# 4 0.0000 0.0000 0.0000 38.2788 0.0000 0.0000
# 5 0.0000 0.0000 0.0000 0.0000 31.5296 0.0000
# 6 0.0000 0.0000 0.0000 0.0000 0.0000 24.8694
#
#
#
# Elastic Compliance Matrix: (Units=1/GPa)
#
#
# Indices 1 2 3 4 5 6 
#
# 1 0.043086 -0.014971 -0.011914 0.000000 0.000000 0.000000
# 2 -0.014971 0.019231 -0.004908 0.000000 0.000000 0.000000
# 3 -0.011914 -0.004908 0.017170 0.000000 0.000000 0.000000
# 4 0.000000 0.000000 0.000000 0.026124 0.000000 0.000000
# 5 0.000000 0.000000 0.000000 0.000000 0.031716 0.000000
# 6 0.000000 0.000000 0.000000 0.000000 0.000000 0.040210
#
#
# Mechanical properties :
#
#
# Convention : Reuss Voigt Hill
#
# Bulk Modulus (GPa) = 62.88456 80.56422 71.72439
# Shear Modulus (GPa) = 20.29019 25.80029 23.04524
#
# Velocity S-wave (km/s) = 3.27422 3.69213 3.48944
# Velocity P-wave (km/s) = 6.89346 7.79377 7.35740
#
# Compressibility (1/GPa) = 0.01590215
#
# Stress axis : x y z
#
# Youngs Moduli (GPa) = 23.20918 51.99855 58.24094
#
# Poissons Ratio (x) = 0.77847 0.69389
# Poissons Ratio (y) = 0.34746 0.28583
# Poissons Ratio (z) = 0.27652 0.25519
#
# Static dielectric constant tensor:
#      x y z
#    x 1.628250 0.000000 0.000000 
#    y 0.000000 1.703090 0.000000 
#    z 0.000000 0.000000 1.630980 
# 
# From -- ./inp_files/4193.got.cif
#   From: 2010.05.17/outbox.cif.g08.bks.cpg/sg25_3_cif.got.tgz:4193.got - 2010.06.04 01:04:00.
