data_PCOD9337572
_publ_section_title
;
Structure prediction by ZEFSAII (Michael W. Deem and Ramdas Pophale) SiO2 
 PCOD9337572
Probable space group: P M M 2
;
_chemical_formula_sum "Si O2"
_cell_formula_units_Z 32
_cell_length_a 7.925866
_cell_length_b 9.455467
_cell_length_c 21.353933
_cell_angle_alpha 90.000000
_cell_angle_beta 90.000000
_cell_angle_gamma 90.000000
_cell_volume 1600.322770
_symmetry_space_group_name_H-M "P M M 2"
_symmetry_group_IT_number 25
_symmetry_cell_setting 'orthorhombic'
loop_
_space_group_symop_operation_xyz
x,y,z
-x,-y,z
-x,y,z
x,-y,z
loop_
_atom_site_type_symbol
_atom_site_label
_atom_site_fract_x
_atom_site_fract_y
_atom_site_fract_z
Si Si1 0.296461 0.838389 0.961830
Si Si2 0.796231 0.836497 0.722046
Si Si3 0.299523 0.659763 0.462368
Si Si4 0.796744 0.838434 0.582697
Si Si5 0.201697 0.338035 0.326178
Si Si6 0.793205 0.162952 0.206446
Si Si7 0.297794 0.339549 0.842981
Si Si8 0.203607 0.662102 0.084685
O O1 0.500000 0.844810 0.957878
O O2 0.232834 0.756680 0.900120
O O3 0.233616 0.000000 0.965244
O O4 0.251938 0.748931 0.023093
O O5 0.740025 0.791372 0.652153
O O6 0.737471 0.735854 0.777262
O O7 0.000000 0.836670 0.722390
O O8 0.741745 0.000000 0.732055
O O9 0.500000 0.652571 0.458099
O O10 0.229875 0.500000 0.467709
O O11 0.255431 0.745874 0.524052
O O12 0.237002 0.718557 0.395831
O O13 0.000000 0.839950 0.584197
O O14 0.738534 0.000000 0.574302
O O15 0.268120 0.500000 0.322171
O O16 0.264204 0.239612 0.270105
O O17 0.000000 0.346412 0.319117
O O18 0.738490 0.253998 0.146437
O O19 0.000000 0.162257 0.206518
O O20 0.738854 0.000000 0.202599
O O21 0.500000 0.347313 0.850167
O O22 0.231318 0.500000 0.845173
O O23 0.265396 0.500000 0.082796
O O24 0.000000 0.656881 0.087515
#
# Coordination Sequence:
#
# PCOD9337572 Si02
#       8
#     4   4   4   4   4   4   4   4
#     4  10  21  37  56  77 103 138 178 216 256 305
#     4   9  19  36  56  78 104 134 170 213 259 306
#     4  10  21  35  51  75 107 139 172 212 257 306
#     4   9  19  36  56  77 102 134 173 214 256 306
#     4   9  17  31  51  72  96 131 173 213 256 308
#     4   9  17  30  50  76 103 131 168 215 262 306
#     4  10  21  36  54  77 105 137 173 212 255 306
#     4  10  20  34  54  80 108 138 173 213 257 306
#
# _framework density 19.995965000000002
#
# number of rings (size 3 to 8) (size 9 to 14) (size 15 to 20)
#    0.000    2.500    0.000    2.625    0.000    7.000 
#    0.000    5.625    0.000    2.250    0.000    0.000 
#    0.000    0.000    0.000    0.000    0.000    0.000 
#
# Total GULP energy -178609.629952 kJ/mol
# GULP energy per Si atom -5581.550936 kJ/mol
# Density = 1.995045 g / cm^3
# Si number density = 19.995965 Si / 1000 Ang^3
#
#
#
# Elastic Constant Matrix: (Units=GPa)
#
#
# Indices 1 2 3 4 5 6 
#
# 1 15.3403 10.1524 4.2551 0.0000 0.0000 0.0000
# 2 10.1524 164.4314 129.9524 0.0000 0.0000 0.0000
# 3 4.2551 129.9524 218.6957 0.0000 0.0000 0.0000
# 4 0.0000 0.0000 0.0000 39.3402 0.0000 0.0000
# 5 0.0000 0.0000 0.0000 0.0000 45.2371 0.0000
# 6 0.0000 0.0000 0.0000 0.0000 0.0000 18.7013
#
#
#
# Elastic Compliance Matrix: (Units=1/GPa)
#
#
# Indices 1 2 3 4 5 6 
#
# 1 0.068535 -0.005991 0.002227 0.000000 0.000000 0.000000
# 2 -0.005991 0.011990 -0.007008 0.000000 0.000000 0.000000
# 3 0.002227 -0.007008 0.008694 0.000000 0.000000 0.000000
# 4 0.000000 0.000000 0.000000 0.025419 0.000000 0.000000
# 5 0.000000 0.000000 0.000000 0.000000 0.022106 0.000000
# 6 0.000000 0.000000 0.000000 0.000000 0.000000 0.053472
#
#
# Mechanical properties :
#
#
# Convention : Reuss Voigt Hill
#
# Bulk Modulus (GPa) = 14.77688 76.35414 45.56551
# Shear Modulus (GPa) = 21.33840 37.59622 29.46731
#
# Velocity S-wave (km/s) = 3.27025 4.34082 3.84300
# Velocity P-wave (km/s) = 4.65460 7.96186 6.52137
#
# Compressibility (1/GPa) = 0.06767326
#
# Stress axis : x y z
#
# Youngs Moduli (GPa) = 14.59106 83.40210 115.02737
#
# Poissons Ratio (x) = 0.49969 -0.25613
# Poissons Ratio (y) = 0.08742 0.80613
# Poissons Ratio (z) = -0.03249 0.58449
#
# Static dielectric constant tensor:
#      x y z
#    x 1.727310 0.000000 0.000000 
#    y 0.000000 1.698230 0.000000 
#    z 0.000000 0.000000 1.681350 
# 
# From -- ./inp_files/6576.got.cif
#   From: 2010.05.17/outbox.cif.g08.bks.cpg/sg25_4_cif.got.tgz:6576.got - 2010.06.04 01:04:00.
