data_PCOD9337734
_publ_section_title
;
Structure prediction by ZEFSAII (Michael W. Deem and Ramdas Pophale) SiO2 
 PCOD9337734
Probable space group: P M M 2
;
_chemical_formula_sum "Si O2"
_cell_formula_units_Z 24
_cell_length_a 18.932089
_cell_length_b 9.275346
_cell_length_c 7.785401
_cell_angle_alpha 90.000000
_cell_angle_beta 90.000000
_cell_angle_gamma 90.000000
_cell_volume 1367.129464
_symmetry_space_group_name_H-M "P M M 2"
_symmetry_group_IT_number 25
_symmetry_cell_setting 'orthorhombic'
loop_
_space_group_symop_operation_xyz
x,y,z
-x,-y,z
-x,y,z
x,-y,z
loop_
_atom_site_type_symbol
_atom_site_label
_atom_site_fract_x
_atom_site_fract_y
_atom_site_fract_z
Si Si1 0.583470 0.328341 0.027900
Si Si2 0.416687 0.328075 0.427239
Si Si3 0.166813 0.827726 0.735677
Si Si4 0.916927 0.828979 0.391457
Si Si5 0.666495 0.171872 0.727522
Si Si6 0.916522 0.328550 0.037336
O O1 0.500000 0.300585 0.999264
O O2 0.594396 0.500000 0.003321
O O3 0.599089 0.294762 0.227566
O O4 0.629710 0.240096 0.894532
O O5 0.500000 0.298434 0.456213
O O6 0.406735 0.500000 0.451374
O O7 0.369847 0.241186 0.560639
O O8 0.129737 0.789552 0.555518
O O9 0.250014 0.797447 0.729281
O O10 0.129165 0.743891 0.889037
O O11 0.157140 0.000000 0.760746
O O12 0.000000 0.804662 0.430058
O O13 0.907928 0.000000 0.357632
O O14 0.898469 0.740235 0.221611
O O15 0.656742 0.000000 0.726213
O O16 0.906439 0.500000 0.040627
O O17 0.000000 0.299271 0.006964
#
# Coordination Sequence:
#
# PCOD9337734 Si02
#       6
#     4   4   4   4   4   4
#     4   9  19  37  59  80 104 139 182 222 261 313
#     4   9  19  37  59  79 101 136 181 223 263 313
#     4  10  22  38  54  76 109 147 182 214 255 314
#     4   9  18  35  59  80 100 136 182 220 257 309
#     4  11  23  35  51  80 114 143 173 217 269 314
#     4  10  21  36  56  83 110 135 170 221 273 314
#
# _framework density 17.555029999999999
#
# number of rings (size 3 to 8) (size 9 to 14) (size 15 to 20)
#    0.000    2.333    0.000    3.000    0.000    8.333 
#    0.000    8.333    0.000    0.000    0.000    0.000 
#    0.000    0.000    0.000    0.000    0.000    0.000 
#
# Total GULP energy -134009.970236 kJ/mol
# GULP energy per Si atom -5583.748760 kJ/mol
# Density = 1.751507 g / cm^3
# Si number density = 17.555030 Si / 1000 Ang^3
#
#
#
# Elastic Constant Matrix: (Units=GPa)
#
#
# Indices 1 2 3 4 5 6 
#
# 1 118.4194 87.8335 131.5769 0.0000 0.0000 0.0000
# 2 87.8335 71.9968 102.8457 0.0000 0.0000 0.0000
# 3 131.5769 102.8457 186.1782 0.0000 0.0000 0.0000
# 4 0.0000 0.0000 0.0000 22.7564 0.0000 0.0000
# 5 0.0000 0.0000 0.0000 0.0000 -23.6368 0.0000
# 6 0.0000 0.0000 0.0000 0.0000 0.0000 25.6025
#
#
#
# Elastic Compliance Matrix: (Units=1/GPa)
#
#
# Indices 1 2 3 4 5 6 
#
# 1 0.096944 -0.096724 -0.015082 0.000000 0.000000 0.000000
# 2 -0.096724 0.162362 -0.021332 0.000000 0.000000 0.000000
# 3 -0.015082 -0.021332 0.027814 0.000000 0.000000 0.000000
# 4 0.000000 0.000000 0.000000 0.043944 0.000000 0.000000
# 5 0.000000 0.000000 0.000000 0.000000 -0.042307 0.000000
# 6 0.000000 0.000000 0.000000 0.000000 0.000000 0.039059
#
#
# Mechanical properties :
#
#
# Convention : Reuss Voigt Hill
#
# Bulk Modulus (GPa) = 47.97634 113.45628 80.71631
# Shear Modulus (GPa) = 8.31892 8.56697 8.44294
#
# Velocity S-wave (km/s) = 2.17923 2.21148 2.19542
# Velocity P-wave (km/s) = 5.80694 8.44335 7.24605
#
# Compressibility (1/GPa) = 0.02084361
#
# Stress axis : x y z
#
# Youngs Moduli (GPa) = 10.31523 6.15908 35.95298
#
# Poissons Ratio (x) = 0.59573 0.54224
# Poissons Ratio (y) = 0.99773 0.76696
# Poissons Ratio (z) = 0.15557 0.13139
#
# Static dielectric constant tensor:
#      x y z
#    x 1.576290 0.000000 0.000000 
#    y 0.000000 1.579410 0.000000 
#    z 0.000000 0.000000 1.570990 
# 
# From -- ./inp_files/3347.got.cif
#   From: 2010.05.17/outbox.cif.g08.bks.cpg/sg25_2_cif.got.tgz:3347.got - 2010.06.04 01:04:00.
