data_PCOD9337183
_publ_section_title
;
Structure prediction by ZEFSAII (Michael W. Deem and Ramdas Pophale) SiO2 
 PCOD9337183
Probable space group: P M M 2
;
_chemical_formula_sum "Si O2"
_cell_formula_units_Z 32
_cell_length_a 8.595473
_cell_length_b 15.172148
_cell_length_c 12.645316
_cell_angle_alpha 90.000000
_cell_angle_beta 90.000000
_cell_angle_gamma 90.000000
_cell_volume 1649.098276
_symmetry_space_group_name_H-M "P M M 2"
_symmetry_group_IT_number 25
_symmetry_cell_setting 'orthorhombic'
loop_
_space_group_symop_operation_xyz
x,y,z
-x,-y,z
-x,y,z
x,-y,z
loop_
_atom_site_type_symbol
_atom_site_label
_atom_site_fract_x
_atom_site_fract_y
_atom_site_fract_z
Si Si1 0.687772 0.602300 0.907180
Si Si2 0.814474 0.097165 0.181792
Si Si3 0.311942 0.096936 0.650923
Si Si4 0.684809 0.595910 0.290184
Si Si5 0.312059 0.277706 0.104510
Si Si6 0.317496 0.135645 0.411907
Si Si7 0.817866 0.682784 0.474031
Si Si8 0.184935 0.284841 0.714036
O O1 0.500000 0.599376 0.911388
O O2 0.742234 0.500000 0.911038
O O3 0.738244 0.654263 0.802254
O O4 0.740535 0.663751 0.005095
O O5 0.745129 0.177937 0.115370
O O6 0.766312 0.105980 0.305317
O O7 0.000000 0.102008 0.175664
O O8 0.762712 0.000000 0.145288
O O9 0.500000 0.103973 0.652792
O O10 0.264722 0.099306 0.526350
O O11 0.244400 0.183435 0.707631
O O12 0.268330 0.000000 0.693578
O O13 0.500000 0.606430 0.309107
O O14 0.706165 0.500000 0.239637
O O15 0.739235 0.670560 0.209750
O O16 0.775479 0.602030 0.399856
O O17 0.500000 0.276847 0.103971
O O18 0.500000 0.116326 0.399910
O O19 0.286953 0.239090 0.426824
O O20 0.782645 0.675129 0.597607
O O21 0.000000 0.706132 0.464218
O O22 0.000000 0.283491 0.730095
#
# Coordination Sequence:
#
# PCOD9337183 Si02
#       8
#     4   4   4   4   4   4   4   4
#     4  10  22  42  67  90 111 143 192 247 298 348
#     4  11  23  36  53  82 120 158 193 232 281 340
#     4   9  18  33  55  84 117 154 197 241 285 338
#     4  10  20  34  55  84 115 148 185 229 288 352
#     4  10  21  39  62  86 113 146 189 243 292 340
#     4  10  18  31  53  81 114 154 197 238 281 332
#     4  10  20  34  52  79 118 157 191 232 284 340
#     4  10  22  38  57  84 118 154 193 239 290 345
#
# _framework density 19.404544999999999
#
# number of rings (size 3 to 8) (size 9 to 14) (size 15 to 20)
#    0.000    2.000    1.250    2.250    0.000    6.750 
#    0.000    3.125    0.000    3.000    0.000    0.000 
#    0.000    0.000    0.000    0.000    0.000    0.000 
#
# Total GULP energy -178515.806161 kJ/mol
# GULP energy per Si atom -5578.618943 kJ/mol
# Density = 1.936038 g / cm^3
# Si number density = 19.404545 Si / 1000 Ang^3
#
#
#
# Elastic Constant Matrix: (Units=GPa)
#
#
# Indices 1 2 3 4 5 6 
#
# 1 16.5384 26.6448 22.6927 0.0000 0.0000 0.0000
# 2 26.6448 164.9358 72.6471 0.0000 0.0000 0.0000
# 3 22.6927 72.6471 96.3495 0.0000 0.0000 0.0000
# 4 0.0000 0.0000 0.0000 11.2796 0.0000 0.0000
# 5 0.0000 0.0000 0.0000 0.0000 17.7123 0.0000
# 6 0.0000 0.0000 0.0000 0.0000 0.0000 -3.1525
#
#
#
# Elastic Compliance Matrix: (Units=1/GPa)
#
#
# Indices 1 2 3 4 5 6 
#
# 1 0.096446 -0.008348 -0.016421 0.000000 0.000000 0.000000
# 2 -0.008348 0.009800 -0.005423 0.000000 0.000000 0.000000
# 3 -0.016421 -0.005423 0.018336 0.000000 0.000000 0.000000
# 4 0.000000 0.000000 0.000000 0.088656 0.000000 0.000000
# 5 0.000000 0.000000 0.000000 0.000000 0.056458 0.000000
# 6 0.000000 0.000000 0.000000 0.000000 0.000000 -0.317213
#
#
# Mechanical properties :
#
#
# Convention : Reuss Voigt Hill
#
# Bulk Modulus (GPa) = 15.57689 57.97697 36.77693
# Shear Modulus (GPa) = 145.91448 15.55716 80.73582
#
# Velocity S-wave (km/s) = 8.68097 2.83455 6.45732
# Velocity P-wave (km/s) = 10.41748 6.37619 8.63654
#
# Compressibility (1/GPa) = 0.06419767
#
# Stress axis : x y z
#
# Youngs Moduli (GPa) = 10.36845 102.03876 54.53868
#
# Poissons Ratio (x) = 0.85179 0.89560
# Poissons Ratio (y) = 0.08655 0.29578
# Poissons Ratio (z) = 0.17026 0.55338
#
# Static dielectric constant tensor:
#      x y z
#    x 1.665030 0.000000 0.000000 
#    y 0.000000 1.733800 0.000000 
#    z 0.000000 0.000000 1.672300 
# 
# From -- ./inp_files/4278.got.cif
#   From: 2010.05.17/outbox.cif.g08.bks.cpg/sg25_3_cif.got.tgz:4278.got - 2010.06.04 01:04:00.
