data_PCOD9337201
_publ_section_title
;
Structure prediction by ZEFSAII (Michael W. Deem and Ramdas Pophale) SiO2 
 PCOD9337201
Probable space group: P M M 2
;
_chemical_formula_sum "Si O2"
_cell_formula_units_Z 32
_cell_length_a 15.947042
_cell_length_b 8.531469
_cell_length_c 12.220216
_cell_angle_alpha 90.000000
_cell_angle_beta 90.000000
_cell_angle_gamma 90.000000
_cell_volume 1662.581094
_symmetry_space_group_name_H-M "P M M 2"
_symmetry_group_IT_number 25
_symmetry_cell_setting 'orthorhombic'
loop_
_space_group_symop_operation_xyz
x,y,z
-x,-y,z
-x,y,z
x,-y,z
loop_
_atom_site_type_symbol
_atom_site_label
_atom_site_fract_x
_atom_site_fract_y
_atom_site_fract_z
Si Si1 0.748058 0.687684 0.644620
Si Si2 0.906811 0.308551 0.787553
Si Si3 0.593529 0.310640 0.259978
Si Si4 0.351273 0.689073 0.017210
Si Si5 0.593837 0.187012 0.785290
Si Si6 0.905901 0.310147 0.262251
Si Si7 0.250598 0.814057 0.399193
Si Si8 0.845485 0.309777 0.024308
O O1 0.751452 0.500000 0.638145
O O2 0.831261 0.742757 0.709545
O O3 0.666588 0.735624 0.713763
O O4 0.745242 0.755595 0.523398
O O5 0.905368 0.500000 0.788071
O O6 0.000000 0.259629 0.753073
O O7 0.888687 0.256962 0.912200
O O8 0.500000 0.262108 0.294600
O O9 0.598184 0.500000 0.264864
O O10 0.608115 0.266955 0.132966
O O11 0.667983 0.244262 0.333028
O O12 0.357505 0.500000 0.005417
O O13 0.252754 0.730705 0.021647
O O14 0.392067 0.766585 0.911609
O O15 0.500000 0.236753 0.751939
O O16 0.599809 0.000000 0.774215
O O17 0.903040 0.500000 0.262887
O O18 0.832665 0.250591 0.340283
O O19 0.886724 0.257231 0.137673
O O20 0.000000 0.261981 0.294191
O O21 0.248563 0.000000 0.396692
O O22 0.850224 0.500000 0.024642
#
# Coordination Sequence:
#
# PCOD9337201 Si02
#       8
#     4   4   4   4   4   4   4   4
#     4  11  23  41  64  87 112 152 205 255 297 348
#     4   9  17  31  56  91 121 144 180 234 292 343
#     4  10  21  39  64  91 119 154 200 252 299 352
#     4  10  18  34  62  92 121 154 195 242 292 349
#     4  11  24  40  59  87 124 161 196 239 297 362
#     4  10  20  37  64  93 121 157 202 250 297 352
#     4  12  26  42  60  84 120 162 199 249 310 368
#     4   9  15  29  57  92 123 148 184 239 296 344
#
# _framework density 19.247181999999999
#
# number of rings (size 3 to 8) (size 9 to 14) (size 15 to 20)
#    0.000    1.750    2.500    2.625    0.000    5.000 
#    0.000    1.250    0.000    1.125    0.000    0.000 
#    0.000    0.000    0.000    0.000    0.000    0.000 
#
# Total GULP energy -178777.557640 kJ/mol
# GULP energy per Si atom -5586.798676 kJ/mol
# Density = 1.920337 g / cm^3
# Si number density = 19.247182 Si / 1000 Ang^3
#
#
#
# Elastic Constant Matrix: (Units=GPa)
#
#
# Indices 1 2 3 4 5 6 
#
# 1 188.5616 36.8377 83.8319 0.0000 0.0000 0.0000
# 2 36.8377 28.7121 26.8172 0.0000 0.0000 0.0000
# 3 83.8319 26.8172 141.1864 0.0000 0.0000 0.0000
# 4 0.0000 0.0000 0.0000 -14.7009 0.0000 0.0000
# 5 0.0000 0.0000 0.0000 0.0000 -9.6891 0.0000
# 6 0.0000 0.0000 0.0000 0.0000 0.0000 7.1230
#
#
#
# Elastic Compliance Matrix: (Units=1/GPa)
#
#
# Indices 1 2 3 4 5 6 
#
# 1 0.008315 -0.007363 -0.003539 0.000000 0.000000 0.000000
# 2 -0.007363 0.048860 -0.004909 0.000000 0.000000 0.000000
# 3 -0.003539 -0.004909 0.010116 0.000000 0.000000 0.000000
# 4 0.000000 0.000000 0.000000 -0.068023 0.000000 0.000000
# 5 0.000000 0.000000 0.000000 0.000000 -0.103209 0.000000
# 6 0.000000 0.000000 0.000000 0.000000 0.000000 0.140390
#
#
# Mechanical properties :
#
#
# Convention : Reuss Voigt Hill
#
# Bulk Modulus (GPa) = 28.03417 72.60372 50.31895
# Shear Modulus (GPa) = 62.53058 10.61148 36.57103
#
# Velocity S-wave (km/s) = 5.70602 2.35058 4.36371
# Velocity P-wave (km/s) = 7.61633 6.72091 7.18259
#
# Compressibility (1/GPa) = 0.03567076
#
# Stress axis : x y z
#
# Youngs Moduli (GPa) = 120.26484 20.46660 98.85032
#
# Poissons Ratio (x) = 0.15070 0.34979
# Poissons Ratio (y) = 0.88552 0.48522
# Poissons Ratio (z) = 0.42557 0.10046
#
# Static dielectric constant tensor:
#      x y z
#    x 1.670250 0.000000 0.000000 
#    y 0.000000 1.656720 0.000000 
#    z 0.000000 0.000000 1.639830 
# 
# From -- ./inp_files/4893.got.cif
#   From: 2010.05.17/outbox.cif.g08.bks.cpg/sg25_3_cif.got.tgz:4893.got - 2010.06.04 01:04:00.
