data_PCOD9337393
_publ_section_title
;
Structure prediction by ZEFSAII (Michael W. Deem and Ramdas Pophale) SiO2 
 PCOD9337393
Probable space group: P M M 2
;
_chemical_formula_sum "Si O2"
_cell_formula_units_Z 28
_cell_length_a 7.476990
_cell_length_b 9.375758
_cell_length_c 19.123548
_cell_angle_alpha 90.000000
_cell_angle_beta 90.000000
_cell_angle_gamma 90.000000
_cell_volume 1340.607545
_symmetry_space_group_name_H-M "P M M 2"
_symmetry_group_IT_number 25
_symmetry_cell_setting 'orthorhombic'
loop_
_space_group_symop_operation_xyz
x,y,z
-x,-y,z
-x,y,z
x,-y,z
loop_
_atom_site_type_symbol
_atom_site_label
_atom_site_fract_x
_atom_site_fract_y
_atom_site_fract_z
Si Si1 0.284896 0.164182 0.056980
Si Si2 0.213138 0.339180 0.497403
Si Si3 0.781238 0.836096 0.631637
Si Si4 0.715503 0.163023 0.358745
Si Si5 0.213058 0.836969 0.904042
Si Si6 0.709534 0.825979 0.206673
Si Si7 0.218809 0.663877 0.769478
O O1 0.500000 0.159667 0.062297
O O2 0.217576 0.224038 0.131401
O O3 0.219285 0.000000 0.052902
O O4 0.243336 0.227587 0.981295
O O5 0.285029 0.500000 0.498062
O O6 0.280811 0.243947 0.561675
O O7 0.241671 0.262629 0.423541
O O8 0.000000 0.348682 0.507460
O O9 0.726290 0.751079 0.700863
O O10 0.000000 0.837123 0.631170
O O11 0.723345 0.000000 0.633106
O O12 0.500000 0.156624 0.353333
O O13 0.784099 0.214442 0.282613
O O14 0.778024 0.000000 0.370995
O O15 0.280086 0.742503 0.840013
O O16 0.000000 0.847241 0.895338
O O17 0.284716 0.000000 0.901928
O O18 0.500000 0.785810 0.207464
O O19 0.717530 0.000000 0.205228
O O20 0.276182 0.500000 0.766508
O O21 0.000000 0.663489 0.769939
#
# Coordination Sequence:
#
# PCOD9337393 Si02
#       7
#     4   4   4   4   4   4   4
#     4   8  13  23  41  63  86 113 144 178 218 262
#     4  10  20  32  46  67  96 126 154 186 227 275
#     4   9  16  27  45  67  89 114 147 187 226 262
#     4   9  17  30  49  71  93 119 154 194 233 274
#     4   9  16  25  39  62  89 112 139 179 220 255
#     4   7  11  22  41  64  87 111 143 183 222 260
#     4   9  16  26  41  61  86 116 147 177 214 263
#
# _framework density 20.886050999999998
#
# number of rings (size 3 to 8) (size 9 to 14) (size 15 to 20)
#    0.000    3.286    0.000    3.000    0.000    4.571 
#    0.000    0.714    0.000    4.714    0.000    6.000 
#    0.000    0.000    0.000    0.000    0.000    0.000 
#
# Total GULP energy -156059.455987 kJ/mol
# GULP energy per Si atom -5573.552000 kJ/mol
# Density = 2.083851 g / cm^3
# Si number density = 20.886051 Si / 1000 Ang^3
#
#
#
# Elastic Constant Matrix: (Units=GPa)
#
#
# Indices 1 2 3 4 5 6 
#
# 1 58.7793 5.6977 2.8224 0.0000 0.0000 0.0000
# 2 5.6977 123.6266 115.0162 0.0000 0.0000 0.0000
# 3 2.8224 115.0162 263.2675 0.0000 0.0000 0.0000
# 4 0.0000 0.0000 0.0000 -10.2407 0.0000 0.0000
# 5 0.0000 0.0000 0.0000 0.0000 21.2300 0.0000
# 6 0.0000 0.0000 0.0000 0.0000 0.0000 0.6181
#
#
#
# Elastic Compliance Matrix: (Units=1/GPa)
#
#
# Indices 1 2 3 4 5 6 
#
# 1 0.017101 -0.001040 0.000271 0.000000 0.000000 0.000000
# 2 -0.001040 0.013691 -0.005970 0.000000 0.000000 0.000000
# 3 0.000271 -0.005970 0.006404 0.000000 0.000000 0.000000
# 4 0.000000 0.000000 0.000000 -0.097650 0.000000 0.000000
# 5 0.000000 0.000000 0.000000 0.000000 0.047103 0.000000
# 6 0.000000 0.000000 0.000000 0.000000 0.000000 1.617793
#
#
# Mechanical properties :
#
#
# Convention : Reuss Voigt Hill
#
# Bulk Modulus (GPa) = 42.16445 76.97178 59.56811
# Shear Modulus (GPa) = 3.07536 23.79730 13.43633
#
# Velocity S-wave (km/s) = 1.21476 3.37914 2.53912
# Velocity P-wave (km/s) = 4.71160 7.22205 6.09743
#
# Compressibility (1/GPa) = 0.02371666
#
# Stress axis : x y z
#
# Youngs Moduli (GPa) = 58.47738 73.03908 156.15699
#
# Poissons Ratio (x) = 0.07600 -0.04235
# Poissons Ratio (y) = 0.06084 0.93230
# Poissons Ratio (z) = -0.01586 0.43606
#
# Static dielectric constant tensor:
#      x y z
#    x 1.813960 0.000000 0.000000 
#    y 0.000000 1.701350 0.000000 
#    z 0.000000 0.000000 1.776710 
# 
# From -- ./inp_files/6228.got.cif
#   From: 2010.05.17/outbox.cif.g08.bks.cpg/sg25_4_cif.got.tgz:6228.got - 2010.06.04 01:04:00.
