data_PCOD9337311
_publ_section_title
;
Structure prediction by ZEFSAII (Michael W. Deem and Ramdas Pophale) SiO2 
 PCOD9337311
Probable space group: P M M 2
;
_chemical_formula_sum "Si O2"
_cell_formula_units_Z 24
_cell_length_a 12.205026
_cell_length_b 8.034654
_cell_length_c 13.122343
_cell_angle_alpha 90.000000
_cell_angle_beta 90.000000
_cell_angle_gamma 90.000000
_cell_volume 1286.818434
_symmetry_space_group_name_H-M "P M M 2"
_symmetry_group_IT_number 25
_symmetry_cell_setting 'orthorhombic'
loop_
_space_group_symop_operation_xyz
x,y,z
-x,-y,z
-x,y,z
x,-y,z
loop_
_atom_site_type_symbol
_atom_site_label
_atom_site_fract_x
_atom_site_fract_y
_atom_site_fract_z
Si Si1 0.624595 0.799212 0.530020
Si Si2 0.000000 0.703855 0.797196
Si Si3 0.764605 0.799295 0.107823
Si Si4 0.000000 0.698310 0.033199
Si Si5 0.625501 0.203083 0.298450
Si Si6 0.765052 0.698220 0.720759
Si Si7 0.375673 0.799873 0.914999
O O1 0.500000 0.743632 0.556078
O O2 0.649063 0.743203 0.414357
O O3 0.712057 0.745249 0.613266
O O4 0.622637 0.000000 0.529341
O O5 0.111586 0.760190 0.742484
O O6 0.000000 0.500000 0.797311
O O7 0.000000 0.759517 0.915497
O O8 0.890147 0.753902 0.089678
O O9 0.709782 0.738862 0.212648
O O10 0.757291 0.000000 0.108455
O O11 0.694091 0.737096 0.011223
O O12 0.000000 0.500000 0.028173
O O13 0.500000 0.250595 0.273186
O O14 0.627581 0.000000 0.298782
O O15 0.768525 0.500000 0.727411
O O16 0.686674 0.760454 0.810998
O O17 0.500000 0.735917 0.914881
O O18 0.380975 0.000000 0.923935
#
# Coordination Sequence:
#
# PCOD9337311 Si02
#       7
#     4   2   4   2   4   4   4
#     4   9  18  34  55  79 107 137 169 210 262 312
#     4   9  20  37  52  67  96 140 179 212 252 303
#     4  10  19  33  55  81 104 132 176 217 251 302
#     4  11  21  37  54  71 104 146 179 210 260 309
#     4   8  15  31  56  81 106 137 169 207 260 314
#     4  11  21  35  53  73 100 138 180 216 255 306
#     4  10  20  32  49  77 109 133 160 209 266 314
#
# _framework density 18.650649000000001
#
# number of rings (size 3 to 8) (size 9 to 14) (size 15 to 20)
#    0.000    2.333    1.667    2.750    0.000    4.667 
#    0.000    3.333    0.000    5.500    0.000    0.000 
#    0.000    0.000    0.000    0.000    0.000    0.000 
#
# Total GULP energy -133933.780943 kJ/mol
# GULP energy per Si atom -5580.574206 kJ/mol
# Density = 1.860820 g / cm^3
# Si number density = 18.650649 Si / 1000 Ang^3
#
#
#
# Elastic Constant Matrix: (Units=GPa)
#
#
# Indices 1 2 3 4 5 6 
#
# 1 199.2862 9.4936 119.7359 0.0000 0.0000 0.0000
# 2 9.4936 12.3392 6.4455 0.0000 0.0000 0.0000
# 3 119.7359 6.4455 148.9059 0.0000 0.0000 0.0000
# 4 0.0000 0.0000 0.0000 -0.2401 0.0000 0.0000
# 5 0.0000 0.0000 0.0000 0.0000 15.6983 0.0000
# 6 0.0000 0.0000 0.0000 0.0000 0.0000 -11.2301
#
#
#
# Elastic Compliance Matrix: (Units=1/GPa)
#
#
# Indices 1 2 3 4 5 6 
#
# 1 0.009856 -0.003523 -0.007772 0.000000 0.000000 0.000000
# 2 -0.003523 0.084177 -0.000811 0.000000 0.000000 0.000000
# 3 -0.007772 -0.000811 0.013001 0.000000 0.000000 0.000000
# 4 0.000000 0.000000 0.000000 -4.164902 0.000000 0.000000
# 5 0.000000 0.000000 0.000000 0.000000 0.063701 0.000000
# 6 0.000000 0.000000 0.000000 0.000000 0.000000 -0.089047
#
#
# Mechanical properties :
#
#
# Convention : Reuss Voigt Hill
#
# Bulk Modulus (GPa) = 12.07428 70.20901 41.14165
# Shear Modulus (GPa) = -1.24027 15.83606 7.29790
#
# Velocity S-wave (km/s) = -0.81636 2.91707 1.98026
# Velocity P-wave (km/s) = 2.36630 7.00512 5.22834
#
# Compressibility (1/GPa) = 0.08282065
#
# Stress axis : x y z
#
# Youngs Moduli (GPa) = 101.46530 11.87976 76.91952
#
# Poissons Ratio (x) = 0.04185 0.59785
# Poissons Ratio (y) = 0.35743 0.06238
# Poissons Ratio (z) = 0.78863 0.00963
#
# Static dielectric constant tensor:
#      x y z
#    x 1.633140 0.000000 0.000000 
#    y 0.000000 1.671270 0.000000 
#    z 0.000000 0.000000 1.633760 
# 
# From -- ./inp_files/3973.got.cif
#   From: 2010.05.17/outbox.cif.g08.bks.cpg/sg25_2_cif.got.tgz:3973.got - 2010.06.04 01:04:00.
