data_PCOD9337419
_publ_section_title
;
Structure prediction by ZEFSAII (Michael W. Deem and Ramdas Pophale) SiO2 
 PCOD9337419
Probable space group: P M M 2
;
_chemical_formula_sum "Si O2"
_cell_formula_units_Z 28
_cell_length_a 7.480014
_cell_length_b 9.593997
_cell_length_c 18.919818
_cell_angle_alpha 90.000000
_cell_angle_beta 90.000000
_cell_angle_gamma 90.000000
_cell_volume 1357.747286
_symmetry_space_group_name_H-M "P M M 2"
_symmetry_group_IT_number 25
_symmetry_cell_setting 'orthorhombic'
loop_
_space_group_symop_operation_xyz
x,y,z
-x,-y,z
-x,y,z
x,-y,z
loop_
_atom_site_type_symbol
_atom_site_label
_atom_site_fract_x
_atom_site_fract_y
_atom_site_fract_z
Si Si1 0.217989 0.837327 0.866870
Si Si2 0.287358 0.158095 0.558544
Si Si3 0.219035 0.660584 0.002031
Si Si4 0.785600 0.160770 0.712170
Si Si5 0.281794 0.339256 0.428075
Si Si6 0.211870 0.157358 0.134163
Si Si7 0.284788 0.659343 0.269983
O O1 0.274635 0.785257 0.788748
O O2 0.000000 0.837287 0.867860
O O3 0.270999 0.000000 0.875328
O O4 0.276508 0.741304 0.931312
O O5 0.500000 0.148128 0.548975
O O6 0.261340 0.224090 0.636331
O O7 0.216911 0.245380 0.492559
O O8 0.214286 0.000000 0.559123
O O9 0.276146 0.500000 0.003874
O O10 0.281190 0.746479 0.070537
O O11 0.000000 0.659677 0.002276
O O12 0.000000 0.158113 0.714630
O O13 0.721040 0.000000 0.709417
O O14 0.500000 0.335405 0.428566
O O15 0.230282 0.500000 0.438267
O O16 0.225222 0.297529 0.348823
O O17 0.234509 0.235792 0.208287
O O18 0.000000 0.145926 0.121703
O O19 0.284941 0.000000 0.134698
O O20 0.500000 0.654376 0.271609
O O21 0.222582 0.500000 0.256242
#
# Coordination Sequence:
#
# PCOD9337419 Si02
#       7
#     4   4   4   4   4   4   4
#     4   8  13  23  40  59  79 108 147 184 216 257
#     4   9  16  26  43  66  87 109 143 183 216 251
#     4   9  16  26  42  64  89 117 149 185 224 264
#     4   8  14  25  41  61  86 115 143 174 218 266
#     4   8  15  29  47  65  86 114 147 180 216 262
#     4  10  20  32  47  70  98 124 152 188 229 273
#     4   9  18  33  52  71  91 119 155 192 231 276
#
# _framework density 20.622395999999998
#
# number of rings (size 3 to 8) (size 9 to 14) (size 15 to 20)
#    0.000    3.286    0.000    2.571    0.000    3.429 
#    0.000    2.857    0.000    4.714    0.000    2.000 
#    0.000    0.000    0.000    0.000    0.000    0.000 
#
# Total GULP energy -156084.336928 kJ/mol
# GULP energy per Si atom -5574.440605 kJ/mol
# Density = 2.057546 g / cm^3
# Si number density = 20.622396 Si / 1000 Ang^3
#
#
#
# Elastic Constant Matrix: (Units=GPa)
#
#
# Indices 1 2 3 4 5 6 
#
# 1 55.6904 5.0213 2.0713 0.0000 0.0000 0.0000
# 2 5.0213 124.9838 127.7723 0.0000 0.0000 0.0000
# 3 2.0713 127.7723 240.7597 0.0000 0.0000 0.0000
# 4 0.0000 0.0000 0.0000 145.8808 0.0000 0.0000
# 5 0.0000 0.0000 0.0000 0.0000 22.1512 0.0000
# 6 0.0000 0.0000 0.0000 0.0000 0.0000 3.5935
#
#
#
# Elastic Compliance Matrix: (Units=1/GPa)
#
#
# Indices 1 2 3 4 5 6 
#
# 1 0.018049 -0.001238 0.000502 0.000000 0.000000 0.000000
# 2 -0.001238 0.017575 -0.009317 0.000000 0.000000 0.000000
# 3 0.000502 -0.009317 0.009094 0.000000 0.000000 0.000000
# 4 0.000000 0.000000 0.000000 0.006855 0.000000 0.000000
# 5 0.000000 0.000000 0.000000 0.000000 0.045144 0.000000
# 6 0.000000 0.000000 0.000000 0.000000 0.000000 0.278281
#
#
# Mechanical properties :
#
#
# Convention : Reuss Voigt Hill
#
# Bulk Modulus (GPa) = 40.63011 76.79597 58.71304
# Shear Modulus (GPa) = 12.39747 53.42971 32.91359
#
# Velocity S-wave (km/s) = 2.45453 5.09557 3.99935
# Velocity P-wave (km/s) = 5.27045 8.48173 7.06107
#
# Compressibility (1/GPa) = 0.02461229
#
# Stress axis : x y z
#
# Youngs Moduli (GPa) = 55.40354 56.89822 109.96787
#
# Poissons Ratio (x) = 0.07045 -0.05518
# Poissons Ratio (y) = 0.06860 1.02453
# Poissons Ratio (z) = -0.02780 0.53010
#
# Static dielectric constant tensor:
#      x y z
#    x 1.802400 0.000000 0.000000 
#    y 0.000000 1.696660 0.000000 
#    z 0.000000 0.000000 1.746200 
# 
# From -- ./inp_files/6242.got.cif
#   From: 2010.05.17/outbox.cif.g08.bks.cpg/sg25_4_cif.got.tgz:6242.got - 2010.06.04 01:04:00.
