data_PCOD9337339
_publ_section_title
;
Structure prediction by ZEFSAII (Michael W. Deem and Ramdas Pophale) SiO2 
 PCOD9337339
Probable space group: P M M 2
;
_chemical_formula_sum "Si O2"
_cell_formula_units_Z 24
_cell_length_a 12.004639
_cell_length_b 8.800895
_cell_length_c 12.936038
_cell_angle_alpha 90.000000
_cell_angle_beta 90.000000
_cell_angle_gamma 90.000000
_cell_volume 1366.712690
_symmetry_space_group_name_H-M "P M M 2"
_symmetry_group_IT_number 25
_symmetry_cell_setting 'orthorhombic'
loop_
_space_group_symop_operation_xyz
x,y,z
-x,-y,z
-x,y,z
x,-y,z
loop_
_atom_site_type_symbol
_atom_site_label
_atom_site_fract_x
_atom_site_fract_y
_atom_site_fract_z
Si Si1 0.500000 0.184710 0.160761
Si Si2 0.129930 0.181804 0.660337
Si Si3 0.870708 0.681373 0.435215
Si Si4 0.131540 0.181053 0.034003
Si Si5 0.261203 0.817073 0.245002
Si Si6 0.730943 0.319570 0.846777
Si Si7 0.500000 0.817228 0.919249
O O1 0.613153 0.232415 0.217505
O O2 0.500000 0.000000 0.159632
O O3 0.500000 0.231317 0.040381
O O4 0.154147 0.241833 0.545330
O O5 0.209452 0.256528 0.744566
O O6 0.000000 0.219759 0.683238
O O7 0.140780 0.000000 0.663785
O O8 0.862259 0.500000 0.445308
O O9 0.790918 0.740878 0.345446
O O10 0.000000 0.719054 0.409201
O O11 0.185861 0.217046 0.144573
O O12 0.000000 0.210334 0.034663
O O13 0.148847 0.000000 0.015631
O O14 0.192935 0.271063 0.943921
O O15 0.260712 0.000000 0.258672
O O16 0.720672 0.500000 0.841485
O O17 0.610696 0.245181 0.865664
O O18 0.500000 0.000000 0.916973
#
# Coordination Sequence:
#
# PCOD9337339 Si02
#       7
#     2   4   4   4   4   4   2
#     4   9  18  35  60  83 108 147 195 241 281 324
#     4  10  21  39  63  87 112 150 198 241 285 344
#     4  10  21  37  57  84 118 152 186 234 297 351
#     4  10  20  34  55  83 114 151 195 239 283 340
#     4  10  19  35  58  84 111 147 196 240 280 336
#     4  12  24  37  56  86 120 151 188 237 295 349
#     4  11  21  41  64  81 110 155 201 241 283 336
#
# _framework density 17.560382000000001
#
# number of rings (size 3 to 8) (size 9 to 14) (size 15 to 20)
#    0.000    1.667    1.667    3.750    0.000    5.667 
#    0.000    1.250    0.000    1.000    0.000    0.000 
#    0.000    0.000    0.000    0.000    0.000    0.000 
#
# Total GULP energy -134105.450448 kJ/mol
# GULP energy per Si atom -5587.727102 kJ/mol
# Density = 1.752041 g / cm^3
# Si number density = 17.560382 Si / 1000 Ang^3
#
#
#
# Elastic Constant Matrix: (Units=GPa)
#
#
# Indices 1 2 3 4 5 6 
#
# 1 150.4770 72.0701 105.3973 0.0000 0.0000 0.0000
# 2 72.0701 73.2663 67.8111 0.0000 0.0000 0.0000
# 3 105.3973 67.8111 143.7344 0.0000 0.0000 0.0000
# 4 0.0000 0.0000 0.0000-2814.5991 0.0000 0.0000
# 5 0.0000 0.0000 0.0000 0.0000 -1.2595 0.0000
# 6 0.0000 0.0000 0.0000 0.0000 0.0000 1.0256
#
#
#
# Elastic Compliance Matrix: (Units=1/GPa)
#
#
# Indices 1 2 3 4 5 6 
#
# 1 0.016368 -0.008862 -0.007822 0.000000 0.000000 0.000000
# 2 -0.008862 0.029026 -0.007196 0.000000 0.000000 0.000000
# 3 -0.007822 -0.007196 0.016088 0.000000 0.000000 0.000000
# 4 0.000000 0.000000 0.000000 -0.000355 0.000000 0.000000
# 5 0.000000 0.000000 0.000000 0.000000 -0.793953 0.000000
# 6 0.000000 0.000000 0.000000 0.000000 0.000000 0.974995
#
#
# Mechanical properties :
#
#
# Convention : Reuss Voigt Hill
#
# Bulk Modulus (GPa) = 72.86838 95.33722 84.10280
# Shear Modulus (GPa) = 16.97784 -554.81998 -268.92107
#
# Velocity S-wave (km/s) = 3.11276 -17.79426 -12.38843
# Velocity P-wave (km/s) = 7.38275 19.17738 12.51533
#
# Compressibility (1/GPa) = 0.01372337
#
# Stress axis : x y z
#
# Youngs Moduli (GPa) = 61.09360 34.45207 62.15969
#
# Poissons Ratio (x) = 0.30530 0.48620
# Poissons Ratio (y) = 0.54139 0.44728
# Poissons Ratio (z) = 0.47786 0.24791
#
# Static dielectric constant tensor:
#      x y z
#    x 1.585680 0.000000 0.000000 
#    y 0.000000 1.587900 0.000000 
#    z 0.000000 0.000000 1.561390 
# 
# From -- ./inp_files/3945.got.cif
#   From: 2010.05.17/outbox.cif.g08.bks.cpg/sg25_2_cif.got.tgz:3945.got - 2010.06.04 01:04:00.
