data_PCOD9337509
_publ_section_title
;
Structure prediction by ZEFSAII (Michael W. Deem and Ramdas Pophale) SiO2 
 PCOD9337509
Probable space group: P M M 2
;
_chemical_formula_sum "Si O2"
_cell_formula_units_Z 32
_cell_length_a 7.596300
_cell_length_b 13.090006
_cell_length_c 12.950465
_cell_angle_alpha 90.000000
_cell_angle_beta 90.000000
_cell_angle_gamma 90.000000
_cell_volume 1287.737420
_symmetry_space_group_name_H-M "P M M 2"
_symmetry_group_IT_number 25
_symmetry_cell_setting 'orthorhombic'
loop_
_space_group_symop_operation_xyz
x,y,z
-x,-y,z
-x,y,z
x,-y,z
loop_
_atom_site_type_symbol
_atom_site_label
_atom_site_fract_x
_atom_site_fract_y
_atom_site_fract_z
Si Si1 0.295787 0.609528 0.051570
Si Si2 0.712100 0.169558 0.104090
Si Si3 0.286675 0.110244 0.876653
Si Si4 0.795347 0.663238 0.823041
Si Si5 0.204058 0.661783 0.601220
Si Si6 0.792474 0.833006 0.326653
Si Si7 0.702207 0.110655 0.550984
Si Si8 0.215167 0.390801 0.374691
O O1 0.500000 0.607669 0.083054
O O2 0.214555 0.500000 0.078471
O O3 0.216433 0.713969 0.095344
O O4 0.291766 0.622816 0.927175
O O5 0.500000 0.172717 0.101901
O O6 0.764641 0.116011 0.997790
O O7 0.764324 0.123060 0.213236
O O8 0.500000 0.115965 0.871112
O O9 0.232310 0.000000 0.834284
O O10 0.215802 0.213265 0.826744
O O11 0.719403 0.631736 0.712004
O O12 0.000000 0.633434 0.828805
O O13 0.210968 0.784869 0.588636
O O14 0.275431 0.618039 0.494166
O O15 0.000000 0.630983 0.604314
O O16 0.705305 0.883267 0.425998
O O17 0.728204 0.714798 0.323135
O O18 0.000000 0.833890 0.349455
O O19 0.500000 0.114496 0.586820
O O20 0.777202 0.000000 0.580573
O O21 0.273042 0.500000 0.331273
O O22 0.000000 0.389952 0.373620
#
# Coordination Sequence:
#
# PCOD9337509 Si02
#       8
#     4   4   4   4   4   4   4   4
#     4   9  19  36  55  75 103 140 178 214 254 301
#     4   9  18  33  52  74 101 133 169 210 253 298
#     4   9  19  36  55  73  97 133 174 213 254 303
#     4  10  20  33  51  78 108 135 167 211 261 308
#     4   9  19  34  52  75 103 134 166 205 253 300
#     4  10  20  33  51  76 104 133 164 203 253 304
#     4  10  21  36  54  75  99 131 171 212 252 298
#     4   8  15  30  50  70  95 128 163 196 234 286
#
# _framework density 24.849786999999999
#
# number of rings (size 3 to 8) (size 9 to 14) (size 15 to 20)
#    0.000    2.750    0.000    2.625    0.000    6.500 
#    0.000    5.000    0.000    9.000    0.000    0.000 
#    0.000    0.000    0.000    0.000    0.000    0.000 
#
# Total GULP energy -178771.434125 kJ/mol
# GULP energy per Si atom -5586.607316 kJ/mol
# Density = 2.479323 g / cm^3
# Si number density = 24.849787 Si / 1000 Ang^3
#
#
#
# Elastic Constant Matrix: (Units=GPa)
#
#
# Indices 1 2 3 4 5 6 
#
# 1 63.1036 -0.7733 -11.9129 0.0000 0.0000 0.0000
# 2 -0.7733 133.8341 -4.9593 0.0000 0.0000 0.0000
# 3 -11.9129 -4.9593 125.1852 0.0000 0.0000 0.0000
# 4 0.0000 0.0000 0.0000 -19.5602 0.0000 0.0000
# 5 0.0000 0.0000 0.0000 0.0000 15.7859 0.0000
# 6 0.0000 0.0000 0.0000 0.0000 0.0000 0.4961
#
#
#
# Elastic Compliance Matrix: (Units=1/GPa)
#
#
# Indices 1 2 3 4 5 6 
#
# 1 0.016140 0.000150 0.001542 0.000000 0.000000 0.000000
# 2 0.000150 0.007484 0.000311 0.000000 0.000000 0.000000
# 3 0.001542 0.000311 0.008147 0.000000 0.000000 0.000000
# 4 0.000000 0.000000 0.000000 -0.051124 0.000000 0.000000
# 5 0.000000 0.000000 0.000000 0.000000 0.063348 0.000000
# 6 0.000000 0.000000 0.000000 0.000000 0.000000 2.015758
#
#
# Mechanical properties :
#
#
# Convention : Reuss Voigt Hill
#
# Bulk Modulus (GPa) = 27.95049 31.87021 29.91035
# Shear Modulus (GPa) = 2.41818 21.99560 12.20689
#
# Velocity S-wave (km/s) = 0.98754 2.97836 2.21877
# Velocity P-wave (km/s) = 3.54577 4.96795 4.31584
#
# Compressibility (1/GPa) = 0.03577755
#
# Stress axis : x y z
#
# Youngs Moduli (GPa) = 61.95835 133.61262 122.74145
#
# Poissons Ratio (x) = -0.02009 -0.18925
# Poissons Ratio (y) = -0.00932 -0.03815
# Poissons Ratio (z) = -0.09553 -0.04153
#
# Static dielectric constant tensor:
#      x y z
#    x 1.923170 0.000000 0.000000 
#    y 0.000000 1.980560 0.000000 
#    z 0.000000 0.000000 1.959760 
# 
# From -- ./inp_files/5705.got.cif
#   From: 2010.05.17/outbox.cif.g08.bks.cpg/sg25_3_cif.got.tgz:5705.got - 2010.06.04 01:04:00.
