data_PCOD9337012
_publ_section_title
;
Structure prediction by ZEFSAII (Michael W. Deem and Ramdas Pophale) SiO2 
 PCOD9337012
Probable space group: I 21 21 21
;
_chemical_formula_sum "Si O2"
_cell_formula_units_Z 12
_cell_length_a 4.137196
_cell_length_b 7.869938
_cell_length_c 11.591298
_cell_angle_alpha 90.000000
_cell_angle_beta 90.000000
_cell_angle_gamma 90.000000
_cell_volume 377.406589
_symmetry_space_group_name_H-M "I 21 21 21"
_symmetry_group_IT_number 24
_symmetry_cell_setting 'orthorhombic'
loop_
_space_group_symop_operation_xyz
x,y,z
-x,1/2-y,z
x,-y,1/2-z
1/2-x,y,-z
1/2+x,1/2+y,1/2+z
1/2-x,-y,1/2+z
1/2+x,1/2-y,-z
-x,1/2+y,1/2-z
loop_
_atom_site_type_symbol
_atom_site_label
_atom_site_fract_x
_atom_site_fract_y
_atom_site_fract_z
Si Si1 0.733910 0.881226 0.345896
Si Si2 0.250000 0.116706 0.500000
O O1 0.500000 0.750000 0.282362
O O2 0.509583 0.503614 0.424462
O O3 0.000000 0.750000 0.398114
O O4 0.890589 0.000000 0.250000
O O5 0.500000 0.250000 0.558849
#
# Coordination Sequence:
#
# PCOD9337012 Si02
#       2
#     8   4
#     4  12  28  54  87 128 174 230 295 366 440 526
#     4  12  28  54  90 132 174 228 298 370 438 522
#
# _framework density 31.795947000000002
#
# number of rings (size 3 to 8) (size 9 to 14) (size 15 to 20)
#    0.000    0.000    0.000    8.000    0.000   10.667 
#    0.000    6.667    0.000    4.000    0.000    0.000 
#    0.000    0.000    0.000    0.000    0.000    0.000 
#
# Total GULP energy -33491.139040 kJ/mol
# GULP energy per Si atom -5581.856507 kJ/mol
# Density = 3.172358 g / cm^3
# Si number density = 31.795947 Si / 1000 Ang^3
#
#
#
# Elastic Constant Matrix: (Units=GPa)
#
#
# Indices 1 2 3 4 5 6 
#
# 1 241.9416 163.1537 101.2441 0.0000 0.0000 0.0000
# 2 163.1537 278.4197 150.4971 0.0000 0.0000 0.0000
# 3 101.2441 150.4971 128.1109 0.0000 0.0000 0.0000
# 4 0.0000 0.0000 0.0000 95.4746 0.0000 0.0000
# 5 0.0000 0.0000 0.0000 0.0000 67.2105 0.0000
# 6 0.0000 0.0000 0.0000 0.0000 0.0000 169.9683
#
#
#
# Elastic Compliance Matrix: (Units=1/GPa)
#
#
# Indices 1 2 3 4 5 6 
#
# 1 0.007008 -0.003049 -0.001956 0.000000 0.000000 0.000000
# 2 -0.003049 0.011167 -0.010708 0.000000 0.000000 0.000000
# 3 -0.001956 -0.010708 0.021931 0.000000 0.000000 0.000000
# 4 0.000000 0.000000 0.000000 0.010474 0.000000 0.000000
# 5 0.000000 0.000000 0.000000 0.000000 0.014879 0.000000
# 6 0.000000 0.000000 0.000000 0.000000 0.000000 0.005883
#
#
# Mechanical properties :
#
#
# Convention : Reuss Voigt Hill
#
# Bulk Modulus (GPa) = 115.22827 164.25135 139.73981
# Shear Modulus (GPa) = 47.32007 82.10249 64.71128
#
# Velocity S-wave (km/s) = 3.86196 5.08702 4.51622
# Velocity P-wave (km/s) = 7.49699 9.28837 8.44034
#
# Compressibility (1/GPa) = 0.00867843
#
# Stress axis : x y z
#
# Youngs Moduli (GPa) = 142.69009 89.54999 45.59685
#
# Poissons Ratio (x) = 0.27307 0.08920
# Poissons Ratio (y) = 0.43511 0.48827
# Poissons Ratio (z) = 0.27914 0.95894
#
# Static dielectric constant tensor:
#      x y z
#    x 2.403760 0.000000 0.000000 
#    y 0.000000 2.342510 0.000000 
#    z 0.000000 0.000000 2.517100 
# 
# From -- ./inp_files/28311.got.cif
#   From: 2010.05.17/outbox.cif.g08.bks.cpg/sg24_15_cif.got.tgz:28311.got - 2010.06.04 00:33:39.
