data_PCOD9337887
_publ_section_title
;
Structure prediction by ZEFSAII (Michael W. Deem and Ramdas Pophale) SiO2 
 PCOD9337887
Probable space group: P M C 21
;
_chemical_formula_sum "Si O2"
_cell_formula_units_Z 24
_cell_length_a 15.875086
_cell_length_b 18.041440
_cell_length_c 5.460313
_cell_angle_alpha 90.000000
_cell_angle_beta 90.000000
_cell_angle_gamma 90.000000
_cell_volume 1563.885033
_symmetry_space_group_name_H-M "P M C 21"
_symmetry_group_IT_number 26
_symmetry_cell_setting 'orthorhombic'
loop_
_space_group_symop_operation_xyz
x,y,z
-x,-y,1/2+z
-x,y,z
x,-y,1/2+z
loop_
_atom_site_type_symbol
_atom_site_label
_atom_site_fract_x
_atom_site_fract_y
_atom_site_fract_z
Si Si1 0.333516 0.075160 0.782970
Si Si2 0.097962 0.785773 0.282947
Si Si3 0.102412 0.459699 0.282951
Si Si4 0.896923 0.286624 0.282947
Si Si5 0.598639 0.090719 0.282970
Si Si6 0.135161 0.042225 0.782970
O O1 0.357122 0.116399 0.533017
O O2 0.236785 0.050260 0.782971
O O3 0.387353 0.998783 0.782969
O O4 0.357123 0.116399 0.032922
O O5 0.134036 0.753188 0.535357
O O6 0.102242 0.874257 0.282958
O O7 0.000000 0.763071 0.282944
O O8 0.134036 0.753192 0.030531
O O9 0.130369 0.500001 0.532949
O O10 0.125248 0.373188 0.282955
O O11 0.000000 0.462751 0.282951
O O12 0.000000 0.281582 0.282945
O O13 0.500000 0.106908 0.282972
O O14 0.110399 0.999998 0.532974
#
# Coordination Sequence:
#
# PCOD9337887 Si02
#       6
#     4   4   4   4   4   4
#     4  10  16  27  37  56  75  93 115 150 201 244
#     4  10  21  33  45  57  71 102 137 170 217 249
#     4   9  15  23  40  64  83  99 115 138 183 238
#     4   9  17  31  44  58  81  99 122 158 195 248
#     4  10  16  25  41  58  76  94 112 139 197 256
#     4  12  21  33  45  55  74  97 132 183 221 247
#
# _framework density 15.346398000000001
#
# number of rings (size 3 to 8) (size 9 to 14) (size 15 to 20)
#    0.000    2.000    3.333    4.500    0.000    4.667 
#    0.000    0.000    0.000    0.000    0.000    0.000 
#    0.000    0.000    0.000    0.000    0.000    0.000 
#
# Total GULP energy -133705.734675 kJ/mol
# GULP energy per Si atom -5571.072278 kJ/mol
# Density = 1.531147 g / cm^3
# Si number density = 15.346398 Si / 1000 Ang^3
#
#
#
# Elastic Constant Matrix: (Units=GPa)
#
#
# Indices 1 2 3 4 5 6 
#
# 1 15.4573 -9.5359 6.9656 0.0000 0.0000 0.0000
# 2 -9.5359 76.9230 67.3716 0.0000 0.0000 0.0000
# 3 6.9656 67.3716 202.4472 0.0000 0.0000 0.0000
# 4 0.0000 0.0000 0.0000 24.4259 0.0000 0.0000
# 5 0.0000 0.0000 0.0000 0.0000 0.4023 0.0000
# 6 0.0000 0.0000 0.0000 0.0000 0.0000 -2.3242
#
#
#
# Elastic Compliance Matrix: (Units=1/GPa)
#
#
# Indices 1 2 3 4 5 6 
#
# 1 0.079117 0.017207 -0.008449 0.000000 0.000000 0.000000
# 2 0.017207 0.022090 -0.007943 0.000000 0.000000 0.000000
# 3 -0.008449 -0.007943 0.007874 0.000000 0.000000 0.000000
# 4 0.000000 0.000000 0.000000 0.040940 0.000000 0.000000
# 5 0.000000 0.000000 0.000000 0.000000 2.485409 0.000000
# 6 0.000000 0.000000 0.000000 0.000000 0.000000 -0.430247
#
#
# Mechanical properties :
#
#
# Convention : Reuss Voigt Hill
#
# Bulk Modulus (GPa) = 9.03244 47.15890 28.09567
# Shear Modulus (GPa) = 2.23169 19.83587 11.03378
#
# Velocity S-wave (km/s) = 1.20721 3.59909 2.68429
# Velocity P-wave (km/s) = 2.80029 6.93308 5.28722
#
# Compressibility (1/GPa) = 0.11071201
#
# Stress axis : x y z
#
# Youngs Moduli (GPa) = 12.63949 45.26889 127.00525
#
# Poissons Ratio (x) = -0.77896 1.07301
# Poissons Ratio (y) = -0.21749 1.00885
# Poissons Ratio (z) = 0.10679 0.35959
#
# Static dielectric constant tensor:
#      x y z
#    x 1.506960 0.000000 0.000000 
#    y 0.000000 1.477700 0.000000 
#    z 0.000000 0.000000 1.615800 
# 
# From -- ./inp_files/599.got.cif
#   From: 2010.05.17/outbox.cif.g08.bks.cpg/sg26_1_cif.got.tgz:599.got - 2010.06.04 01:07:29.
