data_PCOD9337059
_publ_section_title
;
Structure prediction by ZEFSAII (Michael W. Deem and Ramdas Pophale) SiO2 
 PCOD9337059
Probable space group: I 21 21 21
;
_chemical_formula_sum "Si O2"
_cell_formula_units_Z 32
_cell_length_a 9.000000
_cell_length_b 30.000000
_cell_length_c 12.000000
_cell_angle_alpha 90.000000
_cell_angle_beta 90.000000
_cell_angle_gamma 90.000000
_cell_volume 3240.000000
_symmetry_space_group_name_H-M "I 21 21 21"
_symmetry_group_IT_number 24
_symmetry_cell_setting 'orthorhombic'
loop_
_space_group_symop_operation_xyz
x,y,z
-x,1/2-y,z
x,-y,1/2-z
1/2-x,y,-z
1/2+x,1/2+y,1/2+z
1/2-x,-y,1/2+z
1/2+x,1/2-y,-z
-x,1/2+y,1/2-z
loop_
_atom_site_type_symbol
_atom_site_label
_atom_site_fract_x
_atom_site_fract_y
_atom_site_fract_z
Si Si1 0.162964 0.228055 0.610098
Si Si2 0.032079 0.603914 0.232338
Si Si3 0.260793 0.892115 0.378518
Si Si4 0.925368 0.568604 0.997241
Si Si5 0.081398 0.020891 0.865968
Si Si6 0.526195 0.639664 0.196609
Si Si7 0.248208 0.464265 0.142500
Si Si8 0.776076 0.180038 0.364155
O O1 0.250000 0.215599 0.500000
O O2 0.129069 0.182134 0.668961
O O3 0.263398 0.267454 0.661990
O O4 0.000000 0.250000 0.587146
O O5 0.143973 0.576664 0.315493
O O6 0.088438 0.650869 0.180183
O O7 0.884052 0.612418 0.302965
O O8 0.996482 0.576030 0.118749
O O9 0.250000 0.870722 0.500000
O O10 0.293808 0.944209 0.394765
O O11 0.402945 0.876903 0.309468
O O12 0.945667 0.518426 0.953932
O O13 0.978750 0.602791 0.901708
O O14 0.750000 0.576788 0.000000
O O15 0.922869 0.043622 0.843409
O O16 0.131711 0.000000 0.750000
O O17 0.361155 0.657824 0.199268
O O18 0.218943 0.500000 0.250000
O O19 0.250000 0.472421 0.000000
O O20 0.750000 0.176361 0.500000
#
# Coordination Sequence:
#
# PCOD9337059 Si02
#       8
#     8   8   8   8   8   8   8   8
#     4   9  20  35  62  98 132 166 197 260 332 411
#     4  12  25  40  67  97 131 169 223 277 333 401
#     4  12  26  42  61  85 124 178 226 271 319 390
#     4  12  22  38  67  97 126 168 219 272 338 399
#     4  11  22  40  60  84 126 171 214 270 332 384
#     4  11  21  40  64  89 135 164 208 265 331 399
#     4  11  25  42  62  91 128 176 229 279 339 398
#     4  10  21  38  65 101 136 162 203 263 343 411
#
# _framework density 9.8765429999999999
#
# number of rings (size 3 to 8) (size 9 to 14) (size 15 to 20)
#    0.000    1.000    3.750    3.000    1.750    2.000 
#    0.000    0.000    0.000    5.250    0.000    0.000 
#    0.000    0.000    0.000    0.000    0.000    0.000 
#
# Total GULP energy -178152.762738 kJ/mol
# GULP energy per Si atom -5567.273836 kJ/mol
# Density = 0.985406 g / cm^3
# Si number density = 9.876543 Si / 1000 Ang^3
#
#
#
# Elastic Constant Matrix: (Units=GPa)
#
#
# Indices 1 2 3 4 5 6 
#
# 1 16.9705 29.7385 19.7441 0.0001 0.0001 -0.0001
# 2 29.7385 82.2372 33.6617 -0.0002 0.0000 -0.0006
# 3 19.7441 33.6617 133.2932 0.0019 -0.0009 -0.0034
# 4 0.0001 -0.0002 0.0019 27.6113 0.0006 -0.0004
# 5 0.0001 0.0000 -0.0009 0.0006 -5.4117 -0.0003
# 6 -0.0001 -0.0006 -0.0034 -0.0004 -0.0003 140.9129
#
#
#
# Elastic Compliance Matrix: (Units=1/GPa)
#
#
# Indices 1 2 3 4 5 6 
#
# 1 0.174311 -0.058514 -0.011043 0.000000 0.000004 0.000000
# 2 -0.058514 0.033204 0.000282 0.000000 -0.000001 0.000000
# 3 -0.011043 0.000282 0.009067 -0.000001 -0.000002 0.000000
# 4 0.000000 0.000000 -0.000001 0.036217 0.000004 0.000000
# 5 0.000004 -0.000001 -0.000002 0.000004 -0.184784 0.000000
# 6 0.000000 0.000000 0.000000 0.000000 0.000000 0.007097
#
#
# Mechanical properties :
#
#
# Convention : Reuss Voigt Hill
#
# Bulk Modulus (GPa) = 12.81515 44.30993 28.56254
# Shear Modulus (GPa) = 20.86188 42.57959 31.72074
#
# Velocity S-wave (km/s) = 3.25335 4.64787 4.01167
# Velocity P-wave (km/s) = 4.54027 7.16130 5.99576
#
# Compressibility (1/GPa) = 0.07803266
#
# Stress axis : x y z
#
# Youngs Moduli (GPa) = 5.73687 30.11669 110.29306
#
# Poissons Ratio (x) = 1.76225 1.21795
# Poissons Ratio (y) = 0.33569 -0.03111
# Poissons Ratio (z) = 0.06335 -0.00849
#
# Static dielectric constant tensor:
#      x y z
#    x 1.720260 0.000000 0.000000 
#    y 0.000000 1.842290 0.000000 
#    z 0.000000 0.000000 1.821530 
# 
# From -- ./inp_files/18938.got.cif
#   From: 2010.05.17/outbox.ucp.g08.bks.cvg/sg24_10_cif.got.tgz:18938.got - 2010.06.11 15:20:44.
