data_PCOD9337438
_publ_section_title
;
Structure prediction by ZEFSAII (Michael W. Deem and Ramdas Pophale) SiO2 
 PCOD9337438
Probable space group: P M M 2
;
_chemical_formula_sum "Si O2"
_cell_formula_units_Z 32
_cell_length_a 7.405584
_cell_length_b 9.468793
_cell_length_c 21.405702
_cell_angle_alpha 90.000000
_cell_angle_beta 90.000000
_cell_angle_gamma 90.000000
_cell_volume 1501.009393
_symmetry_space_group_name_H-M "P M M 2"
_symmetry_group_IT_number 25
_symmetry_cell_setting 'orthorhombic'
loop_
_space_group_symop_operation_xyz
x,y,z
-x,-y,z
-x,y,z
x,-y,z
loop_
_atom_site_type_symbol
_atom_site_label
_atom_site_fract_x
_atom_site_fract_y
_atom_site_fract_z
Si Si1 0.715163 0.161497 0.505250
Si Si2 0.279281 0.662512 0.624061
Si Si3 0.216367 0.160383 0.366063
Si Si4 0.715536 0.339394 0.866171
Si Si5 0.779812 0.336140 0.109001
Si Si6 0.220076 0.663156 0.248115
Si Si7 0.216459 0.160133 0.990343
Si Si8 0.720644 0.836975 0.746363
O O1 0.500000 0.152122 0.513367
O O2 0.782145 0.260767 0.560668
O O3 0.746743 0.217976 0.435347
O O4 0.786298 0.000000 0.508760
O O5 0.500000 0.661031 0.623800
O O6 0.221135 0.500000 0.628109
O O7 0.224486 0.754061 0.684023
O O8 0.284519 0.247804 0.307067
O O9 0.000000 0.154654 0.360182
O O10 0.286009 0.000000 0.364686
O O11 0.500000 0.349342 0.858206
O O12 0.785866 0.500000 0.868133
O O13 0.782482 0.248317 0.807444
O O14 0.747079 0.255711 0.930108
O O15 0.725980 0.500000 0.099955
O O16 0.724340 0.289277 0.178648
O O17 0.716453 0.237596 0.052882
O O18 0.000000 0.335476 0.108246
O O19 0.272687 0.500000 0.254810
O O20 0.000000 0.666924 0.248555
O O21 0.000000 0.151755 0.996164
O O22 0.284666 0.000000 0.983114
O O23 0.500000 0.838595 0.746936
O O24 0.778790 0.000000 0.746740
#
# Coordination Sequence:
#
# PCOD9337438 Si02
#       8
#     4   4   4   4   4   4   4   4
#     4   9  17  29  44  62  86 116 146 176 216 266
#     4   9  16  26  42  65  90 114 145 186 225 261
#     4   9  17  28  43  64  88 113 143 181 222 262
#     4  10  20  33  50  72  97 126 159 194 233 277
#     4   8  14  26  44  65  89 117 150 189 230 269
#     4   8  14  25  42  64  88 114 146 184 224 264
#     4  10  20  32  48  72  99 126 157 193 234 280
#     4   9  16  27  45  68  93 120 150 187 230 272
#
# _framework density 21.318988999999998
#
# number of rings (size 3 to 8) (size 9 to 14) (size 15 to 20)
#    0.000    3.000    0.000    2.250    0.000    5.500 
#    0.000    2.500    0.000    1.500    0.000    5.250 
#    0.000    0.000    0.000    0.000    0.000    0.000 
#
# Total GULP energy -178650.208715 kJ/mol
# GULP energy per Si atom -5582.819022 kJ/mol
# Density = 2.127047 g / cm^3
# Si number density = 21.318989 Si / 1000 Ang^3
#
#
#
# Elastic Constant Matrix: (Units=GPa)
#
#
# Indices 1 2 3 4 5 6 
#
# 1 71.4151 6.0945 0.8848 0.0000 0.0000 0.0000
# 2 6.0945 177.8599 148.0212 0.0000 0.0000 0.0000
# 3 0.8848 148.0212 252.8342 0.0000 0.0000 0.0000
# 4 0.0000 0.0000 0.0000 43.6657 0.0000 0.0000
# 5 0.0000 0.0000 0.0000 0.0000 17.2301 0.0000
# 6 0.0000 0.0000 0.0000 0.0000 0.0000 -6.2889
#
#
#
# Elastic Compliance Matrix: (Units=1/GPa)
#
#
# Indices 1 2 3 4 5 6 
#
# 1 0.014070 -0.000860 0.000454 0.000000 0.000000 0.000000
# 2 -0.000860 0.011017 -0.006447 0.000000 0.000000 0.000000
# 3 0.000454 -0.006447 0.007728 0.000000 0.000000 0.000000
# 4 0.000000 0.000000 0.000000 0.022901 0.000000 0.000000
# 5 0.000000 0.000000 0.000000 0.000000 0.058038 0.000000
# 6 0.000000 0.000000 0.000000 0.000000 0.000000 -0.159011
#
#
# Mechanical properties :
#
#
# Convention : Reuss Voigt Hill
#
# Bulk Modulus (GPa) = 52.32904 90.23447 71.28176
# Shear Modulus (GPa) = -198.57084 34.06196 -82.25444
#
# Velocity S-wave (km/s) = -9.66152 4.00150 -6.21824
# Velocity P-wave (km/s) = 9.99304 7.98543 4.24816
#
# Compressibility (1/GPa) = 0.01910985
#
# Stress axis : x y z
#
# Youngs Moduli (GPa) = 71.07100 90.76576 129.39951
#
# Poissons Ratio (x) = 0.07809 -0.05881
# Poissons Ratio (y) = 0.06115 0.83425
# Poissons Ratio (z) = -0.03230 0.58517
#
# Static dielectric constant tensor:
#      x y z
#    x 1.851960 0.000000 0.000000 
#    y 0.000000 1.738350 0.000000 
#    z 0.000000 0.000000 1.736630 
# 
# From -- ./inp_files/6275.got.cif
#   From: 2010.05.17/outbox.cif.g08.bks.cpg/sg25_4_cif.got.tgz:6275.got - 2010.06.04 01:04:00.
