data_PCOD9337507
_publ_section_title
;
Structure prediction by ZEFSAII (Michael W. Deem and Ramdas Pophale) SiO2 
 PCOD9337507
Probable space group: P M M 2
;
_chemical_formula_sum "Si O2"
_cell_formula_units_Z 24
_cell_length_a 7.563433
_cell_length_b 9.681271
_cell_length_c 15.948884
_cell_angle_alpha 90.000000
_cell_angle_beta 90.000000
_cell_angle_gamma 90.000000
_cell_volume 1167.835413
_symmetry_space_group_name_H-M "P M M 2"
_symmetry_group_IT_number 25
_symmetry_cell_setting 'orthorhombic'
loop_
_space_group_symop_operation_xyz
x,y,z
-x,-y,z
-x,y,z
x,-y,z
loop_
_atom_site_type_symbol
_atom_site_label
_atom_site_fract_x
_atom_site_fract_y
_atom_site_fract_z
Si Si1 0.713257 0.658429 0.244090
Si Si2 0.291325 0.655377 0.561024
Si Si3 0.284421 0.340597 0.056211
Si Si4 0.208064 0.156343 0.403240
Si Si5 0.284445 0.840528 0.901002
Si Si6 0.283810 0.159792 0.713441
O O1 0.500000 0.653714 0.242988
O O2 0.773298 0.500000 0.261170
O O3 0.772389 0.699475 0.150286
O O4 0.764349 0.765627 0.315440
O O5 0.500000 0.641571 0.577114
O O6 0.218890 0.500000 0.551170
O O7 0.276016 0.746456 0.477543
O O8 0.218456 0.740703 0.640098
O O9 0.500000 0.334487 0.056120
O O10 0.235258 0.500000 0.043885
O O11 0.221170 0.249044 0.979059
O O12 0.000000 0.145542 0.417043
O O13 0.282207 0.000000 0.403932
O O14 0.500000 0.835845 0.901688
O O15 0.230017 0.796365 0.807364
O O16 0.233416 0.000000 0.911352
O O17 0.500000 0.159517 0.712126
O O18 0.230460 0.000000 0.699922
#
# Coordination Sequence:
#
# PCOD9337507 Si02
#       6
#     4   4   4   4   4   4
#     4   9  18  33  52  74  99 127 161 199 239 285
#     4  10  20  33  51  75  99 125 160 199 239 286
#     4   8  14  24  39  62  93 125 154 188 231 276
#     4  11  24  38  51  70  95 124 160 200 243 292
#     4   8  13  21  35  59  92 127 159 189 224 269
#     4   8  14  25  41  63  94 129 160 192 232 276
#
# _framework density 20.550843
#
# number of rings (size 3 to 8) (size 9 to 14) (size 15 to 20)
#    0.000    3.000    0.000    3.500    0.000    6.000 
#    0.000    5.000    0.000    0.000    0.000    1.167 
#    0.000    6.667    0.000    0.000    0.000    0.000 
#
# Total GULP energy -133880.133431 kJ/mol
# GULP energy per Si atom -5578.338893 kJ/mol
# Density = 2.050407 g / cm^3
# Si number density = 20.550843 Si / 1000 Ang^3
#
#
#
# Elastic Constant Matrix: (Units=GPa)
#
#
# Indices 1 2 3 4 5 6 
#
# 1 45.6208 3.0039 -3.9875 0.0000 0.0000 0.0000
# 2 3.0039 151.4586 132.9339 0.0000 0.0000 0.0000
# 3 -3.9875 132.9339 200.5499 0.0000 0.0000 0.0000
# 4 0.0000 0.0000 0.0000 43.9575 0.0000 0.0000
# 5 0.0000 0.0000 0.0000 0.0000 -48.9813 0.0000
# 6 0.0000 0.0000 0.0000 0.0000 0.0000 -8.2032
#
#
#
# Elastic Compliance Matrix: (Units=1/GPa)
#
#
# Indices 1 2 3 4 5 6 
#
# 1 0.022203 -0.001979 0.001754 0.000000 0.000000 0.000000
# 2 -0.001979 0.015963 -0.010621 0.000000 0.000000 0.000000
# 3 0.001754 -0.010621 0.012061 0.000000 0.000000 0.000000
# 4 0.000000 0.000000 0.000000 0.022749 0.000000 0.000000
# 5 0.000000 0.000000 0.000000 0.000000 -0.020416 0.000000
# 6 0.000000 0.000000 0.000000 0.000000 0.000000 -0.121904
#
#
# Mechanical properties :
#
#
# Convention : Reuss Voigt Hill
#
# Bulk Modulus (GPa) = 35.04498 73.50333 54.27415
# Shear Modulus (GPa) = -131.10057 15.06653 -58.01702
#
# Velocity S-wave (km/s) = -7.99573 2.71058 -5.31905
# Velocity P-wave (km/s) = 8.25545 6.75578 3.35499
#
# Compressibility (1/GPa) = 0.02853476
#
# Stress axis : x y z
#
# Youngs Moduli (GPa) = 45.03809 62.64353 82.91190
#
# Poissons Ratio (x) = 0.12400 -0.14539
# Poissons Ratio (y) = 0.08915 0.88057
# Poissons Ratio (z) = -0.07897 0.66531
#
# Static dielectric constant tensor:
#      x y z
#    x 1.775630 0.000000 0.000000 
#    y 0.000000 1.717900 0.000000 
#    z 0.000000 0.000000 1.716190 
# 
# From -- ./inp_files/5968.got.cif
#   From: 2010.05.17/outbox.cif.g08.bks.cpg/sg25_3_cif.got.tgz:5968.got - 2010.06.04 01:04:00.
