data_PCOD9337936
_publ_section_title
;
Structure prediction by ZEFSAII (Michael W. Deem and Ramdas Pophale) SiO2 
 PCOD9337936
Probable space group: P M C 21
;
_chemical_formula_sum "Si O2"
_cell_formula_units_Z 32
_cell_length_a 13.182732
_cell_length_b 15.794680
_cell_length_c 8.472944
_cell_angle_alpha 90.000000
_cell_angle_beta 90.000000
_cell_angle_gamma 90.000000
_cell_volume 1764.211264
_symmetry_space_group_name_H-M "P M C 21"
_symmetry_group_IT_number 26
_symmetry_cell_setting 'orthorhombic'
loop_
_space_group_symop_operation_xyz
x,y,z
-x,-y,1/2+z
-x,y,z
x,-y,1/2+z
loop_
_atom_site_type_symbol
_atom_site_label
_atom_site_fract_x
_atom_site_fract_y
_atom_site_fract_z
Si Si1 0.610362 0.671512 0.639840
Si Si2 0.704814 0.718135 0.136303
Si Si3 0.784972 0.559146 0.518899
Si Si4 0.622337 0.031441 0.133778
Si Si5 0.883203 0.593556 0.204039
Si Si6 0.382252 0.175507 0.357083
Si Si7 0.622921 0.130272 0.818116
Si Si8 0.608554 0.569189 0.967619
O O1 0.500000 0.662201 0.556955
O O2 0.714905 0.637853 0.568992
O O3 0.616884 0.767299 0.699037
O O4 0.603662 0.618819 0.803547
O O5 0.813080 0.671488 0.145472
O O6 0.673048 0.778835 0.280680
O O7 0.687446 0.777244 0.983105
O O8 0.631304 0.637659 0.104336
O O9 0.865021 0.588750 0.390582
O O10 0.841058 0.497030 0.641259
O O11 0.698039 0.496951 0.451231
O O12 0.500000 0.032259 0.123228
O O13 0.647857 0.084426 0.292070
O O14 0.648960 0.934512 0.173739
O O15 0.656774 0.081602 0.977684
O O16 0.000000 0.603624 0.160519
O O17 0.500000 0.174323 0.416154
O O18 0.500000 0.140172 0.822435
O O19 0.500000 0.528533 0.000288
#
# Coordination Sequence:
#
# PCOD9337936 Si02
#       8
#     4   4   4   4   4   4   4   4
#     4   9  17  29  48  75 108 138 167 204 252 316
#     4  10  20  33  53  75 102 141 178 223 270 317
#     4  11  20  37  55  75  99 134 177 217 271 327
#     4   9  18  29  48  77 118 155 180 207 241 304
#     4  11  25  41  57  75  98 133 182 240 285 316
#     4   9  17  32  50  76 114 148 172 206 251 310
#     4  10  18  30  48  80 115 150 184 210 251 310
#     4   9  17  31  48  75 108 139 169 205 256 320
#
# _framework density 18.138417
#
# number of rings (size 3 to 8) (size 9 to 14) (size 15 to 20)
#    0.000    2.250    1.250    3.375    1.750    2.000 
#    0.000    2.500    0.000    0.000    0.000    3.500 
#    0.000    0.000    0.000    0.000    0.000    0.000 
#
# Total GULP energy -178296.349374 kJ/mol
# GULP energy per Si atom -5571.760918 kJ/mol
# Density = 1.809713 g / cm^3
# Si number density = 18.138417 Si / 1000 Ang^3
#
#
#
# Elastic Constant Matrix: (Units=GPa)
#
#
# Indices 1 2 3 4 5 6 
#
# 1 81.8326 16.3361 19.1228 0.0000 0.0000 0.0000
# 2 16.3361 71.7766 15.5657 0.0000 0.0000 0.0000
# 3 19.1228 15.5657 54.4183 0.0000 0.0000 0.0000
# 4 0.0000 0.0000 0.0000 29.9167 0.0000 0.0000
# 5 0.0000 0.0000 0.0000 0.0000 7.4603 0.0000
# 6 0.0000 0.0000 0.0000 0.0000 0.0000 21.9092
#
#
#
# Elastic Compliance Matrix: (Units=1/GPa)
#
#
# Indices 1 2 3 4 5 6 
#
# 1 0.013632 -0.002200 -0.004161 0.000000 0.000000 0.000000
# 2 -0.002200 0.015209 -0.003577 0.000000 0.000000 0.000000
# 3 -0.004161 -0.003577 0.020862 0.000000 0.000000 0.000000
# 4 0.000000 0.000000 0.000000 0.033426 0.000000 0.000000
# 5 0.000000 0.000000 0.000000 0.000000 0.134043 0.000000
# 6 0.000000 0.000000 0.000000 0.000000 0.000000 0.045643
#
#
# Mechanical properties :
#
#
# Convention : Reuss Voigt Hill
#
# Bulk Modulus (GPa) = 33.52840 34.45298 33.99069
# Shear Modulus (GPa) = 17.08632 22.32411 19.70521
#
# Velocity S-wave (km/s) = 3.07252 3.51203 3.29960
# Velocity P-wave (km/s) = 5.57782 5.95664 5.77034
#
# Compressibility (1/GPa) = 0.02982546
#
# Stress axis : x y z
#
# Youngs Moduli (GPa) = 73.35896 65.75223 47.93519
#
# Poissons Ratio (x) = 0.14467 0.19945
# Poissons Ratio (y) = 0.16140 0.17147
# Poissons Ratio (z) = 0.30524 0.23520
#
# Static dielectric constant tensor:
#      x y z
#    x 1.579780 0.000000 0.000000 
#    y 0.000000 1.673030 0.000000 
#    z 0.000000 0.000000 1.722260 
# 
# From -- ./inp_files/2027.got.cif
#   From: 2010.05.17/outbox.cif.g08.bks.cpg/sg26_2_cif.got.tgz:2027.got - 2010.06.04 01:07:29.
