data_PCOD9337253
_publ_section_title
;
Structure prediction by ZEFSAII (Michael W. Deem and Ramdas Pophale) SiO2 
 PCOD9337253
Probable space group: P M M 2
;
_chemical_formula_sum "Si O2"
_cell_formula_units_Z 20
_cell_length_a 8.207941
_cell_length_b 7.596694
_cell_length_c 14.847739
_cell_angle_alpha 90.000000
_cell_angle_beta 90.000000
_cell_angle_gamma 90.000000
_cell_volume 925.804279
_symmetry_space_group_name_H-M "P M M 2"
_symmetry_group_IT_number 25
_symmetry_cell_setting 'orthorhombic'
loop_
_space_group_symop_operation_xyz
x,y,z
-x,-y,z
-x,y,z
x,-y,z
loop_
_atom_site_type_symbol
_atom_site_label
_atom_site_fract_x
_atom_site_fract_y
_atom_site_fract_z
Si Si1 0.813366 0.795010 0.491090
Si Si2 0.822538 0.215287 0.914236
Si Si3 0.319097 0.788572 0.097928
Si Si4 0.816060 0.708131 0.291611
Si Si5 0.500000 0.785086 0.808280
Si Si6 0.500000 0.783734 0.599452
O O1 0.759543 0.785701 0.386382
O O2 0.666170 0.721128 0.550886
O O3 0.000000 0.721366 0.497338
O O4 0.827309 0.000000 0.515766
O O5 0.665142 0.273160 0.858122
O O6 0.000000 0.271873 0.880410
O O7 0.821146 0.000000 0.912364
O O8 0.799583 0.270986 0.018441
O O9 0.500000 0.726058 0.074995
O O10 0.278893 0.741031 0.199987
O O11 0.318787 0.000000 0.094429
O O12 0.820444 0.500000 0.305880
O O13 0.000000 0.774877 0.276595
O O14 0.500000 0.734872 0.703995
O O15 0.500000 0.000000 0.812335
O O16 0.500000 0.000000 0.593966
#
# Coordination Sequence:
#
# PCOD9337253 Si02
#       6
#     4   4   4   4   2   2
#     4   9  18  33  51  72 100 133 168 206 250 300
#     4   9  16  27  45  69 100 135 165 198 245 296
#     4  10  19  31  49  74 104 136 171 208 245 295
#     4  10  21  35  50  72 102 134 170 211 252 297
#     4   9  16  28  43  69 102 126 159 207 252 297
#     4   9  18  30  48  71  98 130 165 207 252 299
#
# _framework density 21.602837999999998
#
# number of rings (size 3 to 8) (size 9 to 14) (size 15 to 20)
#    0.000    2.600    1.000    1.200    1.400    3.200 
#    0.000    4.000    0.000    0.000    0.000    2.800 
#    0.000    3.200    0.000    0.000    0.000    0.000 
#
# Total GULP energy -111571.119236 kJ/mol
# GULP energy per Si atom -5578.555962 kJ/mol
# Density = 2.155367 g / cm^3
# Si number density = 21.602838 Si / 1000 Ang^3
#
#
#
# Elastic Constant Matrix: (Units=GPa)
#
#
# Indices 1 2 3 4 5 6 
#
# 1 169.7814 10.4069 99.3843 0.0000 0.0000 0.0000
# 2 10.4069 42.0060 -0.3504 0.0000 0.0000 0.0000
# 3 99.3843 -0.3504 135.9847 0.0000 0.0000 0.0000
# 4 0.0000 0.0000 0.0000 -49.2034 0.0000 0.0000
# 5 0.0000 0.0000 0.0000 0.0000 11.2660 0.0000
# 6 0.0000 0.0000 0.0000 0.0000 0.0000 -2.8949
#
#
#
# Elastic Compliance Matrix: (Units=1/GPa)
#
#
# Indices 1 2 3 4 5 6 
#
# 1 0.010589 -0.002688 -0.007746 0.000000 0.000000 0.000000
# 2 -0.002688 0.024489 0.002028 0.000000 0.000000 0.000000
# 3 -0.007746 0.002028 0.013020 0.000000 0.000000 0.000000
# 4 0.000000 0.000000 0.000000 -0.020324 0.000000 0.000000
# 5 0.000000 0.000000 0.000000 0.000000 0.088763 0.000000
# 6 0.000000 0.000000 0.000000 0.000000 0.000000 -0.345433
#
#
# Mechanical properties :
#
#
# Convention : Reuss Voigt Hill
#
# Bulk Modulus (GPa) = 31.96365 62.96150 47.46257
# Shear Modulus (GPa) = -24.79477 7.72228 -8.53625
#
# Velocity S-wave (km/s) = -3.39153 1.89273 -1.98998
# Velocity P-wave (km/s) = 0.71307 5.82965 4.09123
#
# Compressibility (1/GPa) = 0.03128554
#
# Stress axis : x y z
#
# Youngs Moduli (GPa) = 94.43964 40.83470 76.80522
#
# Poissons Ratio (x) = 0.10976 0.59491
# Poissons Ratio (y) = 0.25385 -0.15573
# Poissons Ratio (z) = 0.73150 -0.08280
#
# Static dielectric constant tensor:
#      x y z
#    x 1.805750 0.000000 0.000000 
#    y 0.000000 1.797640 0.000000 
#    z 0.000000 0.000000 1.751330 
# 
# From -- ./inp_files/5127.got.cif
#   From: 2010.05.17/outbox.cif.g08.bks.cpg/sg25_3_cif.got.tgz:5127.got - 2010.06.04 01:04:00.
