data_PCOD9337911
_publ_section_title
;
Structure prediction by ZEFSAII (Michael W. Deem and Ramdas Pophale) SiO2 
 PCOD9337911
Probable space group: P M C 21
;
_chemical_formula_sum "Si O2"
_cell_formula_units_Z 26
_cell_length_a 8.171624
_cell_length_b 10.120339
_cell_length_c 13.146654
_cell_angle_alpha 90.000000
_cell_angle_beta 90.000000
_cell_angle_gamma 90.000000
_cell_volume 1087.223094
_symmetry_space_group_name_H-M "P M C 21"
_symmetry_group_IT_number 26
_symmetry_cell_setting 'orthorhombic'
loop_
_space_group_symop_operation_xyz
x,y,z
-x,-y,1/2+z
-x,y,z
x,-y,1/2+z
loop_
_atom_site_type_symbol
_atom_site_label
_atom_site_fract_x
_atom_site_fract_y
_atom_site_fract_z
Si Si1 0.500000 0.262301 0.826860
Si Si2 0.175712 0.634865 0.518873
Si Si3 0.500000 0.409262 0.035925
Si Si4 0.824191 0.845005 0.345501
Si Si5 0.188891 0.274898 0.362026
Si Si6 0.698384 0.867240 0.670766
Si Si7 0.302025 0.064254 0.502272
Si Si8 0.500000 0.432543 0.277296
O O1 0.343242 0.183273 0.788374
O O2 0.500000 0.411259 0.790278
O O3 0.500000 0.283440 0.953336
O O4 0.322955 0.531329 0.513470
O O5 0.162563 0.709770 0.412211
O O6 0.234603 0.748010 0.598422
O O7 0.000000 0.581919 0.549247
O O8 0.500000 0.402736 0.157517
O O9 0.782141 0.958328 0.426686
O O10 0.000000 0.867144 0.296222
O O11 0.212916 0.158975 0.276687
O O12 0.334543 0.371994 0.325705
O O13 0.000000 0.322682 0.359205
O O14 0.232267 0.205122 0.468648
O O15 0.500000 0.863451 0.683627
O O16 0.735961 0.002182 0.611918
O O17 0.500000 0.062846 0.487578
#
# Coordination Sequence:
#
# PCOD9337911 Si02
#       8
#     2   4   2   4   4   4   4   2
#     4  10  22  37  59  81 112 150 187 250 295 335
#     4   9  14  24  47  77 101 128 170 225 273 313
#     4  10  18  34  54  77 103 135 188 237 287 327
#     4   9  17  31  54  82 108 141 188 233 282 335
#     4  12  23  36  58  89 124 157 192 242 296 352
#     4  10  17  31  53  81 114 150 189 231 286 341
#     4  10  19  34  60  89 123 155 190 239 296 352
#     4  12  24  39  57  86 117 147 203 241 292 362
#
# _framework density 23.914135000000002
#
# number of rings (size 3 to 8) (size 9 to 14) (size 15 to 20)
#    0.000    1.846    4.615    0.923    0.000    2.462 
#    0.000    0.000    3.385    0.000    0.000    0.000 
#    0.000    0.000    0.000    0.000    0.000    0.000 
#
# Total GULP energy -144951.561960 kJ/mol
# GULP energy per Si atom -5575.060075 kJ/mol
# Density = 2.385971 g / cm^3
# Si number density = 23.914135 Si / 1000 Ang^3
#
#
#
# Elastic Constant Matrix: (Units=GPa)
#
#
# Indices 1 2 3 4 5 6 
#
# 1 251.4740 32.0303 12.0770 0.0000 0.0000 0.0000
# 2 32.0303 58.4121 39.2297 0.0000 0.0000 0.0000
# 3 12.0770 39.2297 70.3614 0.0000 0.0000 0.0000
# 4 0.0000 0.0000 0.0000 33.4925 0.0000 0.0000
# 5 0.0000 0.0000 0.0000 0.0000 8.6203 0.0000
# 6 0.0000 0.0000 0.0000 0.0000 0.0000 32.4995
#
#
#
# Elastic Compliance Matrix: (Units=1/GPa)
#
#
# Indices 1 2 3 4 5 6 
#
# 1 0.004312 -0.002986 0.000924 0.000000 0.000000 0.000000
# 2 -0.002986 0.029434 -0.015899 0.000000 0.000000 0.000000
# 3 0.000924 -0.015899 0.022918 0.000000 0.000000 0.000000
# 4 0.000000 0.000000 0.000000 0.029857 0.000000 0.000000
# 5 0.000000 0.000000 0.000000 0.000000 0.116006 0.000000
# 6 0.000000 0.000000 0.000000 0.000000 0.000000 0.030770
#
#
# Mechanical properties :
#
#
# Convention : Reuss Voigt Hill
#
# Bulk Modulus (GPa) = 48.20391 60.76905 54.48648
# Shear Modulus (GPa) = 18.10727 34.71650 26.41188
#
# Velocity S-wave (km/s) = 2.75467 3.81427 3.32693
# Velocity P-wave (km/s) = 5.50622 6.69811 6.13120
#
# Compressibility (1/GPa) = 0.02074520
#
# Stress axis : x y z
#
# Youngs Moduli (GPa) = 231.88780 33.97381 43.63399
#
# Poissons Ratio (x) = 0.10143 -0.04033
# Poissons Ratio (y) = 0.69231 0.69372
# Poissons Ratio (z) = -0.21435 0.54014
#
# Static dielectric constant tensor:
#      x y z
#    x 2.078860 0.000000 0.000000 
#    y 0.000000 1.942960 0.000000 
#    z 0.000000 0.000000 1.957440 
# 
# From -- ./inp_files/4077.got.cif
#   From: 2010.05.17/outbox.cif.g08.bks.cpg/sg26_3_cif.got.tgz:4077.got - 2010.06.04 01:07:29.
