data_PCOD9337375
_publ_section_title
;
Structure prediction by ZEFSAII (Michael W. Deem and Ramdas Pophale) SiO2 
 PCOD9337375
Probable space group: P M M 2
;
_chemical_formula_sum "Si O2"
_cell_formula_units_Z 32
_cell_length_a 21.645374
_cell_length_b 9.437963
_cell_length_c 7.421542
_cell_angle_alpha 90.000000
_cell_angle_beta 90.000000
_cell_angle_gamma 90.000000
_cell_volume 1516.133745
_symmetry_space_group_name_H-M "P M M 2"
_symmetry_group_IT_number 25
_symmetry_cell_setting 'orthorhombic'
loop_
_space_group_symop_operation_xyz
x,y,z
-x,-y,z
-x,y,z
x,-y,z
loop_
_atom_site_type_symbol
_atom_site_label
_atom_site_fract_x
_atom_site_fract_y
_atom_site_fract_z
Si Si1 0.066588 0.331207 0.729060
Si Si2 0.567810 0.663607 0.630351
Si Si3 0.188645 0.662139 0.140643
Si Si4 0.687468 0.160242 0.207419
Si Si5 0.198531 0.341774 0.707656
Si Si6 0.069108 0.169363 0.109565
Si Si7 0.569672 0.663998 0.190995
Si Si8 0.317049 0.842512 0.636868
O O1 0.069414 0.500000 0.779247
O O2 0.131121 0.303208 0.629593
O O3 0.066163 0.232852 0.906242
O O4 0.000000 0.310348 0.636625
O O5 0.500000 0.717072 0.683850
O O6 0.573304 0.500000 0.684656
O O7 0.569466 0.665128 0.410969
O O8 0.624843 0.752210 0.701919
O O9 0.188572 0.500000 0.208176
O O10 0.188764 0.654611 0.922828
O O11 0.127014 0.747958 0.194853
O O12 0.251191 0.745613 0.186056
O O13 0.626557 0.238339 0.132065
O O14 0.676776 0.149403 0.421350
O O15 0.696040 0.000000 0.138474
O O16 0.216411 0.500000 0.647546
O O17 0.252675 0.234009 0.671302
O O18 0.000000 0.194519 0.186712
O O19 0.079857 0.000000 0.106616
O O20 0.500000 0.706561 0.135247
O O21 0.579545 0.500000 0.137517
O O22 0.317357 0.000000 0.711688
#
# Coordination Sequence:
#
# PCOD9337375 Si02
#       8
#     4   4   4   4   4   4   4   4
#     4   8  14  26  44  66  91 118 152 194 233 270
#     4   8  14  26  45  67  90 118 153 192 231 270
#     4  10  20  33  50  71  94 124 161 197 234 276
#     4  10  20  32  47  70  98 126 157 193 235 281
#     4   9  18  31  48  70  94 122 156 193 233 276
#     4   9  16  26  43  68  95 121 150 188 234 279
#     4   8  14  26  45  68  92 119 153 191 230 274
#     4  10  20  31  46  70  98 127 156 188 230 280
#
# _framework density 21.106316
#
# number of rings (size 3 to 8) (size 9 to 14) (size 15 to 20)
#    0.000    3.000    0.000    3.000    0.000    5.250 
#    0.000    2.500    0.000    1.500    0.000    8.750 
#    0.000    0.000    0.000    0.000    0.000    0.000 
#
# Total GULP energy -178427.522066 kJ/mol
# GULP energy per Si atom -5575.860065 kJ/mol
# Density = 2.105828 g / cm^3
# Si number density = 21.106316 Si / 1000 Ang^3
#
#
#
# Elastic Constant Matrix: (Units=GPa)
#
#
# Indices 1 2 3 4 5 6 
#
# 1 233.8479 133.3733 -2.1353 0.0000 0.0000 0.0000
# 2 133.3733 147.0040 7.2640 0.0000 0.0000 0.0000
# 3 -2.1353 7.2640 54.3339 0.0000 0.0000 0.0000
# 4 0.0000 0.0000 0.0000 8.9143 0.0000 0.0000
# 5 0.0000 0.0000 0.0000 0.0000 17.6651 0.0000
# 6 0.0000 0.0000 0.0000 0.0000 0.0000 21.8608
#
#
#
# Elastic Compliance Matrix: (Units=1/GPa)
#
#
# Indices 1 2 3 4 5 6 
#
# 1 0.008974 -0.008214 0.001451 0.000000 0.000000 0.000000
# 2 -0.008214 0.014366 -0.002243 0.000000 0.000000 0.000000
# 3 0.001451 -0.002243 0.018762 0.000000 0.000000 0.000000
# 4 0.000000 0.000000 0.000000 0.112179 0.000000 0.000000
# 5 0.000000 0.000000 0.000000 0.000000 0.056609 0.000000
# 6 0.000000 0.000000 0.000000 0.000000 0.000000 0.045744
#
#
# Mechanical properties :
#
#
# Convention : Reuss Voigt Hill
#
# Bulk Modulus (GPa) = 41.51314 79.13220 60.32267
# Shear Modulus (GPa) = 17.68814 29.46696 23.57755
#
# Velocity S-wave (km/s) = 2.89805 3.74052 3.34591
# Velocity P-wave (km/s) = 5.55963 7.49860 6.60070
#
# Compressibility (1/GPa) = 0.02408876
#
# Stress axis : x y z
#
# Youngs Moduli (GPa) = 111.43071 69.61102 53.30018
#
# Poissons Ratio (x) = 0.57177 -0.07733
# Poissons Ratio (y) = 0.91527 0.11957
# Poissons Ratio (z) = -0.16166 0.15616
#
# Static dielectric constant tensor:
#      x y z
#    x 1.780410 0.000000 0.000000 
#    y 0.000000 1.729790 0.000000 
#    z 0.000000 0.000000 1.832950 
# 
# From -- ./inp_files/5064.got.cif
#   From: 2010.05.17/outbox.cif.g08.bks.cpg/sg25_3_cif.got.tgz:5064.got - 2010.06.04 01:04:00.
