data_PCOD9337131
_publ_section_title
;
Structure prediction by ZEFSAII (Michael W. Deem and Ramdas Pophale) SiO2 
 PCOD9337131
Probable space group: P M M 2
;
_chemical_formula_sum "Si O2"
_cell_formula_units_Z 32
_cell_length_a 14.608952
_cell_length_b 8.853030
_cell_length_c 16.107179
_cell_angle_alpha 90.000000
_cell_angle_beta 90.000000
_cell_angle_gamma 90.000000
_cell_volume 2083.197679
_symmetry_space_group_name_H-M "P M M 2"
_symmetry_group_IT_number 25
_symmetry_cell_setting 'orthorhombic'
loop_
_space_group_symop_operation_xyz
x,y,z
-x,-y,z
-x,y,z
x,-y,z
loop_
_atom_site_type_symbol
_atom_site_label
_atom_site_fract_x
_atom_site_fract_y
_atom_site_fract_z
Si Si1 0.605825 0.184495 0.897340
Si Si2 0.611212 0.174607 0.079761
Si Si3 0.716160 0.681429 0.414478
Si Si4 0.605667 0.681560 0.252020
Si Si5 0.607371 0.181841 0.569749
Si Si6 0.718909 0.182325 0.736351
Si Si7 0.104807 0.819573 0.480768
Si Si8 0.104595 0.680142 0.664084
O O1 0.500000 0.231253 0.884846
O O2 0.668276 0.230936 0.820497
O O3 0.605072 0.000000 0.899378
O O4 0.639028 0.233946 0.988804
O O5 0.500000 0.177733 0.077357
O O6 0.639062 0.261764 0.162438
O O7 0.639295 0.000000 0.087350
O O8 0.718646 0.500000 0.416777
O O9 0.666967 0.731078 0.329463
O O10 0.657801 0.740739 0.492735
O O11 0.817892 0.746624 0.423866
O O12 0.500000 0.732935 0.263556
O O13 0.604810 0.500000 0.251374
O O14 0.500000 0.221085 0.572276
O O15 0.657340 0.222322 0.655963
O O16 0.614590 0.000000 0.560454
O O17 0.818073 0.254400 0.723716
O O18 0.726822 0.000000 0.737449
O O19 0.118095 0.755074 0.573657
O O20 0.000000 0.785003 0.456125
O O21 0.116039 0.000000 0.483229
O O22 0.114333 0.500000 0.655947
O O23 0.000000 0.713240 0.690174
#
# Coordination Sequence:
#
# PCOD9337131 Si02
#       8
#     4   4   4   4   4   4   4   4
#     4   8  14  26  45  69  96 123 152 187 227 271
#     4   8  14  26  45  67  89 117 154 193 229 265
#     4  11  21  32  47  67  93 125 157 190 231 276
#     4   9  18  31  45  64  93 126 156 187 226 270
#     4  10  20  31  43  63  93 128 162 190 219 262
#     4  10  18  29  47  69  93 123 156 190 228 271
#     4  10  20  34  51  69  89 115 151 195 238 278
#     4  10  20  33  48  66  90 120 153 192 236 276
#
# _framework density 15.361000000000001
#
# number of rings (size 3 to 8) (size 9 to 14) (size 15 to 20)
#    0.000    2.500    1.250    2.625    0.000    4.750 
#    0.000    1.875    0.000    1.875    0.000    0.875 
#    0.000    1.000    0.000    0.000    0.000    0.000 
#
# Total GULP energy -178379.691819 kJ/mol
# GULP energy per Si atom -5574.365369 kJ/mol
# Density = 1.532604 g / cm^3
# Si number density = 15.361000 Si / 1000 Ang^3
#
#
#
# Elastic Constant Matrix: (Units=GPa)
#
#
# Indices 1 2 3 4 5 6 
#
# 1 106.9189 33.6445 75.7167 0.0000 0.0000 0.0000
# 2 33.6445 22.6637 35.6336 0.0000 0.0000 0.0000
# 3 75.7167 35.6336 146.9193 0.0000 0.0000 0.0000
# 4 0.0000 0.0000 0.0000 194.8425 0.0000 0.0000
# 5 0.0000 0.0000 0.0000 0.0000 9.7680 0.0000
# 6 0.0000 0.0000 0.0000 0.0000 0.0000 21.4689
#
#
#
# Elastic Compliance Matrix: (Units=1/GPa)
#
#
# Indices 1 2 3 4 5 6 
#
# 1 0.019514 -0.021266 -0.004899 0.000000 0.000000 0.000000
# 2 -0.021266 0.094497 -0.011959 0.000000 0.000000 0.000000
# 3 -0.004899 -0.011959 0.012232 0.000000 0.000000 0.000000
# 4 0.000000 0.000000 0.000000 0.005132 0.000000 0.000000
# 5 0.000000 0.000000 0.000000 0.000000 0.102375 0.000000
# 6 0.000000 0.000000 0.000000 0.000000 0.000000 0.046579
#
#
# Mechanical properties :
#
#
# Convention : Reuss Voigt Hill
#
# Bulk Modulus (GPa) = 20.00258 62.94349 41.47303
# Shear Modulus (GPa) = 13.39611 53.98302 33.68957
#
# Velocity S-wave (km/s) = 2.95631 5.93458 4.68823
# Velocity P-wave (km/s) = 4.97021 9.38211 7.50756
#
# Compressibility (1/GPa) = 0.04999354
#
# Stress axis : x y z
#
# Youngs Moduli (GPa) = 51.24492 10.58237 81.75448
#
# Poissons Ratio (x) = 0.22505 0.40051
# Poissons Ratio (y) = 1.08980 0.97772
# Poissons Ratio (z) = 0.25104 0.12656
#
# Static dielectric constant tensor:
#      x y z
#    x 1.506360 0.000000 0.000000 
#    y 0.000000 1.516260 0.000000 
#    z 0.000000 0.000000 1.505360 
# 
# From -- ./inp_files/5690.got.cif
#   From: 2010.05.17/outbox.cif.g08.bks.cpg/sg25_3_cif.got.tgz:5690.got - 2010.06.04 01:04:00.
