data_PCOD9337423
_publ_section_title
;
Structure prediction by ZEFSAII (Michael W. Deem and Ramdas Pophale) SiO2 
 PCOD9337423
Probable space group: P M M 2
;
_chemical_formula_sum "Si O2"
_cell_formula_units_Z 28
_cell_length_a 7.460341
_cell_length_b 9.563287
_cell_length_c 18.948838
_cell_angle_alpha 90.000000
_cell_angle_beta 90.000000
_cell_angle_gamma 90.000000
_cell_volume 1351.912087
_symmetry_space_group_name_H-M "P M M 2"
_symmetry_group_IT_number 25
_symmetry_cell_setting 'orthorhombic'
loop_
_space_group_symop_operation_xyz
x,y,z
-x,-y,z
-x,y,z
x,-y,z
loop_
_atom_site_type_symbol
_atom_site_label
_atom_site_fract_x
_atom_site_fract_y
_atom_site_fract_z
Si Si1 0.214939 0.341251 0.995870
Si Si2 0.790991 0.170066 0.283541
Si Si3 0.785019 0.340953 0.569364
Si Si4 0.780291 0.837722 0.129016
Si Si5 0.713948 0.659741 0.727163
Si Si6 0.714633 0.841635 0.857417
Si Si7 0.219760 0.161961 0.436905
O O1 0.283072 0.500000 0.989611
O O2 0.252038 0.249870 0.926796
O O3 0.000000 0.349180 0.002493
O O4 0.280279 0.260248 0.065463
O O5 0.717276 0.209831 0.206891
O O6 0.717689 0.214511 0.359725
O O7 0.000000 0.211742 0.283067
O O8 0.785580 0.000000 0.284447
O O9 0.716370 0.500000 0.566078
O O10 0.746015 0.286480 0.647901
O O11 0.719120 0.250269 0.503858
O O12 0.000000 0.346087 0.563130
O O13 0.000000 0.836955 0.130510
O O14 0.728447 0.000000 0.117644
O O15 0.500000 0.650922 0.736267
O O16 0.784532 0.500000 0.732022
O O17 0.784318 0.759403 0.788696
O O18 0.500000 0.851491 0.849693
O O19 0.784079 0.000000 0.863942
O O20 0.000000 0.164683 0.435245
O O21 0.271301 0.000000 0.444774
#
# Coordination Sequence:
#
# PCOD9337423 Si02
#       7
#     4   4   4   4   4   4   4
#     4  10  20  32  47  70  99 127 154 186 227 275
#     4   7  10  18  34  56  82 114 149 181 216 259
#     4   9  17  28  42  63  90 115 141 178 222 263
#     4   8  13  23  40  61  87 119 152 186 224 264
#     4   9  18  33  50  65  85 116 149 179 218 271
#     4  10  21  36  53  72  92 116 151 193 233 275
#     4   8  13  22  37  58  85 116 148 180 216 260
#
# _framework density 20.711406
#
# number of rings (size 3 to 8) (size 9 to 14) (size 15 to 20)
#    0.000    3.286    0.000    2.571    0.000    2.857 
#    0.000    2.143    0.000    4.286    0.000    1.000 
#    0.000    5.714    0.000    0.000    0.000    0.000 
#
# Total GULP energy -156109.005181 kJ/mol
# GULP energy per Si atom -5575.321614 kJ/mol
# Density = 2.066427 g / cm^3
# Si number density = 20.711406 Si / 1000 Ang^3
#
#
#
# Elastic Constant Matrix: (Units=GPa)
#
#
# Indices 1 2 3 4 5 6 
#
# 1 61.2862 5.3301 2.5430 0.0000 0.0000 0.0000
# 2 5.3301 116.0567 122.7094 0.0000 0.0000 0.0000
# 3 2.5430 122.7094 257.9305 0.0000 0.0000 0.0000
# 4 0.0000 0.0000 0.0000 68.7477 0.0000 0.0000
# 5 0.0000 0.0000 0.0000 0.0000 38.0940 0.0000
# 6 0.0000 0.0000 0.0000 0.0000 0.0000 2.8811
#
#
#
# Elastic Compliance Matrix: (Units=1/GPa)
#
#
# Indices 1 2 3 4 5 6 
#
# 1 0.016402 -0.001172 0.000396 0.000000 0.000000 0.000000
# 2 -0.001172 0.017421 -0.008277 0.000000 0.000000 0.000000
# 3 0.000396 -0.008277 0.007811 0.000000 0.000000 0.000000
# 4 0.000000 0.000000 0.000000 0.014546 0.000000 0.000000
# 5 0.000000 0.000000 0.000000 0.000000 0.026251 0.000000
# 6 0.000000 0.000000 0.000000 0.000000 0.000000 0.347093
#
#
# Mechanical properties :
#
#
# Convention : Reuss Voigt Hill
#
# Bulk Modulus (GPa) = 42.50034 77.38204 59.94119
# Shear Modulus (GPa) = 10.97762 42.25729 26.61745
#
# Velocity S-wave (km/s) = 2.30473 4.52186 3.58880
# Velocity P-wave (km/s) = 5.25806 8.04401 6.79534
#
# Compressibility (1/GPa) = 0.02352922
#
# Stress axis : x y z
#
# Youngs Moduli (GPa) = 60.96679 57.40111 128.03043
#
# Poissons Ratio (x) = 0.06726 -0.05066
# Poissons Ratio (y) = 0.07143 1.05965
# Poissons Ratio (z) = -0.02413 0.47508
#
# Static dielectric constant tensor:
#      x y z
#    x 1.800140 0.000000 0.000000 
#    y 0.000000 1.716230 0.000000 
#    z 0.000000 0.000000 1.743980 
# 
# From -- ./inp_files/6326.got.cif
#   From: 2010.05.17/outbox.cif.g08.bks.cpg/sg25_4_cif.got.tgz:6326.got - 2010.06.04 01:04:00.
