data_PCOD9337115
_publ_section_title
;
Structure prediction by ZEFSAII (Michael W. Deem and Ramdas Pophale) SiO2 
 PCOD9337115
Probable space group: P M M 2
;
_chemical_formula_sum "Si O2"
_cell_formula_units_Z 32
_cell_length_a 14.599603
_cell_length_b 7.426900
_cell_length_c 14.501664
_cell_angle_alpha 90.000000
_cell_angle_beta 90.000000
_cell_angle_gamma 90.000000
_cell_volume 1572.412404
_symmetry_space_group_name_H-M "P M M 2"
_symmetry_group_IT_number 25
_symmetry_cell_setting 'orthorhombic'
loop_
_space_group_symop_operation_xyz
x,y,z
-x,-y,z
-x,y,z
x,-y,z
loop_
_atom_site_type_symbol
_atom_site_label
_atom_site_fract_x
_atom_site_fract_y
_atom_site_fract_z
Si Si1 0.257059 0.215721 0.759730
Si Si2 0.602459 0.782505 0.401410
Si Si3 0.396932 0.217070 0.912022
Si Si4 0.104064 0.714818 0.619849
Si Si5 0.108192 0.281390 0.415444
Si Si6 0.603039 0.713511 0.128930
Si Si7 0.600284 0.218976 0.612341
Si Si8 0.244494 0.700940 0.263307
O O1 0.309647 0.280907 0.851836
O O2 0.158238 0.250867 0.714721
O O3 0.322001 0.285179 0.678240
O O4 0.261761 0.000000 0.765343
O O5 0.500000 0.737024 0.371030
O O6 0.612019 0.728063 0.507220
O O7 0.677780 0.691356 0.341010
O O8 0.612139 0.000000 0.395748
O O9 0.500000 0.278801 0.882677
O O10 0.399096 0.000000 0.904531
O O11 0.386799 0.263374 0.019395
O O12 0.100777 0.500000 0.610264
O O13 0.141546 0.779227 0.518560
O O14 0.000000 0.782044 0.627029
O O15 0.117610 0.500000 0.412746
O O16 0.162097 0.215071 0.324232
O O17 0.000000 0.239921 0.410684
O O18 0.500000 0.784567 0.152929
O O19 0.601456 0.500000 0.149496
O O20 0.693619 0.786357 0.181351
O O21 0.500000 0.273967 0.644670
O O22 0.602061 0.000000 0.613755
O O23 0.215045 0.500000 0.232740
#
# Coordination Sequence:
#
# PCOD9337115 Si02
#       8
#     4   4   4   4   4   4   4   4
#     4  10  18  28  47  71  90 113 150 193 230 264
#     4   9  17  27  39  59  89 122 149 173 211 267
#     4   9  18  32  49  69  92 120 155 190 225 270
#     4   9  18  32  48  67  94 126 155 184 223 272
#     4   8  15  29  48  69  93 121 153 188 226 269
#     4   9  18  31  45  64  91 120 151 190 234 274
#     4   8  14  25  40  60  89 120 145 173 215 268
#     4  10  18  28  46  68  88 115 152 192 230 265
#
# _framework density 20.350894
#
# number of rings (size 3 to 8) (size 9 to 14) (size 15 to 20)
#    0.000    3.000    0.000    3.000    0.000    3.500 
#    0.000    1.250    0.000    3.750    0.000    1.750 
#    0.000    0.000    0.000    0.000    0.000    0.000 
#
# Total GULP energy -178167.121132 kJ/mol
# GULP energy per Si atom -5567.722535 kJ/mol
# Density = 2.030457 g / cm^3
# Si number density = 20.350894 Si / 1000 Ang^3
#
#
#
# Elastic Constant Matrix: (Units=GPa)
#
#
# Indices 1 2 3 4 5 6 
#
# 1 90.3483 2.7145 64.0862 0.0000 0.0000 0.0000
# 2 2.7145 64.2853 -1.1301 0.0000 0.0000 0.0000
# 3 64.0862 -1.1301 111.7141 0.0000 0.0000 0.0000
# 4 0.0000 0.0000 0.0000 6.9424 0.0000 0.0000
# 5 0.0000 0.0000 0.0000 0.0000 40.7803 0.0000
# 6 0.0000 0.0000 0.0000 0.0000 0.0000 -11.0638
#
#
#
# Elastic Compliance Matrix: (Units=1/GPa)
#
#
# Indices 1 2 3 4 5 6 
#
# 1 0.018724 -0.000980 -0.010751 0.000000 0.000000 0.000000
# 2 -0.000980 0.015610 0.000720 0.000000 0.000000 0.000000
# 3 -0.010751 0.000720 0.015126 0.000000 0.000000 0.000000
# 4 0.000000 0.000000 0.000000 0.144043 0.000000 0.000000
# 5 0.000000 0.000000 0.000000 0.000000 0.024522 0.000000
# 6 0.000000 0.000000 0.000000 0.000000 0.000000 -0.090385
#
#
# Mechanical properties :
#
#
# Convention : Reuss Voigt Hill
#
# Bulk Modulus (GPa) = 36.44577 44.18767 40.31672
# Shear Modulus (GPa) = 31.48490 20.71026 26.09758
#
# Velocity S-wave (km/s) = 3.93759 3.19354 3.58492
# Velocity P-wave (km/s) = 6.21453 5.94628 6.08188
#
# Compressibility (1/GPa) = 0.02743802
#
# Stress axis : x y z
#
# Youngs Moduli (GPa) = 53.40847 64.06287 66.11073
#
# Poissons Ratio (x) = 0.06276 0.71075
# Poissons Ratio (y) = 0.05232 -0.04759
# Poissons Ratio (z) = 0.57419 -0.04612
#
# Static dielectric constant tensor:
#      x y z
#    x 1.764210 0.000000 0.000000 
#    y 0.000000 1.826350 0.000000 
#    z 0.000000 0.000000 1.746640 
# 
# From -- ./inp_files/4705.got.cif
#   From: 2010.05.17/outbox.cif.g08.bks.cpg/sg25_3_cif.got.tgz:4705.got - 2010.06.04 01:04:00.
