data_PCOD9337633
_publ_section_title
;
Structure prediction by ZEFSAII (Michael W. Deem and Ramdas Pophale) SiO2 
 PCOD9337633
Probable space group: P M M 2
;
_chemical_formula_sum "Si O2"
_cell_formula_units_Z 24
_cell_length_a 14.305308
_cell_length_b 8.786395
_cell_length_c 10.474328
_cell_angle_alpha 90.000000
_cell_angle_beta 90.000000
_cell_angle_gamma 90.000000
_cell_volume 1316.540143
_symmetry_space_group_name_H-M "P M M 2"
_symmetry_group_IT_number 25
_symmetry_cell_setting 'orthorhombic'
loop_
_space_group_symop_operation_xyz
x,y,z
-x,-y,z
-x,y,z
x,-y,z
loop_
_atom_site_type_symbol
_atom_site_label
_atom_site_fract_x
_atom_site_fract_y
_atom_site_fract_z
Si Si1 0.893967 0.182164 0.789950
Si Si2 0.611717 0.679272 0.664079
Si Si3 0.107640 0.318557 0.508863
Si Si4 0.291343 0.181230 0.414043
Si Si5 0.703754 0.181849 0.915391
Si Si6 0.390143 0.682165 0.166028
O O1 0.877228 0.265276 0.655271
O O2 0.812527 0.220915 0.889025
O O3 0.000000 0.216920 0.831901
O O4 0.888068 0.000000 0.766347
O O5 0.500000 0.694113 0.656745
O O6 0.634844 0.500000 0.673307
O O7 0.657875 0.748058 0.537675
O O8 0.649705 0.764679 0.788564
O O9 0.119432 0.500000 0.501136
O O10 0.184238 0.236483 0.422709
O O11 0.000000 0.280683 0.476731
O O12 0.341714 0.241813 0.287846
O O13 0.295900 0.000000 0.420027
O O14 0.695817 0.000000 0.929904
O O15 0.660415 0.262651 0.037775
O O16 0.500000 0.722813 0.160981
O O17 0.383411 0.500000 0.177115
#
# Coordination Sequence:
#
# PCOD9337633 Si02
#       6
#     4   4   4   4   4   4
#     4   9  18  34  57  87 122 157 194 239 294 352
#     4  11  23  38  58  85 118 155 197 248 301 355
#     4  10  20  35  59  90 122 157 197 242 294 353
#     4  12  24  39  61  89 119 155 198 249 304 357
#     4  11  22  37  60  90 120 156 199 247 300 354
#     4  11  25  44  63  83 115 161 205 250 306 363
#
# _framework density 18.229600000000001
#
# number of rings (size 3 to 8) (size 9 to 14) (size 15 to 20)
#    0.000    1.333    1.667    4.500    0.000    8.333 
#    0.000    0.833    0.000    3.000    0.000    0.000 
#    0.000    0.000    0.000    0.000    0.000    0.000 
#
# Total GULP energy -134164.247001 kJ/mol
# GULP energy per Si atom -5590.176958 kJ/mol
# Density = 1.818811 g / cm^3
# Si number density = 18.229600 Si / 1000 Ang^3
#
#
#
# Elastic Constant Matrix: (Units=GPa)
#
#
# Indices 1 2 3 4 5 6 
#
# 1 126.8717 46.2233 44.9353 0.0000 0.0000 0.0000
# 2 46.2233 53.1000 12.0397 0.0000 0.0000 0.0000
# 3 44.9353 12.0397 85.0643 0.0000 0.0000 0.0000
# 4 0.0000 0.0000 0.0000 34.3782 0.0000 0.0000
# 5 0.0000 0.0000 0.0000 0.0000 30.9306 0.0000
# 6 0.0000 0.0000 0.0000 0.0000 0.0000 33.5765
#
#
#
# Elastic Compliance Matrix: (Units=1/GPa)
#
#
# Indices 1 2 3 4 5 6 
#
# 1 0.013847 -0.010740 -0.005795 0.000000 0.000000 0.000000
# 2 -0.010740 0.027787 0.001741 0.000000 0.000000 0.000000
# 3 -0.005795 0.001741 0.014571 0.000000 0.000000 0.000000
# 4 0.000000 0.000000 0.000000 0.029088 0.000000 0.000000
# 5 0.000000 0.000000 0.000000 0.000000 0.032330 0.000000
# 6 0.000000 0.000000 0.000000 0.000000 0.000000 0.029783
#
#
# Mechanical properties :
#
#
# Convention : Reuss Voigt Hill
#
# Bulk Modulus (GPa) = 37.57095 52.38138 44.97617
# Shear Modulus (GPa) = 26.90097 30.56623 28.73360
#
# Velocity S-wave (km/s) = 3.84562 4.09924 3.97445
# Velocity P-wave (km/s) = 6.35397 7.15553 6.76663
#
# Compressibility (1/GPa) = 0.02661631
#
# Stress axis : x y z
#
# Youngs Moduli (GPa) = 72.21612 35.98806 68.63170
#
# Poissons Ratio (x) = 0.38652 0.39770
# Poissons Ratio (y) = 0.77561 -0.11946
# Poissons Ratio (z) = 0.41847 -0.06264
#
# Static dielectric constant tensor:
#      x y z
#    x 1.645370 0.000000 0.000000 
#    y 0.000000 1.608570 0.000000 
#    z 0.000000 0.000000 1.573950 
# 
# From -- ./inp_files/1953.got.cif
#   From: 2010.05.17/outbox.cif.g08.bks.cpg/sg25_1_cif.got.tgz:1953.got - 2010.06.04 01:04:00.
