data_PCOD9337792
_publ_section_title
;
Structure prediction by ZEFSAII (Michael W. Deem and Ramdas Pophale) SiO2 
 PCOD9337792
Probable space group: P M M 2
;
_chemical_formula_sum "Si O2"
_cell_formula_units_Z 24
_cell_length_a 8.868180
_cell_length_b 11.967304
_cell_length_c 12.855190
_cell_angle_alpha 90.000000
_cell_angle_beta 90.000000
_cell_angle_gamma 90.000000
_cell_volume 1364.298252
_symmetry_space_group_name_H-M "P M M 2"
_symmetry_group_IT_number 25
_symmetry_cell_setting 'orthorhombic'
loop_
_space_group_symop_operation_xyz
x,y,z
-x,-y,z
-x,y,z
x,-y,z
loop_
_atom_site_type_symbol
_atom_site_label
_atom_site_fract_x
_atom_site_fract_y
_atom_site_fract_z
Si Si1 0.819115 0.129422 0.601540
Si Si2 0.820996 0.867271 0.217396
Si Si3 0.679293 0.730676 0.027835
Si Si4 0.680359 0.500000 0.328153
Si Si5 0.179919 0.500000 0.098165
Si Si6 0.320061 0.742686 0.413458
Si Si7 0.819546 0.869732 0.844858
O O1 0.736924 0.212526 0.523777
O O2 0.785752 0.149703 0.723143
O O3 0.000000 0.138739 0.588390
O O4 0.778421 0.000000 0.577922
O O5 0.736845 0.808110 0.122322
O O6 0.760022 0.815008 0.323983
O O7 0.000000 0.846369 0.208131
O O8 0.796389 0.000000 0.215739
O O9 0.500000 0.719865 0.032388
O O10 0.755148 0.610516 0.044200
O O11 0.731966 0.788971 0.921679
O O12 0.500000 0.500000 0.306829
O O13 0.764619 0.500000 0.217962
O O14 0.715860 0.387078 0.390757
O O15 0.000000 0.500000 0.095042
O O16 0.500000 0.756240 0.405252
O O17 0.000000 0.855865 0.859336
O O18 0.784816 0.000000 0.868016
#
# Coordination Sequence:
#
# PCOD9337792 Si02
#       7
#     4   4   4   2   2   4   4
#     4   9  19  37  60  85 116 153 193 239 288 341
#     4  11  23  37  55  82 116 151 190 237 287 346
#     4  12  24  38  58  86 119 150 188 240 294 346
#     4  10  22  40  57  80 115 154 191 239 293 341
#     4  12  24  40  63  84 109 154 201 237 283 345
#     4  11  22  36  57  83 115 151 192 241 294 348
#     4   9  19  38  62  86 115 154 198 242 288 342
#
# _framework density 17.591460999999999
#
# number of rings (size 3 to 8) (size 9 to 14) (size 15 to 20)
#    0.000    1.500    1.667    5.250    0.000    7.333 
#    0.000    2.500    0.000    4.000    0.000    0.000 
#    0.000    0.000    0.000    0.000    0.000    0.000 
#
# Total GULP energy -134144.817822 kJ/mol
# GULP energy per Si atom -5589.367409 kJ/mol
# Density = 1.755142 g / cm^3
# Si number density = 17.591461 Si / 1000 Ang^3
#
#
#
# Elastic Constant Matrix: (Units=GPa)
#
#
# Indices 1 2 3 4 5 6 
#
# 1 101.1185 93.3837 68.0989 0.0000 0.0000 0.0000
# 2 93.3837 146.1273 88.2237 0.0000 0.0000 0.0000
# 3 68.0989 88.2237 101.4774 0.0000 0.0000 0.0000
# 4 0.0000 0.0000 0.0000 -238.5407 0.0000 0.0000
# 5 0.0000 0.0000 0.0000 0.0000 58.5781 0.0000
# 6 0.0000 0.0000 0.0000 0.0000 0.0000 32.8862
#
#
#
# Elastic Compliance Matrix: (Units=1/GPa)
#
#
# Indices 1 2 3 4 5 6 
#
# 1 0.025912 -0.012757 -0.006298 0.000000 0.000000 0.000000
# 2 -0.012757 0.020684 -0.009422 0.000000 0.000000 0.000000
# 3 -0.006298 -0.009422 0.022272 0.000000 0.000000 0.000000
# 4 0.000000 0.000000 0.000000 -0.004192 0.000000 0.000000
# 5 0.000000 0.000000 0.000000 0.000000 0.017071 0.000000
# 6 0.000000 0.000000 0.000000 0.000000 0.000000 0.030408
#
#
# Mechanical properties :
#
#
# Convention : Reuss Voigt Hill
#
# Bulk Modulus (GPa) = 83.93031 94.23730 89.08380
# Shear Modulus (GPa) = 28.88840 -22.81414 3.03713
#
# Velocity S-wave (km/s) = 4.05678 -3.60514 1.31538
# Velocity P-wave (km/s) = 8.35211 6.02966 7.28404
#
# Compressibility (1/GPa) = 0.01191465
#
# Stress axis : x y z
#
# Youngs Moduli (GPa) = 38.59245 48.34678 44.89881
#
# Poissons Ratio (x) = 0.61674 0.28279
# Poissons Ratio (y) = 0.49231 0.42303
# Poissons Ratio (z) = 0.24307 0.45551
#
# Static dielectric constant tensor:
#      x y z
#    x 1.587060 0.000000 0.000000 
#    y 0.000000 1.583650 0.000000 
#    z 0.000000 0.000000 1.575400 
# 
# From -- ./inp_files/3935.got.cif
#   From: 2010.05.17/outbox.cif.g08.bks.cpg/sg25_2_cif.got.tgz:3935.got - 2010.06.04 01:04:00.
