data_PCOD9337146
_publ_section_title
;
Structure prediction by ZEFSAII (Michael W. Deem and Ramdas Pophale) SiO2 
 PCOD9337146
Probable space group: P M M 2
;
_chemical_formula_sum "Si O2"
_cell_formula_units_Z 32
_cell_length_a 13.726295
_cell_length_b 18.896774
_cell_length_c 7.404919
_cell_angle_alpha 90.000000
_cell_angle_beta 90.000000
_cell_angle_gamma 90.000000
_cell_volume 1920.707843
_symmetry_space_group_name_H-M "P M M 2"
_symmetry_group_IT_number 25
_symmetry_cell_setting 'orthorhombic'
loop_
_space_group_symop_operation_xyz
x,y,z
-x,-y,z
-x,y,z
x,-y,z
loop_
_atom_site_type_symbol
_atom_site_label
_atom_site_fract_x
_atom_site_fract_y
_atom_site_fract_z
Si Si1 0.887731 0.836947 0.260750
Si Si2 0.116926 0.727987 0.580906
Si Si3 0.113145 0.578371 0.977242
Si Si4 0.615500 0.079947 0.690680
Si Si5 0.612655 0.187765 0.013393
Si Si6 0.303324 0.081280 0.295264
Si Si7 0.113363 0.424121 0.538181
Si Si8 0.198518 0.727272 0.982321
O O1 0.869862 0.792327 0.444200
O O2 0.808435 0.898821 0.253708
O O3 0.000000 0.859589 0.255072
O O4 0.865238 0.781824 0.099890
O O5 0.151438 0.653706 0.490169
O O6 0.169555 0.736639 0.772186
O O7 0.000000 0.720840 0.614710
O O8 0.144181 0.500000 0.039052
O O9 0.115048 0.576802 0.757757
O O10 0.173647 0.646596 0.033905
O O11 0.000000 0.588412 0.029204
O O12 0.500000 0.083441 0.648319
O O13 0.635932 0.138518 0.840260
O O14 0.674420 0.090074 0.506942
O O15 0.635001 0.000000 0.759224
O O16 0.500000 0.209226 0.006635
O O17 0.689927 0.251018 0.014751
O O18 0.632360 0.136739 0.183527
O O19 0.325606 0.000000 0.247677
O O20 0.157350 0.500000 0.481514
O O21 0.000000 0.425761 0.481990
#
# Coordination Sequence:
#
# PCOD9337146 Si02
#       8
#     4   4   4   4   4   4   4   4
#     4  10  20  31  44  65  90 118 154 186 216 265
#     4   9  16  27  44  64  89 121 150 178 217 262
#     4   8  13  23  42  66  89 116 150 183 217 259
#     4   9  17  30  49  71  92 113 142 183 228 272
#     4  10  20  32  48  70  92 115 147 188 231 272
#     4  10  20  33  49  67  89 118 148 182 227 273
#     4   7  10  18  34  57  84 113 143 173 207 247
#     4  10  18  30  47  65  91 122 151 186 226 266
#
# _framework density 16.660525
#
# number of rings (size 3 to 8) (size 9 to 14) (size 15 to 20)
#    0.000    2.875    0.000    4.125    0.000    1.500 
#    0.000    0.625    0.000    2.625    0.000    3.500 
#    0.000    0.000    0.000    7.750    0.000    0.375 
#
# Total GULP energy -178280.298078 kJ/mol
# GULP energy per Si atom -5571.259315 kJ/mol
# Density = 1.662260 g / cm^3
# Si number density = 16.660525 Si / 1000 Ang^3
#
#
#
# Elastic Constant Matrix: (Units=GPa)
#
#
# Indices 1 2 3 4 5 6 
#
# 1 56.5399 31.5878 9.1737 0.0000 0.0000 0.0000
# 2 31.5878 67.2385 5.6242 0.0000 0.0000 0.0000
# 3 9.1737 5.6242 45.8462 0.0000 0.0000 0.0000
# 4 0.0000 0.0000 0.0000 170.8291 0.0000 0.0000
# 5 0.0000 0.0000 0.0000 0.0000 13.2721 0.0000
# 6 0.0000 0.0000 0.0000 0.0000 0.0000 -26.7681
#
#
#
# Elastic Compliance Matrix: (Units=1/GPa)
#
#
# Indices 1 2 3 4 5 6 
#
# 1 0.024534 -0.011230 -0.003531 0.000000 0.000000 0.000000
# 2 -0.011230 0.020167 -0.000227 0.000000 0.000000 0.000000
# 3 -0.003531 -0.000227 0.022547 0.000000 0.000000 0.000000
# 4 0.000000 0.000000 0.000000 0.005854 0.000000 0.000000
# 5 0.000000 0.000000 0.000000 0.000000 0.075346 0.000000
# 6 0.000000 0.000000 0.000000 0.000000 0.000000 -0.037358
#
#
# Mechanical properties :
#
#
# Convention : Reuss Voigt Hill
#
# Bulk Modulus (GPa) = 26.83099 29.15512 27.99306
# Shear Modulus (GPa) = 32.57538 39.68255 36.12897
#
# Velocity S-wave (km/s) = 4.42661 4.88570 4.66181
# Velocity P-wave (km/s) = 6.50123 7.02597 6.76869
#
# Compressibility (1/GPa) = 0.03727033
#
# Stress axis : x y z
#
# Youngs Moduli (GPa) = 40.76012 49.58534 44.35270
#
# Poissons Ratio (x) = 0.55686 0.15663
# Poissons Ratio (y) = 0.45775 0.01006
# Poissons Ratio (z) = 0.14394 0.01125
#
# Static dielectric constant tensor:
#      x y z
#    x 1.538490 0.000000 0.000000 
#    y 0.000000 1.587640 0.000000 
#    z 0.000000 0.000000 1.586890 
# 
# From -- ./inp_files/2881.got.cif
#   From: 2010.05.17/outbox.cif.g08.bks.cpg/sg25_2_cif.got.tgz:2881.got - 2010.06.04 01:04:00.
