data_PCOD9337528
_publ_section_title
;
Structure prediction by ZEFSAII (Michael W. Deem and Ramdas Pophale) SiO2 
 PCOD9337528
Probable space group: P M M 2
;
_chemical_formula_sum "Si O2"
_cell_formula_units_Z 32
_cell_length_a 9.218541
_cell_length_b 15.768581
_cell_length_c 11.896216
_cell_angle_alpha 90.000000
_cell_angle_beta 90.000000
_cell_angle_gamma 90.000000
_cell_volume 1729.273340
_symmetry_space_group_name_H-M "P M M 2"
_symmetry_group_IT_number 25
_symmetry_cell_setting 'orthorhombic'
loop_
_space_group_symop_operation_xyz
x,y,z
-x,-y,z
-x,y,z
x,-y,z
loop_
_atom_site_type_symbol
_atom_site_label
_atom_site_fract_x
_atom_site_fract_y
_atom_site_fract_z
Si Si1 0.835910 0.904417 0.828090
Si Si2 0.328824 0.231914 0.687405
Si Si3 0.662898 0.324724 0.915917
Si Si4 0.173913 0.100468 0.275064
Si Si5 0.826303 0.748849 0.450335
Si Si6 0.328027 0.600950 0.314678
Si Si7 0.158403 0.600131 0.095871
Si Si8 0.668199 0.856527 0.043015
O O1 0.732904 0.851251 0.747837
O O2 0.000000 0.868803 0.831394
O O3 0.843311 0.000000 0.786876
O O4 0.767240 0.904044 0.952027
O O5 0.500000 0.225183 0.664670
O O6 0.310745 0.301845 0.786195
O O7 0.241427 0.245530 0.573955
O O8 0.500000 0.360144 0.926809
O O9 0.783781 0.381514 0.972414
O O10 0.667991 0.238656 0.991250
O O11 0.207601 0.166532 0.376117
O O12 0.261419 0.131259 0.164971
O O13 0.000000 0.106236 0.254140
O O14 0.205708 0.000000 0.297360
O O15 0.758603 0.665024 0.393709
O O16 0.000000 0.741934 0.455178
O O17 0.500000 0.612970 0.326093
O O18 0.297917 0.500000 0.333662
O O19 0.275215 0.625368 0.189372
O O20 0.145372 0.500000 0.108950
O O21 0.000000 0.639866 0.116451
O O22 0.500000 0.884714 0.043604
#
# Coordination Sequence:
#
# PCOD9337528 Si02
#       8
#     4   4   4   4   4   4   4   4
#     4  10  20  34  54  79 107 141 181 226 277 331
#     4  10  22  39  57  78 106 141 184 231 275 326
#     4   9  19  35  54  77 106 141 177 217 270 329
#     4  10  22  38  54  77 112 151 188 226 274 334
#     4  11  23  39  60  83 110 148 191 237 284 330
#     4  10  21  38  61  87 115 148 185 227 278 336
#     4  10  20  33  53  84 116 141 171 216 268 324
#     4  10  20  33  52  80 110 139 178 228 278 329
#
# _framework density 18.504884000000001
#
# number of rings (size 3 to 8) (size 9 to 14) (size 15 to 20)
#    0.000    2.000    0.000    4.125    0.000   10.750 
#    0.000    1.875    0.000    0.750    0.000    0.000 
#    0.000    0.000    0.000    0.000    0.000    0.000 
#
# Total GULP energy -178458.232943 kJ/mol
# GULP energy per Si atom -5576.819779 kJ/mol
# Density = 1.846277 g / cm^3
# Si number density = 18.504884 Si / 1000 Ang^3
#
#
#
# Elastic Constant Matrix: (Units=GPa)
#
#
# Indices 1 2 3 4 5 6 
#
# 1 98.9823 43.5530 71.1059 0.0000 0.0000 0.0000
# 2 43.5530 40.9302 47.3395 0.0000 0.0000 0.0000
# 3 71.1059 47.3395 135.4585 0.0000 0.0000 0.0000
# 4 0.0000 0.0000 0.0000 7.8948 0.0000 0.0000
# 5 0.0000 0.0000 0.0000 0.0000 28.9581 0.0000
# 6 0.0000 0.0000 0.0000 0.0000 0.0000 33.6016
#
#
#
# Elastic Compliance Matrix: (Units=1/GPa)
#
#
# Indices 1 2 3 4 5 6 
#
# 1 0.021136 -0.016211 -0.005430 0.000000 0.000000 0.000000
# 2 -0.016211 0.053440 -0.010166 0.000000 0.000000 0.000000
# 3 -0.005430 -0.010166 0.013785 0.000000 0.000000 0.000000
# 4 0.000000 0.000000 0.000000 0.126666 0.000000 0.000000
# 5 0.000000 0.000000 0.000000 0.000000 0.034533 0.000000
# 6 0.000000 0.000000 0.000000 0.000000 0.000000 0.029760
#
#
# Mechanical properties :
#
#
# Convention : Reuss Voigt Hill
#
# Bulk Modulus (GPa) = 40.40781 66.59643 53.50212
# Shear Modulus (GPa) = 14.23756 21.64907 17.94332
#
# Velocity S-wave (km/s) = 2.77681 3.42411 3.11730
# Velocity P-wave (km/s) = 5.67138 7.19023 6.47549
#
# Compressibility (1/GPa) = 0.02474769
#
# Stress axis : x y z
#
# Youngs Moduli (GPa) = 47.31216 18.71268 72.54004
#
# Poissons Ratio (x) = 0.30334 0.39387
# Poissons Ratio (y) = 0.76696 0.73748
# Poissons Ratio (z) = 0.25689 0.19024
#
# Static dielectric constant tensor:
#      x y z
#    x 1.649390 0.000000 0.000000 
#    y 0.000000 1.669280 0.000000 
#    z 0.000000 0.000000 1.625480 
# 
# From -- ./inp_files/4282.got.cif
#   From: 2010.05.17/outbox.cif.g08.bks.cpg/sg25_3_cif.got.tgz:4282.got - 2010.06.04 01:04:00.
