data_PCOD9337046
_publ_section_title
;
Structure prediction by ZEFSAII (Michael W. Deem and Ramdas Pophale) SiO2 
 PCOD9337046
Probable space group: I 21 21 21
;
_chemical_formula_sum "Si O2"
_cell_formula_units_Z 30
_cell_length_a 12.000000
_cell_length_b 12.000000
_cell_length_c 21.000000
_cell_angle_alpha 90.000000
_cell_angle_beta 90.000000
_cell_angle_gamma 90.000000
_cell_volume 3024.000000
_symmetry_space_group_name_H-M "I 21 21 21"
_symmetry_group_IT_number 24
_symmetry_cell_setting 'orthorhombic'
loop_
_space_group_symop_operation_xyz
x,y,z
-x,1/2-y,z
x,-y,1/2-z
1/2-x,y,-z
1/2+x,1/2+y,1/2+z
1/2-x,-y,1/2+z
1/2+x,1/2-y,-z
-x,1/2+y,1/2-z
loop_
_atom_site_type_symbol
_atom_site_label
_atom_site_fract_x
_atom_site_fract_y
_atom_site_fract_z
Si Si1 0.225112 0.104106 0.427082
Si Si2 0.678768 0.875944 0.728652
Si Si3 0.236692 0.677065 0.130759
Si Si4 0.854911 0.010289 0.951185
Si Si5 0.519498 0.867521 0.954570
Si Si6 0.500000 0.250000 0.862814
Si Si7 0.383314 0.305333 0.147870
Si Si8 0.718491 0.347798 0.927030
O O1 0.250000 0.135168 0.500000
O O2 0.280644 0.200441 0.386514
O O3 0.092073 0.108179 0.416564
O O4 0.251458 0.976395 0.419188
O O5 0.701429 0.818173 0.796139
O O6 0.582359 0.824253 0.682898
O O7 0.801090 0.872845 0.695404
O O8 0.646397 0.000000 0.750000
O O9 0.316323 0.581841 0.101207
O O10 0.123825 0.651708 0.091151
O O11 0.900335 0.114825 0.912825
O O12 0.750000 0.032380 0.000000
O O13 0.950830 0.961319 0.995563
O O14 0.500000 0.750000 0.989357
O O15 0.590418 0.317309 0.906719
O O16 0.500000 0.250000 0.169708
O O17 0.298890 0.213221 0.121921
O O18 0.750000 0.316472 0.000000
#
# Coordination Sequence:
#
# PCOD9337046 Si02
#       8
#     8   8   8   8   8   4   8   8
#     4  10  21  36  58  94 132 155 200 264 335 391
#     4  11  24  45  67  94 129 173 228 278 319 395
#     4  10  20  38  65  90 120 163 207 266 324 378
#     4  10  20  37  63  91 122 160 210 264 323 391
#     4   9  19  33  60  97 126 155 203 261 335 391
#     4  10  26  40  66 100 128 172 230 270 332 400
#     4  11  25  44  61  90 127 175 226 262 320 392
#     4  10  24  41  62  94 133 172 210 271 336 395
#
# _framework density 9.9206350000000008
#
# number of rings (size 3 to 8) (size 9 to 14) (size 15 to 20)
#    0.000    1.867    1.333    2.400    9.333    1.067 
#    0.000    5.333    0.000    0.000    0.000    0.000 
#    0.000    0.000    0.000    0.000    0.000    0.000 
#
# Total GULP energy -167130.933148 kJ/mol
# GULP energy per Si atom -5571.031105 kJ/mol
# Density = 0.989806 g / cm^3
# Si number density = 9.920635 Si / 1000 Ang^3
#
#
#
# Elastic Constant Matrix: (Units=GPa)
#
#
# Indices 1 2 3 4 5 6 
#
# 1 59.4551 3.0601 5.7006 0.0000 0.0000 0.0000
# 2 3.0601 58.1389 35.2796 0.0000 0.0000 0.0000
# 3 5.7006 35.2796 84.5428 0.0000 0.0000 0.0000
# 4 0.0000 0.0000 0.0000 20.3238 0.0000 0.0000
# 5 0.0000 0.0000 0.0000 0.0000 12.1446 0.0000
# 6 0.0000 0.0000 0.0000 0.0000 0.0000 17.1725
#
#
#
# Elastic Compliance Matrix: (Units=1/GPa)
#
#
# Indices 1 2 3 4 5 6 
#
# 1 0.016932 -0.000266 -0.001031 0.000000 0.000000 0.000000
# 2 -0.000266 0.023037 -0.009595 0.000000 0.000000 0.000000
# 3 -0.001031 -0.009595 0.015902 0.000000 0.000000 0.000000
# 4 0.000000 0.000000 0.000000 0.049203 0.000000 0.000000
# 5 0.000000 0.000000 0.000000 0.000000 0.082341 0.000000
# 6 0.000000 0.000000 0.000000 0.000000 0.000000 0.058233
#
#
# Mechanical properties :
#
#
# Convention : Reuss Voigt Hill
#
# Bulk Modulus (GPa) = 29.33669 32.24639 30.79154
# Shear Modulus (GPa) = 17.93442 20.46796 19.20119
#
# Velocity S-wave (km/s) = 3.00975 3.21531 3.11423
# Velocity P-wave (km/s) = 5.18612 5.48377 5.33702
#
# Compressibility (1/GPa) = 0.03408701
#
# Stress axis : x y z
#
# Youngs Moduli (GPa) = 59.06007 43.40891 62.88543
#
# Poissons Ratio (x) = 0.01153 0.06482
# Poissons Ratio (y) = 0.01569 0.60340
# Poissons Ratio (z) = 0.06088 0.41652
#
# Static dielectric constant tensor:
#      x y z
#    x 1.740330 0.000000 0.000000 
#    y 0.000000 1.814150 0.000000 
#    z 0.000000 0.000000 2.004220 
# 
# From -- ./inp_files/33431.got.cif
#   From: 2010.05.17/outbox.ucp.g08.bks.cvg/sg24_17_cif.got.tgz:33431.got - 2010.06.11 15:20:44.
