data_PCOD9337970
_publ_section_title
;
Structure prediction by ZEFSAII (Michael W. Deem and Ramdas Pophale) SiO2 
 PCOD9337970
Probable space group: P M C 21
;
_chemical_formula_sum "Si O2"
_cell_formula_units_Z 24
_cell_length_a 30.289355
_cell_length_b 6.854996
_cell_length_c 5.194156
_cell_angle_alpha 90.000000
_cell_angle_beta 90.000000
_cell_angle_gamma 90.000000
_cell_volume 1078.480309
_symmetry_space_group_name_H-M "P M C 21"
_symmetry_group_IT_number 26
_symmetry_cell_setting 'orthorhombic'
loop_
_space_group_symop_operation_xyz
x,y,z
-x,-y,1/2+z
-x,y,z
x,-y,1/2+z
loop_
_atom_site_type_symbol
_atom_site_label
_atom_site_fract_x
_atom_site_fract_y
_atom_site_fract_z
Si Si1 0.727093 0.626199 0.932110
Si Si2 0.640452 0.128319 0.316135
Si Si3 0.913098 0.788133 0.992252
Si Si4 0.949457 0.774010 0.492920
Si Si5 0.822820 0.366362 0.336068
Si Si6 0.547726 0.135237 0.428085
O O1 0.726393 0.448667 0.725512
O O2 0.684270 0.751612 0.871369
O O3 0.774397 0.726292 0.876588
O O4 0.594262 0.240366 0.375637
O O5 0.640329 0.952329 0.525421
O O6 0.917506 0.694973 0.272795
O O7 0.932422 0.004058 0.036084
O O8 0.944215 0.691466 0.778161
O O9 0.863605 0.776362 0.888369
O O10 0.000000 0.771127 0.407889
O O11 0.825452 0.535068 0.555634
O O12 0.500000 0.237427 0.399444
O O13 0.548401 0.035109 0.709260
#
# Coordination Sequence:
#
# PCOD9337970 Si02
#       6
#     4   4   4   4   4   4
#     4  10  21  38  56  74 105 151 183 208 273 341
#     4  10  19  33  53  83 108 135 181 238 271 299
#     4  10  18  32  52  76  95 125 163 194 237 288
#     4  10  19  33  55  76 101 128 152 196 251 301
#     4  10  21  37  54  71  98 136 170 201 240 301
#     4   8  14  25  44  70 103 137 171 213 270 324
#
# _framework density 22.253536
#
# number of rings (size 3 to 8) (size 9 to 14) (size 15 to 20)
#    0.000    2.333    0.000    4.500    0.000    0.000 
#    6.000    0.000    0.000   18.000    0.000    0.000 
#    0.000    0.000    0.000    0.000    0.000    0.000 
#
# Total GULP energy -133817.739904 kJ/mol
# GULP energy per Si atom -5575.739163 kJ/mol
# Density = 2.220289 g / cm^3
# Si number density = 22.253536 Si / 1000 Ang^3
#
#
#
# Elastic Constant Matrix: (Units=GPa)
#
#
# Indices 1 2 3 4 5 6 
#
# 1 196.3322 0.4588 -7.7785 0.0000 0.0000 0.0000
# 2 0.4588 22.4679 -14.9460 0.0000 0.0000 0.0000
# 3 -7.7785 -14.9460 127.7484 0.0000 0.0000 0.0000
# 4 0.0000 0.0000 0.0000 8.1569 0.0000 0.0000
# 5 0.0000 0.0000 0.0000 0.0000 32.5729 0.0000
# 6 0.0000 0.0000 0.0000 0.0000 0.0000 -6.3929
#
#
#
# Elastic Compliance Matrix: (Units=1/GPa)
#
#
# Indices 1 2 3 4 5 6 
#
# 1 0.005106 0.000111 0.000324 0.000000 0.000000 0.000000
# 2 0.000111 0.048267 0.005654 0.000000 0.000000 0.000000
# 3 0.000324 0.005654 0.008509 0.000000 0.000000 0.000000
# 4 0.000000 0.000000 0.000000 0.122596 0.000000 0.000000
# 5 0.000000 0.000000 0.000000 0.000000 0.030700 0.000000
# 6 0.000000 0.000000 0.000000 0.000000 0.000000 -0.156424
#
#
# Mechanical properties :
#
#
# Convention : Reuss Voigt Hill
#
# Bulk Modulus (GPa) = 13.50267 33.55747 23.53007
# Shear Modulus (GPa) = 70.16298 31.45498 50.80898
#
# Velocity S-wave (km/s) = 5.62115 3.76371 4.78345
# Velocity P-wave (km/s) = 6.94339 5.83093 6.41133
#
# Compressibility (1/GPa) = 0.07405945
#
# Stress axis : x y z
#
# Youngs Moduli (GPa) = 195.84873 20.71822 117.52164
#
# Poissons Ratio (x) = -0.00230 -0.03807
# Poissons Ratio (y) = -0.02178 -0.66444
# Poissons Ratio (z) = -0.06344 -0.11714
#
# Static dielectric constant tensor:
#      x y z
#    x 1.869190 0.000000 0.000000 
#    y 0.000000 1.363100 0.000000 
#    z 0.000000 0.000000 1.878890 
# 
# From -- ./inp_files/950.got.cif
#   From: 2010.05.17/outbox.cif.g08.bks.cpg/sg26_1_cif.got.tgz:950.got - 2010.06.04 01:07:29.
