data_PCOD9337781
_publ_section_title
;
Structure prediction by ZEFSAII (Michael W. Deem and Ramdas Pophale) SiO2 
 PCOD9337781
Probable space group: P M M 2
;
_chemical_formula_sum "Si O2"
_cell_formula_units_Z 24
_cell_length_a 14.348493
_cell_length_b 15.794111
_cell_length_c 5.059089
_cell_angle_alpha 90.000000
_cell_angle_beta 90.000000
_cell_angle_gamma 90.000000
_cell_volume 1146.499305
_symmetry_space_group_name_H-M "P M M 2"
_symmetry_group_IT_number 25
_symmetry_cell_setting 'orthorhombic'
loop_
_space_group_symop_operation_xyz
x,y,z
-x,-y,z
-x,y,z
x,-y,z
loop_
_atom_site_type_symbol
_atom_site_label
_atom_site_fract_x
_atom_site_fract_y
_atom_site_fract_z
Si Si1 0.895925 0.761783 0.036630
Si Si2 0.102357 0.594945 0.384675
Si Si3 0.211771 0.094852 0.295299
Si Si4 0.695031 0.404692 0.545520
Si Si5 0.717308 0.829481 0.802980
Si Si6 0.609639 0.320484 0.043061
O O1 0.890472 0.671118 0.177250
O O2 0.871062 0.837249 0.245429
O O3 0.000000 0.773916 0.931139
O O4 0.812387 0.773449 0.829883
O O5 0.105597 0.500000 0.263127
O O6 0.193178 0.599703 0.566183
O O7 0.000000 0.602842 0.515533
O O8 0.281297 0.132602 0.513772
O O9 0.181296 0.000000 0.363043
O O10 0.264595 0.097361 0.015814
O O11 0.670694 0.500000 0.457267
O O12 0.661457 0.339580 0.319154
O O13 0.646631 0.385444 0.822218
O O14 0.636828 0.769560 0.912941
O O15 0.500000 0.328054 0.084000
#
# Coordination Sequence:
#
# PCOD9337781 Si02
#       6
#     4   4   4   4   4   4
#     4   9  19  35  58  88 123 160 205 250 299 370
#     4   9  17  35  62  91 127 170 210 252 303 364
#     4  10  21  38  62  89 122 158 198 253 321 378
#     4  11  23  40  61  92 128 163 213 268 314 371
#     4  10  21  39  60  86 120 155 204 248 312 372
#     4  12  24  41  64  89 121 166 214 263 323 378
#
# _framework density 20.933287
#
# number of rings (size 3 to 8) (size 9 to 14) (size 15 to 20)
#    1.000    0.833    1.667    3.500    0.000    3.000 
#    0.000    1.667    0.000    7.000    0.000    0.000 
#    0.000    0.000    0.000    0.000    0.000    0.000 
#
# Total GULP energy -133823.182854 kJ/mol
# GULP energy per Si atom -5575.965952 kJ/mol
# Density = 2.088564 g / cm^3
# Si number density = 20.933287 Si / 1000 Ang^3
#
#
#
# Elastic Constant Matrix: (Units=GPa)
#
#
# Indices 1 2 3 4 5 6 
#
# 1 111.9935 9.1608 6.9607 0.0000 0.0000 0.0000
# 2 9.1608 130.3182 13.7440 0.0000 0.0000 0.0000
# 3 6.9607 13.7440 59.8363 0.0000 0.0000 0.0000
# 4 0.0000 0.0000 0.0000 26.2197 0.0000 0.0000
# 5 0.0000 0.0000 0.0000 0.0000 12.2567 0.0000
# 6 0.0000 0.0000 0.0000 0.0000 0.0000 4.4923
#
#
#
# Elastic Compliance Matrix: (Units=1/GPa)
#
#
# Indices 1 2 3 4 5 6 
#
# 1 0.009031 -0.000537 -0.000927 0.000000 0.000000 0.000000
# 2 -0.000537 0.007896 -0.001751 0.000000 0.000000 0.000000
# 3 -0.000927 -0.001751 0.017222 0.000000 0.000000 0.000000
# 4 0.000000 0.000000 0.000000 0.038139 0.000000 0.000000
# 5 0.000000 0.000000 0.000000 0.000000 0.081588 0.000000
# 6 0.000000 0.000000 0.000000 0.000000 0.000000 0.222603
#
#
# Mechanical properties :
#
#
# Convention : Reuss Voigt Hill
#
# Bulk Modulus (GPa) = 36.07740 40.20880 38.14310
# Shear Modulus (GPa) = 12.75025 26.74591 19.74808
#
# Velocity S-wave (km/s) = 2.47065 3.57833 3.07478
# Velocity P-wave (km/s) = 5.04090 6.02681 5.55577
#
# Compressibility (1/GPa) = 0.02771818
#
# Stress axis : x y z
#
# Youngs Moduli (GPa) = 110.73411 126.64699 58.06406
#
# Poissons Ratio (x) = 0.06801 0.05384
# Poissons Ratio (y) = 0.05947 0.10168
# Poissons Ratio (z) = 0.10267 0.22178
#
# Static dielectric constant tensor:
#      x y z
#    x 1.740210 0.000000 0.000000 
#    y 0.000000 1.802860 0.000000 
#    z 0.000000 0.000000 1.746340 
# 
# From -- ./inp_files/901.got.cif
#   From: 2010.05.17/outbox.cif.g08.bks.cpg/sg25_1_cif.got.tgz:901.got - 2010.06.04 01:04:00.
