data_PCOD9337078
_publ_section_title
;
Structure prediction by ZEFSAII (Michael W. Deem and Ramdas Pophale) SiO2 
 PCOD9337078
Probable space group: I 21 21 21
;
_chemical_formula_sum "Si O2"
_cell_formula_units_Z 28
_cell_length_a 15.000000
_cell_length_b 15.000000
_cell_length_c 12.000000
_cell_angle_alpha 90.000000
_cell_angle_beta 90.000000
_cell_angle_gamma 90.000000
_cell_volume 2700.000000
_symmetry_space_group_name_H-M "I 21 21 21"
_symmetry_group_IT_number 24
_symmetry_cell_setting 'orthorhombic'
loop_
_space_group_symop_operation_xyz
x,y,z
-x,1/2-y,z
x,-y,1/2-z
1/2-x,y,-z
1/2+x,1/2+y,1/2+z
1/2-x,-y,1/2+z
1/2+x,1/2-y,-z
-x,1/2+y,1/2-z
loop_
_atom_site_type_symbol
_atom_site_label
_atom_site_fract_x
_atom_site_fract_y
_atom_site_fract_z
Si Si1 0.764361 0.422181 0.339443
Si Si2 0.904561 0.918183 0.054184
Si Si3 0.185345 0.281493 0.277708
Si Si4 0.654849 0.889634 0.562567
Si Si5 0.992830 0.858334 0.625949
Si Si6 0.647940 0.906032 0.198505
Si Si7 0.900942 0.471534 0.533704
O O1 0.764424 0.500000 0.250000
O O2 0.801425 0.324076 0.302901
O O3 0.830330 0.465265 0.432247
O O4 0.659918 0.416128 0.377919
O O5 0.874891 0.834391 0.130203
O O6 0.008563 0.928989 0.018404
O O7 0.869425 0.011199 0.107674
O O8 0.857872 0.912639 0.933811
O O9 0.149124 0.313187 0.156868
O O10 0.282934 0.327544 0.277289
O O11 0.750000 0.889449 0.500000
O O12 0.581895 0.873277 0.467980
O O13 0.947503 0.888806 0.742485
O O14 0.000000 0.750000 0.631672
O O15 0.069943 0.930747 0.586614
O O16 0.679738 0.000000 0.250000
#
# Coordination Sequence:
#
# PCOD9337078 Si02
#       7
#     8   8   8   8   8   8   8
#     4  11  29  50  72 101 152 206 252 293 368 450
#     4  11  24  43  75 106 151 181 243 311 375 433
#     4  12  26  43  74 111 146 195 240 300 376 451
#     4  11  21  44  71 108 145 181 239 311 378 430
#     4  11  26  44  74 108 140 192 252 304 371 442
#     4  12  22  43  71 110 145 181 234 314 376 428
#     4  10  26  50  71 103 147 196 249 309 366 430
#
# _framework density 10.370369999999999
#
# number of rings (size 3 to 8) (size 9 to 14) (size 15 to 20)
#    0.000    0.857    4.286    2.571   10.000    2.857 
#    0.000    0.000    0.000    0.000    0.000    0.000 
#    0.000    0.000    0.000    0.000    0.000    0.000 
#
# Total GULP energy -156239.136304 kJ/mol
# GULP energy per Si atom -5579.969154 kJ/mol
# Density = 1.034677 g / cm^3
# Si number density = 10.370370 Si / 1000 Ang^3
#
#
#
# Elastic Constant Matrix: (Units=GPa)
#
#
# Indices 1 2 3 4 5 6 
#
# 1 78.9907 36.9472 20.6807 0.0000 0.0000 0.0000
# 2 36.9472 162.8258 38.8290 0.0000 0.0000 0.0000
# 3 20.6807 38.8290 102.1254 0.0000 0.0000 0.0000
# 4 0.0000 0.0000 0.0000 25.3080 0.0000 0.0000
# 5 0.0000 0.0000 0.0000 0.0000 32.9891 0.0000
# 6 0.0000 0.0000 0.0000 0.0000 0.0000 36.0338
#
#
#
# Elastic Compliance Matrix: (Units=1/GPa)
#
#
# Indices 1 2 3 4 5 6 
#
# 1 0.014474 -0.002843 -0.001850 0.000000 0.000000 0.000000
# 2 -0.002843 0.007312 -0.002204 0.000000 0.000000 0.000000
# 3 -0.001850 -0.002204 0.011005 0.000000 0.000000 0.000000
# 4 0.000000 0.000000 0.000000 0.039513 0.000000 0.000000
# 5 0.000000 0.000000 0.000000 0.000000 0.030313 0.000000
# 6 0.000000 0.000000 0.000000 0.000000 0.000000 0.027752
#
#
# Mechanical properties :
#
#
# Convention : Reuss Voigt Hill
#
# Bulk Modulus (GPa) = 52.64355 59.65063 56.14709
# Shear Modulus (GPa) = 33.22344 35.36518 34.29431
#
# Velocity S-wave (km/s) = 4.00665 4.13377 4.07071
# Velocity P-wave (km/s) = 6.84406 7.18378 7.01597
#
# Compressibility (1/GPa) = 0.01899568
#
# Stress axis : x y z
#
# Youngs Moduli (GPa) = 69.08978 136.75444 90.87035
#
# Poissons Ratio (x) = 0.38881 0.16811
# Poissons Ratio (y) = 0.19643 0.20032
# Poissons Ratio (z) = 0.12782 0.30147
#
# Static dielectric constant tensor:
#      x y z
#    x 1.782560 0.000000 0.000000 
#    y 0.000000 1.744670 0.000000 
#    z 0.000000 0.000000 1.820540 
# 
# From -- ./inp_files/20854.got.cif
#   From: 2010.05.17/outbox.ucp.g08.bks.cvg/sg24_11_cif.got.tgz:20854.got - 2010.06.11 15:20:44.
