data_PCOD9337751
_publ_section_title
;
Structure prediction by ZEFSAII (Michael W. Deem and Ramdas Pophale) SiO2 
 PCOD9337751
Probable space group: P M M 2
;
_chemical_formula_sum "Si O2"
_cell_formula_units_Z 32
_cell_length_a 7.780251
_cell_length_b 16.038705
_cell_length_c 12.252233
_cell_angle_alpha 90.000000
_cell_angle_beta 90.000000
_cell_angle_gamma 90.000000
_cell_volume 1528.896740
_symmetry_space_group_name_H-M "P M M 2"
_symmetry_group_IT_number 25
_symmetry_cell_setting 'orthorhombic'
loop_
_space_group_symop_operation_xyz
x,y,z
-x,-y,z
-x,y,z
x,-y,z
loop_
_atom_site_type_symbol
_atom_site_label
_atom_site_fract_x
_atom_site_fract_y
_atom_site_fract_z
Si Si1 0.703032 0.252949 0.008830
Si Si2 0.710341 0.407191 0.392949
Si Si3 0.709769 0.653359 0.630090
Si Si4 0.292895 0.248105 0.254816
Si Si5 0.289550 0.592386 0.866317
Si Si6 0.800311 0.091516 0.874785
Si Si7 0.794792 0.907833 0.406475
Si Si8 0.297868 0.154732 0.643900
O O1 0.500000 0.268808 0.020378
O O2 0.773535 0.243712 0.131044
O O3 0.773147 0.332007 0.941732
O O4 0.721701 0.169005 0.939017
O O5 0.500000 0.406148 0.392129
O O6 0.764188 0.500000 0.359216
O O7 0.764843 0.388718 0.517423
O O8 0.769020 0.331291 0.316861
O O9 0.500000 0.652944 0.628474
O O10 0.763618 0.608713 0.741260
O O11 0.764719 0.749874 0.634325
O O12 0.500000 0.253540 0.251756
O O13 0.252924 0.166029 0.324611
O O14 0.500000 0.594429 0.866405
O O15 0.237260 0.500000 0.902174
O O16 0.786864 0.108619 0.745506
O O17 0.000000 0.090235 0.905009
O O18 0.725183 0.000000 0.898863
O O19 0.726599 0.888191 0.527459
O O20 0.000000 0.909136 0.414087
O O21 0.734822 0.000000 0.371400
O O22 0.500000 0.157914 0.669607
#
# Coordination Sequence:
#
# PCOD9337751 Si02
#       8
#     4   4   4   4   4   4   4   4
#     4  10  21  37  57  83 113 147 193 242 283 328
#     4   9  16  28  50  82 117 147 179 227 283 334
#     4   9  15  26  49  81 113 142 175 219 272 328
#     4  10  21  37  57  83 113 147 193 242 283 328
#     4   9  16  28  50  82 117 147 179 227 283 334
#     4  11  24  40  58  82 113 149 189 231 281 343
#     4  11  24  40  58  82 113 149 189 231 281 343
#     4  11  20  35  61  89 117 146 181 228 281 336
#
# _framework density 20.930122999999998
#
# number of rings (size 3 to 8) (size 9 to 14) (size 15 to 20)
#    0.000    2.000    2.500    1.875    0.000    6.500 
#    0.000    5.000    0.000    0.750    0.000    3.500 
#    0.000    0.000    0.000    0.000    0.000    0.000 
#
# Total GULP energy -178744.060069 kJ/mol
# GULP energy per Si atom -5585.751877 kJ/mol
# Density = 2.088249 g / cm^3
# Si number density = 20.930123 Si / 1000 Ang^3
#
#
#
# Elastic Constant Matrix: (Units=GPa)
#
#
# Indices 1 2 3 4 5 6 
#
# 1 27.3805 -3.1087 -6.6796 0.0000 0.0000 0.0000
# 2 -3.1087 195.6660 74.6723 0.0000 0.0000 0.0000
# 3 -6.6796 74.6723 133.6618 0.0000 0.0000 0.0000
# 4 0.0000 0.0000 0.0000 14.0966 0.0000 0.0000
# 5 0.0000 0.0000 0.0000 0.0000 -1.3084 0.0000
# 6 0.0000 0.0000 0.0000 0.0000 0.0000 49.4214
#
#
#
# Elastic Compliance Matrix: (Units=1/GPa)
#
#
# Indices 1 2 3 4 5 6 
#
# 1 0.036977 -0.000150 0.001931 0.000000 0.000000 0.000000
# 2 -0.000150 0.006496 -0.003637 0.000000 0.000000 0.000000
# 3 0.001931 -0.003637 0.009610 0.000000 0.000000 0.000000
# 4 0.000000 0.000000 0.000000 0.070939 0.000000 0.000000
# 5 0.000000 0.000000 0.000000 0.000000 -0.764285 0.000000
# 6 0.000000 0.000000 0.000000 0.000000 0.000000 0.020234
#
#
# Mechanical properties :
#
#
# Convention : Reuss Voigt Hill
#
# Bulk Modulus (GPa) = 20.25407 54.05292 37.15349
# Shear Modulus (GPa) = -8.33525 31.89688 11.78082
#
# Velocity S-wave (km/s) = -1.99776 3.90804 2.37505
# Velocity P-wave (km/s) = 2.09203 6.80038 5.03099
#
# Compressibility (1/GPa) = 0.04937280
#
# Stress axis : x y z
#
# Youngs Moduli (GPa) = 27.04420 153.93477 104.06040
#
# Poissons Ratio (x) = 0.02303 -0.20099
# Poissons Ratio (y) = 0.00405 0.37844
# Poissons Ratio (z) = -0.05223 0.55982
#
# Static dielectric constant tensor:
#      x y z
#    x 1.774750 0.000000 0.000000 
#    y 0.000000 1.732230 0.000000 
#    z 0.000000 0.000000 1.721810 
# 
# From -- ./inp_files/4297.got.cif
#   From: 2010.05.17/outbox.cif.g08.bks.cpg/sg25_3_cif.got.tgz:4297.got - 2010.06.04 01:04:00.
