data_PCOD9337692
_publ_section_title
;
Structure prediction by ZEFSAII (Michael W. Deem and Ramdas Pophale) SiO2 
 PCOD9337692
Probable space group: P M M 2
;
_chemical_formula_sum "Si O2"
_cell_formula_units_Z 32
_cell_length_a 8.815947
_cell_length_b 10.215397
_cell_length_c 20.790734
_cell_angle_alpha 90.000000
_cell_angle_beta 90.000000
_cell_angle_gamma 90.000000
_cell_volume 1872.380208
_symmetry_space_group_name_H-M "P M M 2"
_symmetry_group_IT_number 25
_symmetry_cell_setting 'orthorhombic'
loop_
_space_group_symop_operation_xyz
x,y,z
-x,-y,z
-x,y,z
x,-y,z
loop_
_atom_site_type_symbol
_atom_site_label
_atom_site_fract_x
_atom_site_fract_y
_atom_site_fract_z
Si Si1 0.182839 0.650805 0.515350
Si Si2 0.817144 0.349172 0.368212
Si Si3 0.317128 0.848292 0.765558
Si Si4 0.316890 0.651571 0.008373
Si Si5 0.317120 0.848547 0.265218
Si Si6 0.315258 0.850248 0.118738
Si Si7 0.317196 0.150277 0.617691
Si Si8 0.181475 0.651721 0.869170
O O1 0.227639 0.500000 0.528340
O O2 0.228695 0.682382 0.441792
O O3 0.249991 0.749589 0.566848
O O4 0.000000 0.656297 0.517772
O O5 0.772040 0.500000 0.355142
O O6 0.750218 0.249716 0.316931
O O7 0.000000 0.343991 0.365872
O O8 0.500000 0.839375 0.769490
O O9 0.273040 0.819578 0.691540
O O10 0.244564 0.748549 0.815348
O O11 0.276130 0.000000 0.779078
O O12 0.500000 0.659851 0.003840
O O13 0.277833 0.500000 0.022455
O O14 0.264746 0.748137 0.064877
O O15 0.247506 0.686094 0.939288
O O16 0.500000 0.841546 0.267357
O O17 0.269178 0.816963 0.191794
O O18 0.274398 0.000000 0.277935
O O19 0.500000 0.849158 0.118485
O O20 0.268563 0.000000 0.104911
O O21 0.500000 0.155120 0.615038
O O22 0.271248 0.000000 0.604010
O O23 0.225394 0.500000 0.856037
O O24 0.000000 0.658536 0.871017
#
# Coordination Sequence:
#
# PCOD9337692 Si02
#       8
#     4   4   4   4   4   4   4   4
#     4   9  19  35  52  71  98 131 166 203 242 288
#     4   9  19  35  51  69  97 132 168 204 242 287
#     4   9  19  36  55  74  98 129 164 201 242 289
#     4   9  17  30  49  71  94 124 163 202 239 284
#     4   9  18  32  50  74 102 129 160 201 247 293
#     4   8  15  29  48  70  96 124 156 197 243 289
#     4   9  19  35  53  75 102 128 158 200 246 291
#     4  10  21  35  50  72 103 134 163 199 243 289
#
# _framework density 17.090546
#
# number of rings (size 3 to 8) (size 9 to 14) (size 15 to 20)
#    0.000    3.000    0.000    2.625    0.000    5.000 
#    0.000   10.625    0.000    2.250    0.000    0.000 
#    0.000    0.000    0.000    0.000    0.000    0.000 
#
# Total GULP energy -178373.249927 kJ/mol
# GULP energy per Si atom -5574.164060 kJ/mol
# Density = 1.705165 g / cm^3
# Si number density = 17.090546 Si / 1000 Ang^3
#
#
#
# Elastic Constant Matrix: (Units=GPa)
#
#
# Indices 1 2 3 4 5 6 
#
# 1 13.3503 37.2817 41.3017 0.0000 0.0000 0.0000
# 2 37.2817 136.6325 144.2521 0.0000 0.0000 0.0000
# 3 41.3017 144.2521 181.2479 0.0000 0.0000 0.0000
# 4 0.0000 0.0000 0.0000 43.9121 0.0000 0.0000
# 5 0.0000 0.0000 0.0000 0.0000 228.5226 0.0000
# 6 0.0000 0.0000 0.0000 0.0000 0.0000 26.0630
#
#
#
# Elastic Compliance Matrix: (Units=1/GPa)
#
#
# Indices 1 2 3 4 5 6 
#
# 1 0.328150 -0.066314 -0.021999 0.000000 0.000000 0.000000
# 2 -0.066314 0.059221 -0.032021 0.000000 0.000000 0.000000
# 3 -0.021999 -0.032021 0.036016 0.000000 0.000000 0.000000
# 4 0.000000 0.000000 0.000000 0.022773 0.000000 0.000000
# 5 0.000000 0.000000 0.000000 0.000000 0.004376 0.000000
# 6 0.000000 0.000000 0.000000 0.000000 0.000000 0.038369
#
#
# Mechanical properties :
#
#
# Convention : Reuss Voigt Hill
#
# Bulk Modulus (GPa) = 5.47292 86.32242 45.89767
# Shear Modulus (GPa) = 6.32529 66.92588 36.62559
#
# Velocity S-wave (km/s) = 1.92590 6.26455 4.63431
# Velocity P-wave (km/s) = 2.85564 10.14616 7.45317
#
# Compressibility (1/GPa) = 0.18271771
#
# Stress axis : x y z
#
# Youngs Moduli (GPa) = 3.04739 16.88602 27.76576
#
# Poissons Ratio (x) = 1.11978 0.61081
# Poissons Ratio (y) = 0.20208 0.88910
# Poissons Ratio (z) = 0.06704 0.54071
#
# Static dielectric constant tensor:
#      x y z
#    x 1.575400 0.000000 0.000000 
#    y 0.000000 1.566180 0.000000 
#    z 0.000000 0.000000 1.558550 
# 
# From -- ./inp_files/6550.got.cif
#   From: 2010.05.17/outbox.cif.g08.bks.cpg/sg25_4_cif.got.tgz:6550.got - 2010.06.04 01:04:00.
