data_PCOD9337200
_publ_section_title
;
Structure prediction by ZEFSAII (Michael W. Deem and Ramdas Pophale) SiO2 
 PCOD9337200
Probable space group: P M M 2
;
_chemical_formula_sum "Si O2"
_cell_formula_units_Z 32
_cell_length_a 16.365825
_cell_length_b 18.214327
_cell_length_c 5.296550
_cell_angle_alpha 90.000000
_cell_angle_beta 90.000000
_cell_angle_gamma 90.000000
_cell_volume 1578.861768
_symmetry_space_group_name_H-M "P M M 2"
_symmetry_group_IT_number 25
_symmetry_cell_setting 'orthorhombic'
loop_
_space_group_symop_operation_xyz
x,y,z
-x,-y,z
-x,y,z
x,-y,z
loop_
_atom_site_type_symbol
_atom_site_label
_atom_site_fract_x
_atom_site_fract_y
_atom_site_fract_z
Si Si1 0.787744 0.337738 0.317070
Si Si2 0.195945 0.083031 0.324795
Si Si3 0.596971 0.266645 0.718303
Si Si4 0.094075 0.118073 0.834470
Si Si5 0.686664 0.416672 0.706111
Si Si6 0.316540 0.214886 0.196312
Si Si7 0.086836 0.723746 0.667776
Si Si8 0.868515 0.581217 0.945275
O O1 0.719543 0.390819 0.432315
O O2 0.747319 0.280474 0.127445
O O3 0.830908 0.281647 0.508560
O O4 0.860196 0.391003 0.230120
O O5 0.147839 0.099848 0.586087
O O6 0.266928 0.141413 0.259908
O O7 0.227993 0.000000 0.341085
O O8 0.133283 0.088035 0.089673
O O9 0.500000 0.265014 0.692038
O O10 0.626072 0.350742 0.777964
O O11 0.638341 0.241083 0.454065
O O12 0.625618 0.215314 0.951540
O O13 0.092988 0.206834 0.850186
O O14 0.000000 0.093881 0.801265
O O15 0.654243 0.500000 0.709246
O O16 0.772589 0.417782 0.860013
O O17 0.086577 0.645829 0.804630
O O18 0.000000 0.733726 0.526487
O O19 0.900377 0.500000 0.913089
#
# Coordination Sequence:
#
# PCOD9337200 Si02
#       8
#     4   4   4   4   4   4   4   4
#     4  10  18  34  59  79 110 161 210 251 303 360
#     4  12  25  42  68  97 126 165 209 253 311 372
#     4  11  23  40  65  94 124 164 200 249 312 373
#     4  11  24  41  63  94 134 171 208 258 313 370
#     4   9  19  33  53  84 117 152 196 249 304 363
#     4  11  22  41  66  89 126 156 208 253 293 377
#     4  10  22  36  53  79 116 163 213 261 310 362
#     4  10  19  33  53  79 112 156 210 264 310 352
#
# _framework density 20.267765000000001
#
# number of rings (size 3 to 8) (size 9 to 14) (size 15 to 20)
#    0.000    1.500    2.500    3.000    1.750    3.000 
#    0.000    0.000    0.000    3.750    0.000    0.000 
#    0.000    0.000    0.000    0.000    0.000    0.000 
#
# Total GULP energy -178405.881467 kJ/mol
# GULP energy per Si atom -5575.183796 kJ/mol
# Density = 2.022163 g / cm^3
# Si number density = 20.267765 Si / 1000 Ang^3
#
#
#
# Elastic Constant Matrix: (Units=GPa)
#
#
# Indices 1 2 3 4 5 6 
#
# 1 95.6647 43.6139 27.1584 0.0000 0.0000 0.0000
# 2 43.6139 129.8995 20.5322 0.0000 0.0000 0.0000
# 3 27.1584 20.5322 79.4797 0.0000 0.0000 0.0000
# 4 0.0000 0.0000 0.0000 9.8671 0.0000 0.0000
# 5 0.0000 0.0000 0.0000 0.0000 1.3449 0.0000
# 6 0.0000 0.0000 0.0000 0.0000 0.0000 44.1298
#
#
#
# Elastic Compliance Matrix: (Units=1/GPa)
#
#
# Indices 1 2 3 4 5 6 
#
# 1 0.013221 -0.003884 -0.003515 0.000000 0.000000 0.000000
# 2 -0.003884 0.009167 -0.001041 0.000000 0.000000 0.000000
# 3 -0.003515 -0.001041 0.014052 0.000000 0.000000 0.000000
# 4 0.000000 0.000000 0.000000 0.101347 0.000000 0.000000
# 5 0.000000 0.000000 0.000000 0.000000 0.743547 0.000000
# 6 0.000000 0.000000 0.000000 0.000000 0.000000 0.022660
#
#
# Mechanical properties :
#
#
# Convention : Reuss Voigt Hill
#
# Bulk Modulus (GPa) = 51.12072 54.18364 52.65218
# Shear Modulus (GPa) = 5.39145 25.31764 15.35455
#
# Velocity S-wave (km/s) = 1.63275 3.53818 2.75541
# Velocity P-wave (km/s) = 5.36954 6.59420 6.01313
#
# Compressibility (1/GPa) = 0.01956154
#
# Stress axis : x y z
#
# Youngs Moduli (GPa) = 75.63453 109.09009 71.16579
#
# Poissons Ratio (x) = 0.42366 0.25011
# Poissons Ratio (y) = 0.29373 0.07409
# Poissons Ratio (z) = 0.26582 0.11357
#
# Static dielectric constant tensor:
#      x y z
#    x 1.740970 0.000000 0.000000 
#    y 0.000000 1.724100 0.000000 
#    z 0.000000 0.000000 1.823610 
# 
# From -- ./inp_files/979.got.cif
#   From: 2010.05.17/outbox.cif.g08.bks.cpg/sg25_1_cif.got.tgz:979.got - 2010.06.04 01:04:00.
