data_PCOD9337647
_publ_section_title
;
Structure prediction by ZEFSAII (Michael W. Deem and Ramdas Pophale) SiO2 
 PCOD9337647
Probable space group: P M M 2
;
_chemical_formula_sum "Si O2"
_cell_formula_units_Z 22
_cell_length_a 10.140860
_cell_length_b 7.322471
_cell_length_c 13.443629
_cell_angle_alpha 90.000000
_cell_angle_beta 90.000000
_cell_angle_gamma 90.000000
_cell_volume 998.272175
_symmetry_space_group_name_H-M "P M M 2"
_symmetry_group_IT_number 25
_symmetry_cell_setting 'orthorhombic'
loop_
_space_group_symop_operation_xyz
x,y,z
-x,-y,z
-x,y,z
x,-y,z
loop_
_atom_site_type_symbol
_atom_site_label
_atom_site_fract_x
_atom_site_fract_y
_atom_site_fract_z
Si Si1 0.736446 0.210514 0.646130
Si Si2 0.645872 0.720997 0.261992
Si Si3 0.000000 0.778630 0.759483
Si Si4 0.290532 0.790503 0.035100
Si Si5 0.500000 0.500000 0.668606
Si Si6 0.500000 0.500000 0.965100
Si Si7 0.152270 0.278614 0.429580
Si Si8 0.000000 0.220998 0.987807
O O1 0.867133 0.276663 0.703947
O O2 0.615175 0.341397 0.666444
O O3 0.776188 0.216986 0.529866
O O4 0.709448 0.000000 0.674045
O O5 0.500000 0.773202 0.299584
O O6 0.648752 0.500000 0.257769
O O7 0.661844 0.785433 0.149297
O O8 0.762137 0.780927 0.334668
O O9 0.000000 0.720973 0.873331
O O10 0.000000 0.000000 0.757330
O O11 0.384763 0.659078 0.973148
O O12 0.295550 0.000000 0.998632
O O13 0.138883 0.724146 0.034885
O O14 0.152726 0.500000 0.430374
O O15 0.000000 0.219079 0.426786
O O16 0.000000 0.000000 0.991894
#
# Coordination Sequence:
#
# PCOD9337647 Si02
#       8
#     4   4   2   4   1   1   4   2
#     4  11  23  42  70  96 128 175 219 267 325 382
#     4  10  20  36  58  89 132 177 215 258 319 383
#     4   9  20  45  74  97 127 168 220 273 328 388
#     4  11  22  41  66  94 130 173 218 266 324 385
#     4  12  26  42  64  96 144 166 208 272 324 392
#     4  12  22  42  64  92 132 170 216 264 324 388
#     4  10  21  36  60  95 132 174 218 269 324 373
#     4   9  22  43  70 101 129 166 216 275 332 386
#
# _framework density 22.038077999999999
#
# number of rings (size 3 to 8) (size 9 to 14) (size 15 to 20)
#    0.000    1.636    3.636    0.545    2.545    1.455 
#    0.000    3.636    0.000    4.364    0.000    0.000 
#    0.000    0.000    0.000    0.000    0.000    0.000 
#
# Total GULP energy -122500.831758 kJ/mol
# GULP energy per Si atom -5568.219625 kJ/mol
# Density = 2.198792 g / cm^3
# Si number density = 22.038078 Si / 1000 Ang^3
#
#
#
# Elastic Constant Matrix: (Units=GPa)
#
#
# Indices 1 2 3 4 5 6 
#
# 1 219.0935 65.3337 17.1275 0.0000 0.0000 0.0000
# 2 65.3337 142.4382 -5.0999 0.0000 0.0000 0.0000
# 3 17.1275 -5.0999 33.2079 0.0000 0.0000 0.0000
# 4 0.0000 0.0000 0.0000 17.0533 0.0000 0.0000
# 5 0.0000 0.0000 0.0000 0.0000 -63.9788 0.0000
# 6 0.0000 0.0000 0.0000 0.0000 0.0000 25.3564
#
#
#
# Elastic Compliance Matrix: (Units=1/GPa)
#
#
# Indices 1 2 3 4 5 6 
#
# 1 0.005629 -0.002701 -0.003318 0.000000 0.000000 0.000000
# 2 -0.002701 0.008355 0.002676 0.000000 0.000000 0.000000
# 3 -0.003318 0.002676 0.032236 0.000000 0.000000 0.000000
# 4 0.000000 0.000000 0.000000 0.058640 0.000000 0.000000
# 5 0.000000 0.000000 0.000000 0.000000 -0.015630 0.000000
# 6 0.000000 0.000000 0.000000 0.000000 0.000000 0.039438
#
#
# Mechanical properties :
#
#
# Convention : Reuss Voigt Hill
#
# Bulk Modulus (GPa) = 25.29436 61.05134 43.17285
# Shear Modulus (GPa) = 33.66316 16.84475 25.25396
#
# Velocity S-wave (km/s) = 3.91256 2.76768 3.38882
# Velocity P-wave (km/s) = 5.64919 6.16249 5.91141
#
# Compressibility (1/GPa) = 0.03953451
#
# Stress axis : x y z
#
# Youngs Moduli (GPa) = 177.65163 119.68641 31.02159
#
# Poissons Ratio (x) = 0.32324 0.10293
# Poissons Ratio (y) = 0.47979 -0.08302
# Poissons Ratio (z) = 0.58945 -0.32029
#
# Static dielectric constant tensor:
#      x y z
#    x 1.784260 0.000000 0.000000 
#    y 0.000000 1.864360 0.000000 
#    z 0.000000 0.000000 1.788780 
# 
# From -- ./inp_files/5414.got.cif
#   From: 2010.05.17/outbox.cif.g08.bks.cpg/sg25_3_cif.got.tgz:5414.got - 2010.06.04 01:04:00.
