data_PCOD9337425
_publ_section_title
;
Structure prediction by ZEFSAII (Michael W. Deem and Ramdas Pophale) SiO2 
 PCOD9337425
Probable space group: P M M 2
;
_chemical_formula_sum "Si O2"
_cell_formula_units_Z 32
_cell_length_a 7.412965
_cell_length_b 9.502324
_cell_length_c 21.368496
_cell_angle_alpha 90.000000
_cell_angle_beta 90.000000
_cell_angle_gamma 90.000000
_cell_volume 1505.205304
_symmetry_space_group_name_H-M "P M M 2"
_symmetry_group_IT_number 25
_symmetry_cell_setting 'orthorhombic'
loop_
_space_group_symop_operation_xyz
x,y,z
-x,-y,z
-x,y,z
x,-y,z
loop_
_atom_site_type_symbol
_atom_site_label
_atom_site_fract_x
_atom_site_fract_y
_atom_site_fract_z
Si Si1 0.283809 0.340323 0.274830
Si Si2 0.784667 0.160079 0.150855
Si Si3 0.720060 0.836655 0.393279
Si Si4 0.282976 0.661256 0.790571
Si Si5 0.220950 0.662305 0.031054
Si Si6 0.786628 0.158842 0.912727
Si Si7 0.719581 0.336751 0.651614
Si Si8 0.719668 0.837047 0.532555
O O1 0.500000 0.348882 0.280780
O O2 0.215567 0.500000 0.267757
O O3 0.247747 0.244990 0.214465
O O4 0.216734 0.262155 0.337249
O O5 0.718772 0.250026 0.091668
O O6 0.000000 0.150050 0.143240
O O7 0.714336 0.000000 0.153146
O O8 0.500000 0.836125 0.392589
O O9 0.775918 0.789885 0.463015
O O10 0.773762 0.000000 0.384091
O O11 0.500000 0.655570 0.788559
O O12 0.220128 0.500000 0.801686
O O13 0.234641 0.764506 0.846437
O O14 0.221951 0.708378 0.721275
O O15 0.278841 0.500000 0.032839
O O16 0.000000 0.660218 0.031180
O O17 0.282827 0.742337 0.968502
O O18 0.000000 0.147162 0.924196
O O19 0.712707 0.000000 0.912960
O O20 0.500000 0.329304 0.651213
O O21 0.768303 0.500000 0.644848
O O22 0.784136 0.249674 0.592153
O O23 0.500000 0.831268 0.532911
O O24 0.770346 0.000000 0.538935
#
# Coordination Sequence:
#
# PCOD9337425 Si02
#       8
#     4   4   4   4   4   4   4   4
#     4  10  20  32  47  70  99 129 160 194 234 279
#     4  10  20  34  53  75  97 123 156 193 233 278
#     4   8  14  25  40  59  87 122 156 191 232 276
#     4   9  18  32  48  68  96 128 160 194 234 280
#     4   9  17  31  52  74  95 121 153 191 234 276
#     4  10  20  33  50  73  98 123 155 194 233 277
#     4   8  14  24  38  58  86 118 150 187 231 275
#     4   8  13  21  35  57  84 115 152 190 227 270
#
# _framework density 21.259557999999998
#
# number of rings (size 3 to 8) (size 9 to 14) (size 15 to 20)
#    0.000    3.000    0.000    3.000    0.000    5.000 
#    0.000    4.375    0.000    3.750    0.000    0.875 
#    0.000    5.000    0.000    0.000    0.000    0.000 
#
# Total GULP energy -178627.842216 kJ/mol
# GULP energy per Si atom -5582.120069 kJ/mol
# Density = 2.121117 g / cm^3
# Si number density = 21.259558 Si / 1000 Ang^3
#
#
#
# Elastic Constant Matrix: (Units=GPa)
#
#
# Indices 1 2 3 4 5 6 
#
# 1 68.7317 6.5298 0.4211 0.0000 0.0000 0.0000
# 2 6.5298 186.1481 151.2284 0.0000 0.0000 0.0000
# 3 0.4211 151.2284 242.9845 0.0000 0.0000 0.0000
# 4 0.0000 0.0000 0.0000 45.1796 0.0000 0.0000
# 5 0.0000 0.0000 0.0000 0.0000 20.2940 0.0000
# 6 0.0000 0.0000 0.0000 0.0000 0.0000 6.1447
#
#
#
# Elastic Compliance Matrix: (Units=1/GPa)
#
#
# Indices 1 2 3 4 5 6 
#
# 1 0.014640 -0.000997 0.000595 0.000000 0.000000 0.000000
# 2 -0.000997 0.010934 -0.006804 0.000000 0.000000 0.000000
# 3 0.000595 -0.006804 0.008349 0.000000 0.000000 0.000000
# 4 0.000000 0.000000 0.000000 0.022134 0.000000 0.000000
# 5 0.000000 0.000000 0.000000 0.000000 0.049276 0.000000
# 6 0.000000 0.000000 0.000000 0.000000 0.000000 0.162742
#
#
# Mechanical properties :
#
#
# Convention : Reuss Voigt Hill
#
# Bulk Modulus (GPa) = 51.24880 90.46921 70.85900
# Shear Modulus (GPa) = 17.30160 36.96932 27.13546
#
# Velocity S-wave (km/s) = 2.85586 4.17460 3.57653
# Velocity P-wave (km/s) = 5.91888 8.11685 7.10340
#
# Compressibility (1/GPa) = 0.01951265
#
# Stress axis : x y z
#
# Youngs Moduli (GPa) = 68.30404 91.45512 119.77691
#
# Poissons Ratio (x) = 0.09119 -0.07129
# Poissons Ratio (y) = 0.06811 0.81491
# Poissons Ratio (z) = -0.04066 0.62222
#
# Static dielectric constant tensor:
#      x y z
#    x 1.852150 0.000000 0.000000 
#    y 0.000000 1.735140 0.000000 
#    z 0.000000 0.000000 1.739320 
# 
# From -- ./inp_files/6370.got.cif
#   From: 2010.05.17/outbox.cif.g08.bks.cpg/sg25_4_cif.got.tgz:6370.got - 2010.06.04 01:04:00.
