data_PCOD9337042
_publ_section_title
;
Structure prediction by ZEFSAII (Michael W. Deem and Ramdas Pophale) SiO2 
 PCOD9337042
Probable space group: I 21 21 21
;
_chemical_formula_sum "Si O2"
_cell_formula_units_Z 30
_cell_length_a 15.000000
_cell_length_b 24.000000
_cell_length_c 9.000000
_cell_angle_alpha 90.000000
_cell_angle_beta 90.000000
_cell_angle_gamma 90.000000
_cell_volume 3240.000000
_symmetry_space_group_name_H-M "I 21 21 21"
_symmetry_group_IT_number 24
_symmetry_cell_setting 'orthorhombic'
loop_
_space_group_symop_operation_xyz
x,y,z
-x,1/2-y,z
x,-y,1/2-z
1/2-x,y,-z
1/2+x,1/2+y,1/2+z
1/2-x,-y,1/2+z
1/2+x,1/2-y,-z
-x,1/2+y,1/2-z
loop_
_atom_site_type_symbol
_atom_site_label
_atom_site_fract_x
_atom_site_fract_y
_atom_site_fract_z
Si Si1 0.350229 0.229626 0.068772
Si Si2 0.157618 0.329665 0.699256
Si Si3 0.644045 0.398028 0.149738
Si Si4 0.000000 0.750000 0.327553
Si Si5 0.662313 0.436296 0.805974
Si Si6 0.536336 0.939184 0.192138
Si Si7 0.630887 0.833117 0.847822
Si Si8 0.519970 0.940927 0.837329
O O1 0.368976 0.280760 0.183741
O O2 0.357829 0.168950 0.143469
O O3 0.250000 0.235570 0.000000
O O4 0.423311 0.227063 0.937719
O O5 0.107332 0.389200 0.727250
O O6 0.132969 0.319737 0.525061
O O7 0.266083 0.330110 0.705502
O O8 0.739396 0.412367 0.223828
O O9 0.557812 0.422120 0.232714
O O10 0.646179 0.424317 0.981961
O O11 0.942023 0.792927 0.228731
O O12 0.666940 0.500000 0.750000
O O13 0.574282 0.415381 0.719856
O O14 0.565659 0.000000 0.250000
O O15 0.519595 0.946871 0.015594
O O16 0.597058 0.895602 0.812413
O O17 0.532285 0.000000 0.750000
#
# Coordination Sequence:
#
# PCOD9337042 Si02
#       8
#     8   8   8   4   8   8   8   8
#     4  12  23  43  66 101 134 173 228 286 341 409
#     4  10  24  45  65  96 131 172 216 278 338 401
#     4  11  23  39  61  89 129 173 217 273 336 403
#     4  12  24  38  70  96 126 172 218 268 336 392
#     4  10  20  36  58  86 125 166 216 272 329 400
#     4  11  23  41  64  92 127 170 217 272 337 404
#     4  10  23  43  67  90 129 170 216 267 332 405
#     4  10  22  38  60  89 122 163 216 270 326 392
#
# _framework density 9.2592590000000001
#
# number of rings (size 3 to 8) (size 9 to 14) (size 15 to 20)
#    0.000    1.333    2.667    3.600    0.000    6.933 
#    0.000    1.333    0.000    0.000    0.000    0.000 
#    0.000    0.000    0.000    0.000    0.000    0.000 
#
# Total GULP energy -167342.721084 kJ/mol
# GULP energy per Si atom -5578.090703 kJ/mol
# Density = 0.923818 g / cm^3
# Si number density = 9.259259 Si / 1000 Ang^3
#
#
#
# Elastic Constant Matrix: (Units=GPa)
#
#
# Indices 1 2 3 4 5 6 
#
# 1 134.1366 54.2602 51.2058 0.0001 -0.0001 0.0000
# 2 54.2602 143.6113 66.5861 0.0000 0.0000 0.0000
# 3 51.2058 66.5861 88.6999 -0.0003 0.0002 -0.0006
# 4 0.0001 0.0000 -0.0003 34.1674 0.0002 -0.0001
# 5 -0.0001 0.0000 0.0002 0.0002 34.9226 0.0001
# 6 0.0000 0.0000 -0.0006 -0.0001 0.0001 40.2603
#
#
#
# Elastic Compliance Matrix: (Units=1/GPa)
#
#
# Indices 1 2 3 4 5 6 
#
# 1 0.009813 -0.001658 -0.004420 0.000000 0.000000 0.000000
# 2 -0.001658 0.010961 -0.007271 0.000000 0.000000 0.000000
# 3 -0.004420 -0.007271 0.019284 0.000000 0.000000 0.000000
# 4 0.000000 0.000000 0.000000 0.029268 0.000000 0.000000
# 5 0.000000 0.000000 0.000000 0.000000 0.028635 0.000000
# 6 0.000000 0.000000 0.000000 0.000000 0.000000 0.024838
#
#
# Mechanical properties :
#
#
# Convention : Reuss Voigt Hill
#
# Bulk Modulus (GPa) = 74.85470 78.95021 76.90246
# Shear Modulus (GPa) = 32.47776 34.82976 33.65376
#
# Velocity S-wave (km/s) = 4.19238 4.34153 4.26761
# Velocity P-wave (km/s) = 7.99650 8.23757 8.11793
#
# Compressibility (1/GPa) = 0.01335921
#
# Stress axis : x y z
#
# Youngs Moduli (GPa) = 101.90252 91.23243 51.85621
#
# Poissons Ratio (x) = 0.15128 0.22922
# Poissons Ratio (y) = 0.16898 0.37705
# Poissons Ratio (z) = 0.45044 0.66335
#
# Static dielectric constant tensor:
#      x y z
#    x 1.641130 0.000000 0.000000 
#    y 0.000000 1.657850 0.000000 
#    z 0.000000 0.000000 1.647630 
# 
# From -- ./inp_files/13321.got.cif
#   From: 2010.05.17/outbox.ucp.g08.bks.cvg/sg24_7_cif.got.tgz:13321.got - 2010.06.11 15:20:44.
