data_PCOD9337819
_publ_section_title
;
Structure prediction by ZEFSAII (Michael W. Deem and Ramdas Pophale) SiO2 
 PCOD9337819
Probable space group: P M M 2
;
_chemical_formula_sum "Si O2"
_cell_formula_units_Z 24
_cell_length_a 19.704581
_cell_length_b 7.696617
_cell_length_c 7.880239
_cell_angle_alpha 90.000000
_cell_angle_beta 90.000000
_cell_angle_gamma 90.000000
_cell_volume 1195.106118
_symmetry_space_group_name_H-M "P M M 2"
_symmetry_group_IT_number 25
_symmetry_cell_setting 'orthorhombic'
loop_
_space_group_symop_operation_xyz
x,y,z
-x,-y,z
-x,y,z
x,-y,z
loop_
_atom_site_type_symbol
_atom_site_label
_atom_site_fract_x
_atom_site_fract_y
_atom_site_fract_z
Si Si1 0.924035 0.205478 0.081730
Si Si2 0.672941 0.287886 0.775290
Si Si3 0.327085 0.287884 0.388177
Si Si4 0.422066 0.287068 0.081716
Si Si5 0.173302 0.708442 0.391333
Si Si6 0.173266 0.291542 0.772066
O O1 0.881035 0.251066 0.248369
O O2 0.000000 0.282328 0.081736
O O3 0.930451 0.000000 0.081833
O O4 0.881075 0.250925 0.914987
O O5 0.672670 0.500000 0.777827
O O6 0.657473 0.235377 0.581740
O O7 0.750181 0.231623 0.815680
O O8 0.619347 0.230343 0.915293
O O9 0.327361 0.500000 0.385635
O O10 0.380688 0.230343 0.248193
O O11 0.249851 0.231600 0.347738
O O12 0.500000 0.230705 0.081674
O O13 0.422153 0.500000 0.081712
O O14 0.177212 0.500000 0.400150
O O15 0.156301 0.771974 0.581687
O O16 0.177141 0.500000 0.763347
#
# Coordination Sequence:
#
# PCOD9337819 Si02
#       6
#     4   4   4   4   4   4
#     4  11  24  37  49  71 104 135 156 186 244 307
#     4   8  14  25  41  61  85 115 154 198 237 271
#     4   8  14  25  41  61  85 115 154 198 237 271
#     4   9  15  20  30  54  90 129 158 180 220 281
#     4   9  18  34  56  76  93 123 169 212 244 279
#     4   9  18  34  56  76  93 123 169 212 244 279
#
# _framework density 20.081899
#
# number of rings (size 3 to 8) (size 9 to 14) (size 15 to 20)
#    0.000    3.000    0.000    3.500    0.000    6.000 
#    0.000    6.667    0.000    0.000    0.000    0.000 
#    0.000   10.667    0.000   29.333    0.000   29.333 
#
# Total GULP energy -133878.282556 kJ/mol
# GULP energy per Si atom -5578.261773 kJ/mol
# Density = 2.003619 g / cm^3
# Si number density = 20.081899 Si / 1000 Ang^3
#
#
#
# Elastic Constant Matrix: (Units=GPa)
#
#
# Indices 1 2 3 4 5 6 
#
# 1 211.2878 9.8653 166.8785 0.0000 0.0000 0.0000
# 2 9.8653 31.7422 6.5877 0.0000 0.0000 0.0000
# 3 166.8785 6.5877 188.8695 0.0000 0.0000 0.0000
# 4 0.0000 0.0000 0.0000 -70.5203 0.0000 0.0000
# 5 0.0000 0.0000 0.0000 0.0000 -6.6211 0.0000
# 6 0.0000 0.0000 0.0000 0.0000 0.0000 62.8915
#
#
#
# Elastic Compliance Matrix: (Units=1/GPa)
#
#
# Indices 1 2 3 4 5 6 
#
# 1 0.015793 -0.002027 -0.013883 0.000000 0.000000 0.000000
# 2 -0.002027 0.031994 0.000675 0.000000 0.000000 0.000000
# 3 -0.013883 0.000675 0.017538 0.000000 0.000000 0.000000
# 4 0.000000 0.000000 0.000000 -0.014180 0.000000 0.000000
# 5 0.000000 0.000000 0.000000 0.000000 -0.151032 0.000000
# 6 0.000000 0.000000 0.000000 0.000000 0.000000 0.015900
#
#
# Mechanical properties :
#
#
# Convention : Reuss Voigt Hill
#
# Bulk Modulus (GPa) = 28.69117 88.72914 58.71016
# Shear Modulus (GPa) = -119.33223 13.72122 -52.80550
#
# Velocity S-wave (km/s) = -7.71698 2.61677 -5.13344
# Velocity P-wave (km/s) = 8.06748 7.30818 2.41607
#
# Compressibility (1/GPa) = 0.03485393
#
# Stress axis : x y z
#
# Youngs Moduli (GPa) = 63.32071 31.25621 57.01987
#
# Poissons Ratio (x) = 0.06336 0.79161
# Poissons Ratio (y) = 0.12835 -0.03849
# Poissons Ratio (z) = 0.87909 -0.02110
#
# Static dielectric constant tensor:
#      x y z
#    x 1.700890 0.000000 0.000000 
#    y 0.000000 1.742760 0.000000 
#    z 0.000000 0.000000 2.453390 
# 
# From -- ./inp_files/3340.got.cif
#   From: 2010.05.17/outbox.cif.g08.bks.cpg/sg25_2_cif.got.tgz:3340.got - 2010.06.04 01:04:00.
