data_PCOD9337195
_publ_section_title
;
Structure prediction by ZEFSAII (Michael W. Deem and Ramdas Pophale) SiO2 
 PCOD9337195
Probable space group: P M M 2
;
_chemical_formula_sum "Si O2"
_cell_formula_units_Z 32
_cell_length_a 16.101192
_cell_length_b 7.610978
_cell_length_c 12.176584
_cell_angle_alpha 90.000000
_cell_angle_beta 90.000000
_cell_angle_gamma 90.000000
_cell_volume 1492.189448
_symmetry_space_group_name_H-M "P M M 2"
_symmetry_group_IT_number 25
_symmetry_cell_setting 'orthorhombic'
loop_
_space_group_symop_operation_xyz
x,y,z
-x,-y,z
-x,y,z
x,-y,z
loop_
_atom_site_type_symbol
_atom_site_label
_atom_site_fract_x
_atom_site_fract_y
_atom_site_fract_z
Si Si1 0.858193 0.295239 0.477310
Si Si2 0.246795 0.707406 0.865256
Si Si3 0.748697 0.794424 0.117490
Si Si4 0.406765 0.212269 0.719846
Si Si5 0.592275 0.214944 0.251496
Si Si6 0.909573 0.204652 0.236337
Si Si7 0.335917 0.787120 0.486007
Si Si8 0.907543 0.714869 0.718201
O O1 0.880633 0.500000 0.469795
O O2 0.891026 0.210164 0.366139
O O3 0.758695 0.276925 0.482566
O O4 0.893569 0.226430 0.592518
O O5 0.234433 0.500000 0.877282
O O6 0.333206 0.736393 0.801864
O O7 0.169029 0.775863 0.793306
O O8 0.249586 0.782933 0.987074
O O9 0.664249 0.721916 0.170001
O O10 0.831374 0.715611 0.172275
O O11 0.748558 0.000000 0.149447
O O12 0.500000 0.273264 0.747893
O O13 0.380801 0.271209 0.597441
O O14 0.408717 0.000000 0.718430
O O15 0.500000 0.275447 0.223170
O O16 0.616980 0.265816 0.375354
O O17 0.590517 0.000000 0.249023
O O18 0.000000 0.284328 0.214469
O O19 0.914129 0.000000 0.203623
O O20 0.333282 0.000000 0.487160
O O21 0.904257 0.500000 0.716512
O O22 0.000000 0.765405 0.755905
#
# Coordination Sequence:
#
# PCOD9337195 Si02
#       8
#     4   4   4   4   4   4   4   4
#     4  11  20  33  57  86 117 149 183 225 280 344
#     4  11  23  39  58  81 111 150 193 240 285 331
#     4  10  21  38  57  80 110 147 189 234 281 331
#     4  10  21  37  60  88 116 148 187 232 282 341
#     4   9  17  32  57  84 108 139 179 223 274 330
#     4  10  21  38  59  84 115 149 186 231 282 334
#     4  10  18  33  58  86 115 144 181 229 280 335
#     4   9  19  36  56  79 110 148 186 226 278 337
#
# _framework density 21.444997000000001
#
# number of rings (size 3 to 8) (size 9 to 14) (size 15 to 20)
#    0.000    2.000    2.500    1.500    0.000    4.000 
#    0.000    1.250    0.000    5.250    0.000    0.000 
#    0.000    0.000    0.000    0.000    0.000    0.000 
#
# Total GULP energy -178783.355553 kJ/mol
# GULP energy per Si atom -5586.979861 kJ/mol
# Density = 2.139619 g / cm^3
# Si number density = 21.444997 Si / 1000 Ang^3
#
#
#
# Elastic Constant Matrix: (Units=GPa)
#
#
# Indices 1 2 3 4 5 6 
#
# 1 218.3588 -1.3954 85.8708 0.0000 0.0000 0.0000
# 2 -1.3954 42.7773 -11.2054 0.0000 0.0000 0.0000
# 3 85.8708 -11.2054 125.9946 0.0000 0.0000 0.0000
# 4 0.0000 0.0000 0.0000 130.4033 0.0000 0.0000
# 5 0.0000 0.0000 0.0000 0.0000 3.5645 0.0000
# 6 0.0000 0.0000 0.0000 0.0000 0.0000 6.7387
#
#
#
# Elastic Compliance Matrix: (Units=1/GPa)
#
#
# Indices 1 2 3 4 5 6 
#
# 1 0.006293 -0.000940 -0.004373 0.000000 0.000000 0.000000
# 2 -0.000940 0.024075 0.002782 0.000000 0.000000 0.000000
# 3 -0.004373 0.002782 0.011164 0.000000 0.000000 0.000000
# 4 0.000000 0.000000 0.000000 0.007669 0.000000 0.000000
# 5 0.000000 0.000000 0.000000 0.000000 0.280544 0.000000
# 6 0.000000 0.000000 0.000000 0.000000 0.000000 0.148397
#
#
# Mechanical properties :
#
#
# Convention : Reuss Voigt Hill
#
# Bulk Modulus (GPa) = 27.41933 59.29675 43.35804
# Shear Modulus (GPa) = 10.09365 49.06533 29.57949
#
# Velocity S-wave (km/s) = 2.17186 4.78845 3.71795
# Velocity P-wave (km/s) = 4.37069 7.63433 6.22037
#
# Compressibility (1/GPa) = 0.03647063
#
# Stress axis : x y z
#
# Youngs Moduli (GPa) = 158.90160 41.53699 89.57006
#
# Poissons Ratio (x) = 0.03905 0.39166
# Poissons Ratio (y) = 0.14939 -0.24917
# Poissons Ratio (z) = 0.69483 -0.11555
#
# Static dielectric constant tensor:
#      x y z
#    x 1.784760 0.000000 0.000000 
#    y 0.000000 1.804430 0.000000 
#    z 0.000000 0.000000 1.722110 
# 
# From -- ./inp_files/4169.got.cif
#   From: 2010.05.17/outbox.cif.g08.bks.cpg/sg25_3_cif.got.tgz:4169.got - 2010.06.04 01:04:00.
