data_PCOD9337208
_publ_section_title
;
Structure prediction by ZEFSAII (Michael W. Deem and Ramdas Pophale) SiO2 
 PCOD9337208
Probable space group: P M M 2
;
_chemical_formula_sum "Si O2"
_cell_formula_units_Z 32
_cell_length_a 22.810053
_cell_length_b 7.352371
_cell_length_c 7.385444
_cell_angle_alpha 90.000000
_cell_angle_beta 90.000000
_cell_angle_gamma 90.000000
_cell_volume 1238.597837
_symmetry_space_group_name_H-M "P M M 2"
_symmetry_group_IT_number 25
_symmetry_cell_setting 'orthorhombic'
loop_
_space_group_symop_operation_xyz
x,y,z
-x,-y,z
-x,y,z
x,-y,z
loop_
_atom_site_type_symbol
_atom_site_label
_atom_site_fract_x
_atom_site_fract_y
_atom_site_fract_z
Si Si1 0.687655 0.787640 0.339160
Si Si2 0.062908 0.788824 0.420501
Si Si3 0.686722 0.297387 0.935675
Si Si4 0.813954 0.777924 0.484354
Si Si5 0.063134 0.279083 0.853055
Si Si6 0.563035 0.281844 0.390015
Si Si7 0.185864 0.704776 0.900536
Si Si8 0.436781 0.278099 0.963424
O O1 0.678365 0.687076 0.150971
O O2 0.749680 0.725807 0.417140
O O3 0.628086 0.770086 0.454846
O O4 0.694140 0.000000 0.297426
O O5 0.128009 0.717480 0.374601
O O6 0.062637 0.779196 0.641775
O O7 0.000000 0.706696 0.363229
O O8 0.061938 0.000000 0.368671
O O9 0.691918 0.500000 0.852467
O O10 0.624472 0.213703 0.878197
O O11 0.750444 0.205925 0.923722
O O12 0.819477 0.699495 0.684164
O O13 0.815591 0.000000 0.494338
O O14 0.065668 0.500000 0.855097
O O15 0.122539 0.213417 0.950346
O O16 0.000000 0.222912 0.930174
O O17 0.500000 0.217804 0.465548
O O18 0.561807 0.500000 0.400776
O O19 0.562168 0.228209 0.176627
O O20 0.190171 0.500000 0.977303
O O21 0.500000 0.222077 0.887726
O O22 0.434784 0.500000 0.954105
#
# Coordination Sequence:
#
# PCOD9337208 Si02
#       8
#     4   4   4   4   4   4   4   4
#     4  10  19  29  43  65  91 118 146 175 213 261
#     4   8  13  23  40  59  78 104 140 179 215 251
#     4   9  17  29  44  63  86 111 142 178 213 253
#     4   9  18  30  43  63  90 116 143 178 220 262
#     4   8  13  22  37  58  82 104 130 171 218 256
#     4   8  14  26  44  64  85 110 142 180 217 250
#     4   9  17  28  44  65  85 110 145 179 214 259
#     4   7  10  19  37  58  77  98 126 163 204 237
#
# _framework density 25.835667999999998
#
# number of rings (size 3 to 8) (size 9 to 14) (size 15 to 20)
#    0.000    3.500    0.000    1.875    0.000    1.750 
#    0.000    0.000    0.000    1.500    0.000    1.750 
#    0.000    0.000    0.000    0.000    0.000    0.000 
#
# Total GULP energy -178260.571609 kJ/mol
# GULP energy per Si atom -5570.642863 kJ/mol
# Density = 2.577686 g / cm^3
# Si number density = 25.835668 Si / 1000 Ang^3
#
#
#
# Elastic Constant Matrix: (Units=GPa)
#
#
# Indices 1 2 3 4 5 6 
#
# 1 359.9190 15.3855 11.7397 0.0000 0.0000 0.0000
# 2 15.3855 108.2592 -4.4327 0.0000 0.0000 0.0000
# 3 11.7397 -4.4327 61.7741 0.0000 0.0000 0.0000
# 4 0.0000 0.0000 0.0000 -1.0793 0.0000 0.0000
# 5 0.0000 0.0000 0.0000 0.0000 18.1814 0.0000
# 6 0.0000 0.0000 0.0000 0.0000 0.0000 21.8692
#
#
#
# Elastic Compliance Matrix: (Units=1/GPa)
#
#
# Indices 1 2 3 4 5 6 
#
# 1 0.002815 -0.000423 -0.000565 0.000000 0.000000 0.000000
# 2 -0.000423 0.009328 0.000750 0.000000 0.000000 0.000000
# 3 -0.000565 0.000750 0.016349 0.000000 0.000000 0.000000
# 4 0.000000 0.000000 0.000000 -0.926501 0.000000 0.000000
# 5 0.000000 0.000000 0.000000 0.000000 0.055001 0.000000
# 6 0.000000 0.000000 0.000000 0.000000 0.000000 0.045726
#
#
# Mechanical properties :
#
#
# Convention : Reuss Voigt Hill
#
# Bulk Modulus (GPa) = 35.69565 63.92637 49.81101
# Shear Modulus (GPa) = -6.34948 41.61158 17.63105
#
# Velocity S-wave (km/s) = -1.56939 4.01761 2.61517
# Velocity P-wave (km/s) = 3.24999 6.80579 5.33297
#
# Compressibility (1/GPa) = 0.02801462
#
# Stress axis : x y z
#
# Youngs Moduli (GPa) = 355.24827 107.20492 61.16484
#
# Poissons Ratio (x) = 0.04537 0.03458
# Poissons Ratio (y) = 0.15034 -0.04586
# Poissons Ratio (z) = 0.20083 -0.08038
#
# Static dielectric constant tensor:
#      x y z
#    x 2.224080 0.000000 0.000000 
#    y 0.000000 2.012360 0.000000 
#    z 0.000000 0.000000 2.034620 
# 
# From -- ./inp_files/5095.got.cif
#   From: 2010.05.17/outbox.cif.g08.bks.cpg/sg25_3_cif.got.tgz:5095.got - 2010.06.04 01:04:00.
