data_PCOD9337135
_publ_section_title
;
Structure prediction by ZEFSAII (Michael W. Deem and Ramdas Pophale) SiO2 
 PCOD9337135
Probable space group: P M M 2
;
_chemical_formula_sum "Si O2"
_cell_formula_units_Z 28
_cell_length_a 7.519205
_cell_length_b 15.092573
_cell_length_c 13.136621
_cell_angle_alpha 90.000000
_cell_angle_beta 90.000000
_cell_angle_gamma 90.000000
_cell_volume 1490.798273
_symmetry_space_group_name_H-M "P M M 2"
_symmetry_group_IT_number 25
_symmetry_cell_setting 'orthorhombic'
loop_
_space_group_symop_operation_xyz
x,y,z
-x,-y,z
-x,y,z
x,-y,z
loop_
_atom_site_type_symbol
_atom_site_label
_atom_site_fract_x
_atom_site_fract_y
_atom_site_fract_z
Si Si1 0.789539 0.597332 0.747530
Si Si2 0.211031 0.214858 0.807862
Si Si3 0.285950 0.100111 0.002847
Si Si4 0.785249 0.898703 0.616152
Si Si5 0.711531 0.780501 0.418219
Si Si6 0.282712 0.898481 0.233481
Si Si7 0.284672 0.401462 0.508167
O O1 0.713881 0.500000 0.772725
O O2 0.715600 0.685416 0.800255
O O3 0.768431 0.610162 0.626087
O O4 0.000000 0.593112 0.769589
O O5 0.280944 0.152776 0.716583
O O6 0.000000 0.222219 0.789208
O O7 0.234771 0.168153 0.915715
O O8 0.500000 0.097512 0.005299
O O9 0.226788 0.121967 0.117749
O O10 0.223719 0.000000 0.978126
O O11 0.738193 0.842994 0.516166
O O12 0.000000 0.902180 0.621276
O O13 0.720641 0.000000 0.611532
O O14 0.500000 0.770903 0.403297
O O15 0.781992 0.830404 0.318554
O O16 0.781559 0.682550 0.444351
O O17 0.500000 0.897591 0.234851
O O18 0.230099 0.000000 0.257042
O O19 0.500000 0.400706 0.505612
O O20 0.225721 0.500000 0.475685
#
# Coordination Sequence:
#
# PCOD9337135 Si02
#       7
#     4   4   4   4   4   4   4
#     4   9  17  30  48  67  88 119 155 184 217 269
#     4  10  19  31  47  67  93 121 149 185 230 273
#     4   9  18  32  49  67  88 119 159 195 224 262
#     4  10  20  31  42  63  97 126 144 176 229 277
#     4  10  18  29  48  69  90 120 155 186 221 270
#     4   8  15  29  47  66  88 116 153 194 228 259
#     4   9  17  28  43  67  96 120 146 185 227 263
#
# _framework density 18.781882
#
# number of rings (size 3 to 8) (size 9 to 14) (size 15 to 20)
#    0.000    2.714    1.429    1.714    0.000    2.857 
#    0.000    0.714    0.000    1.714    0.000    2.000 
#    0.000    0.000    0.000    0.000    0.000    0.000 
#
# Total GULP energy -156172.692559 kJ/mol
# GULP energy per Si atom -5577.596163 kJ/mol
# Density = 1.873913 g / cm^3
# Si number density = 18.781882 Si / 1000 Ang^3
#
#
#
# Elastic Constant Matrix: (Units=GPa)
#
#
# Indices 1 2 3 4 5 6 
#
# 1 46.0791 2.8662 -7.4728 0.0000 0.0000 0.0000
# 2 2.8662 208.1424 108.3120 0.0000 0.0000 0.0000
# 3 -7.4728 108.3120 114.8791 0.0000 0.0000 0.0000
# 4 0.0000 0.0000 0.0000 22.5310 0.0000 0.0000
# 5 0.0000 0.0000 0.0000 0.0000 24.6093 0.0000
# 6 0.0000 0.0000 0.0000 0.0000 0.0000 9.5471
#
#
#
# Elastic Compliance Matrix: (Units=1/GPa)
#
#
# Indices 1 2 3 4 5 6 
#
# 1 0.022388 -0.002093 0.003430 0.000000 0.000000 0.000000
# 2 -0.002093 0.009628 -0.009213 0.000000 0.000000 0.000000
# 3 0.003430 -0.009213 0.017615 0.000000 0.000000 0.000000
# 4 0.000000 0.000000 0.000000 0.044383 0.000000 0.000000
# 5 0.000000 0.000000 0.000000 0.000000 0.040635 0.000000
# 6 0.000000 0.000000 0.000000 0.000000 0.000000 0.104744
#
#
# Mechanical properties :
#
#
# Convention : Reuss Voigt Hill
#
# Bulk Modulus (GPa) = 29.51853 64.05684 46.78768
# Shear Modulus (GPa) = 18.76604 29.03049 23.89826
#
# Velocity S-wave (km/s) = 3.16437 3.93576 3.57096
# Velocity P-wave (km/s) = 5.39459 7.40495 6.47823
#
# Compressibility (1/GPa) = 0.03387703
#
# Stress axis : x y z
#
# Youngs Moduli (GPa) = 44.66634 103.86727 56.77089
#
# Poissons Ratio (x) = 0.21740 -0.19471
# Poissons Ratio (y) = 0.09349 0.52306
# Poissons Ratio (z) = -0.15319 0.95698
#
# Static dielectric constant tensor:
#      x y z
#    x 1.711900 0.000000 0.000000 
#    y 0.000000 1.681840 0.000000 
#    z 0.000000 0.000000 1.609710 
# 
# From -- ./inp_files/4067.got.cif
#   From: 2010.05.17/outbox.cif.g08.bks.cpg/sg25_3_cif.got.tgz:4067.got - 2010.06.04 01:04:00.
