data_PCOD9337478
_publ_section_title
;
Structure prediction by ZEFSAII (Michael W. Deem and Ramdas Pophale) SiO2 
 PCOD9337478
Probable space group: P M M 2
;
_chemical_formula_sum "Si O2"
_cell_formula_units_Z 32
_cell_length_a 9.554866
_cell_length_b 7.435860
_cell_length_c 21.850989
_cell_angle_alpha 90.000000
_cell_angle_beta 90.000000
_cell_angle_gamma 90.000000
_cell_volume 1552.483180
_symmetry_space_group_name_H-M "P M M 2"
_symmetry_group_IT_number 25
_symmetry_cell_setting 'orthorhombic'
loop_
_space_group_symop_operation_xyz
x,y,z
-x,-y,z
-x,y,z
x,-y,z
loop_
_atom_site_type_symbol
_atom_site_label
_atom_site_fract_x
_atom_site_fract_y
_atom_site_fract_z
Si Si1 0.161420 0.216244 0.107890
Si Si2 0.169766 0.786227 0.239089
Si Si3 0.662086 0.218949 0.488403
Si Si4 0.157826 0.712904 0.743186
Si Si5 0.162652 0.779933 0.372221
Si Si6 0.160006 0.286542 0.973471
Si Si7 0.661020 0.279498 0.858113
Si Si8 0.660125 0.783603 0.624692
O O1 0.221352 0.282604 0.172999
O O2 0.000000 0.281150 0.104952
O O3 0.157671 0.000000 0.111895
O O4 0.221992 0.259565 0.041516
O O5 0.216506 0.717236 0.305437
O O6 0.000000 0.766263 0.238305
O O7 0.198249 0.000000 0.239796
O O8 0.500000 0.268579 0.480659
O O9 0.752411 0.281869 0.431165
O O10 0.705365 0.277203 0.556716
O O11 0.668549 0.000000 0.488016
O O12 0.146203 0.500000 0.754052
O O13 0.253904 0.782318 0.798395
O O14 0.236174 0.734917 0.678872
O O15 0.000000 0.786641 0.742618
O O16 0.000000 0.729838 0.377727
O O17 0.167103 0.000000 0.371366
O O18 0.148746 0.500000 0.964643
O O19 0.257319 0.219212 0.918963
O O20 0.000000 0.213675 0.971241
O O21 0.500000 0.221829 0.856781
O O22 0.659470 0.500000 0.858032
O O23 0.500000 0.720925 0.636026
O O24 0.654663 0.000000 0.622749
#
# Coordination Sequence:
#
# PCOD9337478 Si02
#       8
#     4   4   4   4   4   4   4   4
#     4   8  13  22  37  57  82 111 138 165 204 253
#     4   7  10  17  30  50  75 101 132 170 206 241
#     4   8  14  24  37  55  82 113 141 172 211 251
#     4  10  20  33  50  72  94 115 144 184 225 264
#     4   8  12  18  31  52  75 100 135 176 210 242
#     4   9  16  26  42  64  85 103 131 175 216 246
#     4   9  17  30  48  66  84 111 145 176 209 254
#     4   9  18  32  48  67  93 123 152 182 219 265
#
# _framework density 20.612138999999999
#
# number of rings (size 3 to 8) (size 9 to 14) (size 15 to 20)
#    0.000    3.500    0.000    3.000    0.000    3.000 
#    0.000    1.875    0.000    3.375    0.000    2.625 
#    0.000    3.000    0.000    0.000    0.000    0.250 
#
# Total GULP energy -178276.635060 kJ/mol
# GULP energy per Si atom -5571.144846 kJ/mol
# Density = 2.056523 g / cm^3
# Si number density = 20.612139 Si / 1000 Ang^3
#
#
#
# Elastic Constant Matrix: (Units=GPa)
#
#
# Indices 1 2 3 4 5 6 
#
# 1 97.0558 5.1889 114.5740 0.0000 0.0000 0.0000
# 2 5.1889 61.8829 2.5126 0.0000 0.0000 0.0000
# 3 114.5740 2.5126 259.4689 0.0000 0.0000 0.0000
# 4 0.0000 0.0000 0.0000 19.9108 0.0000 0.0000
# 5 0.0000 0.0000 0.0000 0.0000 -72.2783 0.0000
# 6 0.0000 0.0000 0.0000 0.0000 0.0000 -0.2702
#
#
#
# Elastic Compliance Matrix: (Units=1/GPa)
#
#
# Indices 1 2 3 4 5 6 
#
# 1 0.021648 -0.001428 -0.009545 0.000000 0.000000 0.000000
# 2 -0.001428 0.016260 0.000473 0.000000 0.000000 0.000000
# 3 -0.009545 0.000473 0.008064 0.000000 0.000000 0.000000
# 4 0.000000 0.000000 0.000000 0.050224 0.000000 0.000000
# 5 0.000000 0.000000 0.000000 0.000000 -0.013835 0.000000
# 6 0.000000 0.000000 0.000000 0.000000 0.000000 -3.701298
#
#
# Mechanical properties :
#
#
# Convention : Reuss Voigt Hill
#
# Bulk Modulus (GPa) = 40.04426 73.66206 56.85316
# Shear Modulus (GPa) = -1.39291 9.21461 3.91085
#
# Velocity S-wave (km/s) = -0.82294 2.11664 1.37894
# Velocity P-wave (km/s) = 4.30891 6.46439 5.49341
#
# Compressibility (1/GPa) = 0.02497237
#
# Stress axis : x y z
#
# Youngs Moduli (GPa) = 46.19423 61.50043 124.00298
#
# Poissons Ratio (x) = 0.08780 1.18363
# Poissons Ratio (y) = 0.06595 -0.05865
# Poissons Ratio (z) = 0.44093 -0.02909
#
# Static dielectric constant tensor:
#      x y z
#    x 1.698040 0.000000 0.000000 
#    y 0.000000 1.809120 0.000000 
#    z 0.000000 0.000000 1.767680 
# 
# From -- ./inp_files/6555.got.cif
#   From: 2010.05.17/outbox.cif.g08.bks.cpg/sg25_4_cif.got.tgz:6555.got - 2010.06.04 01:04:00.
