data_PCOD9337097
_publ_section_title
;
Structure prediction by ZEFSAII (Michael W. Deem and Ramdas Pophale) SiO2 
 PCOD9337097
Probable space group: P M M 2
;
_chemical_formula_sum "Si O2"
_cell_formula_units_Z 28
_cell_length_a 7.481650
_cell_length_b 15.075419
_cell_length_c 13.189805
_cell_angle_alpha 90.000000
_cell_angle_beta 90.000000
_cell_angle_gamma 90.000000
_cell_volume 1487.665029
_symmetry_space_group_name_H-M "P M M 2"
_symmetry_group_IT_number 25
_symmetry_cell_setting 'orthorhombic'
loop_
_space_group_symop_operation_xyz
x,y,z
-x,-y,z
-x,y,z
x,-y,z
loop_
_atom_site_type_symbol
_atom_site_label
_atom_site_fract_x
_atom_site_fract_y
_atom_site_fract_z
Si Si1 0.786745 0.600602 0.326810
Si Si2 0.218509 0.601983 0.710812
Si Si3 0.217683 0.098061 0.832500
Si Si4 0.218596 0.715771 0.514057
Si Si5 0.217405 0.098398 0.595342
Si Si6 0.287956 0.600168 0.095545
Si Si7 0.789191 0.284637 0.902000
O O1 0.716008 0.500000 0.339972
O O2 0.719452 0.668472 0.411304
O O3 0.755693 0.627170 0.210500
O O4 0.000000 0.595577 0.340996
O O5 0.277302 0.500000 0.708319
O O6 0.270758 0.656412 0.610906
O O7 0.281336 0.652742 0.811754
O O8 0.000000 0.600614 0.711869
O O9 0.264934 0.110506 0.713868
O O10 0.281345 0.184334 0.893071
O O11 0.000000 0.095581 0.836795
O O12 0.279639 0.000000 0.864736
O O13 0.278305 0.816727 0.532050
O O14 0.000000 0.717390 0.513006
O O15 0.000000 0.098091 0.592399
O O16 0.277014 0.000000 0.563221
O O17 0.500000 0.594535 0.088094
O O18 0.214475 0.500000 0.079139
O O19 0.229856 0.667974 0.009448
O O20 0.000000 0.277295 0.881376
#
# Coordination Sequence:
#
# PCOD9337097 Si02
#       7
#     4   4   4   4   4   4   4
#     4   9  17  29  46  66  86 112 150 191 223 257
#     4   9  15  21  33  60  94 119 138 169 217 266
#     4   8  13  22  38  64  97 125 147 176 218 266
#     4   9  14  22  37  61  91 117 141 174 218 263
#     4   8  12  19  33  57  92 125 145 166 208 267
#     4  10  21  35  48  62  85 119 156 192 230 271
#     4  10  17  27  46  70  93 118 150 186 222 265
#
# _framework density 18.821441
#
# number of rings (size 3 to 8) (size 9 to 14) (size 15 to 20)
#    0.000    3.000    1.429    2.143    0.000    3.143 
#    0.000    0.000    0.000    2.143    0.000    6.000 
#    0.000    0.000    0.000    0.000    0.000    0.000 
#
# Total GULP energy -156142.355733 kJ/mol
# GULP energy per Si atom -5576.512705 kJ/mol
# Density = 1.877860 g / cm^3
# Si number density = 18.821441 Si / 1000 Ang^3
#
#
#
# Elastic Constant Matrix: (Units=GPa)
#
#
# Indices 1 2 3 4 5 6 
#
# 1 49.4722 5.4923 -6.2597 0.0000 0.0000 0.0000
# 2 5.4923 208.7635 120.9264 0.0000 0.0000 0.0000
# 3 -6.2597 120.9264 127.8585 0.0000 0.0000 0.0000
# 4 0.0000 0.0000 0.0000 25.5668 0.0000 0.0000
# 5 0.0000 0.0000 0.0000 0.0000 -137.2149 0.0000
# 6 0.0000 0.0000 0.0000 0.0000 0.0000 -8.5151
#
#
#
# Elastic Compliance Matrix: (Units=1/GPa)
#
#
# Indices 1 2 3 4 5 6 
#
# 1 0.020927 -0.002530 0.003417 0.000000 0.000000 0.000000
# 2 -0.002530 0.010900 -0.010433 0.000000 0.000000 0.000000
# 3 0.003417 -0.010433 0.017856 0.000000 0.000000 0.000000
# 4 0.000000 0.000000 0.000000 0.039113 0.000000 0.000000
# 5 0.000000 0.000000 0.000000 0.000000 -0.007288 0.000000
# 6 0.000000 0.000000 0.000000 0.000000 0.000000 -0.117438
#
#
# Mechanical properties :
#
#
# Convention : Reuss Voigt Hill
#
# Bulk Modulus (GPa) = 32.68907 69.60136 51.14522
# Shear Modulus (GPa) = -752.72172 -6.30363 -379.51267
#
# Velocity S-wave (km/s) = -20.01989 -1.83206 -14.21535
# Velocity P-wave (km/s) = 22.73739 5.70831 15.56284
#
# Compressibility (1/GPa) = 0.03059127
#
# Stress axis : x y z
#
# Youngs Moduli (GPa) = 47.78592 91.74429 56.00487
#
# Poissons Ratio (x) = 0.23212 -0.19140
# Poissons Ratio (y) = 0.12090 0.58429
# Poissons Ratio (z) = -0.16331 0.95715
#
# Static dielectric constant tensor:
#      x y z
#    x 1.706870 0.000000 0.000000 
#    y 0.000000 1.671320 0.000000 
#    z 0.000000 0.000000 1.619300 
# 
# From -- ./inp_files/4061.got.cif
#   From: 2010.05.17/outbox.cif.g08.bks.cpg/sg25_3_cif.got.tgz:4061.got - 2010.06.04 01:04:00.
