data_PCOD9337374
_publ_section_title
;
Structure prediction by ZEFSAII (Michael W. Deem and Ramdas Pophale) SiO2 
 PCOD9337374
Probable space group: P M M 2
;
_chemical_formula_sum "Si O2"
_cell_formula_units_Z 28
_cell_length_a 7.451962
_cell_length_b 10.038114
_cell_length_c 18.371804
_cell_angle_alpha 90.000000
_cell_angle_beta 90.000000
_cell_angle_gamma 90.000000
_cell_volume 1374.277888
_symmetry_space_group_name_H-M "P M M 2"
_symmetry_group_IT_number 25
_symmetry_cell_setting 'orthorhombic'
loop_
_space_group_symop_operation_xyz
x,y,z
-x,-y,z
-x,y,z
x,-y,z
loop_
_atom_site_type_symbol
_atom_site_label
_atom_site_fract_x
_atom_site_fract_y
_atom_site_fract_z
Si Si1 0.214755 0.848527 0.750000
Si Si2 0.780949 0.347655 0.459190
Si Si3 0.280999 0.651782 0.038437
Si Si4 0.787473 0.849169 0.334433
Si Si5 0.714836 0.848555 0.913521
Si Si6 0.284021 0.349278 0.203884
Si Si7 0.781101 0.651926 0.624967
O O1 0.249676 0.798518 0.831790
O O2 0.282913 0.753442 0.686285
O O3 0.000000 0.855113 0.741796
O O4 0.284733 0.000000 0.745063
O O5 0.725579 0.500000 0.442167
O O6 0.715485 0.240805 0.400725
O O7 0.727403 0.315719 0.542120
O O8 0.000000 0.348007 0.457654
O O9 0.500000 0.654769 0.038290
O O10 0.228242 0.500000 0.021755
O O11 0.224524 0.681516 0.121338
O O12 0.217057 0.753979 0.977471
O O13 0.766432 0.762742 0.261423
O O14 0.000000 0.860870 0.347266
O O15 0.715487 0.000000 0.329573
O O16 0.500000 0.854933 0.921472
O O17 0.784675 0.000000 0.918483
O O18 0.500000 0.354152 0.202734
O O19 0.221714 0.500000 0.223259
O O20 0.726613 0.500000 0.640463
O O21 0.000000 0.653688 0.625594
#
# Coordination Sequence:
#
# PCOD9337374 Si02
#       7
#     4   4   4   4   4   4   4
#     4   9  17  28  42  62  88 115 142 176 219 261
#     4   8  14  26  44  64  87 117 151 186 224 264
#     4   8  15  29  48  68  87 109 144 187 222 256
#     4  10  20  31  45  70 100 125 152 188 229 273
#     4   9  17  29  45  64  86 114 146 176 211 260
#     4   9  18  33  52  71  91 119 155 192 231 276
#     4   8  14  25  42  64  87 112 146 185 220 256
#
# _framework density 20.374336
#
# number of rings (size 3 to 8) (size 9 to 14) (size 15 to 20)
#    0.000    3.286    0.000    2.143    0.000    2.857 
#    0.000    5.000    0.000    3.429    0.000    4.000 
#    0.000    0.000    0.000    0.000    0.000    0.000 
#
# Total GULP energy -156175.435321 kJ/mol
# GULP energy per Si atom -5577.694119 kJ/mol
# Density = 2.032796 g / cm^3
# Si number density = 20.374336 Si / 1000 Ang^3
#
#
#
# Elastic Constant Matrix: (Units=GPa)
#
#
# Indices 1 2 3 4 5 6 
#
# 1 61.1053 5.8007 1.1004 0.0000 0.0000 0.0000
# 2 5.8007 159.9257 147.2591 0.0000 0.0000 0.0000
# 3 1.1004 147.2591 186.3128 0.0000 0.0000 0.0000
# 4 0.0000 0.0000 0.0000 314.1344 0.0000 0.0000
# 5 0.0000 0.0000 0.0000 0.0000 20.6668 0.0000
# 6 0.0000 0.0000 0.0000 0.0000 0.0000 4.6986
#
#
#
# Elastic Compliance Matrix: (Units=1/GPa)
#
#
# Indices 1 2 3 4 5 6 
#
# 1 0.016518 -0.001871 0.001381 0.000000 0.000000 0.000000
# 2 -0.001871 0.023182 -0.018312 0.000000 0.000000 0.000000
# 3 0.001381 -0.018312 0.019833 0.000000 0.000000 0.000000
# 4 0.000000 0.000000 0.000000 0.003183 0.000000 0.000000
# 5 0.000000 0.000000 0.000000 0.000000 0.048387 0.000000
# 6 0.000000 0.000000 0.000000 0.000000 0.000000 0.212828
#
#
# Mechanical properties :
#
#
# Convention : Reuss Voigt Hill
#
# Bulk Modulus (GPa) = 45.60052 79.51823 62.55938
# Shear Modulus (GPa) = 13.55585 84.77887 49.16736
#
# Velocity S-wave (km/s) = 2.58222 6.45763 4.91776
# Velocity P-wave (km/s) = 5.59646 9.73214 7.93836
#
# Compressibility (1/GPa) = 0.02192957
#
# Stress axis : x y z
#
# Youngs Moduli (GPa) = 60.54032 43.13613 50.42168
#
# Poissons Ratio (x) = 0.08070 -0.06964
# Poissons Ratio (y) = 0.11327 0.92332
# Poissons Ratio (z) = -0.08362 0.78991
#
# Static dielectric constant tensor:
#      x y z
#    x 1.799050 0.000000 0.000000 
#    y 0.000000 1.707220 0.000000 
#    z 0.000000 0.000000 1.696570 
# 
# From -- ./inp_files/6246.got.cif
#   From: 2010.05.17/outbox.cif.g08.bks.cpg/sg25_4_cif.got.tgz:6246.got - 2010.06.04 01:04:00.
