data_PCOD9337535
_publ_section_title
;
Structure prediction by ZEFSAII (Michael W. Deem and Ramdas Pophale) SiO2 
 PCOD9337535
Probable space group: P M M 2
;
_chemical_formula_sum "Si O2"
_cell_formula_units_Z 32
_cell_length_a 8.397427
_cell_length_b 24.514066
_cell_length_c 7.993920
_cell_angle_alpha 90.000000
_cell_angle_beta 90.000000
_cell_angle_gamma 90.000000
_cell_volume 1645.589039
_symmetry_space_group_name_H-M "P M M 2"
_symmetry_group_IT_number 25
_symmetry_cell_setting 'orthorhombic'
loop_
_space_group_symop_operation_xyz
x,y,z
-x,-y,z
-x,y,z
x,-y,z
loop_
_atom_site_type_symbol
_atom_site_label
_atom_site_fract_x
_atom_site_fract_y
_atom_site_fract_z
Si Si1 0.807525 0.937478 0.401360
Si Si2 0.308234 0.633752 0.086875
Si Si3 0.192478 0.131606 0.079428
Si Si4 0.694915 0.437174 0.402010
Si Si5 0.692475 0.364611 0.715356
Si Si6 0.192213 0.750465 0.206158
Si Si7 0.311384 0.131380 0.716505
Si Si8 0.809138 0.752487 0.597828
O O1 0.753875 0.905852 0.234150
O O2 0.755644 0.905160 0.566114
O O3 0.000000 0.937450 0.398261
O O4 0.752317 0.000000 0.403452
O O5 0.500000 0.630747 0.087531
O O6 0.250703 0.594760 0.236033
O O7 0.260221 0.695742 0.126445
O O8 0.252790 0.618611 0.900646
O O9 0.244369 0.193884 0.116386
O O10 0.000000 0.131365 0.078187
O O11 0.251568 0.113321 0.898704
O O12 0.500000 0.436713 0.401692
O O13 0.745246 0.500000 0.403912
O O14 0.747488 0.404043 0.566245
O O15 0.500000 0.365447 0.713998
O O16 0.746790 0.303152 0.678008
O O17 0.237432 0.753285 0.401846
O O18 0.000000 0.747998 0.197824
O O19 0.500000 0.129337 0.711843
O O20 0.255063 0.193413 0.685498
O O21 0.000000 0.753431 0.607315
#
# Coordination Sequence:
#
# PCOD9337535 Si02
#       8
#     4   4   4   4   4   4   4   4
#     4  10  22  43  68  90 116 157 207 250 288 338
#     4  10  20  33  53  80 110 142 182 225 278 343
#     4  10  21  40  63  89 119 154 200 245 289 347
#     4   9  18  33  52  76 109 147 186 231 280 332
#     4  10  20  34  54  83 112 144 184 231 287 344
#     4  10  20  35  58  84 112 145 185 234 286 339
#     4  12  25  39  60  92 127 159 192 238 297 355
#     4  11  21  37  60  85 114 151 193 236 286 348
#
# _framework density 19.445923000000001
#
# number of rings (size 3 to 8) (size 9 to 14) (size 15 to 20)
#    0.000    1.750    2.500    2.250    0.000    5.250 
#    0.000    3.750    0.000    1.500    0.000    1.750 
#    0.000    0.000    0.000    0.000    0.000    0.000 
#
# Total GULP energy -178798.424418 kJ/mol
# GULP energy per Si atom -5587.450763 kJ/mol
# Density = 1.940166 g / cm^3
# Si number density = 19.445923 Si / 1000 Ang^3
#
#
#
# Elastic Constant Matrix: (Units=GPa)
#
#
# Indices 1 2 3 4 5 6 
#
# 1 7.1662 14.4381 22.4408 0.0000 0.0000 0.0000
# 2 14.4381 164.1544 97.6651 0.0000 0.0000 0.0000
# 3 22.4408 97.6651 203.7744 0.0000 0.0000 0.0000
# 4 0.0000 0.0000 0.0000 -1.9765 0.0000 0.0000
# 5 0.0000 0.0000 0.0000 0.0000 14.4612 0.0000
# 6 0.0000 0.0000 0.0000 0.0000 0.0000 23.7789
#
#
#
# Elastic Compliance Matrix: (Units=1/GPa)
#
#
# Indices 1 2 3 4 5 6 
#
# 1 0.218371 -0.006853 -0.020764 0.000000 0.000000 0.000000
# 2 -0.006853 0.008737 -0.003433 0.000000 0.000000 0.000000
# 3 -0.020764 -0.003433 0.008839 0.000000 0.000000 0.000000
# 4 0.000000 0.000000 0.000000 -0.505945 0.000000 0.000000
# 5 0.000000 0.000000 0.000000 0.000000 0.069151 0.000000
# 6 0.000000 0.000000 0.000000 0.000000 0.000000 0.042054
#
#
# Mechanical properties :
#
#
# Convention : Reuss Voigt Hill
#
# Bulk Modulus (GPa) = 5.75214 71.57590 38.66402
# Shear Modulus (GPa) = -129.05287 23.28946 -52.88171
#
# Velocity S-wave (km/s) = -8.15531 3.46447 -5.22047
# Velocity P-wave (km/s) = 9.25820 7.27262 4.05113
#
# Compressibility (1/GPa) = 0.17384837
#
# Stress axis : x y z
#
# Youngs Moduli (GPa) = 4.57935 114.45685 113.13172
#
# Poissons Ratio (x) = 0.78439 2.34904
# Poissons Ratio (y) = 0.03138 0.38835
# Poissons Ratio (z) = 0.09508 0.39290
#
# Static dielectric constant tensor:
#      x y z
#    x 1.671190 0.000000 0.000000 
#    y 0.000000 1.647070 0.000000 
#    z 0.000000 0.000000 1.685950 
# 
# From -- ./inp_files/2402.got.cif
#   From: 2010.05.17/outbox.cif.g08.bks.cpg/sg25_2_cif.got.tgz:2402.got - 2010.06.04 01:04:00.
