data_PCOD9337978
_publ_section_title
;
Structure prediction by ZEFSAII (Michael W. Deem and Ramdas Pophale) SiO2 
 PCOD9337978
Probable space group: P M C 21
;
_chemical_formula_sum "Si O2"
_cell_formula_units_Z 32
_cell_length_a 7.447308
_cell_length_b 12.761408
_cell_length_c 14.674875
_cell_angle_alpha 90.000000
_cell_angle_beta 90.000000
_cell_angle_gamma 90.000000
_cell_volume 1394.672764
_symmetry_space_group_name_H-M "P M C 21"
_symmetry_group_IT_number 26
_symmetry_cell_setting 'orthorhombic'
loop_
_space_group_symop_operation_xyz
x,y,z
-x,-y,1/2+z
-x,y,z
x,-y,1/2+z
loop_
_atom_site_type_symbol
_atom_site_label
_atom_site_fract_x
_atom_site_fract_y
_atom_site_fract_z
Si Si1 0.717288 0.178869 0.008600
Si Si2 0.214642 0.677426 0.787461
Si Si3 0.282737 0.744079 0.124829
Si Si4 0.718084 0.049483 0.520263
Si Si5 0.715427 0.080651 0.311225
Si Si6 0.793404 0.395423 0.097854
Si Si7 0.205780 0.575089 0.975000
Si Si8 0.718782 0.848407 0.298332
O O1 0.500000 0.184861 0.013756
O O2 0.792182 0.278593 0.058799
O O3 0.774936 0.066576 0.048333
O O4 0.768690 0.174722 0.902160
O O5 0.242497 0.802813 0.776721
O O6 0.286150 0.614627 0.699399
O O7 0.000000 0.665782 0.787415
O O8 0.282926 0.631450 0.884391
O O9 0.500000 0.733815 0.121280
O O10 0.228882 0.855549 0.082776
O O11 0.208390 0.656573 0.058565
O O12 0.225051 0.757165 0.229253
O O13 0.500000 0.047261 0.519539
O O14 0.773984 0.074876 0.417050
O O15 0.500000 0.075501 0.307990
O O16 0.777088 0.967538 0.272424
O O17 0.710703 0.471634 0.021306
O O18 0.000000 0.430977 0.109085
O O19 0.000000 0.548884 0.950390
O O20 0.500000 0.850272 0.295344
#
# Coordination Sequence:
#
# PCOD9337978 Si02
#       8
#     4   4   4   4   4   4   4   4
#     4   9  18  35  55  80 111 142 179 219 264 319
#     4  10  21  37  55  77 105 137 177 227 273 316
#     4  10  18  32  55  83 111 142 179 219 264 316
#     4   8  15  28  50  80 111 139 168 212 264 314
#     4   9  16  31  54  80 109 143 179 212 260 323
#     4  10  23  40  56  77 106 143 183 225 276 323
#     4  10  22  40  57  75 106 146 184 225 272 320
#     4   8  17  31  52  82 117 148 173 213 269 321
#
# _framework density 22.944448999999999
#
# number of rings (size 3 to 8) (size 9 to 14) (size 15 to 20)
#    0.000    2.750    1.250    1.500    1.750    2.000 
#    0.000    5.625    0.000    0.000    0.000    0.000 
#    0.000    0.000    0.000    0.000    0.000    0.000 
#
# Total GULP energy -178499.131143 kJ/mol
# GULP energy per Si atom -5578.097848 kJ/mol
# Density = 2.289223 g / cm^3
# Si number density = 22.944449 Si / 1000 Ang^3
#
#
#
# Elastic Constant Matrix: (Units=GPa)
#
#
# Indices 1 2 3 4 5 6 
#
# 1 69.0471 -1.8847 4.2634 0.0000 0.0000 0.0000
# 2 -1.8847 94.7630 36.0741 0.0000 0.0000 0.0000
# 3 4.2634 36.0741 65.0883 0.0000 0.0000 0.0000
# 4 0.0000 0.0000 0.0000 28.4969 0.0000 0.0000
# 5 0.0000 0.0000 0.0000 0.0000 10.2649 0.0000
# 6 0.0000 0.0000 0.0000 0.0000 0.0000 12.4444
#
#
#
# Elastic Compliance Matrix: (Units=1/GPa)
#
#
# Indices 1 2 3 4 5 6 
#
# 1 0.014593 0.000829 -0.001415 0.000000 0.000000 0.000000
# 2 0.000829 0.013422 -0.007493 0.000000 0.000000 0.000000
# 3 -0.001415 -0.007493 0.019609 0.000000 0.000000 0.000000
# 4 0.000000 0.000000 0.000000 0.035092 0.000000 0.000000
# 5 0.000000 0.000000 0.000000 0.000000 0.097420 0.000000
# 6 0.000000 0.000000 0.000000 0.000000 0.000000 0.080358
#
#
# Mechanical properties :
#
#
# Convention : Reuss Voigt Hill
#
# Bulk Modulus (GPa) = 31.78117 33.97821 32.87969
# Shear Modulus (GPa) = 17.41315 22.93761 20.17538
#
# Velocity S-wave (km/s) = 2.75785 3.16524 2.96854
# Velocity P-wave (km/s) = 4.90127 5.31031 5.10988
#
# Compressibility (1/GPa) = 0.03146517
#
# Stress axis : x y z
#
# Youngs Moduli (GPa) = 68.52657 74.50720 50.99627
#
# Poissons Ratio (x) = -0.06177 0.07218
# Poissons Ratio (y) = -0.05681 0.38211
# Poissons Ratio (z) = 0.09699 0.55828
#
# Static dielectric constant tensor:
#      x y z
#    x 1.897680 0.000000 0.000000 
#    y 0.000000 1.835010 0.000000 
#    z 0.000000 0.000000 1.879940 
# 
# From -- ./inp_files/4227.got.cif
#   From: 2010.05.17/outbox.cif.g08.bks.cpg/sg26_3_cif.got.tgz:4227.got - 2010.06.04 01:07:29.
