data_PCOD9337349
_publ_section_title
;
Structure prediction by ZEFSAII (Michael W. Deem and Ramdas Pophale) SiO2 
 PCOD9337349
Probable space group: P M M 2
;
_chemical_formula_sum "Si O2"
_cell_formula_units_Z 16
_cell_length_a 7.798131
_cell_length_b 8.922348
_cell_length_c 12.084834
_cell_angle_alpha 90.000000
_cell_angle_beta 90.000000
_cell_angle_gamma 90.000000
_cell_volume 840.834212
_symmetry_space_group_name_H-M "P M M 2"
_symmetry_group_IT_number 25
_symmetry_cell_setting 'orthorhombic'
loop_
_space_group_symop_operation_xyz
x,y,z
-x,-y,z
-x,y,z
x,-y,z
loop_
_atom_site_type_symbol
_atom_site_label
_atom_site_fract_x
_atom_site_fract_y
_atom_site_fract_z
Si Si1 0.196675 0.820408 0.247930
Si Si2 0.500000 0.321511 0.388960
Si Si3 0.500000 0.178513 0.631486
Si Si4 0.293705 0.824429 0.997591
Si Si5 0.804226 0.677503 0.770968
O O1 0.333654 0.735370 0.322247
O O2 0.000000 0.789080 0.278646
O O3 0.226293 0.000000 0.257736
O O4 0.225542 0.782556 0.118692
O O5 0.500000 0.500000 0.396623
O O6 0.500000 0.249838 0.510262
O O7 0.333775 0.234350 0.698563
O O8 0.500000 0.000000 0.624743
O O9 0.500000 0.811250 0.998207
O O10 0.220185 0.727322 0.898050
O O11 0.250957 0.000000 0.978485
O O12 0.773060 0.500000 0.760737
O O13 0.000000 0.709030 0.737153
#
# Coordination Sequence:
#
# PCOD9337349 Si02
#       5
#     4   2   2   4   4
#     4  10  21  40  66  93 124 163 208 255 300 356
#     4  12  26  43  64  89 124 163 201 255 311 368
#     4  12  26  45  68  89 116 159 211 261 303 360
#     4  10  19  35  63  95 127 164 205 250 300 358
#     4  11  24  41  63  93 129 164 200 249 309 369
#
# _framework density 19.028721000000001
#
# number of rings (size 3 to 8) (size 9 to 14) (size 15 to 20)
#    0.000    1.250    2.500    3.750    0.000    5.500 
#    0.000    0.000    0.000    0.000    0.000    0.000 
#    0.000    0.000    0.000    0.000    0.000    0.000 
#
# Total GULP energy -89496.897897 kJ/mol
# GULP energy per Si atom -5593.556119 kJ/mol
# Density = 1.898541 g / cm^3
# Si number density = 19.028721 Si / 1000 Ang^3
#
#
#
# Elastic Constant Matrix: (Units=GPa)
#
#
# Indices 1 2 3 4 5 6 
#
# 1 141.9559 95.9076 82.9439 0.0000 0.0000 0.0000
# 2 95.9076 118.8690 84.7271 0.0000 0.0000 0.0000
# 3 82.9439 84.7271 139.8683 0.0000 0.0000 0.0000
# 4 0.0000 0.0000 0.0000 91.4661 0.0000 0.0000
# 5 0.0000 0.0000 0.0000 0.0000 -11.3560 0.0000
# 6 0.0000 0.0000 0.0000 0.0000 0.0000 -9.7204
#
#
#
# Elastic Compliance Matrix: (Units=1/GPa)
#
#
# Indices 1 2 3 4 5 6 
#
# 1 0.016155 -0.010922 -0.002964 0.000000 0.000000 0.000000
# 2 -0.010922 0.022189 -0.006964 0.000000 0.000000 0.000000
# 3 -0.002964 -0.006964 0.013126 0.000000 0.000000 0.000000
# 4 0.000000 0.000000 0.000000 0.010933 0.000000 0.000000
# 5 0.000000 0.000000 0.000000 0.000000 -0.088060 0.000000
# 6 0.000000 0.000000 0.000000 0.000000 0.000000 -0.102877
#
#
# Mechanical properties :
#
#
# Convention : Reuss Voigt Hill
#
# Bulk Modulus (GPa) = 102.36076 103.09449 102.72762
# Shear Modulus (GPa) = -59.82643 23.21893 -18.30375
#
# Velocity S-wave (km/s) = -5.61323 3.49693 -3.10482
# Velocity P-wave (km/s) = 3.44941 8.40242 6.42258
#
# Compressibility (1/GPa) = 0.00976937
#
# Stress axis : x y z
#
# Youngs Moduli (GPa) = 61.89852 45.06784 76.18329
#
# Poissons Ratio (x) = 0.49222 0.22583
# Poissons Ratio (y) = 0.67605 0.53057
# Poissons Ratio (z) = 0.18349 0.31387
#
# Static dielectric constant tensor:
#      x y z
#    x 1.656190 0.000000 0.000000 
#    y 0.000000 1.633650 0.000000 
#    z 0.000000 0.000000 1.627460 
# 
# From -- ./inp_files/3694.got.cif
#   From: 2010.05.17/outbox.cif.g08.bks.cpg/sg25_2_cif.got.tgz:3694.got - 2010.06.04 01:04:00.
