data_PCOD9337577
_publ_section_title
;
Structure prediction by ZEFSAII (Michael W. Deem and Ramdas Pophale) SiO2 
 PCOD9337577
Probable space group: P M M 2
;
_chemical_formula_sum "Si O2"
_cell_formula_units_Z 28
_cell_length_a 8.222903
_cell_length_b 9.365976
_cell_length_c 18.495586
_cell_angle_alpha 90.000000
_cell_angle_beta 90.000000
_cell_angle_gamma 90.000000
_cell_volume 1424.447028
_symmetry_space_group_name_H-M "P M M 2"
_symmetry_group_IT_number 25
_symmetry_cell_setting 'orthorhombic'
loop_
_space_group_symop_operation_xyz
x,y,z
-x,-y,z
-x,y,z
x,-y,z
loop_
_atom_site_type_symbol
_atom_site_label
_atom_site_fract_x
_atom_site_fract_y
_atom_site_fract_z
Si Si1 0.693659 0.162902 0.139730
Si Si2 0.804135 0.662648 0.279224
Si Si3 0.801745 0.335488 0.560155
Si Si4 0.806556 0.663401 0.000574
Si Si5 0.306441 0.163689 0.862028
Si Si6 0.800859 0.836082 0.420027
Si Si7 0.803424 0.666514 0.723285
O O1 0.500000 0.157205 0.146571
O O2 0.760590 0.248819 0.208156
O O3 0.756834 0.000000 0.137956
O O4 0.735320 0.245427 0.066280
O O5 0.742994 0.500000 0.275255
O O6 0.746551 0.743442 0.351362
O O7 0.000000 0.656395 0.283610
O O8 0.753371 0.500000 0.547066
O O9 0.747093 0.234712 0.495303
O O10 0.751547 0.294830 0.641514
O O11 0.000000 0.333790 0.560184
O O12 0.745005 0.500000 0.000846
O O13 0.768509 0.740159 0.925149
O O14 0.000000 0.658805 0.010259
O O15 0.500000 0.162762 0.872441
O O16 0.266672 0.233113 0.784864
O O17 0.247330 0.000000 0.866010
O O18 0.000000 0.834704 0.420117
O O19 0.749341 0.000000 0.413605
O O20 0.759020 0.500000 0.735690
O O21 0.000000 0.674194 0.726253
#
# Coordination Sequence:
#
# PCOD9337577 Si02
#       7
#     4   4   4   4   4   4   4
#     4  11  24  40  58  82 112 144 178 217 264 318
#     4  10  20  34  54  80 109 143 184 226 268 317
#     4   8  14  26  45  71 104 138 173 219 272 322
#     4  11  24  41  62  87 111 137 175 220 264 314
#     4  11  24  39  55  79 111 145 181 220 265 318
#     4   9  16  26  44  73 107 141 178 222 272 321
#     4   9  18  33  54  80 108 140 181 226 271 321
#
# _framework density 19.656751
#
# number of rings (size 3 to 8) (size 9 to 14) (size 15 to 20)
#    0.000    2.143    0.000    4.286    0.000   12.000 
#    0.000    1.429    0.000    0.857    0.000    4.000 
#    0.000    0.000    0.000    0.000    0.000    0.000 
#
# Total GULP energy -156398.747632 kJ/mol
# GULP energy per Si atom -5585.669558 kJ/mol
# Density = 1.961201 g / cm^3
# Si number density = 19.656751 Si / 1000 Ang^3
#
#
#
# Elastic Constant Matrix: (Units=GPa)
#
#
# Indices 1 2 3 4 5 6 
#
# 1 9.9369 9.4740 -2.5112 0.0000 0.0000 0.0000
# 2 9.4740 176.5435 96.4299 0.0000 0.0000 0.0000
# 3 -2.5112 96.4299 138.9111 0.0000 0.0000 0.0000
# 4 0.0000 0.0000 0.0000 104.2530 0.0000 0.0000
# 5 0.0000 0.0000 0.0000 0.0000 -73.2631 0.0000
# 6 0.0000 0.0000 0.0000 0.0000 0.0000 -50.7527
#
#
#
# Elastic Compliance Matrix: (Units=1/GPa)
#
#
# Indices 1 2 3 4 5 6 
#
# 1 0.114370 -0.011705 0.010193 0.000000 0.000000 0.000000
# 2 -0.011705 0.010322 -0.007377 0.000000 0.000000 0.000000
# 3 0.010193 -0.007377 0.012504 0.000000 0.000000 0.000000
# 4 0.000000 0.000000 0.000000 0.009592 0.000000 0.000000
# 5 0.000000 0.000000 0.000000 0.000000 -0.013649 0.000000
# 6 0.000000 0.000000 0.000000 0.000000 0.000000 -0.019703
#
#
# Mechanical properties :
#
#
# Convention : Reuss Voigt Hill
#
# Bulk Modulus (GPa) = 8.37391 59.13077 33.75234
# Shear Modulus (GPa) = 29.23646 10.84734 20.04190
#
# Velocity S-wave (km/s) = 3.86080 2.35167 3.19657
# Velocity P-wave (km/s) = 4.91362 6.12542 5.55268
#
# Compressibility (1/GPa) = 0.11941851
#
# Stress axis : x y z
#
# Youngs Moduli (GPa) = 8.74351 96.88279 79.97456
#
# Poissons Ratio (x) = 1.13402 -0.81519
# Poissons Ratio (y) = 0.10234 0.58996
# Poissons Ratio (z) = -0.08912 0.71468
#
# Static dielectric constant tensor:
#      x y z
#    x 1.691430 0.000000 0.000000 
#    y 0.000000 1.678260 0.000000 
#    z 0.000000 0.000000 1.653170 
# 
# From -- ./inp_files/6088.got.cif
#   From: 2010.05.17/outbox.cif.g08.bks.cpg/sg25_4_cif.got.tgz:6088.got - 2010.06.04 01:04:00.
