data_PCOD9337205
_publ_section_title
;
Structure prediction by ZEFSAII (Michael W. Deem and Ramdas Pophale) SiO2 
 PCOD9337205
Probable space group: P M M 2
;
_chemical_formula_sum "Si O2"
_cell_formula_units_Z 32
_cell_length_a 7.687174
_cell_length_b 14.830192
_cell_length_c 16.272774
_cell_angle_alpha 90.000000
_cell_angle_beta 90.000000
_cell_angle_gamma 90.000000
_cell_volume 1855.133116
_symmetry_space_group_name_H-M "P M M 2"
_symmetry_group_IT_number 25
_symmetry_cell_setting 'orthorhombic'
loop_
_space_group_symop_operation_xyz
x,y,z
-x,-y,z
-x,y,z
x,-y,z
loop_
_atom_site_type_symbol
_atom_site_label
_atom_site_fract_x
_atom_site_fract_y
_atom_site_fract_z
Si Si1 0.212417 0.105299 0.255400
Si Si2 0.786491 0.212268 0.415589
Si Si3 0.291976 0.103345 0.896665
Si Si4 0.787781 0.600693 0.485091
Si Si5 0.209399 0.600197 0.674885
Si Si6 0.294429 0.209146 0.738726
Si Si7 0.791031 0.895860 0.075497
Si Si8 0.793262 0.101555 0.574448
O O1 0.271354 0.165708 0.331383
O O2 0.267689 0.139002 0.164654
O O3 0.000000 0.105667 0.256595
O O4 0.263366 0.000000 0.265007
O O5 0.731156 0.315367 0.430193
O O6 0.726958 0.154297 0.494416
O O7 0.000000 0.211797 0.415411
O O8 0.500000 0.097538 0.888376
O O9 0.222983 0.162855 0.821365
O O10 0.223146 0.000000 0.892774
O O11 0.258995 0.143434 0.987359
O O12 0.731940 0.500000 0.460442
O O13 0.733887 0.615619 0.580151
O O14 0.000000 0.600749 0.485153
O O15 0.269846 0.500000 0.699956
O O16 0.260368 0.684726 0.729755
O O17 0.000000 0.598338 0.673156
O O18 0.500000 0.196400 0.739529
O O19 0.230424 0.158574 0.657078
O O20 0.000000 0.896694 0.077562
O O21 0.729645 0.000000 0.072839
O O22 0.000000 0.094139 0.561947
O O23 0.722250 0.000000 0.582299
#
# Coordination Sequence:
#
# PCOD9337205 Si02
#       8
#     4   4   4   4   4   4   4   4
#     4   8  13  21  35  58  85 107 131 172 222 260
#     4   9  14  22  38  60  85 112 143 176 212 256
#     4   9  18  31  44  59  83 116 149 178 214 259
#     4   8  13  22  38  59  82 108 139 176 212 246
#     4   9  17  31  49  66  86 112 145 186 224 256
#     4  11  21  31  44  63  89 118 147 181 221 264
#     4   8  14  25  41  61  82 104 136 180 223 256
#     4  10  19  29  42  61  86 119 157 185 207 250
#
# _framework density 17.249434999999998
#
# number of rings (size 3 to 8) (size 9 to 14) (size 15 to 20)
#    0.000    3.000    1.250    2.625    0.000    3.500 
#    0.000    1.250    0.000    0.750    0.000    2.625 
#    0.000    3.000    0.000    0.000    0.000    0.000 
#
# Total GULP energy -178257.904614 kJ/mol
# GULP energy per Si atom -5570.559519 kJ/mol
# Density = 1.721017 g / cm^3
# Si number density = 17.249435 Si / 1000 Ang^3
#
#
#
# Elastic Constant Matrix: (Units=GPa)
#
#
# Indices 1 2 3 4 5 6 
#
# 1 25.7861 1.9536 3.1637 0.0000 0.0000 0.0000
# 2 1.9536 118.3879 82.6511 0.0000 0.0000 0.0000
# 3 3.1637 82.6511 165.1297 0.0000 0.0000 0.0000
# 4 0.0000 0.0000 0.0000 34.8338 0.0000 0.0000
# 5 0.0000 0.0000 0.0000 0.0000 33.8643 0.0000
# 6 0.0000 0.0000 0.0000 0.0000 0.0000 5.2223
#
#
#
# Elastic Compliance Matrix: (Units=1/GPa)
#
#
# Indices 1 2 3 4 5 6 
#
# 1 0.038875 -0.000187 -0.000651 0.000000 0.000000 0.000000
# 2 -0.000187 0.012985 -0.006496 0.000000 0.000000 0.000000
# 3 -0.000651 -0.006496 0.009319 0.000000 0.000000 0.000000
# 4 0.000000 0.000000 0.000000 0.028708 0.000000 0.000000
# 5 0.000000 0.000000 0.000000 0.000000 0.029530 0.000000
# 6 0.000000 0.000000 0.000000 0.000000 0.000000 0.191487
#
#
# Mechanical properties :
#
#
# Convention : Reuss Voigt Hill
#
# Bulk Modulus (GPa) = 21.50008 53.87119 37.68564
# Shear Modulus (GPa) = 14.65955 29.55310 22.10633
#
# Velocity S-wave (km/s) = 2.91839 4.14367 3.58378
# Velocity P-wave (km/s) = 4.88337 7.36151 6.24656
#
# Compressibility (1/GPa) = 0.04651145
#
# Stress axis : x y z
#
# Youngs Moduli (GPa) = 25.72375 77.01382 107.30197
#
# Poissons Ratio (x) = 0.01439 0.06988
# Poissons Ratio (y) = 0.00481 0.69699
# Poissons Ratio (z) = 0.01675 0.50025
#
# Static dielectric constant tensor:
#      x y z
#    x 1.643980 0.000000 0.000000 
#    y 0.000000 1.554640 0.000000 
#    z 0.000000 0.000000 1.598450 
# 
# From -- ./inp_files/5729.got.cif
#   From: 2010.05.17/outbox.cif.g08.bks.cpg/sg25_3_cif.got.tgz:5729.got - 2010.06.04 01:04:00.
