data_PCOD9337280
_publ_section_title
;
Structure prediction by ZEFSAII (Michael W. Deem and Ramdas Pophale) SiO2 
 PCOD9337280
Probable space group: P M M 2
;
_chemical_formula_sum "Si O2"
_cell_formula_units_Z 24
_cell_length_a 8.907920
_cell_length_b 16.846760
_cell_length_c 9.412023
_cell_angle_alpha 90.000000
_cell_angle_beta 90.000000
_cell_angle_gamma 90.000000
_cell_volume 1412.458436
_symmetry_space_group_name_H-M "P M M 2"
_symmetry_group_IT_number 25
_symmetry_cell_setting 'orthorhombic'
loop_
_space_group_symop_operation_xyz
x,y,z
-x,-y,z
-x,y,z
x,-y,z
loop_
_atom_site_type_symbol
_atom_site_label
_atom_site_fract_x
_atom_site_fract_y
_atom_site_fract_z
Si Si1 0.818789 0.734188 0.753310
Si Si2 0.319245 0.755546 0.443702
Si Si3 0.321358 0.591074 0.929528
Si Si4 0.171470 0.167515 0.015485
Si Si5 0.319927 0.912149 0.271423
Si Si6 0.172613 0.333214 0.191745
O O1 0.750897 0.745464 0.598330
O O2 0.757457 0.653561 0.824791
O O3 0.000000 0.731676 0.750408
O O4 0.774591 0.806459 0.859650
O O5 0.500000 0.752394 0.449111
O O6 0.272207 0.840544 0.375160
O O7 0.257524 0.688345 0.336493
O O8 0.500000 0.605629 0.929691
O O9 0.293655 0.500000 0.888179
O O10 0.257052 0.606665 0.087461
O O11 0.266948 0.108993 0.112329
O O12 0.170579 0.250766 0.102191
O O13 0.000000 0.138904 0.006638
O O14 0.500000 0.912189 0.273485
O O15 0.265856 0.000000 0.312332
O O16 0.000000 0.356599 0.216933
#
# Coordination Sequence:
#
# PCOD9337280 Si02
#       6
#     4   4   4   4   4   4
#     4  10  20  34  52  74 102 134 169 207 249 302
#     4  10  19  32  52  75 102 135 169 207 251 299
#     4  10  20  34  53  77 103 130 164 207 252 298
#     4   8  16  30  48  70  94 124 161 199 240 289
#     4   9  18  32  50  73  99 128 165 208 252 298
#     4   9  17  31  51  73  98 128 164 202 240 290
#
# _framework density 16.99165
#
# number of rings (size 3 to 8) (size 9 to 14) (size 15 to 20)
#    0.000    2.667    0.000    3.000    0.000    7.000 
#    0.000    1.667    0.000    8.000    0.000    0.000 
#    0.000    0.000    0.000    0.000    0.000    0.000 
#
# Total GULP energy -133722.115869 kJ/mol
# GULP energy per Si atom -5571.754828 kJ/mol
# Density = 1.695298 g / cm^3
# Si number density = 16.991650 Si / 1000 Ang^3
#
#
#
# Elastic Constant Matrix: (Units=GPa)
#
#
# Indices 1 2 3 4 5 6 
#
# 1 60.4441 34.8157 46.1262 0.0000 0.0000 0.0000
# 2 34.8157 72.1359 44.5729 0.0000 0.0000 0.0000
# 3 46.1262 44.5729 149.1673 0.0000 0.0000 0.0000
# 4 0.0000 0.0000 0.0000 15.3652 0.0000 0.0000
# 5 0.0000 0.0000 0.0000 0.0000 32.6276 0.0000
# 6 0.0000 0.0000 0.0000 0.0000 0.0000 14.3476
#
#
#
# Elastic Compliance Matrix: (Units=1/GPa)
#
#
# Indices 1 2 3 4 5 6 
#
# 1 0.025867 -0.009250 -0.005235 0.000000 0.000000 0.000000
# 2 -0.009250 0.020310 -0.003208 0.000000 0.000000 0.000000
# 3 -0.005235 -0.003208 0.009281 0.000000 0.000000 0.000000
# 4 0.000000 0.000000 0.000000 0.065082 0.000000 0.000000
# 5 0.000000 0.000000 0.000000 0.000000 0.030649 0.000000
# 6 0.000000 0.000000 0.000000 0.000000 0.000000 0.069698
#
#
# Mechanical properties :
#
#
# Convention : Reuss Voigt Hill
#
# Bulk Modulus (GPa) = 49.82140 59.19744 54.50942
# Shear Modulus (GPa) = 19.01408 22.88359 20.94884
#
# Velocity S-wave (km/s) = 3.34881 3.67380 3.51506
# Velocity P-wave (km/s) = 6.65864 7.27396 6.97309
#
# Compressibility (1/GPa) = 0.02007169
#
# Stress axis : x y z
#
# Youngs Moduli (GPa) = 38.65959 49.23783 107.74355
#
# Poissons Ratio (x) = 0.45544 0.56400
# Poissons Ratio (y) = 0.35760 0.34569
# Poissons Ratio (z) = 0.20237 0.15798
#
# Static dielectric constant tensor:
#      x y z
#    x 1.575100 0.000000 0.000000 
#    y 0.000000 1.583960 0.000000 
#    z 0.000000 0.000000 1.564260 
# 
# From -- ./inp_files/2106.got.cif
#   From: 2010.05.17/outbox.cif.g08.bks.cpg/sg25_2_cif.got.tgz:2106.got - 2010.06.04 01:04:00.
