data_PCOD9337399
_publ_section_title
;
Structure prediction by ZEFSAII (Michael W. Deem and Ramdas Pophale) SiO2 
 PCOD9337399
Probable space group: P M M 2
;
_chemical_formula_sum "Si O2"
_cell_formula_units_Z 32
_cell_length_a 9.627758
_cell_length_b 7.428470
_cell_length_c 21.111721
_cell_angle_alpha 90.000000
_cell_angle_beta 90.000000
_cell_angle_gamma 90.000000
_cell_volume 1509.899972
_symmetry_space_group_name_H-M "P M M 2"
_symmetry_group_IT_number 25
_symmetry_cell_setting 'orthorhombic'
loop_
_space_group_symop_operation_xyz
x,y,z
-x,-y,z
-x,y,z
x,-y,z
loop_
_atom_site_type_symbol
_atom_site_label
_atom_site_fract_x
_atom_site_fract_y
_atom_site_fract_z
Si Si1 0.839807 0.279836 0.635290
Si Si2 0.343036 0.712685 0.517642
Si Si3 0.340140 0.719820 0.756981
Si Si4 0.655269 0.786373 0.138859
Si Si5 0.159199 0.219664 0.254171
Si Si6 0.157018 0.283650 0.018379
Si Si7 0.840022 0.280634 0.875780
Si Si8 0.841993 0.783370 0.397058
O O1 0.842749 0.500000 0.634828
O O2 0.757056 0.216925 0.573077
O O3 0.753373 0.225559 0.697265
O O4 0.000000 0.221011 0.636285
O O5 0.500000 0.786422 0.518036
O O6 0.354854 0.500000 0.529960
O O7 0.266957 0.732608 0.450551
O O8 0.500000 0.778034 0.752001
O O9 0.341456 0.500000 0.757156
O O10 0.265424 0.778844 0.821676
O O11 0.500000 0.712542 0.134571
O O12 0.741133 0.714478 0.198763
O O13 0.738752 0.763873 0.073901
O O14 0.644741 0.000000 0.149301
O O15 0.195257 0.276371 0.325783
O O16 0.000000 0.272767 0.241609
O O17 0.161420 0.000000 0.253916
O O18 0.152051 0.500000 0.015850
O O19 0.000000 0.219926 0.032421
O O20 0.195312 0.222556 0.947372
O O21 0.838397 0.500000 0.875272
O O22 0.000000 0.227970 0.862486
O O23 0.000000 0.721091 0.411523
O O24 0.846596 0.000000 0.395765
#
# Coordination Sequence:
#
# PCOD9337399 Si02
#       8
#     4   4   4   4   4   4   4   4
#     4   9  16  26  41  60  85 120 158 194 232 272
#     4  10  20  32  46  68  99 130 158 191 233 280
#     4   9  15  22  35  58  87 117 150 188 229 274
#     4  10  20  32  48  72  98 123 154 192 234 281
#     4   8  15  30  51  71  91 118 154 195 234 272
#     4   9  18  32  49  69  94 125 160 196 234 277
#     4   8  14  25  40  59  85 116 150 188 228 271
#     4   9  18  33  53  75  95 118 154 196 234 277
#
# _framework density 21.193456999999999
#
# number of rings (size 3 to 8) (size 9 to 14) (size 15 to 20)
#    0.000    3.000    0.000    3.000    0.000    6.000 
#    0.000    3.125    0.000    0.750    0.000    0.875 
#    0.000    3.000    0.000    0.000    0.000    0.000 
#
# Total GULP energy -178647.811962 kJ/mol
# GULP energy per Si atom -5582.744124 kJ/mol
# Density = 2.114522 g / cm^3
# Si number density = 21.193457 Si / 1000 Ang^3
#
#
#
# Elastic Constant Matrix: (Units=GPa)
#
#
# Indices 1 2 3 4 5 6 
#
# 1 217.9699 6.1896 164.6171 0.0000 0.0000 0.0000
# 2 6.1896 65.3488 0.8718 0.0000 0.0000 0.0000
# 3 164.6171 0.8718 198.2775 0.0000 0.0000 0.0000
# 4 0.0000 0.0000 0.0000 20.6673 0.0000 0.0000
# 5 0.0000 0.0000 0.0000 0.0000 -17.0848 0.0000
# 6 0.0000 0.0000 0.0000 0.0000 0.0000 5.5573
#
#
#
# Elastic Compliance Matrix: (Units=1/GPa)
#
#
# Indices 1 2 3 4 5 6 
#
# 1 0.012370 -0.001035 -0.010265 0.000000 0.000000 0.000000
# 2 -0.001035 0.015390 0.000791 0.000000 0.000000 0.000000
# 3 -0.010265 0.000791 0.013563 0.000000 0.000000 0.000000
# 4 0.000000 0.000000 0.000000 0.048386 0.000000 0.000000
# 5 0.000000 0.000000 0.000000 0.000000 -0.058532 0.000000
# 6 0.000000 0.000000 0.000000 0.000000 0.000000 0.179945
#
#
# Mechanical properties :
#
#
# Convention : Reuss Voigt Hill
#
# Bulk Modulus (GPa) = 49.24878 91.66148 70.45513
# Shear Modulus (GPa) = 20.92863 22.48913 21.70888
#
# Velocity S-wave (km/s) = 3.14587 3.26104 3.20397
# Velocity P-wave (km/s) = 6.04016 7.58439 6.85589
#
# Compressibility (1/GPa) = 0.02030507
#
# Stress axis : x y z
#
# Youngs Moduli (GPa) = 80.84175 64.97750 73.73215
#
# Poissons Ratio (x) = 0.06723 0.75689
# Poissons Ratio (y) = 0.08365 -0.05835
# Poissons Ratio (z) = 0.82987 -0.05142
#
# Static dielectric constant tensor:
#      x y z
#    x 1.731050 0.000000 0.000000 
#    y 0.000000 1.840150 0.000000 
#    z 0.000000 0.000000 1.730070 
# 
# From -- ./inp_files/6289.got.cif
#   From: 2010.05.17/outbox.cif.g08.bks.cpg/sg25_4_cif.got.tgz:6289.got - 2010.06.04 01:04:00.
