data_PCOD9337219
_publ_section_title
;
Structure prediction by ZEFSAII (Michael W. Deem and Ramdas Pophale) SiO2 
 PCOD9337219
Probable space group: P M M 2
;
_chemical_formula_sum "Si O2"
_cell_formula_units_Z 32
_cell_length_a 9.095869
_cell_length_b 14.664188
_cell_length_c 15.904568
_cell_angle_alpha 90.000000
_cell_angle_beta 90.000000
_cell_angle_gamma 90.000000
_cell_volume 2121.407471
_symmetry_space_group_name_H-M "P M M 2"
_symmetry_group_IT_number 25
_symmetry_cell_setting 'orthorhombic'
loop_
_space_group_symop_operation_xyz
x,y,z
-x,-y,z
-x,y,z
x,-y,z
loop_
_atom_site_type_symbol
_atom_site_label
_atom_site_fract_x
_atom_site_fract_y
_atom_site_fract_z
Si Si1 0.676125 0.707078 0.598640
Si Si2 0.174748 0.608296 0.442525
Si Si3 0.669283 0.610664 0.271306
Si Si4 0.176630 0.102539 0.852575
Si Si5 0.323593 0.102234 0.670757
Si Si6 0.823491 0.709821 0.930659
Si Si7 0.677602 0.393616 0.084086
Si Si8 0.824727 0.608143 0.756143
O O1 0.500000 0.698906 0.595073
O O2 0.746936 0.663354 0.516285
O O3 0.715948 0.813622 0.611121
O O4 0.737002 0.654488 0.680465
O O5 0.207664 0.500000 0.452692
O O6 0.233691 0.637278 0.350895
O O7 0.000000 0.619287 0.447629
O O8 0.500000 0.639968 0.283599
O O9 0.668124 0.500000 0.268742
O O10 0.721026 0.638248 0.178146
O O11 0.249047 0.116239 0.761412
O O12 0.219209 0.185266 0.913170
O O13 0.000000 0.107226 0.842257
O O14 0.214486 0.000000 0.881517
O O15 0.500000 0.104843 0.682012
O O16 0.283875 0.000000 0.641221
O O17 0.787466 0.654051 0.845429
O O18 0.000000 0.704902 0.941603
O O19 0.745754 0.665774 0.010374
O O20 0.500000 0.390642 0.081240
O O21 0.721227 0.500000 0.073500
O O22 0.797113 0.500000 0.758852
O O23 0.000000 0.621911 0.742181
#
# Coordination Sequence:
#
# PCOD9337219 Si02
#       8
#     4   4   4   4   4   4   4   4
#     4  11  21  31  46  67  90 120 155 188 225 271
#     4  10  20  32  47  68  94 123 153 186 224 268
#     4   8  15  30  49  67  89 117 150 190 231 267
#     4   9  17  30  48  67  87 115 152 193 234 272
#     4   9  18  32  48  66  88 114 148 192 236 272
#     4  10  19  30  45  66  92 122 155 189 227 271
#     4   9  18  31  47  68  94 123 154 188 225 267
#     4  10  20  32  43  59  90 127 158 188 221 259
#
# _framework density 15.084324000000001
#
# number of rings (size 3 to 8) (size 9 to 14) (size 15 to 20)
#    0.000    2.500    1.250    2.250    0.000    5.250 
#    0.000    1.250    0.000    0.000    0.000    0.875 
#    0.000    1.000    0.000    0.000    0.000    0.000 
#
# Total GULP energy -178367.855937 kJ/mol
# GULP energy per Si atom -5573.995498 kJ/mol
# Density = 1.504999 g / cm^3
# Si number density = 15.084324 Si / 1000 Ang^3
#
#
#
# Elastic Constant Matrix: (Units=GPa)
#
#
# Indices 1 2 3 4 5 6 
#
# 1 31.1885 44.5914 51.1473 0.0000 0.0000 0.0000
# 2 44.5914 107.8085 77.5445 0.0000 0.0000 0.0000
# 3 51.1473 77.5445 139.7330 0.0000 0.0000 0.0000
# 4 0.0000 0.0000 0.0000 7.1371 0.0000 0.0000
# 5 0.0000 0.0000 0.0000 0.0000 42.6115 0.0000
# 6 0.0000 0.0000 0.0000 0.0000 0.0000 18.1101
#
#
#
# Elastic Compliance Matrix: (Units=1/GPa)
#
#
# Indices 1 2 3 4 5 6 
#
# 1 0.118884 -0.029746 -0.027008 0.000000 0.000000 0.000000
# 2 -0.029746 0.022881 -0.001810 0.000000 0.000000 0.000000
# 3 -0.027008 -0.001810 0.018047 0.000000 0.000000 0.000000
# 4 0.000000 0.000000 0.000000 0.140112 0.000000 0.000000
# 5 0.000000 0.000000 0.000000 0.000000 0.023468 0.000000
# 6 0.000000 0.000000 0.000000 0.000000 0.000000 0.055218
#
#
# Mechanical properties :
#
#
# Convention : Reuss Voigt Hill
#
# Bulk Modulus (GPa) = 23.42810 69.47737 46.45274
# Shear Modulus (GPa) = 9.80461 20.60152 15.20306
#
# Velocity S-wave (km/s) = 2.55225 3.69962 3.17814
# Velocity P-wave (km/s) = 4.92447 8.02552 6.65805
#
# Compressibility (1/GPa) = 0.04268378
#
# Stress axis : x y z
#
# Youngs Moduli (GPa) = 8.41158 43.70521 55.41155
#
# Poissons Ratio (x) = 1.30004 1.49658
# Poissons Ratio (y) = 0.25021 0.10027
# Poissons Ratio (z) = 0.22718 0.07909
#
# Static dielectric constant tensor:
#      x y z
#    x 1.503440 0.000000 0.000000 
#    y 0.000000 1.508420 0.000000 
#    z 0.000000 0.000000 1.477230 
# 
# From -- ./inp_files/5694.got.cif
#   From: 2010.05.17/outbox.cif.g08.bks.cpg/sg25_3_cif.got.tgz:5694.got - 2010.06.04 01:04:00.
