data_PCOD9337629
_publ_section_title
;
Structure prediction by ZEFSAII (Michael W. Deem and Ramdas Pophale) SiO2 
 PCOD9337629
Probable space group: P M M 2
;
_chemical_formula_sum "Si O2"
_cell_formula_units_Z 32
_cell_length_a 14.225539
_cell_length_b 8.945067
_cell_length_c 13.340867
_cell_angle_alpha 90.000000
_cell_angle_beta 90.000000
_cell_angle_gamma 90.000000
_cell_volume 1697.603973
_symmetry_space_group_name_H-M "P M M 2"
_symmetry_group_IT_number 25
_symmetry_cell_setting 'orthorhombic'
loop_
_space_group_symop_operation_xyz
x,y,z
-x,-y,z
-x,y,z
x,-y,z
loop_
_atom_site_type_symbol
_atom_site_label
_atom_site_fract_x
_atom_site_fract_y
_atom_site_fract_z
Si Si1 0.390382 0.321618 0.107520
Si Si2 0.385981 0.170068 0.897875
Si Si3 0.221380 0.819551 0.590967
Si Si4 0.111390 0.821967 0.793083
Si Si5 0.892050 0.182120 0.393473
Si Si6 0.214318 0.179155 0.190984
Si Si7 0.113462 0.325144 0.001573
Si Si8 0.389692 0.322034 0.687912
O O1 0.500000 0.281740 0.124023
O O2 0.382420 0.500000 0.109850
O O3 0.318649 0.246566 0.184143
O O4 0.361921 0.262046 0.997128
O O5 0.500000 0.164188 0.897220
O O6 0.360257 0.247338 0.793622
O O7 0.350261 0.000000 0.903167
O O8 0.163254 0.778244 0.691017
O O9 0.165399 0.772098 0.491984
O O10 0.322930 0.745753 0.603407
O O11 0.230161 0.000000 0.589641
O O12 0.000000 0.793315 0.781003
O O13 0.123472 0.000000 0.807074
O O14 0.143781 0.739453 0.893768
O O15 0.840035 0.226848 0.291435
O O16 0.000000 0.233664 0.395924
O O17 0.894190 0.000000 0.394349
O O18 0.158694 0.237838 0.093878
O O19 0.218855 0.000000 0.188405
O O20 0.137321 0.500000 0.008639
O O21 0.000000 0.309727 0.006556
O O22 0.500000 0.288665 0.671650
O O23 0.379176 0.500000 0.694959
#
# Coordination Sequence:
#
# PCOD9337629 Si02
#       8
#     4   4   4   4   4   4   4   4
#     4  10  21  37  56  80 114 154 193 235 286 343
#     4   9  17  31  53  80 110 146 189 235 279 329
#     4  10  20  35  59  86 111 143 189 240 289 339
#     4   9  18  33  54  81 112 144 179 224 282 347
#     4   9  19  38  63  89 114 143 186 241 294 344
#     4  11  22  36  59  86 113 148 193 240 289 345
#     4  10  21  36  54  79 114 152 187 229 284 345
#     4  10  21  36  53  77 114 157 195 232 280 338
#
# _framework density 18.850096000000001
#
# number of rings (size 3 to 8) (size 9 to 14) (size 15 to 20)
#    0.000    2.250    0.000    2.625    1.750    6.250 
#    0.000    1.875    0.000    6.375    0.000    0.000 
#    0.000    0.000    0.000    0.000    0.000    0.000 
#
# Total GULP energy -178754.975796 kJ/mol
# GULP energy per Si atom -5586.092994 kJ/mol
# Density = 1.880719 g / cm^3
# Si number density = 18.850096 Si / 1000 Ang^3
#
#
#
# Elastic Constant Matrix: (Units=GPa)
#
#
# Indices 1 2 3 4 5 6 
#
# 1 114.7234 48.1377 82.8025 0.0000 0.0000 0.0000
# 2 48.1377 58.1623 50.2654 0.0000 0.0000 0.0000
# 3 82.8025 50.2654 145.3957 0.0000 0.0000 0.0000
# 4 0.0000 0.0000 0.0000 0.7228 0.0000 0.0000
# 5 0.0000 0.0000 0.0000 0.0000 37.0427 0.0000
# 6 0.0000 0.0000 0.0000 0.0000 0.0000 26.8621
#
#
#
# Elastic Compliance Matrix: (Units=1/GPa)
#
#
# Indices 1 2 3 4 5 6 
#
# 1 0.017172 -0.008215 -0.006939 0.000000 0.000000 0.000000
# 2 -0.008215 0.028449 -0.005157 0.000000 0.000000 0.000000
# 3 -0.006939 -0.005157 0.012613 0.000000 0.000000 0.000000
# 4 0.000000 0.000000 0.000000 1.383454 0.000000 0.000000
# 5 0.000000 0.000000 0.000000 0.000000 0.026996 0.000000
# 6 0.000000 0.000000 0.000000 0.000000 0.000000 0.037227
#
#
# Mechanical properties :
#
#
# Convention : Reuss Voigt Hill
#
# Bulk Modulus (GPa) = 56.78232 75.63251 66.20742
# Shear Modulus (GPa) = 3.22081 22.06392 12.64237
#
# Velocity S-wave (km/s) = 1.30857 3.42496 2.59256
# Velocity P-wave (km/s) = 5.69839 7.47333 6.64539
#
# Compressibility (1/GPa) = 0.01761112
#
# Stress axis : x y z
#
# Youngs Moduli (GPa) = 58.23309 35.15035 79.28630
#
# Poissons Ratio (x) = 0.28877 0.55020
# Poissons Ratio (y) = 0.47841 0.40885
# Poissons Ratio (z) = 0.40411 0.18126
#
# Static dielectric constant tensor:
#      x y z
#    x 1.693010 0.000000 0.000000 
#    y 0.000000 1.630330 0.000000 
#    z 0.000000 0.000000 1.618880 
# 
# From -- ./inp_files/4222.got.cif
#   From: 2010.05.17/outbox.cif.g08.bks.cpg/sg25_3_cif.got.tgz:4222.got - 2010.06.04 01:04:00.
