data_PCOD9337750
_publ_section_title
;
Structure prediction by ZEFSAII (Michael W. Deem and Ramdas Pophale) SiO2 
 PCOD9337750
Probable space group: P M M 2
;
_chemical_formula_sum "Si O2"
_cell_formula_units_Z 32
_cell_length_a 9.040842
_cell_length_b 14.088887
_cell_length_c 13.274048
_cell_angle_alpha 90.000000
_cell_angle_beta 90.000000
_cell_angle_gamma 90.000000
_cell_volume 1690.787191
_symmetry_space_group_name_H-M "P M M 2"
_symmetry_group_IT_number 25
_symmetry_cell_setting 'orthorhombic'
loop_
_space_group_symop_operation_xyz
x,y,z
-x,-y,z
-x,y,z
x,-y,z
loop_
_atom_site_type_symbol
_atom_site_label
_atom_site_fract_x
_atom_site_fract_y
_atom_site_fract_z
Si Si1 0.172712 0.114770 0.696270
Si Si2 0.332220 0.384797 0.787770
Si Si3 0.824108 0.795635 0.100290
Si Si4 0.824182 0.611323 0.580143
Si Si5 0.677865 0.110570 0.293674
Si Si6 0.677012 0.788699 0.503651
Si Si7 0.671806 0.114761 0.904981
Si Si8 0.824197 0.390503 0.994317
O O1 0.251401 0.157601 0.598637
O O2 0.252798 0.144490 0.799844
O O3 0.000000 0.141853 0.698765
O O4 0.181054 0.000000 0.690877
O O5 0.500000 0.350186 0.774329
O O6 0.336792 0.500000 0.789753
O O7 0.231488 0.361182 0.692223
O O8 0.263217 0.358081 0.894767
O O9 0.751839 0.836332 0.200504
O O10 0.794905 0.683688 0.082883
O O11 0.000000 0.810426 0.102478
O O12 0.756823 0.846620 0.002073
O O13 0.789169 0.500000 0.564378
O O14 0.740497 0.682219 0.506016
O O15 0.000000 0.623000 0.573281
O O16 0.500000 0.115178 0.282578
O O17 0.716093 0.158346 0.400183
O O18 0.720999 0.000000 0.293650
O O19 0.500000 0.787954 0.514262
O O20 0.500000 0.143554 0.907695
O O21 0.677052 0.000000 0.908149
O O22 0.786193 0.500000 0.017000
O O23 0.000000 0.387169 0.971656
#
# Coordination Sequence:
#
# PCOD9337750 Si02
#       8
#     4   4   4   4   4   4   4   4
#     4  10  21  37  58  86 120 154 191 240 297 359
#     4   9  17  30  51  80 113 151 195 240 284 336
#     4  11  23  37  59  88 116 150 196 247 297 349
#     4  10  21  37  57  83 119 160 199 242 293 350
#     4  10  23  44  66  87 114 150 193 242 298 361
#     4  11  23  39  62  88 116 153 198 247 299 356
#     4  10  21  37  57  82 116 156 193 234 292 359
#     4   9  19  36  55  78 114 157 196 236 287 346
#
# _framework density 18.926096999999999
#
# number of rings (size 3 to 8) (size 9 to 14) (size 15 to 20)
#    0.000    2.000    0.000    3.000    1.750    8.000 
#    0.000    0.625    0.000    2.250    0.000    0.000 
#    0.000    0.000    0.000    0.000    0.000    0.000 
#
# Total GULP energy -178841.963777 kJ/mol
# GULP energy per Si atom -5588.811368 kJ/mol
# Density = 1.888302 g / cm^3
# Si number density = 18.926097 Si / 1000 Ang^3
#
#
#
# Elastic Constant Matrix: (Units=GPa)
#
#
# Indices 1 2 3 4 5 6 
#
# 1 80.2345 54.0193 71.9780 0.0000 0.0000 0.0000
# 2 54.0193 100.3842 75.5106 0.0000 0.0000 0.0000
# 3 71.9780 75.5106 156.5406 0.0000 0.0000 0.0000
# 4 0.0000 0.0000 0.0000 35.2984 0.0000 0.0000
# 5 0.0000 0.0000 0.0000 0.0000 86.6511 0.0000
# 6 0.0000 0.0000 0.0000 0.0000 0.0000 27.2028
#
#
#
# Elastic Compliance Matrix: (Units=1/GPa)
#
#
# Indices 1 2 3 4 5 6 
#
# 1 0.024204 -0.007303 -0.007606 0.000000 0.000000 0.000000
# 2 -0.007303 0.017838 -0.005247 0.000000 0.000000 0.000000
# 3 -0.007606 -0.005247 0.012416 0.000000 0.000000 0.000000
# 4 0.000000 0.000000 0.000000 0.028330 0.000000 0.000000
# 5 0.000000 0.000000 0.000000 0.000000 0.011541 0.000000
# 6 0.000000 0.000000 0.000000 0.000000 0.000000 0.036761
#
#
# Mechanical properties :
#
#
# Convention : Reuss Voigt Hill
#
# Bulk Modulus (GPa) = 70.68902 82.24167 76.46534
# Shear Modulus (GPa) = 28.39007 38.87390 33.63198
#
# Velocity S-wave (km/s) = 3.87725 4.53701 4.22004
# Velocity P-wave (km/s) = 7.58124 8.42581 8.01466
#
# Compressibility (1/GPa) = 0.01414647
#
# Stress axis : x y z
#
# Youngs Moduli (GPa) = 41.31538 56.05876 80.53907
#
# Poissons Ratio (x) = 0.40941 0.61260
# Poissons Ratio (y) = 0.30174 0.42256
# Poissons Ratio (z) = 0.31425 0.29412
#
# Static dielectric constant tensor:
#      x y z
#    x 1.633580 0.000000 0.000000 
#    y 0.000000 1.705620 0.000000 
#    z 0.000000 0.000000 1.603730 
# 
# From -- ./inp_files/4198.got.cif
#   From: 2010.05.17/outbox.cif.g08.bks.cpg/sg25_3_cif.got.tgz:4198.got - 2010.06.04 01:04:00.
