data_PCOD9337875
_publ_section_title
;
Structure prediction by ZEFSAII (Michael W. Deem and Ramdas Pophale) SiO2 
 PCOD9337875
Probable space group: P M C 21
;
_chemical_formula_sum "Si O2"
_cell_formula_units_Z 26
_cell_length_a 30.098547
_cell_length_b 6.910228
_cell_length_c 5.302162
_cell_angle_alpha 90.000000
_cell_angle_beta 90.000000
_cell_angle_gamma 90.000000
_cell_volume 1102.785128
_symmetry_space_group_name_H-M "P M C 21"
_symmetry_group_IT_number 26
_symmetry_cell_setting 'orthorhombic'
loop_
_space_group_symop_operation_xyz
x,y,z
-x,-y,1/2+z
-x,y,z
x,-y,1/2+z
loop_
_atom_site_type_symbol
_atom_site_label
_atom_site_fract_x
_atom_site_fract_y
_atom_site_fract_z
Si Si1 0.176358 0.219300 0.514920
Si Si2 0.310723 0.232356 0.219539
Si Si3 0.859340 0.215406 0.015383
Si Si4 0.500000 0.871065 0.668092
Si Si5 0.594411 0.870894 0.568509
Si Si6 0.724009 0.211206 0.718955
Si Si7 0.049525 0.370549 0.157012
O O1 0.171519 0.303201 0.235358
O O2 0.226389 0.208966 0.613138
O O3 0.158016 0.001874 0.474475
O O4 0.146241 0.305179 0.738055
O O5 0.360676 0.245030 0.118741
O O6 0.305830 0.307724 0.502429
O O7 0.295688 0.005914 0.255599
O O8 0.278413 0.300255 0.996694
O O9 0.909513 0.227806 0.112075
O O10 0.547002 0.768403 0.615988
O O11 0.500000 0.041336 0.451706
O O12 0.595451 0.963084 0.288643
O O13 0.052867 0.473590 0.428909
O O14 0.000000 0.282804 0.138714
#
# Coordination Sequence:
#
# PCOD9337875 Si02
#       7
#     4   4   4   2   4   4   4
#     4  10  19  30  45  69  94 118 142 169 216 268
#     4  10  14  20  31  44  63  91 123 156 193 246
#     4  10  18  32  49  68  93 118 142 173 208 256
#     4   8  16  20  28  32  50  72 106 158 212 252
#     4  10  14  22  26  39  52  78 115 159 205 250
#     4  10  16  23  34  51  75 100 124 155 193 248
#     4  10  21  37  55  73  92 117 149 181 211 244
#
# _framework density 23.57667
#
# number of rings (size 3 to 8) (size 9 to 14) (size 15 to 20)
#    0.000    2.154    3.077    5.538    0.000    0.000 
#    0.000    3.077    0.000    0.000    0.000    0.000 
#    0.000    0.000    0.000    0.000    0.000    0.000 
#
# Total GULP energy -145062.562999 kJ/mol
# GULP energy per Si atom -5579.329346 kJ/mol
# Density = 2.352301 g / cm^3
# Si number density = 23.576670 Si / 1000 Ang^3
#
#
#
# Elastic Constant Matrix: (Units=GPa)
#
#
# Indices 1 2 3 4 5 6 
#
# 1 148.5196 -16.6245 -14.2894 0.0000 0.0000 0.0000
# 2 -16.6245 53.8806 -20.5747 0.0000 0.0000 0.0000
# 3 -14.2894 -20.5747 165.9076 0.0000 0.0000 0.0000
# 4 0.0000 0.0000 0.0000 -5.3543 0.0000 0.0000
# 5 0.0000 0.0000 0.0000 0.0000 42.1807 0.0000
# 6 0.0000 0.0000 0.0000 0.0000 0.0000 5.0510
#
#
#
# Elastic Compliance Matrix: (Units=1/GPa)
#
#
# Indices 1 2 3 4 5 6 
#
# 1 0.007108 0.002547 0.000928 0.000000 0.000000 0.000000
# 2 0.002547 0.020395 0.002749 0.000000 0.000000 0.000000
# 3 0.000928 0.002749 0.006448 0.000000 0.000000 0.000000
# 4 0.000000 0.000000 0.000000 -0.186764 0.000000 0.000000
# 5 0.000000 0.000000 0.000000 0.000000 0.023708 0.000000
# 6 0.000000 0.000000 0.000000 0.000000 0.000000 0.197980
#
#
# Mechanical properties :
#
#
# Convention : Reuss Voigt Hill
#
# Bulk Modulus (GPa) = 21.55212 29.48118 25.51665
# Shear Modulus (GPa) = 69.54840 36.36190 52.95515
#
# Velocity S-wave (km/s) = 5.43717 3.93145 4.74443
# Velocity P-wave (km/s) = 6.96981 5.75673 6.39211
#
# Compressibility (1/GPa) = 0.04639915
#
# Stress axis : x y z
#
# Youngs Moduli (GPa) = 140.69547 49.03132 155.08070
#
# Poissons Ratio (x) = -0.12490 -0.14393
# Poissons Ratio (y) = -0.35840 -0.42626
# Poissons Ratio (z) = -0.13058 -0.13477
#
# Static dielectric constant tensor:
#      x y z
#    x 1.907650 0.000000 0.000000 
#    y 0.000000 1.985550 0.000000 
#    z 0.000000 0.000000 1.989040 
# 
# From -- ./inp_files/1054.got.cif
#   From: 2010.05.17/outbox.cif.g08.bks.cpg/sg26_1_cif.got.tgz:1054.got - 2010.06.04 01:07:29.
