data_PCOD9337496
_publ_section_title
;
Structure prediction by ZEFSAII (Michael W. Deem and Ramdas Pophale) SiO2 
 PCOD9337496
Probable space group: P M M 2
;
_chemical_formula_sum "Si O2"
_cell_formula_units_Z 24
_cell_length_a 9.667703
_cell_length_b 7.500700
_cell_length_c 15.959109
_cell_angle_alpha 90.000000
_cell_angle_beta 90.000000
_cell_angle_gamma 90.000000
_cell_volume 1157.267446
_symmetry_space_group_name_H-M "P M M 2"
_symmetry_group_IT_number 25
_symmetry_cell_setting 'orthorhombic'
loop_
_space_group_symop_operation_xyz
x,y,z
-x,-y,z
-x,y,z
x,-y,z
loop_
_atom_site_type_symbol
_atom_site_label
_atom_site_fract_x
_atom_site_fract_y
_atom_site_fract_z
Si Si1 0.659320 0.217494 0.539210
Si Si2 0.659371 0.281375 0.041930
Si Si3 0.157159 0.785911 0.385465
Si Si4 0.658190 0.214730 0.726994
Si Si5 0.843490 0.288706 0.886417
Si Si6 0.158163 0.712729 0.197773
O O1 0.500000 0.268642 0.526509
O O2 0.752744 0.281344 0.462823
O O3 0.699594 0.274236 0.633274
O O4 0.663809 0.000000 0.538871
O O5 0.500000 0.223835 0.039101
O O6 0.657416 0.500000 0.041523
O O7 0.739907 0.222343 0.125494
O O8 0.746860 0.219930 0.961410
O O9 0.209820 0.746558 0.292038
O O10 0.000000 0.717739 0.389924
O O11 0.152320 0.000000 0.392651
O O12 0.500000 0.276389 0.744047
O O13 0.764564 0.265595 0.798849
O O14 0.653355 0.000000 0.725282
O O15 0.855019 0.500000 0.901107
O O16 0.000000 0.216096 0.885859
O O17 0.149331 0.500000 0.187336
O O18 0.000000 0.782909 0.190643
#
# Coordination Sequence:
#
# PCOD9337496 Si02
#       6
#     4   4   4   4   4   4
#     4   8  15  29  48  68  91 121 155 189 227 274
#     4   9  17  30  49  70  91 120 158 195 231 277
#     4   9  17  29  46  68  92 119 152 188 226 271
#     4   9  18  33  52  73  97 126 161 200 241 285
#     4  10  20  33  50  73  99 127 160 197 238 286
#     4   9  17  30  47  66  90 120 152 188 231 276
#
# _framework density 20.738506999999998
#
# number of rings (size 3 to 8) (size 9 to 14) (size 15 to 20)
#    0.000    3.000    0.000    2.000    0.000    4.667 
#    0.000    3.333    0.000    6.000    0.000    0.000 
#    0.000    0.000    0.000    0.000    0.000    0.000 
#
# Total GULP energy -133917.461550 kJ/mol
# GULP energy per Si atom -5579.894231 kJ/mol
# Density = 2.069131 g / cm^3
# Si number density = 20.738507 Si / 1000 Ang^3
#
#
#
# Elastic Constant Matrix: (Units=GPa)
#
#
# Indices 1 2 3 4 5 6 
#
# 1 155.7731 5.8130 145.2795 0.0000 0.0000 0.0000
# 2 5.8130 54.4848 -1.0344 0.0000 0.0000 0.0000
# 3 145.2795 -1.0344 225.8632 0.0000 0.0000 0.0000
# 4 0.0000 0.0000 0.0000 22.5386 0.0000 0.0000
# 5 0.0000 0.0000 0.0000 0.0000 43.8104 0.0000
# 6 0.0000 0.0000 0.0000 0.0000 0.0000 5.8712
#
#
#
# Elastic Compliance Matrix: (Units=1/GPa)
#
#
# Indices 1 2 3 4 5 6 
#
# 1 0.016245 -0.001932 -0.010458 0.000000 0.000000 0.000000
# 2 -0.001932 0.018585 0.001328 0.000000 0.000000 0.000000
# 3 -0.010458 0.001328 0.011160 0.000000 0.000000 0.000000
# 4 0.000000 0.000000 0.000000 0.044368 0.000000 0.000000
# 5 0.000000 0.000000 0.000000 0.000000 0.022826 0.000000
# 6 0.000000 0.000000 0.000000 0.000000 0.000000 0.170322
#
#
# Mechanical properties :
#
#
# Convention : Reuss Voigt Hill
#
# Bulk Modulus (GPa) = 41.90013 81.80416 61.85215
# Shear Modulus (GPa) = 15.94457 33.51491 24.72974
#
# Velocity S-wave (km/s) = 2.77580 4.02440 3.45694
# Velocity P-wave (km/s) = 5.52461 7.81828 6.76930
#
# Compressibility (1/GPa) = 0.02386627
#
# Stress axis : x y z
#
# Youngs Moduli (GPa) = 61.55609 53.80673 89.60224
#
# Poissons Ratio (x) = 0.10394 0.93708
# Poissons Ratio (y) = 0.11891 -0.11896
# Poissons Ratio (z) = 0.64376 -0.07144
#
# Static dielectric constant tensor:
#      x y z
#    x 1.715210 0.000000 0.000000 
#    y 0.000000 1.799810 0.000000 
#    z 0.000000 0.000000 1.718040 
# 
# From -- ./inp_files/3906.got.cif
#   From: 2010.05.17/outbox.cif.g08.bks.cpg/sg25_2_cif.got.tgz:3906.got - 2010.06.04 01:04:00.
