data_PCOD9337263
_publ_section_title
;
Structure prediction by ZEFSAII (Michael W. Deem and Ramdas Pophale) SiO2 
 PCOD9337263
Probable space group: P M M 2
;
_chemical_formula_sum "Si O2"
_cell_formula_units_Z 32
_cell_length_a 8.931572
_cell_length_b 14.796285
_cell_length_c 12.658402
_cell_angle_alpha 90.000000
_cell_angle_beta 90.000000
_cell_angle_gamma 90.000000
_cell_volume 1672.859531
_symmetry_space_group_name_H-M "P M M 2"
_symmetry_group_IT_number 25
_symmetry_cell_setting 'orthorhombic'
loop_
_space_group_symop_operation_xyz
x,y,z
-x,-y,z
-x,y,z
x,-y,z
loop_
_atom_site_type_symbol
_atom_site_label
_atom_site_fract_x
_atom_site_fract_y
_atom_site_fract_z
Si Si1 0.319887 0.700934 0.808450
Si Si2 0.321599 0.897193 0.311621
Si Si3 0.822732 0.723408 0.400942
Si Si4 0.327613 0.601870 0.229749
Si Si5 0.319853 0.605633 0.586709
Si Si6 0.827674 0.861760 0.085285
Si Si7 0.171191 0.650943 0.024739
Si Si8 0.319812 0.902256 0.863367
O O1 0.500000 0.697277 0.824197
O O2 0.285004 0.649206 0.700560
O O3 0.275076 0.807696 0.807917
O O4 0.239473 0.654804 0.907973
O O5 0.500000 0.884327 0.307000
O O6 0.250060 0.821814 0.386692
O O7 0.254719 0.884625 0.193938
O O8 0.290609 0.000000 0.345822
O O9 0.776469 0.667500 0.296576
O O10 0.756808 0.666170 0.497568
O O11 0.000000 0.731148 0.408350
O O12 0.500000 0.632387 0.236865
O O13 0.318540 0.500000 0.273057
O O14 0.274142 0.600942 0.109113
O O15 0.500000 0.609710 0.572183
O O16 0.275889 0.500000 0.581519
O O17 0.828731 0.754240 0.066392
O O18 0.000000 0.892138 0.089906
O O19 0.745012 0.899006 0.981877
O O20 0.000000 0.618106 0.024763
O O21 0.500000 0.900701 0.868692
O O22 0.275177 0.000000 0.815756
#
# Coordination Sequence:
#
# PCOD9337263 Si02
#       8
#     4   4   4   4   4   4   4   4
#     4   9  19  36  58  83 114 152 198 251 298 349
#     4  11  23  38  59  86 117 157 201 242 288 348
#     4  12  25  41  62  88 119 153 192 246 306 360
#     4  11  23  38  59  86 117 156 198 241 295 360
#     4  10  22  42  66  88 112 150 202 255 306 362
#     4  10  19  31  50  80 118 159 198 239 287 341
#     4  10  20  34  54  84 122 160 194 238 298 355
#     4   9  17  30  50  78 113 154 197 239 288 347
#
# _framework density 19.128921999999999
#
# number of rings (size 3 to 8) (size 9 to 14) (size 15 to 20)
#    0.000    1.750    1.250    3.375    0.000    7.500 
#    0.000    1.875    0.000    2.250    0.000    0.000 
#    0.000    0.000    0.000    0.000    0.000    0.000 
#
# Total GULP energy -178713.468348 kJ/mol
# GULP energy per Si atom -5584.795886 kJ/mol
# Density = 1.908538 g / cm^3
# Si number density = 19.128922 Si / 1000 Ang^3
#
#
#
# Elastic Constant Matrix: (Units=GPa)
#
#
# Indices 1 2 3 4 5 6 
#
# 1 59.7342 49.4922 43.9912 0.0000 0.0000 0.0000
# 2 49.4922 132.6166 61.5909 0.0000 0.0000 0.0000
# 3 43.9912 61.5909 103.7974 0.0000 0.0000 0.0000
# 4 0.0000 0.0000 0.0000 12.1519 0.0000 0.0000
# 5 0.0000 0.0000 0.0000 0.0000 -66.9164 0.0000
# 6 0.0000 0.0000 0.0000 0.0000 0.0000 -3.0847
#
#
#
# Elastic Compliance Matrix: (Units=1/GPa)
#
#
# Indices 1 2 3 4 5 6 
#
# 1 0.028252 -0.006878 -0.007892 0.000000 0.000000 0.000000
# 2 -0.006878 0.012084 -0.004255 0.000000 0.000000 0.000000
# 3 -0.007892 -0.004255 0.015504 0.000000 0.000000 0.000000
# 4 0.000000 0.000000 0.000000 0.082292 0.000000 0.000000
# 5 0.000000 0.000000 0.000000 0.000000 -0.014944 0.000000
# 6 0.000000 0.000000 0.000000 0.000000 0.000000 -0.324186
#
#
# Mechanical properties :
#
#
# Convention : Reuss Voigt Hill
#
# Bulk Modulus (GPa) = 56.21639 67.36629 61.79134
# Shear Modulus (GPa) = -31.84349 -2.16491 -17.00420
#
# Velocity S-wave (km/s) = -4.08447 -1.06499 -2.98472
# Velocity P-wave (km/s) = 2.68479 5.81216 4.52710
#
# Compressibility (1/GPa) = 0.01778841
#
# Stress axis : x y z
#
# Youngs Moduli (GPa) = 35.39575 82.75684 64.49980
#
# Poissons Ratio (x) = 0.56921 0.50906
# Poissons Ratio (y) = 0.24346 0.27445
# Poissons Ratio (z) = 0.27936 0.35213
#
# Static dielectric constant tensor:
#      x y z
#    x 1.640840 0.000000 0.000000 
#    y 0.000000 1.714470 0.000000 
#    z 0.000000 0.000000 1.630150 
# 
# From -- ./inp_files/4158.got.cif
#   From: 2010.05.17/outbox.cif.g08.bks.cpg/sg25_3_cif.got.tgz:4158.got - 2010.06.04 01:04:00.
