data_PCOD9337171
_publ_section_title
;
Structure prediction by ZEFSAII (Michael W. Deem and Ramdas Pophale) SiO2 
 PCOD9337171
Probable space group: P M M 2
;
_chemical_formula_sum "Si O2"
_cell_formula_units_Z 28
_cell_length_a 8.104584
_cell_length_b 20.780506
_cell_length_c 7.779530
_cell_angle_alpha 90.000000
_cell_angle_beta 90.000000
_cell_angle_gamma 90.000000
_cell_volume 1310.207877
_symmetry_space_group_name_H-M "P M M 2"
_symmetry_group_IT_number 25
_symmetry_cell_setting 'orthorhombic'
loop_
_space_group_symop_operation_xyz
x,y,z
-x,-y,z
-x,y,z
x,-y,z
loop_
_atom_site_type_symbol
_atom_site_label
_atom_site_fract_x
_atom_site_fract_y
_atom_site_fract_z
Si Si1 0.699232 0.926588 0.724280
Si Si2 0.799803 0.430564 0.896290
Si Si3 0.307243 0.155381 0.050591
Si Si4 0.695550 0.568704 0.496738
Si Si5 0.694669 0.704767 0.543841
Si Si6 0.810788 0.162451 0.417108
Si Si7 0.807170 0.708532 0.934079
O O1 0.500000 0.927308 0.729574
O O2 0.750279 0.889698 0.552940
O O3 0.758362 0.000000 0.729723
O O4 0.755552 0.884677 0.887295
O O5 0.755763 0.500000 0.975854
O O6 0.725797 0.430744 0.703563
O O7 0.748541 0.363584 0.983329
O O8 0.000000 0.427960 0.880421
O O9 0.500000 0.140962 0.075086
O O10 0.213812 0.138895 0.224206
O O11 0.286707 0.231084 0.011608
O O12 0.500000 0.566799 0.461885
O O13 0.767576 0.500000 0.434301
O O14 0.756222 0.640038 0.447087
O O15 0.500000 0.696197 0.581852
O O16 0.715836 0.770371 0.441263
O O17 0.785441 0.711629 0.726960
O O18 0.000000 0.177057 0.452311
O O19 0.000000 0.715260 0.978112
#
# Coordination Sequence:
#
# PCOD9337171 Si02
#       7
#     4   4   4   4   4   4   4
#     4  10  23  45  71  96 123 157 196 238 290 357
#     4   8  14  24  40  67 105 148 192 238 292 353
#     4  11  23  40  64  91 123 162 203 246 295 355
#     4   8  14  24  41  69 104 143 191 246 298 348
#     4  10  18  31  53  80 114 157 202 247 299 359
#     4  12  25  40  62  92 127 162 201 250 299 349
#     4  10  18  30  52  82 116 154 198 250 302 351
#
# _framework density 21.370656
#
# number of rings (size 3 to 8) (size 9 to 14) (size 15 to 20)
#    0.000    2.143    1.429    2.571    0.000    2.571 
#    0.000    1.429    0.000    0.857    0.000    0.000 
#    0.000    0.000    0.000    0.000    0.000    0.000 
#
# Total GULP energy -156257.346596 kJ/mol
# GULP energy per Si atom -5580.619521 kJ/mol
# Density = 2.132202 g / cm^3
# Si number density = 21.370656 Si / 1000 Ang^3
#
#
#
# Elastic Constant Matrix: (Units=GPa)
#
#
# Indices 1 2 3 4 5 6 
#
# 1 28.0466 11.8989 -6.2993 0.0000 0.0000 0.0000
# 2 11.8989 165.1160 54.6932 0.0000 0.0000 0.0000
# 3 -6.2993 54.6932 79.7362 0.0000 0.0000 0.0000
# 4 0.0000 0.0000 0.0000 -14.3067 0.0000 0.0000
# 5 0.0000 0.0000 0.0000 0.0000 28.9590 0.0000
# 6 0.0000 0.0000 0.0000 0.0000 0.0000 8.5417
#
#
#
# Elastic Compliance Matrix: (Units=1/GPa)
#
#
# Indices 1 2 3 4 5 6 
#
# 1 0.039235 -0.004987 0.006521 0.000000 0.000000 0.000000
# 2 -0.004987 0.008471 -0.006204 0.000000 0.000000 0.000000
# 3 0.006521 -0.006204 0.017312 0.000000 0.000000 0.000000
# 4 0.000000 0.000000 0.000000 -0.069897 0.000000 0.000000
# 5 0.000000 0.000000 0.000000 0.000000 0.034532 0.000000
# 6 0.000000 0.000000 0.000000 0.000000 0.000000 0.117072
#
#
# Mechanical properties :
#
#
# Convention : Reuss Voigt Hill
#
# Bulk Modulus (GPa) = 17.96096 43.72047 30.84072
# Shear Modulus (GPa) = 28.63253 18.81253 23.72253
#
# Velocity S-wave (km/s) = 3.66431 2.97020 3.33536
# Velocity P-wave (km/s) = 5.13085 5.68026 5.41253
#
# Compressibility (1/GPa) = 0.05567630
#
# Stress axis : x y z
#
# Youngs Moduli (GPa) = 25.48719 118.05092 57.76243
#
# Poissons Ratio (x) = 0.58876 -0.37665
# Poissons Ratio (y) = 0.12711 0.35838
# Poissons Ratio (z) = -0.16619 0.73244
#
# Static dielectric constant tensor:
#      x y z
#    x 1.746500 0.000000 0.000000 
#    y 0.000000 1.828670 0.000000 
#    z 0.000000 0.000000 1.755090 
# 
# From -- ./inp_files/2313.got.cif
#   From: 2010.05.17/outbox.cif.g08.bks.cpg/sg25_2_cif.got.tgz:2313.got - 2010.06.04 01:04:00.
