data_PCOD9337714
_publ_section_title
;
Structure prediction by ZEFSAII (Michael W. Deem and Ramdas Pophale) SiO2 
 PCOD9337714
Probable space group: P M M 2
;
_chemical_formula_sum "Si O2"
_cell_formula_units_Z 32
_cell_length_a 8.784466
_cell_length_b 14.297637
_cell_length_c 14.308261
_cell_angle_alpha 90.000000
_cell_angle_beta 90.000000
_cell_angle_gamma 90.000000
_cell_volume 1797.076175
_symmetry_space_group_name_H-M "P M M 2"
_symmetry_group_IT_number 25
_symmetry_cell_setting 'orthorhombic'
loop_
_space_group_symop_operation_xyz
x,y,z
-x,-y,z
-x,y,z
x,-y,z
loop_
_atom_site_type_symbol
_atom_site_label
_atom_site_fract_x
_atom_site_fract_y
_atom_site_fract_z
Si Si1 0.330780 0.109933 0.856980
Si Si2 0.816435 0.609450 0.067052
Si Si3 0.824429 0.761682 0.211268
Si Si4 0.318039 0.106278 0.363941
Si Si5 0.331434 0.889888 0.078188
Si Si6 0.681459 0.390676 0.866880
Si Si7 0.815727 0.894208 0.571206
Si Si8 0.175930 0.245270 0.729827
O O1 0.500000 0.142646 0.825133
O O2 0.198043 0.164584 0.806960
O O3 0.321296 0.000000 0.839082
O O4 0.324834 0.123818 0.967675
O O5 0.776989 0.500000 0.077276
O O6 0.765944 0.668725 0.157757
O O7 0.000000 0.617797 0.061650
O O8 0.749205 0.642109 0.967114
O O9 0.739367 0.810771 0.297252
O O10 0.802524 0.837696 0.129527
O O11 0.000000 0.747545 0.236839
O O12 0.500000 0.109090 0.369332
O O13 0.247339 0.116389 0.466897
O O14 0.275801 0.000000 0.330418
O O15 0.500000 0.856663 0.111111
O O16 0.325318 0.000000 0.096136
O O17 0.500000 0.383425 0.872809
O O18 0.724095 0.500000 0.856946
O O19 0.739610 0.331997 0.778201
O O20 0.764569 0.808588 0.637386
O O21 0.000000 0.892243 0.570200
O O22 0.770968 0.000000 0.603895
O O23 0.000000 0.269667 0.715672
#
# Coordination Sequence:
#
# PCOD9337714 Si02
#       8
#     4   4   4   4   4   4   4   4
#     4   9  18  31  46  67  99 137 171 204 245 295
#     4   9  19  36  55  76 104 136 171 212 257 306
#     4  11  21  31  49  75  99 128 166 207 253 302
#     4  10  21  36  54  76 102 134 170 208 253 304
#     4   9  18  31  44  62  94 133 167 199 238 287
#     4  10  21  36  54  77 105 138 176 217 260 306
#     4   9  19  36  55  76 104 135 168 209 254 301
#     4  11  21  32  51  77 103 133 169 210 258 309
#
# _framework density 17.806702999999999
#
# number of rings (size 3 to 8) (size 9 to 14) (size 15 to 20)
#    0.000    2.250    0.000    3.750    0.000    8.500 
#    0.000    2.500    0.000    0.750    0.000    1.750 
#    0.000    0.000    0.000    0.000    0.000    0.000 
#
# Total GULP energy -178365.054794 kJ/mol
# GULP energy per Si atom -5573.907962 kJ/mol
# Density = 1.776617 g / cm^3
# Si number density = 17.806703 Si / 1000 Ang^3
#
#
#
# Elastic Constant Matrix: (Units=GPa)
#
#
# Indices 1 2 3 4 5 6 
#
# 1 21.3724 20.7946 21.5873 0.0000 0.0000 0.0000
# 2 20.7946 91.0268 54.0144 0.0000 0.0000 0.0000
# 3 21.5873 54.0144 93.1429 0.0000 0.0000 0.0000
# 4 0.0000 0.0000 0.0000 34.2342 0.0000 0.0000
# 5 0.0000 0.0000 0.0000 0.0000 -1.2132 0.0000
# 6 0.0000 0.0000 0.0000 0.0000 0.0000 23.2864
#
#
#
# Elastic Compliance Matrix: (Units=1/GPa)
#
#
# Indices 1 2 3 4 5 6 
#
# 1 0.065694 -0.009106 -0.009945 0.000000 0.000000 0.000000
# 2 -0.009106 0.018012 -0.008335 0.000000 0.000000 0.000000
# 3 -0.009945 -0.008335 0.017874 0.000000 0.000000 0.000000
# 4 0.000000 0.000000 0.000000 0.029211 0.000000 0.000000
# 5 0.000000 0.000000 0.000000 0.000000 -0.824278 0.000000
# 6 0.000000 0.000000 0.000000 0.000000 0.000000 0.042943
#
#
# Mechanical properties :
#
#
# Convention : Reuss Voigt Hill
#
# Bulk Modulus (GPa) = 21.36348 44.25941 32.81145
# Shear Modulus (GPa) = -8.61819 18.53787 4.95984
#
# Velocity S-wave (km/s) = -2.20235 3.23005 1.67076
# Velocity P-wave (km/s) = 2.35719 6.23060 4.71045
#
# Compressibility (1/GPa) = 0.04680885
#
# Stress axis : x y z
#
# Youngs Moduli (GPa) = 15.22201 55.51930 55.94601
#
# Poissons Ratio (x) = 0.50558 0.55637
# Poissons Ratio (y) = 0.13862 0.46629
# Poissons Ratio (z) = 0.15138 0.46273
#
# Static dielectric constant tensor:
#      x y z
#    x 1.634700 0.000000 0.000000 
#    y 0.000000 1.634320 0.000000 
#    z 0.000000 0.000000 1.606700 
# 
# From -- ./inp_files/5731.got.cif
#   From: 2010.05.17/outbox.cif.g08.bks.cpg/sg25_3_cif.got.tgz:5731.got - 2010.06.04 01:04:00.
