data_PCOD9337086
_publ_section_title
;
Structure prediction by ZEFSAII (Michael W. Deem and Ramdas Pophale) SiO2 
 PCOD9337086
Probable space group: I 21 21 21
;
_chemical_formula_sum "Si O2"
_cell_formula_units_Z 20
_cell_length_a 12.000000
_cell_length_b 9.000000
_cell_length_c 18.000000
_cell_angle_alpha 90.000000
_cell_angle_beta 90.000000
_cell_angle_gamma 90.000000
_cell_volume 1944.000000
_symmetry_space_group_name_H-M "I 21 21 21"
_symmetry_group_IT_number 24
_symmetry_cell_setting 'orthorhombic'
loop_
_space_group_symop_operation_xyz
x,y,z
-x,1/2-y,z
x,-y,1/2-z
1/2-x,y,-z
1/2+x,1/2+y,1/2+z
1/2-x,-y,1/2+z
1/2+x,1/2-y,-z
-x,1/2+y,1/2-z
loop_
_atom_site_type_symbol
_atom_site_label
_atom_site_fract_x
_atom_site_fract_y
_atom_site_fract_z
Si Si1 0.936506 0.904276 0.674741
Si Si2 0.421410 0.900530 0.062479
Si Si3 0.789531 0.879337 0.416696
Si Si4 0.974451 0.069174 0.328084
Si Si5 0.177016 0.979008 0.410012
O O1 0.812987 0.887633 0.641201
O O2 0.000000 0.750000 0.690197
O O3 0.934928 0.000000 0.750000
O O4 0.006361 0.984931 0.610051
O O5 0.500000 0.750000 0.063541
O O6 0.293694 0.927583 0.095282
O O7 0.393616 0.950429 0.978525
O O8 0.750000 0.924803 0.500000
O O9 0.813603 0.700013 0.421871
O O10 0.887696 0.991249 0.387560
O O11 0.000000 0.250000 0.330231
O O12 0.933354 0.000000 0.250000
O O13 0.096882 0.001213 0.340905
#
# Coordination Sequence:
#
# PCOD9337086 Si02
#       5
#     8   8   8   8   8
#     4  12  25  45  70 108 150 199 252 311 386 454
#     4  11  24  45  73 109 149 194 252 308 379 450
#     4  12  24  48  79 108 149 201 255 313 382 458
#     4  12  28  49  74 109 151 198 252 313 385 459
#     4  11  23  47  75 107 149 196 253 312 378 451
#
# _framework density 10.288066000000001
#
# number of rings (size 3 to 8) (size 9 to 14) (size 15 to 20)
#    0.000    0.400    4.000    4.800    2.800    0.800 
#    3.600    1.000    0.000    0.000    0.000    0.000 
#    0.000    0.000    0.000    0.000    0.000    0.000 
#
# Total GULP energy -111539.750070 kJ/mol
# GULP energy per Si atom -5576.987504 kJ/mol
# Density = 1.026465 g / cm^3
# Si number density = 10.288066 Si / 1000 Ang^3
#
#
#
# Elastic Constant Matrix: (Units=GPa)
#
#
# Indices 1 2 3 4 5 6 
#
# 1 149.6974 71.2664 42.7475 0.0000 0.0000 0.0000
# 2 71.2664 179.3117 48.0190 0.0000 0.0000 0.0000
# 3 42.7475 48.0190 74.8538 0.0000 0.0000 0.0000
# 4 0.0000 0.0000 0.0000 37.1474 0.0000 0.0000
# 5 0.0000 0.0000 0.0000 0.0000 17.0472 0.0000
# 6 0.0000 0.0000 0.0000 0.0000 0.0000 44.0592
#
#
#
# Elastic Compliance Matrix: (Units=1/GPa)
#
#
# Indices 1 2 3 4 5 6 
#
# 1 0.008901 -0.002628 -0.003398 0.000000 0.000000 0.000000
# 2 -0.002628 0.007510 -0.003317 0.000000 0.000000 0.000000
# 3 -0.003398 -0.003317 0.017427 0.000000 0.000000 0.000000
# 4 0.000000 0.000000 0.000000 0.026920 0.000000 0.000000
# 5 0.000000 0.000000 0.000000 0.000000 0.058661 0.000000
# 6 0.000000 0.000000 0.000000 0.000000 0.000000 0.022697
#
#
# Mechanical properties :
#
#
# Convention : Reuss Voigt Hill
#
# Bulk Modulus (GPa) = 65.98947 80.88099 73.43523
# Shear Modulus (GPa) = 30.14754 35.77276 32.96015
#
# Velocity S-wave (km/s) = 3.83191 4.17412 4.00667
# Velocity P-wave (km/s) = 7.19156 7.91357 7.56119
#
# Compressibility (1/GPa) = 0.01515393
#
# Stress axis : x y z
#
# Youngs Moduli (GPa) = 112.34125 133.16410 57.38124
#
# Poissons Ratio (x) = 0.34995 0.19496
# Poissons Ratio (y) = 0.29523 0.19031
# Poissons Ratio (z) = 0.38169 0.44165
#
# Static dielectric constant tensor:
#      x y z
#    x 1.757260 0.000000 0.000000 
#    y 0.000000 1.740080 0.000000 
#    z 0.000000 0.000000 1.812240 
# 
# From -- ./inp_files/30051.got.cif
#   From: 2010.05.17/outbox.ucp.g08.bks.cvg/sg24_16_cif.got.tgz:30051.got - 2010.06.11 15:20:44.
