data_PCOD9337030
_publ_section_title
;
Structure prediction by ZEFSAII (Michael W. Deem and Ramdas Pophale) SiO2 
 PCOD9337030
Probable space group: I 21 21 21
;
_chemical_formula_sum "Si O2"
_cell_formula_units_Z 48
_cell_length_a 9.528308
_cell_length_b 13.902506
_cell_length_c 13.675303
_cell_angle_alpha 90.000000
_cell_angle_beta 90.000000
_cell_angle_gamma 90.000000
_cell_volume 1811.531274
_symmetry_space_group_name_H-M "I 21 21 21"
_symmetry_group_IT_number 24
_symmetry_cell_setting 'orthorhombic'
loop_
_space_group_symop_operation_xyz
x,y,z
-x,1/2-y,z
x,-y,1/2-z
1/2-x,y,-z
1/2+x,1/2+y,1/2+z
1/2-x,-y,1/2+z
1/2+x,1/2-y,-z
-x,1/2+y,1/2-z
loop_
_atom_site_type_symbol
_atom_site_label
_atom_site_fract_x
_atom_site_fract_y
_atom_site_fract_z
Si Si1 0.717637 0.197684 0.113150
Si Si2 0.717637 0.802316 0.113150
Si Si3 0.488821 0.112254 0.643987
Si Si4 0.571826 0.609868 0.415146
Si Si5 0.928174 0.390132 0.584854
Si Si6 0.488821 0.887746 0.643987
O O1 0.868643 0.172480 0.153766
O O2 0.750000 0.187174 0.000000
O O3 0.662957 0.305192 0.131020
O O4 0.584981 0.126934 0.127339
O O5 0.868643 0.827520 0.153766
O O6 0.750000 0.812826 0.000000
O O7 0.584981 0.873066 0.127339
O O8 0.662957 0.694808 0.131020
O O9 0.428463 0.129697 0.533878
O O10 0.413949 0.121899 0.750000
O O11 0.529267 0.000000 0.637551
O O12 0.618435 0.500000 0.399528
O O13 0.571537 0.629697 0.533878
#
# Coordination Sequence:
#
# PCOD9337030 Si02
#       6
#     8   8   8   8   8   8
#     4   9  17  30  47  71  98 130 169 203 245 297
#     4   9  17  30  47  71  98 130 169 203 245 297
#     4   9  17  31  53  78 101 127 164 212 256 291
#     4   9  17  30  48  70  98 132 170 205 241 295
#     4   9  17  30  48  70  98 132 170 205 241 295
#     4   9  17  31  53  78 101 127 164 212 256 291
#
# _framework density 26.496919999999999
#
# number of rings (size 3 to 8) (size 9 to 14) (size 15 to 20)
#    0.000    3.000    0.000    1.000    0.000    4.667 
#    0.000   16.667    0.000    3.000    0.000    0.000 
#    0.000   16.000    0.000    0.000    0.000    0.000 
#
# Total GULP energy -134078.377845 kJ/mol
# GULP energy per Si atom -5586.599077 kJ/mol
# Density = 2.643661 g / cm^3
# Si number density = 26.496920 Si / 1000 Ang^3
#
#
#
# Elastic Constant Matrix: (Units=GPa)
#
#
# Indices 1 2 3 4 5 6 
#
# 1 68.6955 25.4975 1.4535 0.0000 0.0000 0.0000
# 2 25.4975 148.2502 26.8661 0.0000 0.0000 0.0000
# 3 1.4535 26.8661 136.6446 0.0000 0.0000 0.0000
# 4 0.0000 0.0000 0.0000 134.9236 0.0000 0.0000
# 5 0.0000 0.0000 0.0000 0.0000 17.6870 0.0000
# 6 0.0000 0.0000 0.0000 0.0000 0.0000 26.4103
#
#
#
# Elastic Compliance Matrix: (Units=1/GPa)
#
#
# Indices 1 2 3 4 5 6 
#
# 1 0.015568 -0.002745 0.000374 0.000000 0.000000 0.000000
# 2 -0.002745 0.007479 -0.001441 0.000000 0.000000 0.000000
# 3 0.000374 -0.001441 0.007598 0.000000 0.000000 0.000000
# 4 0.000000 0.000000 0.000000 0.007412 0.000000 0.000000
# 5 0.000000 0.000000 0.000000 0.000000 0.056539 0.000000
# 6 0.000000 0.000000 0.000000 0.000000 0.000000 0.037864
#
#
# Mechanical properties :
#
#
# Convention : Reuss Voigt Hill
#
# Bulk Modulus (GPa) = 43.44120 51.24719 47.34419
# Shear Modulus (GPa) = 33.83939 55.78905 44.81422
#
# Velocity S-wave (km/s) = 3.57754 4.59354 4.11700
# Velocity P-wave (km/s) = 5.78753 6.89326 6.36445
#
# Compressibility (1/GPa) = 0.02301962
#
# Stress axis : x y z
#
# Youngs Moduli (GPa) = 64.23401 133.71296 131.61994
#
# Poissons Ratio (x) = 0.36709 -0.04925
# Poissons Ratio (y) = 0.17635 0.18969
# Poissons Ratio (z) = -0.02403 0.19271
#
# Static dielectric constant tensor:
#      x y z
#    x 2.151700 0.000000 0.000000 
#    y 0.000000 2.026640 0.000000 
#    z 0.000000 0.000000 2.108140 
# 
# From -- ./inp_files/30265.got.cif
#   From: 2010.05.17/outbox.cif.g08.bks.cpg/sg24_16_cif.got.tgz:30265.got - 2010.06.04 00:33:39.
