data_PCOD9337563
_publ_section_title
;
Structure prediction by ZEFSAII (Michael W. Deem and Ramdas Pophale) SiO2 
 PCOD9337563
Probable space group: P M M 2
;
_chemical_formula_sum "Si O2"
_cell_formula_units_Z 28
_cell_length_a 9.105351
_cell_length_b 9.347082
_cell_length_c 18.686861
_cell_angle_alpha 90.000000
_cell_angle_beta 90.000000
_cell_angle_gamma 90.000000
_cell_volume 1590.410007
_symmetry_space_group_name_H-M "P M M 2"
_symmetry_group_IT_number 25
_symmetry_cell_setting 'orthorhombic'
loop_
_space_group_symop_operation_xyz
x,y,z
-x,-y,z
-x,y,z
x,-y,z
loop_
_atom_site_type_symbol
_atom_site_label
_atom_site_fract_x
_atom_site_fract_y
_atom_site_fract_z
Si Si1 0.826377 0.170851 0.757640
Si Si2 0.830959 0.674123 0.035397
Si Si3 0.324060 0.330596 0.181878
Si Si4 0.324518 0.830712 0.608630
Si Si5 0.326884 0.328186 0.889106
Si Si6 0.679195 0.835244 0.324798
Si Si7 0.679185 0.335271 0.465857
O O1 0.756776 0.212300 0.681308
O O2 0.749634 0.252414 0.822475
O O3 0.000000 0.198519 0.757840
O O4 0.803254 0.000000 0.765755
O O5 0.827971 0.500000 0.035727
O O6 0.754123 0.718572 0.109185
O O7 0.000000 0.719801 0.032592
O O8 0.745248 0.719011 0.964114
O O9 0.500000 0.315041 0.173450
O O10 0.294832 0.500000 0.192457
O O11 0.276363 0.243957 0.251924
O O12 0.500000 0.811250 0.618126
O O13 0.276484 0.742474 0.539121
O O14 0.299035 0.000000 0.596248
O O15 0.500000 0.298038 0.889665
O O16 0.307710 0.500000 0.883193
O O17 0.500000 0.833854 0.325476
O O18 0.727770 0.750509 0.395493
O O19 0.726119 0.000000 0.326365
O O20 0.500000 0.333770 0.465148
O O21 0.726052 0.500000 0.463651
#
# Coordination Sequence:
#
# PCOD9337563 Si02
#       7
#     4   4   4   4   4   4   4
#     4  10  21  36  53  74 102 136 171 206 249 302
#     4   9  17  30  49  72  98 129 164 202 246 295
#     4   9  16  27  45  68  93 122 159 202 244 287
#     4   9  17  30  48  69  95 128 164 202 246 295
#     4  10  20  34  54  79 104 131 167 210 253 298
#     4   9  16  26  42  66  96 127 158 195 242 292
#     4   9  16  26  43  69  98 125 157 200 246 289
#
# _framework density 17.605522000000001
#
# number of rings (size 3 to 8) (size 9 to 14) (size 15 to 20)
#    0.000    2.714    0.000    2.143    0.000    7.429 
#    0.000    2.143    0.000    3.857    0.000    0.000 
#    0.000    0.000    0.000    0.000    0.000    0.000 
#
# Total GULP energy -156158.477105 kJ/mol
# GULP energy per Si atom -5577.088468 kJ/mol
# Density = 1.756545 g / cm^3
# Si number density = 17.605522 Si / 1000 Ang^3
#
#
#
# Elastic Constant Matrix: (Units=GPa)
#
#
# Indices 1 2 3 4 5 6 
#
# 1 53.8119 46.5033 78.9445 0.0000 0.0000 0.0000
# 2 46.5033 73.8696 95.6570 0.0000 0.0000 0.0000
# 3 78.9445 95.6570 232.4316 0.0000 0.0000 0.0000
# 4 0.0000 0.0000 0.0000 -534.5957 0.0000 0.0000
# 5 0.0000 0.0000 0.0000 0.0000 -8.0083 0.0000
# 6 0.0000 0.0000 0.0000 0.0000 0.0000 13.6340
#
#
#
# Elastic Compliance Matrix: (Units=1/GPa)
#
#
# Indices 1 2 3 4 5 6 
#
# 1 0.046934 -0.019063 -0.008095 0.000000 0.000000 0.000000
# 2 -0.019063 0.036727 -0.008640 0.000000 0.000000 0.000000
# 3 -0.008095 -0.008640 0.010608 0.000000 0.000000 0.000000
# 4 0.000000 0.000000 0.000000 -0.001871 0.000000 0.000000
# 5 0.000000 0.000000 0.000000 0.000000 -0.124870 0.000000
# 6 0.000000 0.000000 0.000000 0.000000 0.000000 0.073346
#
#
# Mechanical properties :
#
#
# Convention : Reuss Voigt Hill
#
# Bulk Modulus (GPa) = 44.10970 89.14694 66.62832
# Shear Modulus (GPa) = 41.65727 -96.52678 -27.43475
#
# Velocity S-wave (km/s) = 4.86958 -7.41260 -3.95182
# Velocity P-wave (km/s) = 7.53167 4.74515 4.13579
#
# Compressibility (1/GPa) = 0.02267075
#
# Stress axis : x y z
#
# Youngs Moduli (GPa) = 21.30674 27.22818 94.27074
#
# Poissons Ratio (x) = 0.51905 0.76316
# Poissons Ratio (y) = 0.40617 0.81451
# Poissons Ratio (z) = 0.17249 0.23525
#
# Static dielectric constant tensor:
#      x y z
#    x 1.581580 0.000000 0.000000 
#    y 0.000000 1.594280 0.000000 
#    z 0.000000 0.000000 1.575690 
# 
# From -- ./inp_files/6081.got.cif
#   From: 2010.05.17/outbox.cif.g08.bks.cpg/sg25_4_cif.got.tgz:6081.got - 2010.06.04 01:04:00.
