data_PCOD9337141
_publ_section_title
;
Structure prediction by ZEFSAII (Michael W. Deem and Ramdas Pophale) SiO2 
 PCOD9337141
Probable space group: P M M 2
;
_chemical_formula_sum "Si O2"
_cell_formula_units_Z 32
_cell_length_a 8.815081
_cell_length_b 15.042941
_cell_length_c 12.581600
_cell_angle_alpha 90.000000
_cell_angle_beta 90.000000
_cell_angle_gamma 90.000000
_cell_volume 1668.379839
_symmetry_space_group_name_H-M "P M M 2"
_symmetry_group_IT_number 25
_symmetry_cell_setting 'orthorhombic'
loop_
_space_group_symop_operation_xyz
x,y,z
-x,-y,z
-x,y,z
x,-y,z
loop_
_atom_site_type_symbol
_atom_site_label
_atom_site_fract_x
_atom_site_fract_y
_atom_site_fract_z
Si Si1 0.817072 0.598910 0.135690
Si Si2 0.318351 0.896748 0.851421
Si Si3 0.673783 0.160920 0.436937
Si Si4 0.179705 0.781482 0.040865
Si Si5 0.679957 0.099020 0.213869
Si Si6 0.819572 0.792568 0.653586
Si Si7 0.817311 0.403535 0.590759
Si Si8 0.325248 0.635466 0.365541
O O1 0.775975 0.500000 0.097819
O O2 0.769048 0.679661 0.059221
O O3 0.750144 0.612085 0.253696
O O4 0.000000 0.603857 0.144156
O O5 0.500000 0.897381 0.851872
O O6 0.258870 0.848857 0.745401
O O7 0.266557 0.000000 0.858372
O O8 0.260476 0.837109 0.949070
O O9 0.500000 0.141212 0.469737
O O10 0.717480 0.099472 0.338647
O O11 0.778001 0.164666 0.539801
O O12 0.675732 0.258658 0.383932
O O13 0.220082 0.831890 0.149876
O O14 0.000000 0.782056 0.021150
O O15 0.500000 0.121729 0.204996
O O16 0.700123 0.000000 0.169455
O O17 0.766385 0.688663 0.646240
O O18 0.000000 0.792758 0.669935
O O19 0.770195 0.500000 0.636540
O O20 0.760644 0.400560 0.469099
O O21 0.000000 0.400637 0.590632
O O22 0.500000 0.606081 0.365933
#
# Coordination Sequence:
#
# PCOD9337141 Si02
#       8
#     4   4   4   4   4   4   4   4
#     4  10  21  36  54  79 114 155 193 229 279 341
#     4  11  25  45  67  86 108 145 189 234 292 357
#     4   9  18  33  52  79 119 159 191 229 281 339
#     4  11  23  39  61  86 114 146 188 242 289 332
#     4  10  20  35  56  82 115 155 191 226 281 350
#     4  10  21  37  60  88 116 147 191 242 286 330
#     4   9  18  33  53  80 118 160 194 226 275 338
#     4  10  18  29  49  79 115 155 198 240 275 318
#
# _framework density 19.180285000000001
#
# number of rings (size 3 to 8) (size 9 to 14) (size 15 to 20)
#    0.000    2.000    1.250    2.250    0.000    7.250 
#    0.000    1.875    0.000    3.750    0.000    0.000 
#    0.000    0.000    0.000    0.000    0.000    0.000 
#
# Total GULP energy -178558.752968 kJ/mol
# GULP energy per Si atom -5579.961030 kJ/mol
# Density = 1.913663 g / cm^3
# Si number density = 19.180285 Si / 1000 Ang^3
#
#
#
# Elastic Constant Matrix: (Units=GPa)
#
#
# Indices 1 2 3 4 5 6 
#
# 1 32.3144 37.2089 27.5097 0.0000 0.0000 0.0000
# 2 37.2089 146.2343 66.9784 0.0000 0.0000 0.0000
# 3 27.5097 66.9784 81.5485 0.0000 0.0000 0.0000
# 4 0.0000 0.0000 0.0000 14.0025 0.0000 0.0000
# 5 0.0000 0.0000 0.0000 0.0000 33.4438 0.0000
# 6 0.0000 0.0000 0.0000 0.0000 0.0000 17.1141
#
#
#
# Elastic Compliance Matrix: (Units=1/GPa)
#
#
# Indices 1 2 3 4 5 6 
#
# 1 0.048326 -0.007742 -0.009944 0.000000 0.000000 0.000000
# 2 -0.007742 0.012202 -0.007411 0.000000 0.000000 0.000000
# 3 -0.009944 -0.007411 0.021704 0.000000 0.000000 0.000000
# 4 0.000000 0.000000 0.000000 0.071416 0.000000 0.000000
# 5 0.000000 0.000000 0.000000 0.000000 0.029901 0.000000
# 6 0.000000 0.000000 0.000000 0.000000 0.000000 0.058431
#
#
# Mechanical properties :
#
#
# Convention : Reuss Voigt Hill
#
# Bulk Modulus (GPa) = 31.21146 58.16569 44.68858
# Shear Modulus (GPa) = 16.50971 21.47209 18.99090
#
# Velocity S-wave (km/s) = 2.93706 3.34950 3.15004
# Velocity P-wave (km/s) = 5.27350 6.73428 6.04815
#
# Compressibility (1/GPa) = 0.03203951
#
# Stress axis : x y z
#
# Youngs Moduli (GPa) = 20.69292 81.95067 46.07543
#
# Poissons Ratio (x) = 0.63446 0.45815
# Poissons Ratio (y) = 0.16020 0.34145
# Poissons Ratio (z) = 0.20576 0.60730
#
# Static dielectric constant tensor:
#      x y z
#    x 1.650130 0.000000 0.000000 
#    y 0.000000 1.730570 0.000000 
#    z 0.000000 0.000000 1.641430 
# 
# From -- ./inp_files/4180.got.cif
#   From: 2010.05.17/outbox.cif.g08.bks.cpg/sg25_3_cif.got.tgz:4180.got - 2010.06.04 01:04:00.
