data_PCOD9337648
_publ_section_title
;
Structure prediction by ZEFSAII (Michael W. Deem and Ramdas Pophale) SiO2 
 PCOD9337648
Probable space group: P M M 2
;
_chemical_formula_sum "Si O2"
_cell_formula_units_Z 16
_cell_length_a 8.672823
_cell_length_b 12.754748
_cell_length_c 7.512387
_cell_angle_alpha 90.000000
_cell_angle_beta 90.000000
_cell_angle_gamma 90.000000
_cell_volume 831.017784
_symmetry_space_group_name_H-M "P M M 2"
_symmetry_group_IT_number 25
_symmetry_cell_setting 'orthorhombic'
loop_
_space_group_symop_operation_xyz
x,y,z
-x,-y,z
-x,y,z
x,-y,z
loop_
_atom_site_type_symbol
_atom_site_label
_atom_site_fract_x
_atom_site_fract_y
_atom_site_fract_z
Si Si1 0.185709 0.727432 0.681240
Si Si2 0.686215 0.879071 0.387818
Si Si3 0.684438 0.721103 0.077363
Si Si4 0.822278 0.500000 0.658204
Si Si5 0.822893 0.500000 0.091847
O O1 0.244600 0.819797 0.557149
O O2 0.245182 0.613376 0.610220
O O3 0.000000 0.723468 0.682467
O O4 0.243723 0.739282 0.882952
O O5 0.500000 0.876485 0.400405
O O6 0.730485 0.811909 0.214237
O O7 0.734678 0.000000 0.376767
O O8 0.500000 0.719244 0.061299
O O9 0.741550 0.607632 0.145398
O O10 0.000000 0.500000 0.150083
O O11 0.822210 0.500000 0.874875
O O12 0.000000 0.500000 0.597517
#
# Coordination Sequence:
#
# PCOD9337648 Si02
#       5
#     4   4   4   2   2
#     4  10  20  36  59  86 115 146 181 227 284 339
#     4  10  23  41  57  77 109 150 195 237 277 329
#     4  10  20  36  59  85 114 149 187 228 278 338
#     4   7  14  30  51  78 111 141 169 208 267 333
#     4   9  17  32  55  84 117 147 179 226 281 335
#
# _framework density 19.253498
#
# number of rings (size 3 to 8) (size 9 to 14) (size 15 to 20)
#    0.000    2.500    0.000    3.375    0.000    4.500 
#    0.000    6.875    0.000    0.000    0.000    0.000 
#    0.000    0.000    0.000    0.000    0.000    0.000 
#
# Total GULP energy -89296.000004 kJ/mol
# GULP energy per Si atom -5581.000000 kJ/mol
# Density = 1.920968 g / cm^3
# Si number density = 19.253498 Si / 1000 Ang^3
#
#
#
# Elastic Constant Matrix: (Units=GPa)
#
#
# Indices 1 2 3 4 5 6 
#
# 1 34.4832 49.1432 29.9954 0.0000 0.0000 0.0000
# 2 49.1432 224.2493 94.3858 0.0000 0.0000 0.0000
# 3 29.9954 94.3858 106.5130 0.0000 0.0000 0.0000
# 4 0.0000 0.0000 0.0000 34.8131 0.0000 0.0000
# 5 0.0000 0.0000 0.0000 0.0000 -131.3356 0.0000
# 6 0.0000 0.0000 0.0000 0.0000 0.0000 137.9410
#
#
#
# Elastic Compliance Matrix: (Units=1/GPa)
#
#
# Indices 1 2 3 4 5 6 
#
# 1 0.044612 -0.007159 -0.006220 0.000000 0.000000 0.000000
# 2 -0.007159 0.008261 -0.005304 0.000000 0.000000 0.000000
# 3 -0.006220 -0.005304 0.015840 0.000000 0.000000 0.000000
# 4 0.000000 0.000000 0.000000 0.028725 0.000000 0.000000
# 5 0.000000 0.000000 0.000000 0.000000 -0.007614 0.000000
# 6 0.000000 0.000000 0.000000 0.000000 0.000000 0.007249
#
#
# Mechanical properties :
#
#
# Convention : Reuss Voigt Hill
#
# Bulk Modulus (GPa) = 31.90009 79.14380 55.52195
# Shear Modulus (GPa) = 34.50966 21.06510 27.78738
#
# Velocity S-wave (km/s) = 4.23825 3.31130 3.80312
# Velocity P-wave (km/s) = 6.36826 7.47094 6.94153
#
# Compressibility (1/GPa) = 0.03134787
#
# Stress axis : x y z
#
# Youngs Moduli (GPa) = 22.41557 121.05674 63.13035
#
# Poissons Ratio (x) = 0.86660 0.39265
# Poissons Ratio (y) = 0.16047 0.33485
# Poissons Ratio (z) = 0.13942 0.64210
#
# Static dielectric constant tensor:
#      x y z
#    x 1.672080 0.000000 0.000000 
#    y 0.000000 1.677890 0.000000 
#    z 0.000000 0.000000 1.667020 
# 
# From -- ./inp_files/1602.got.cif
#   From: 2010.05.17/outbox.cif.g08.bks.cpg/sg25_1_cif.got.tgz:1602.got - 2010.06.04 01:04:00.
