data_PCOD9337330
_publ_section_title
;
Structure prediction by ZEFSAII (Michael W. Deem and Ramdas Pophale) SiO2 
 PCOD9337330
Probable space group: P M M 2
;
_chemical_formula_sum "Si O2"
_cell_formula_units_Z 24
_cell_length_a 8.536033
_cell_length_b 12.122993
_cell_length_c 13.031363
_cell_angle_alpha 90.000000
_cell_angle_beta 90.000000
_cell_angle_gamma 90.000000
_cell_volume 1348.515002
_symmetry_space_group_name_H-M "P M M 2"
_symmetry_group_IT_number 25
_symmetry_cell_setting 'orthorhombic'
loop_
_space_group_symop_operation_xyz
x,y,z
-x,-y,z
-x,y,z
x,-y,z
loop_
_atom_site_type_symbol
_atom_site_label
_atom_site_fract_x
_atom_site_fract_y
_atom_site_fract_z
Si Si1 0.312603 0.873469 0.152340
Si Si2 0.312433 0.500000 0.651149
Si Si3 0.687601 0.500000 0.890162
Si Si4 0.810908 0.126983 0.379873
Si Si5 0.812260 0.731259 0.966847
Si Si6 0.189664 0.268676 0.574138
Si Si7 0.809028 0.126061 0.770809
O O1 0.500000 0.870435 0.147005
O O2 0.258943 0.849099 0.268285
O O3 0.260742 0.000000 0.128876
O O4 0.243138 0.788325 0.071196
O O5 0.500000 0.500000 0.651928
O O6 0.257656 0.500000 0.770659
O O7 0.252255 0.390412 0.595259
O O8 0.500000 0.500000 0.889582
O O9 0.747434 0.609646 0.946052
O O10 0.759978 0.211271 0.468210
O O11 0.000000 0.131708 0.372963
O O12 0.769633 0.000000 0.407388
O O13 0.758844 0.808224 0.871894
O O14 0.000000 0.726806 0.965611
O O15 0.239667 0.191556 0.669274
O O16 0.000000 0.272299 0.574172
O O17 0.000000 0.124300 0.770845
O O18 0.754830 0.000000 0.771074
#
# Coordination Sequence:
#
# PCOD9337330 Si02
#       7
#     4   2   2   4   4   4   4
#     4  10  21  37  57  82 116 154 187 225 279 339
#     4  11  23  37  54  77 112 153 189 225 271 330
#     4  11  23  39  56  77 112 153 191 229 279 338
#     4   9  18  34  58  86 113 143 183 232 281 329
#     4  11  21  35  58  84 111 144 189 236 278 329
#     4  10  19  34  57  82 110 143 185 230 274 326
#     4   9  17  29  50  82 113 138 170 220 278 329
#
# _framework density 17.797355
#
# number of rings (size 3 to 8) (size 9 to 14) (size 15 to 20)
#    0.000    2.000    1.667    2.500    0.000    5.000 
#    0.000    0.833    0.000    5.500    0.000    0.000 
#    0.000    0.000    0.000    0.000    0.000    0.000 
#
# Total GULP energy -134011.592376 kJ/mol
# GULP energy per Si atom -5583.816349 kJ/mol
# Density = 1.775685 g / cm^3
# Si number density = 17.797355 Si / 1000 Ang^3
#
#
#
# Elastic Constant Matrix: (Units=GPa)
#
#
# Indices 1 2 3 4 5 6 
#
# 1 31.0690 38.5457 37.5298 0.0000 0.0000 0.0000
# 2 38.5457 194.0845 115.0195 0.0000 0.0000 0.0000
# 3 37.5298 115.0195 144.7344 0.0000 0.0000 0.0000
# 4 0.0000 0.0000 0.0000 19.5764 0.0000 0.0000
# 5 0.0000 0.0000 0.0000 0.0000 18.7674 0.0000
# 6 0.0000 0.0000 0.0000 0.0000 0.0000 14.5796
#
#
#
# Elastic Compliance Matrix: (Units=1/GPa)
#
#
# Indices 1 2 3 4 5 6 
#
# 1 0.048551 -0.004124 -0.009312 0.000000 0.000000 0.000000
# 2 -0.004124 0.010089 -0.006949 0.000000 0.000000 0.000000
# 3 -0.009312 -0.006949 0.014846 0.000000 0.000000 0.000000
# 4 0.000000 0.000000 0.000000 0.051082 0.000000 0.000000
# 5 0.000000 0.000000 0.000000 0.000000 0.053284 0.000000
# 6 0.000000 0.000000 0.000000 0.000000 0.000000 0.068589
#
#
# Mechanical properties :
#
#
# Convention : Reuss Voigt Hill
#
# Bulk Modulus (GPa) = 30.56495 83.56421 57.06458
# Shear Modulus (GPa) = 16.77197 22.50421 19.63809
#
# Velocity S-wave (km/s) = 3.07316 3.55980 3.32539
# Velocity P-wave (km/s) = 5.45926 7.99695 6.84671
#
# Compressibility (1/GPa) = 0.03271722
#
# Stress axis : x y z
#
# Youngs Moduli (GPa) = 20.59678 99.11495 67.35844
#
# Poissons Ratio (x) = 0.40872 0.62727
# Poissons Ratio (y) = 0.08493 0.46805
# Poissons Ratio (z) = 0.19181 0.68871
#
# Static dielectric constant tensor:
#      x y z
#    x 1.603040 0.000000 0.000000 
#    y 0.000000 1.582970 0.000000 
#    z 0.000000 0.000000 1.585860 
# 
# From -- ./inp_files/3970.got.cif
#   From: 2010.05.17/outbox.cif.g08.bks.cpg/sg25_2_cif.got.tgz:3970.got - 2010.06.04 01:04:00.
