data_PCOD9337474
_publ_section_title
;
Structure prediction by ZEFSAII (Michael W. Deem and Ramdas Pophale) SiO2 
 PCOD9337474
Probable space group: P M M 2
;
_chemical_formula_sum "Si O2"
_cell_formula_units_Z 32
_cell_length_a 7.397249
_cell_length_b 9.563585
_cell_length_c 21.242716
_cell_angle_alpha 90.000000
_cell_angle_beta 90.000000
_cell_angle_gamma 90.000000
_cell_volume 1502.799365
_symmetry_space_group_name_H-M "P M M 2"
_symmetry_group_IT_number 25
_symmetry_cell_setting 'orthorhombic'
loop_
_space_group_symop_operation_xyz
x,y,z
-x,-y,z
-x,y,z
x,-y,z
loop_
_atom_site_type_symbol
_atom_site_label
_atom_site_fract_x
_atom_site_fract_y
_atom_site_fract_z
Si Si1 0.283748 0.659061 0.452600
Si Si2 0.278698 0.160225 0.334568
Si Si3 0.783515 0.158481 0.710865
Si Si4 0.721139 0.839016 0.954137
Si Si5 0.215701 0.340499 0.594868
Si Si6 0.279870 0.338877 0.073606
Si Si7 0.279891 0.660840 0.215328
Si Si8 0.283974 0.659125 0.834790
O O1 0.500000 0.651951 0.445924
O O2 0.213788 0.500000 0.447193
O O3 0.217795 0.757173 0.396698
O O4 0.247566 0.708797 0.523550
O O5 0.500000 0.161438 0.334585
O O6 0.220059 0.239561 0.271374
O O7 0.221512 0.000000 0.335333
O O8 0.713937 0.237885 0.648718
O O9 0.749224 0.253746 0.771598
O O10 0.000000 0.148485 0.704529
O O11 0.714292 0.000000 0.717990
O O12 0.500000 0.839342 0.953747
O O13 0.782342 0.746549 0.894899
O O14 0.778469 0.000000 0.949471
O O15 0.778875 0.764781 0.018783
O O16 0.286446 0.500000 0.600602
O O17 0.000000 0.348843 0.603160
O O18 0.500000 0.338158 0.073362
O O19 0.225847 0.500000 0.061383
O O20 0.222955 0.300203 0.144495
O O21 0.500000 0.662755 0.215380
O O22 0.226349 0.500000 0.226948
O O23 0.500000 0.649285 0.842132
O O24 0.214196 0.500000 0.831442
#
# Coordination Sequence:
#
# PCOD9337474 Si02
#       8
#     4   4   4   4   4   4   4   4
#     4   9  17  29  45  64  87 116 148 181 219 265
#     4   9  16  24  35  54  81 111 143 181 223 264
#     4  10  21  36  53  73  97 124 153 188 233 282
#     4   9  16  25  38  58  86 118 150 187 231 274
#     4   9  18  33  51  69  90 117 149 185 224 267
#     4   8  13  21  33  50  75 110 150 186 220 263
#     4   8  13  21  33  49  73 109 149 184 219 262
#     4  10  20  33  50  71  95 125 160 196 233 275
#
# _framework density 21.293593999999999
#
# number of rings (size 3 to 8) (size 9 to 14) (size 15 to 20)
#    0.000    3.000    0.000    2.250    0.000    6.000 
#    0.000    3.750    0.000    0.000    0.000    0.000 
#    0.000    1.000    0.000    8.250    0.000   12.625 
#
# Total GULP energy -178677.353151 kJ/mol
# GULP energy per Si atom -5583.667286 kJ/mol
# Density = 2.124513 g / cm^3
# Si number density = 21.293594 Si / 1000 Ang^3
#
#
#
# Elastic Constant Matrix: (Units=GPa)
#
#
# Indices 1 2 3 4 5 6 
#
# 1 72.7409 6.9898 0.9416 0.0000 0.0000 0.0000
# 2 6.9898 193.5687 164.3171 0.0000 0.0000 0.0000
# 3 0.9416 164.3171 234.4326 0.0000 0.0000 0.0000
# 4 0.0000 0.0000 0.0000 -9.9019 0.0000 0.0000
# 5 0.0000 0.0000 0.0000 0.0000 39.6533 0.0000
# 6 0.0000 0.0000 0.0000 0.0000 0.0000 -1.8211
#
#
#
# Elastic Compliance Matrix: (Units=1/GPa)
#
#
# Indices 1 2 3 4 5 6 
#
# 1 0.013845 -0.001118 0.000728 0.000000 0.000000 0.000000
# 2 -0.001118 0.012846 -0.008999 0.000000 0.000000 0.000000
# 3 0.000728 -0.008999 0.010570 0.000000 0.000000 0.000000
# 4 0.000000 0.000000 0.000000 -0.100991 0.000000 0.000000
# 5 0.000000 0.000000 0.000000 0.000000 0.025219 0.000000
# 6 0.000000 0.000000 0.000000 0.000000 0.000000 -0.549108
#
#
# Mechanical properties :
#
#
# Convention : Reuss Voigt Hill
#
# Bulk Modulus (GPa) = 54.10339 93.91547 74.00943
# Shear Modulus (GPa) = -8.88608 27.48563 9.29978
#
# Velocity S-wave (km/s) = -2.04504 3.59666 2.09210
# Velocity P-wave (km/s) = 4.45951 7.83892 6.37714
#
# Compressibility (1/GPa) = 0.01848313
#
# Stress axis : x y z
#
# Youngs Moduli (GPa) = 72.22604 77.84569 94.60292
#
# Poissons Ratio (x) = 0.08702 -0.06887
# Poissons Ratio (y) = 0.08074 0.85137
# Poissons Ratio (z) = -0.05258 0.70056
#
# Static dielectric constant tensor:
#      x y z
#    x 1.825990 0.000000 0.000000 
#    y 0.000000 1.720360 0.000000 
#    z 0.000000 0.000000 1.728620 
# 
# From -- ./inp_files/6282.got.cif
#   From: 2010.05.17/outbox.cif.g08.bks.cpg/sg25_4_cif.got.tgz:6282.got - 2010.06.04 01:04:00.
