data_PCOD9337001
_publ_section_title
;
Structure prediction by ZEFSAII (Michael W. Deem and Ramdas Pophale) SiO2 
 PCOD9337001
Probable space group: I 21 21 21
;
_chemical_formula_sum "Si O2"
_cell_formula_units_Z 28
_cell_length_a 5.166496
_cell_length_b 13.092318
_cell_length_c 15.710675
_cell_angle_alpha 90.000000
_cell_angle_beta 90.000000
_cell_angle_gamma 90.000000
_cell_volume 1062.692187
_symmetry_space_group_name_H-M "I 21 21 21"
_symmetry_group_IT_number 24
_symmetry_cell_setting 'orthorhombic'
loop_
_space_group_symop_operation_xyz
x,y,z
-x,1/2-y,z
x,-y,1/2-z
1/2-x,y,-z
1/2+x,1/2+y,1/2+z
1/2-x,-y,1/2+z
1/2+x,1/2-y,-z
-x,1/2+y,1/2-z
loop_
_atom_site_type_symbol
_atom_site_label
_atom_site_fract_x
_atom_site_fract_y
_atom_site_fract_z
Si Si1 0.905477 0.110776 0.739454
Si Si2 0.674366 0.542905 0.904352
Si Si3 0.676163 0.847707 0.598961
Si Si4 0.000000 0.250000 0.356938
O O1 0.870263 0.577545 0.827637
O O2 0.926209 0.142165 0.838979
O O3 0.731072 0.202866 0.701463
O O4 0.771640 0.000000 0.750000
O O5 0.500118 0.446401 0.882665
O O6 0.537443 0.651982 0.915514
O O7 0.750000 0.515619 0.000000
O O8 0.500000 0.750000 0.617572
O O9 0.750000 0.846203 0.500000
#
# Coordination Sequence:
#
# PCOD9337001 Si02
#       4
#     8   8   8   4
#     4  12  27  51  83 117 172 221 285 355 434 522
#     4  12  30  50  83 123 166 223 287 363 439 524
#     4  12  28  55  84 129 171 231 296 361 439 524
#     4  12  28  48  82 122 164 214 286 350 444 512
#
# _framework density 26.348178999999998
#
# number of rings (size 3 to 8) (size 9 to 14) (size 15 to 20)
#    0.000    0.000    4.286    3.429    8.000    4.571 
#    0.000    0.000    0.000    0.000    0.000    0.000 
#    0.000    0.000    0.000    0.000    0.000    0.000 
#
# Total GULP energy -78055.877246 kJ/mol
# GULP energy per Si atom -5575.419803 kJ/mol
# Density = 2.628821 g / cm^3
# Si number density = 26.348179 Si / 1000 Ang^3
#
#
#
# Elastic Constant Matrix: (Units=GPa)
#
#
# Indices 1 2 3 4 5 6 
#
# 1 63.3202 26.7256 35.8788 0.0000 0.0000 0.0000
# 2 26.7256 225.3293 -14.5612 0.0000 0.0000 0.0000
# 3 35.8788 -14.5612 168.0687 0.0000 0.0000 0.0000
# 4 0.0000 0.0000 0.0000 41.9007 0.0000 0.0000
# 5 0.0000 0.0000 0.0000 0.0000 77.0541 0.0000
# 6 0.0000 0.0000 0.0000 0.0000 0.0000 50.2081
#
#
#
# Elastic Compliance Matrix: (Units=1/GPa)
#
#
# Indices 1 2 3 4 5 6 
#
# 1 0.019347 -0.002576 -0.004353 0.000000 0.000000 0.000000
# 2 -0.002576 0.004806 0.000966 0.000000 0.000000 0.000000
# 3 -0.004353 0.000966 0.006963 0.000000 0.000000 0.000000
# 4 0.000000 0.000000 0.000000 0.023866 0.000000 0.000000
# 5 0.000000 0.000000 0.000000 0.000000 0.012978 0.000000
# 6 0.000000 0.000000 0.000000 0.000000 0.000000 0.019917
#
#
# Mechanical properties :
#
#
# Convention : Reuss Voigt Hill
#
# Bulk Modulus (GPa) = 52.11125 61.42273 56.76699
# Shear Modulus (GPa) = 47.08149 61.07758 54.07953
#
# Velocity S-wave (km/s) = 4.23176 4.81988 4.53536
# Velocity P-wave (km/s) = 6.61044 7.37140 7.00127
#
# Compressibility (1/GPa) = 0.01918971
#
# Stress axis : x y z
#
# Youngs Moduli (GPa) = 51.68860 208.07676 143.61666
#
# Poissons Ratio (x) = 0.53600 0.62520
# Poissons Ratio (y) = 0.13315 -0.13877
# Poissons Ratio (z) = 0.22501 -0.20106
#
# Static dielectric constant tensor:
#      x y z
#    x 2.218740 0.000000 0.000000 
#    y 0.000000 2.038040 0.000000 
#    z 0.000000 0.000000 2.312330 
# 
# From -- ./inp_files/29145.got.cif
#   From: 2010.05.17/outbox.cif.g08.bks.cpg/sg24_15_cif.got.tgz:29145.got - 2010.06.04 00:33:39.
