data_PCOD9337198
_publ_section_title
;
Structure prediction by ZEFSAII (Michael W. Deem and Ramdas Pophale) SiO2 
 PCOD9337198
Probable space group: P M M 2
;
_chemical_formula_sum "Si O2"
_cell_formula_units_Z 32
_cell_length_a 8.528952
_cell_length_b 15.958500
_cell_length_c 12.221758
_cell_angle_alpha 90.000000
_cell_angle_beta 90.000000
_cell_angle_gamma 90.000000
_cell_volume 1663.494688
_symmetry_space_group_name_H-M "P M M 2"
_symmetry_group_IT_number 25
_symmetry_cell_setting 'orthorhombic'
loop_
_space_group_symop_operation_xyz
x,y,z
-x,-y,z
-x,y,z
x,-y,z
loop_
_atom_site_type_symbol
_atom_site_label
_atom_site_fract_x
_atom_site_fract_y
_atom_site_fract_z
Si Si1 0.188744 0.907032 0.140700
Si Si2 0.312282 0.748505 0.526945
Si Si3 0.691251 0.906940 0.669301
Si Si4 0.688287 0.151617 0.908908
Si Si5 0.813090 0.406058 0.666934
Si Si6 0.311751 0.650107 0.898406
Si Si7 0.812205 0.251599 0.281225
Si Si8 0.689434 0.406224 0.140413
O O1 0.246513 0.831475 0.217398
O O2 0.000000 0.907099 0.146816
O O3 0.245242 0.000000 0.172249
O O4 0.236615 0.887909 0.016200
O O5 0.500000 0.751489 0.523325
O O6 0.255579 0.831281 0.592082
O O7 0.262586 0.666373 0.594032
O O8 0.247565 0.746832 0.404758
O O9 0.500000 0.905308 0.668898
O O10 0.739165 0.889314 0.794561
O O11 0.741226 0.000000 0.634963
O O12 0.500000 0.142323 0.917613
O O13 0.722796 0.250736 0.903641
O O14 0.760635 0.500000 0.636301
O O15 0.768831 0.389488 0.793118
O O16 0.000000 0.401585 0.654627
O O17 0.500000 0.640608 0.885773
O O18 0.265291 0.610004 0.014035
O O19 0.756713 0.333423 0.215755
O O20 0.000000 0.250007 0.281335
O O21 0.500000 0.401503 0.144669
O O22 0.737401 0.500000 0.173504
#
# Coordination Sequence:
#
# PCOD9337198 Si02
#       8
#     4   4   4   4   4   4   4   4
#     4  10  22  39  58  84 120 159 196 235 286 348
#     4  11  23  41  63  85 112 152 198 246 294 344
#     4   9  18  34  57  87 119 148 183 232 288 341
#     4  10  18  33  60  90 119 151 189 236 288 342
#     4  11  24  40  60  88 121 156 194 237 288 348
#     4  10  19  35  61  91 121 153 191 236 288 345
#     4  11  24  41  60  83 114 154 196 246 296 344
#     4  10  21  38  61  88 118 153 193 238 288 346
#
# _framework density 19.236612000000001
#
# number of rings (size 3 to 8) (size 9 to 14) (size 15 to 20)
#    0.000    1.750    2.500    1.875    0.000    5.000 
#    0.000    0.000    0.000    1.875    0.000    0.000 
#    0.000    0.000    0.000    0.000    0.000    0.000 
#
# Total GULP energy -178790.154390 kJ/mol
# GULP energy per Si atom -5587.192325 kJ/mol
# Density = 1.919283 g / cm^3
# Si number density = 19.236612 Si / 1000 Ang^3
#
#
#
# Elastic Constant Matrix: (Units=GPa)
#
#
# Indices 1 2 3 4 5 6 
#
# 1 17.5047 35.5146 24.3564 0.0000 0.0000 0.0000
# 2 35.5146 190.5184 95.3101 0.0000 0.0000 0.0000
# 3 24.3564 95.3101 154.7147 0.0000 0.0000 0.0000
# 4 0.0000 0.0000 0.0000 0.3099 0.0000 0.0000
# 5 0.0000 0.0000 0.0000 0.0000 61.7969 0.0000
# 6 0.0000 0.0000 0.0000 0.0000 0.0000 10.5434
#
#
#
# Elastic Compliance Matrix: (Units=1/GPa)
#
#
# Indices 1 2 3 4 5 6 
#
# 1 0.095432 -0.014850 -0.005875 0.000000 0.000000 0.000000
# 2 -0.014850 0.009898 -0.003760 0.000000 0.000000 0.000000
# 3 -0.005875 -0.003760 0.009705 0.000000 0.000000 0.000000
# 4 0.000000 0.000000 0.000000 3.227152 0.000000 0.000000
# 5 0.000000 0.000000 0.000000 0.000000 0.016182 0.000000
# 6 0.000000 0.000000 0.000000 0.000000 0.000000 0.094846
#
#
# Mechanical properties :
#
#
# Convention : Reuss Voigt Hill
#
# Bulk Modulus (GPa) = 15.13689 74.78890 44.96290
# Shear Modulus (GPa) = 1.41876 28.36714 14.89295
#
# Velocity S-wave (km/s) = 0.85973 3.84427 2.78546
# Velocity P-wave (km/s) = 2.97849 7.65947 5.81114
#
# Compressibility (1/GPa) = 0.06606379
#
# Stress axis : x y z
#
# Youngs Moduli (GPa) = 10.47869 101.03155 103.04464
#
# Poissons Ratio (x) = 1.50034 0.60542
# Poissons Ratio (y) = 0.15561 0.38741
# Poissons Ratio (z) = 0.06157 0.37984
#
# Static dielectric constant tensor:
#      x y z
#    x 1.662030 0.000000 0.000000 
#    y 0.000000 1.678580 0.000000 
#    z 0.000000 0.000000 1.627410 
# 
# From -- ./inp_files/4192.got.cif
#   From: 2010.05.17/outbox.cif.g08.bks.cpg/sg25_3_cif.got.tgz:4192.got - 2010.06.04 01:04:00.
