data_PCOD9337163
_publ_section_title
;
Structure prediction by ZEFSAII (Michael W. Deem and Ramdas Pophale) SiO2 
 PCOD9337163
Probable space group: P M M 2
;
_chemical_formula_sum "Si O2"
_cell_formula_units_Z 24
_cell_length_a 12.327925
_cell_length_b 7.624996
_cell_length_c 12.974298
_cell_angle_alpha 90.000000
_cell_angle_beta 90.000000
_cell_angle_gamma 90.000000
_cell_volume 1219.588927
_symmetry_space_group_name_H-M "P M M 2"
_symmetry_group_IT_number 25
_symmetry_cell_setting 'orthorhombic'
loop_
_space_group_symop_operation_xyz
x,y,z
-x,-y,z
-x,y,z
x,-y,z
loop_
_atom_site_type_symbol
_atom_site_label
_atom_site_fract_x
_atom_site_fract_y
_atom_site_fract_z
Si Si1 0.267602 0.284850 0.494340
Si Si2 0.876590 0.286177 0.304933
Si Si3 0.121276 0.293311 0.683205
Si Si4 0.500000 0.792062 0.815220
Si Si5 0.265808 0.206367 0.876674
Si Si6 0.877294 0.711645 0.069789
Si Si7 0.500000 0.287627 0.572200
O O1 0.268534 0.500000 0.494097
O O2 0.210965 0.228018 0.388498
O O3 0.193913 0.223046 0.589944
O O4 0.390423 0.228389 0.515879
O O5 0.875762 0.500000 0.305067
O O6 0.855757 0.230299 0.187219
O O7 0.000000 0.234086 0.333124
O O8 0.110915 0.500000 0.661914
O O9 0.184861 0.277905 0.790033
O O10 0.000000 0.218696 0.688708
O O11 0.612842 0.719847 0.860976
O O12 0.500000 0.767235 0.691887
O O13 0.500000 0.000000 0.837187
O O14 0.272118 0.000000 0.856655
O O15 0.212073 0.233533 0.987661
O O16 0.879182 0.500000 0.070186
O O17 0.000000 0.770076 0.041073
O O18 0.500000 0.500000 0.572618
#
# Coordination Sequence:
#
# PCOD9337163 Si02
#       7
#     4   4   4   2   4   4   2
#     4   9  16  27  46  74 103 129 161 200 243 290
#     4   8  14  27  48  73 102 133 161 194 243 299
#     4  10  19  30  48  75 104 130 159 200 249 302
#     4  10  22  38  51  66  94 136 175 205 246 301
#     4  11  22  35  51  70  96 131 170 211 252 295
#     4   9  18  33  53  76 102 133 167 203 246 298
#     4  10  18  30  51  76 100 130 167 207 246 289
#
# _framework density 19.678763
#
# number of rings (size 3 to 8) (size 9 to 14) (size 15 to 20)
#    0.000    2.500    1.667    2.500    0.000    5.333 
#    0.000    0.833    0.000    4.000    0.000    2.333 
#    0.000    0.000    0.000    0.000    0.000    0.000 
#
# Total GULP energy -133930.416859 kJ/mol
# GULP energy per Si atom -5580.434036 kJ/mol
# Density = 1.963397 g / cm^3
# Si number density = 19.678763 Si / 1000 Ang^3
#
#
#
# Elastic Constant Matrix: (Units=GPa)
#
#
# Indices 1 2 3 4 5 6 
#
# 1 217.7597 2.2547 106.7513 0.0000 0.0000 0.0000
# 2 2.2547 34.1093 -13.2802 0.0000 0.0000 0.0000
# 3 106.7513 -13.2802 117.0313 0.0000 0.0000 0.0000
# 4 0.0000 0.0000 0.0000 -69.0970 0.0000 0.0000
# 5 0.0000 0.0000 0.0000 0.0000 21.0236 0.0000
# 6 0.0000 0.0000 0.0000 0.0000 0.0000 0.6800
#
#
#
# Elastic Compliance Matrix: (Units=1/GPa)
#
#
# Indices 1 2 3 4 5 6 
#
# 1 0.008768 -0.003864 -0.008436 0.000000 0.000000 0.000000
# 2 -0.003864 0.032376 0.007199 0.000000 0.000000 0.000000
# 3 -0.008436 0.007199 0.017057 0.000000 0.000000 0.000000
# 4 0.000000 0.000000 0.000000 -0.014472 0.000000 0.000000
# 5 0.000000 0.000000 0.000000 0.000000 0.047565 0.000000
# 6 0.000000 0.000000 0.000000 0.000000 0.000000 1.470608
#
#
# Mechanical properties :
#
#
# Convention : Reuss Voigt Hill
#
# Bulk Modulus (GPa) = 20.83475 62.26131 41.54803
# Shear Modulus (GPa) = 3.14841 8.73296 5.94068
#
# Velocity S-wave (km/s) = 1.26624 2.10888 1.73936
# Velocity P-wave (km/s) = 3.57047 6.13493 5.01924
#
# Compressibility (1/GPa) = 0.04799674
#
# Stress axis : x y z
#
# Youngs Moduli (GPa) = 114.05313 30.88739 58.62799
#
# Poissons Ratio (x) = 0.11935 0.49459
# Poissons Ratio (y) = 0.44072 -0.42204
# Poissons Ratio (z) = 0.96217 -0.22234
#
# Static dielectric constant tensor:
#      x y z
#    x 1.700230 0.000000 0.000000 
#    y 0.000000 1.744020 0.000000 
#    z 0.000000 0.000000 1.651830 
# 
# From -- ./inp_files/3987.got.cif
#   From: 2010.05.17/outbox.cif.g08.bks.cpg/sg25_2_cif.got.tgz:3987.got - 2010.06.04 01:04:00.
