data_PCOD9337156
_publ_section_title
;
Structure prediction by ZEFSAII (Michael W. Deem and Ramdas Pophale) SiO2 
 PCOD9337156
Probable space group: P M M 2
;
_chemical_formula_sum "Si O2"
_cell_formula_units_Z 28
_cell_length_a 7.394798
_cell_length_b 20.293924
_cell_length_c 8.283094
_cell_angle_alpha 90.000000
_cell_angle_beta 90.000000
_cell_angle_gamma 90.000000
_cell_volume 1243.039515
_symmetry_space_group_name_H-M "P M M 2"
_symmetry_group_IT_number 25
_symmetry_cell_setting 'orthorhombic'
loop_
_space_group_symop_operation_xyz
x,y,z
-x,-y,z
-x,y,z
x,-y,z
loop_
_atom_site_type_symbol
_atom_site_label
_atom_site_fract_x
_atom_site_fract_y
_atom_site_fract_z
Si Si1 0.709144 0.071405 0.079940
Si Si2 0.784586 0.071354 0.456289
Si Si3 0.721531 0.788770 0.962726
Si Si4 0.720868 0.653755 0.453336
Si Si5 0.714148 0.786781 0.600283
Si Si6 0.279526 0.651299 0.098916
Si Si7 0.720652 0.576138 0.775017
O O1 0.500000 0.069852 0.027415
O O2 0.712456 0.075880 0.274033
O O3 0.789861 0.000000 0.035544
O O4 0.787682 0.139156 0.013820
O O5 0.740196 0.137816 0.549760
O O6 0.000000 0.069327 0.444391
O O7 0.723863 0.000000 0.524871
O O8 0.500000 0.790480 0.966609
O O9 0.782084 0.775120 0.780659
O O10 0.773599 0.727578 0.073467
O O11 0.500000 0.651546 0.451118
O O12 0.779330 0.729792 0.480565
O O13 0.779367 0.629032 0.277015
O O14 0.778306 0.613352 0.611589
O O15 0.500000 0.776760 0.608421
O O16 0.500000 0.648952 0.097002
O O17 0.220015 0.610858 0.941416
O O18 0.500000 0.578717 0.775412
O O19 0.774237 0.500000 0.771894
#
# Coordination Sequence:
#
# PCOD9337156 Si02
#       7
#     4   4   4   4   4   4   4
#     4   9  17  30  48  69  91 119 160 205 248 297
#     4  10  21  35  48  66  96 130 162 201 249 297
#     4   9  16  27  45  69  94 118 155 208 252 288
#     4   9  16  26  42  64  90 124 164 203 243 286
#     4  10  18  30  50  72  94 124 165 209 249 291
#     4   9  15  24  38  57  86 123 160 197 240 287
#     4   9  16  25  36  56  91 130 164 196 236 293
#
# _framework density 22.525431000000001
#
# number of rings (size 3 to 8) (size 9 to 14) (size 15 to 20)
#    0.000    2.714    1.429    1.286    0.000    4.286 
#    0.000    5.000    0.000    1.714    0.000    0.000 
#    0.000    0.571    0.000    0.571    0.000    1.571 
#
# Total GULP energy -156269.257538 kJ/mol
# GULP energy per Si atom -5581.044912 kJ/mol
# Density = 2.247416 g / cm^3
# Si number density = 22.525431 Si / 1000 Ang^3
#
#
#
# Elastic Constant Matrix: (Units=GPa)
#
#
# Indices 1 2 3 4 5 6 
#
# 1 70.4328 0.3690 5.3264 0.0000 0.0000 0.0000
# 2 0.3690 155.0826 91.2950 0.0000 0.0000 0.0000
# 3 5.3264 91.2950 167.4253 0.0000 0.0000 0.0000
# 4 0.0000 0.0000 0.0000 21.7323 0.0000 0.0000
# 5 0.0000 0.0000 0.0000 0.0000 -247.4542 0.0000
# 6 0.0000 0.0000 0.0000 0.0000 0.0000 -436.3218
#
#
#
# Elastic Compliance Matrix: (Units=1/GPa)
#
#
# Indices 1 2 3 4 5 6 
#
# 1 0.014245 0.000343 -0.000640 0.000000 0.000000 0.000000
# 2 0.000343 0.009505 -0.005194 0.000000 0.000000 0.000000
# 3 -0.000640 -0.005194 0.008825 0.000000 0.000000 0.000000
# 4 0.000000 0.000000 0.000000 0.046014 0.000000 0.000000
# 5 0.000000 0.000000 0.000000 0.000000 -0.004041 0.000000
# 6 0.000000 0.000000 0.000000 0.000000 0.000000 -0.002292
#
#
# Mechanical properties :
#
#
# Convention : Reuss Voigt Hill
#
# Bulk Modulus (GPa) = 46.31196 65.21349 55.76273
# Shear Modulus (GPa) = 55.28789 -112.67871 -28.69541
#
# Velocity S-wave (km/s) = 4.95963 -7.08036 -3.57306
# Velocity P-wave (km/s) = 7.30765 6.15045 2.79049
#
# Compressibility (1/GPa) = 0.02159269
#
# Stress axis : x y z
#
# Youngs Moduli (GPa) = 70.20229 105.20909 113.31056
#
# Poissons Ratio (x) = -0.03608 0.07254
# Poissons Ratio (y) = -0.02408 0.58851
# Poissons Ratio (z) = 0.04494 0.54644
#
# Static dielectric constant tensor:
#      x y z
#    x 1.859990 0.000000 0.000000 
#    y 0.000000 1.800490 0.000000 
#    z 0.000000 0.000000 1.806260 
# 
# From -- ./inp_files/2309.got.cif
#   From: 2010.05.17/outbox.cif.g08.bks.cpg/sg25_2_cif.got.tgz:2309.got - 2010.06.04 01:04:00.
