data_PCOD9337047
_publ_section_title
;
Structure prediction by ZEFSAII (Michael W. Deem and Ramdas Pophale) SiO2 
 PCOD9337047
Probable space group: I 21 21 21
;
_chemical_formula_sum "Si O2"
_cell_formula_units_Z 20
_cell_length_a 24.000000
_cell_length_b 15.000000
_cell_length_c 6.000000
_cell_angle_alpha 90.000000
_cell_angle_beta 90.000000
_cell_angle_gamma 90.000000
_cell_volume 2160.000000
_symmetry_space_group_name_H-M "I 21 21 21"
_symmetry_group_IT_number 24
_symmetry_cell_setting 'orthorhombic'
loop_
_space_group_symop_operation_xyz
x,y,z
-x,1/2-y,z
x,-y,1/2-z
1/2-x,y,-z
1/2+x,1/2+y,1/2+z
1/2-x,-y,1/2+z
1/2+x,1/2-y,-z
-x,1/2+y,1/2-z
loop_
_atom_site_type_symbol
_atom_site_label
_atom_site_fract_x
_atom_site_fract_y
_atom_site_fract_z
Si Si1 0.306708 0.411028 0.369774
Si Si2 0.250000 0.288924 0.000000
Si Si3 0.359087 0.268811 0.718150
Si Si4 0.470113 0.661480 0.538192
Si Si5 0.931333 0.405903 0.364377
Si Si6 0.996674 0.500000 0.750000
O O1 0.331263 0.500000 0.250000
O O2 0.250000 0.440498 0.500000
O O3 0.342673 0.346357 0.535782
O O4 0.284382 0.347691 0.174840
O O5 0.301424 0.246456 0.853896
O O6 0.409446 0.310603 0.868304
O O7 0.386462 0.175252 0.628490
O O8 0.500000 0.750000 0.433660
O O9 0.514890 0.632074 0.728407
O O10 0.467816 0.573569 0.384505
O O11 0.911785 0.500000 0.250000
O O12 0.956396 0.439726 0.596655
#
# Coordination Sequence:
#
# PCOD9337047 Si02
#       6
#     8   4   8   8   8   4
#     4  10  20  38  58  81 118 161 207 244 296 365
#     4  10  22  40  60  84 118 164 208 246 306 356
#     4  10  22  39  63  89 126 164 206 259 312 373
#     4   9  20  39  59  90 125 157 202 257 307 374
#     4   9  20  40  62  90 121 157 208 261 317 374
#     4  10  20  38  66  90 120 162 208 250 320 372
#
# _framework density 9.2592590000000001
#
# number of rings (size 3 to 8) (size 9 to 14) (size 15 to 20)
#    0.000    2.400    1.000    0.000    0.000    8.800 
#   14.400    0.000    6.600    0.000    0.000    0.000 
#    0.000    0.000    0.000    0.000    0.000    0.000 
#
# Total GULP energy -111409.195010 kJ/mol
# GULP energy per Si atom -5570.459751 kJ/mol
# Density = 0.923818 g / cm^3
# Si number density = 9.259259 Si / 1000 Ang^3
#
#
#
# Elastic Constant Matrix: (Units=GPa)
#
#
# Indices 1 2 3 4 5 6 
#
# 1 108.6713 62.1647 30.0629 0.0000 0.0000 0.0000
# 2 62.1647 146.5780 42.6714 0.0000 0.0000 0.0000
# 3 30.0629 42.6714 65.1655 0.0000 0.0000 0.0000
# 4 0.0000 0.0000 0.0000 36.4676 0.0000 0.0000
# 5 0.0000 0.0000 0.0000 0.0000 20.8358 0.0000
# 6 0.0000 0.0000 0.0000 0.0000 0.0000 40.3909
#
#
#
# Elastic Compliance Matrix: (Units=1/GPa)
#
#
# Indices 1 2 3 4 5 6 
#
# 1 0.012564 -0.004499 -0.002850 0.000000 0.000000 0.000000
# 2 -0.004499 0.010040 -0.004499 0.000000 0.000000 0.000000
# 3 -0.002850 -0.004499 0.019606 0.000000 0.000000 0.000000
# 4 0.000000 0.000000 0.000000 0.027422 0.000000 0.000000
# 5 0.000000 0.000000 0.000000 0.000000 0.047994 0.000000
# 6 0.000000 0.000000 0.000000 0.000000 0.000000 0.024758
#
#
# Mechanical properties :
#
#
# Convention : Reuss Voigt Hill
#
# Bulk Modulus (GPa) = 54.01179 65.57922 59.79550
# Shear Modulus (GPa) = 29.02727 31.90660 30.46693
#
# Velocity S-wave (km/s) = 3.96343 4.15535 4.06052
# Velocity P-wave (km/s) = 7.08341 7.64933 7.37180
#
# Compressibility (1/GPa) = 0.01851448
#
# Stress axis : x y z
#
# Youngs Moduli (GPa) = 79.59217 99.60206 51.00357
#
# Poissons Ratio (x) = 0.44808 0.14538
# Poissons Ratio (y) = 0.35806 0.22946
# Poissons Ratio (z) = 0.22687 0.44810
#
# Static dielectric constant tensor:
#      x y z
#    x 1.636390 0.000000 0.000000 
#    y 0.000000 1.643080 0.000000 
#    z 0.000000 0.000000 1.714240 
# 
# From -- ./inp_files/6325.got.cif
#   From: 2010.05.17/outbox.ucp.g08.bks.cvg/sg24_4_cif.got.tgz:6325.got - 2010.06.11 15:20:44.
