data_PCOD9337578
_publ_section_title
;
Structure prediction by ZEFSAII (Michael W. Deem and Ramdas Pophale) SiO2 
 PCOD9337578
Probable space group: P M M 2
;
_chemical_formula_sum "Si O2"
_cell_formula_units_Z 28
_cell_length_a 8.116315
_cell_length_b 9.365217
_cell_length_c 18.505544
_cell_angle_alpha 90.000000
_cell_angle_beta 90.000000
_cell_angle_gamma 90.000000
_cell_volume 1406.625853
_symmetry_space_group_name_H-M "P M M 2"
_symmetry_group_IT_number 25
_symmetry_cell_setting 'orthorhombic'
loop_
_space_group_symop_operation_xyz
x,y,z
-x,-y,z
-x,y,z
x,-y,z
loop_
_atom_site_type_symbol
_atom_site_label
_atom_site_fract_x
_atom_site_fract_y
_atom_site_fract_z
Si Si1 0.695340 0.162333 0.139730
Si Si2 0.802361 0.662208 0.278923
Si Si3 0.798474 0.335915 0.561922
Si Si4 0.804687 0.662877 0.001274
Si Si5 0.303629 0.164769 0.863206
Si Si6 0.798254 0.835451 0.419354
Si Si7 0.800851 0.835060 0.702868
O O1 0.500000 0.155489 0.149720
O O2 0.765821 0.253847 0.205620
O O3 0.761213 0.000000 0.139408
O O4 0.730004 0.240323 0.064296
O O5 0.737958 0.500000 0.276855
O O6 0.741729 0.749897 0.348537
O O7 0.000000 0.653739 0.286085
O O8 0.745623 0.500000 0.556771
O O9 0.746615 0.244807 0.492352
O O10 0.744778 0.262172 0.636465
O O11 0.000000 0.335216 0.562103
O O12 0.741463 0.500000 0.004004
O O13 0.770639 0.734385 0.924081
O O14 0.000000 0.658836 0.013301
O O15 0.500000 0.164712 0.871838
O O16 0.260409 0.210359 0.781753
O O17 0.244703 0.000000 0.871793
O O18 0.000000 0.835768 0.418920
O O19 0.745200 0.000000 0.418010
O O20 0.000000 0.832591 0.704064
O O21 0.749244 0.000000 0.691497
#
# Coordination Sequence:
#
# PCOD9337578 Si02
#       7
#     4   4   4   4   4   4   4
#     4  11  24  40  58  81 109 142 180 219 262 316
#     4  10  20  34  54  81 111 142 179 223 270 319
#     4   9  16  26  43  70 103 136 173 221 272 318
#     4  11  24  40  59  84 111 139 175 219 266 316
#     4  10  21  37  57  81 109 142 180 220 265 319
#     4   9  16  27  46  73 105 140 177 219 269 321
#     4   9  17  30  49  73 102 137 176 218 266 319
#
# _framework density 19.905791000000001
#
# number of rings (size 3 to 8) (size 9 to 14) (size 15 to 20)
#    0.000    2.143    0.000    3.429    0.000   11.429 
#    0.000    1.429    0.000    0.857    0.000    2.000 
#    0.000    0.000    0.000    0.000    0.000    0.000 
#
# Total GULP energy -156415.347197 kJ/mol
# GULP energy per Si atom -5586.262400 kJ/mol
# Density = 1.986048 g / cm^3
# Si number density = 19.905791 Si / 1000 Ang^3
#
#
#
# Elastic Constant Matrix: (Units=GPa)
#
#
# Indices 1 2 3 4 5 6 
#
# 1 10.6730 6.0176 -5.1374 0.0000 0.0000 0.0000
# 2 6.0176 180.2109 101.4197 0.0000 0.0000 0.0000
# 3 -5.1374 101.4197 138.7746 0.0000 0.0000 0.0000
# 4 0.0000 0.0000 0.0000 194.6284 0.0000 0.0000
# 5 0.0000 0.0000 0.0000 0.0000 -59.6024 0.0000
# 6 0.0000 0.0000 0.0000 0.0000 0.0000 4.7600
#
#
#
# Elastic Compliance Matrix: (Units=1/GPa)
#
#
# Indices 1 2 3 4 5 6 
#
# 1 0.104355 -0.009612 0.010888 0.000000 0.000000 0.000000
# 2 -0.009612 0.010311 -0.007892 0.000000 0.000000 0.000000
# 3 0.010888 -0.007892 0.013376 0.000000 0.000000 0.000000
# 4 0.000000 0.000000 0.000000 0.005138 0.000000 0.000000
# 5 0.000000 0.000000 0.000000 0.000000 -0.016778 0.000000
# 6 0.000000 0.000000 0.000000 0.000000 0.000000 0.210084
#
#
# Mechanical properties :
#
#
# Convention : Reuss Voigt Hill
#
# Bulk Modulus (GPa) = 8.70998 59.36205 34.03602
# Shear Modulus (GPa) = 13.22793 43.11443 28.17118
#
# Velocity S-wave (km/s) = 2.58064 4.65900 3.76603
# Velocity P-wave (km/s) = 3.64207 7.66994 6.00386
#
# Compressibility (1/GPa) = 0.11481081
#
# Stress axis : x y z
#
# Youngs Moduli (GPa) = 9.58270 96.98135 74.75891
#
# Poissons Ratio (x) = 0.93221 -0.81397
# Poissons Ratio (y) = 0.09211 0.58996
# Poissons Ratio (z) = -0.10434 0.76533
#
# Static dielectric constant tensor:
#      x y z
#    x 1.700970 0.000000 0.000000 
#    y 0.000000 1.693260 0.000000 
#    z 0.000000 0.000000 1.655530 
# 
# From -- ./inp_files/6035.got.cif
#   From: 2010.05.17/outbox.cif.g08.bks.cpg/sg25_4_cif.got.tgz:6035.got - 2010.06.04 01:04:00.
