data_PCOD9337418
_publ_section_title
;
Structure prediction by ZEFSAII (Michael W. Deem and Ramdas Pophale) SiO2 
 PCOD9337418
Probable space group: P M M 2
;
_chemical_formula_sum "Si O2"
_cell_formula_units_Z 28
_cell_length_a 9.639249
_cell_length_b 7.525917
_cell_length_c 18.900309
_cell_angle_alpha 90.000000
_cell_angle_beta 90.000000
_cell_angle_gamma 90.000000
_cell_volume 1371.107568
_symmetry_space_group_name_H-M "P M M 2"
_symmetry_group_IT_number 25
_symmetry_cell_setting 'orthorhombic'
loop_
_space_group_symop_operation_xyz
x,y,z
-x,-y,z
-x,y,z
x,-y,z
loop_
_atom_site_type_symbol
_atom_site_label
_atom_site_fract_x
_atom_site_fract_y
_atom_site_fract_z
Si Si1 0.169047 0.705957 0.889060
Si Si2 0.839434 0.717568 0.734042
Si Si3 0.340713 0.214229 0.333251
Si Si4 0.656861 0.213309 0.175596
Si Si5 0.156583 0.287410 0.040928
Si Si6 0.156717 0.289460 0.468314
Si Si7 0.340339 0.717577 0.599633
O O1 0.214682 0.500000 0.887338
O O2 0.205626 0.781683 0.812224
O O3 0.000000 0.707340 0.890894
O O4 0.212544 0.782663 0.965168
O O5 0.839613 0.500000 0.736017
O O6 0.739171 0.772208 0.670915
O O7 0.000000 0.769661 0.721363
O O8 0.500000 0.273953 0.346823
O O9 0.299231 0.274929 0.254109
O O10 0.235732 0.267487 0.394303
O O11 0.343679 0.000000 0.332792
O O12 0.500000 0.278010 0.163522
O O13 0.752890 0.256882 0.109844
O O14 0.651865 0.000000 0.179409
O O15 0.147636 0.500000 0.031776
O O16 0.000000 0.219614 0.051788
O O17 0.145086 0.500000 0.481038
O O18 0.252793 0.219946 0.531793
O O19 0.000000 0.216742 0.467417
O O20 0.500000 0.775185 0.597098
O O21 0.341599 0.500000 0.598944
#
# Coordination Sequence:
#
# PCOD9337418 Si02
#       7
#     4   4   4   4   4   4   4
#     4   7  11  21  37  58  86 119 150 181 222 270
#     4   8  12  20  36  56  81 116 153 185 221 266
#     4   9  19  36  54  69  88 118 155 192 231 277
#     4   9  19  35  51  67  90 121 156 191 228 275
#     4   9  17  29  46  70  98 124 153 191 232 274
#     4  10  20  32  47  70  98 124 152 188 229 273
#     4   9  16  25  38  59  89 122 153 186 225 268
#
# _framework density 20.421444999999999
#
# number of rings (size 3 to 8) (size 9 to 14) (size 15 to 20)
#    0.000    3.286    0.000    3.429    0.000    4.571 
#    0.000    5.000    0.000    2.571    0.000    1.000 
#    0.000    5.714    0.000    0.000    0.000    0.000 
#
# Total GULP energy -156058.618157 kJ/mol
# GULP energy per Si atom -5573.522077 kJ/mol
# Density = 2.037497 g / cm^3
# Si number density = 20.421445 Si / 1000 Ang^3
#
#
#
# Elastic Constant Matrix: (Units=GPa)
#
#
# Indices 1 2 3 4 5 6 
#
# 1 134.3283 5.5188 134.0344 0.0000 0.0000 0.0000
# 2 5.5188 49.3611 3.2739 0.0000 0.0000 0.0000
# 3 134.0344 3.2739 240.7592 0.0000 0.0000 0.0000
# 4 0.0000 0.0000 0.0000 63.3339 0.0000 0.0000
# 5 0.0000 0.0000 0.0000 0.0000 95.6992 0.0000
# 6 0.0000 0.0000 0.0000 0.0000 0.0000 14.8372
#
#
#
# Elastic Compliance Matrix: (Units=1/GPa)
#
#
# Indices 1 2 3 4 5 6 
#
# 1 0.016826 -0.001261 -0.009350 0.000000 0.000000 0.000000
# 2 -0.001261 0.020372 0.000425 0.000000 0.000000 0.000000
# 3 -0.009350 0.000425 0.009353 0.000000 0.000000 0.000000
# 4 0.000000 0.000000 0.000000 0.015789 0.000000 0.000000
# 5 0.000000 0.000000 0.000000 0.000000 0.010449 0.000000
# 6 0.000000 0.000000 0.000000 0.000000 0.000000 0.067398
#
#
# Mechanical properties :
#
#
# Convention : Reuss Voigt Hill
#
# Bulk Modulus (GPa) = 38.19941 78.90032 58.54986
# Shear Modulus (GPa) = 29.53584 53.54884 41.54234
#
# Velocity S-wave (km/s) = 3.80717 5.12628 4.51516
# Velocity P-wave (km/s) = 6.17027 8.58826 7.47765
#
# Compressibility (1/GPa) = 0.02617842
#
# Stress axis : x y z
#
# Youngs Moduli (GPa) = 59.43229 49.08780 106.91665
#
# Poissons Ratio (x) = 0.06190 0.99968
# Poissons Ratio (y) = 0.07495 -0.04544
# Poissons Ratio (z) = 0.55570 -0.02086
#
# Static dielectric constant tensor:
#      x y z
#    x 1.688510 0.000000 0.000000 
#    y 0.000000 1.788550 0.000000 
#    z 0.000000 0.000000 1.745780 
# 
# From -- ./inp_files/6406.got.cif
#   From: 2010.05.17/outbox.cif.g08.bks.cpg/sg25_4_cif.got.tgz:6406.got - 2010.06.04 01:04:00.
