data_PCOD9337791
_publ_section_title
;
Structure prediction by ZEFSAII (Michael W. Deem and Ramdas Pophale) SiO2 
 PCOD9337791
Probable space group: P M M 2
;
_chemical_formula_sum "Si O2"
_cell_formula_units_Z 16
_cell_length_a 12.733690
_cell_length_b 8.752073
_cell_length_c 7.510480
_cell_angle_alpha 90.000000
_cell_angle_beta 90.000000
_cell_angle_gamma 90.000000
_cell_volume 837.014339
_symmetry_space_group_name_H-M "P M M 2"
_symmetry_group_IT_number 25
_symmetry_cell_setting 'orthorhombic'
loop_
_space_group_symop_operation_xyz
x,y,z
-x,-y,z
-x,y,z
x,-y,z
loop_
_atom_site_type_symbol
_atom_site_label
_atom_site_fract_x
_atom_site_fract_y
_atom_site_fract_z
Si Si1 0.878330 0.315738 0.326740
Si Si2 0.500000 0.324890 0.614331
Si Si3 0.721629 0.818319 0.039526
Si Si4 0.500000 0.324741 0.048091
Si Si5 0.726765 0.314511 0.645164
O O1 0.873185 0.500000 0.307883
O O2 0.811965 0.241521 0.168988
O O3 0.820025 0.276566 0.511211
O O4 0.000000 0.270205 0.326136
O O5 0.500000 0.500000 0.550437
O O6 0.500000 0.325220 0.831078
O O7 0.613770 0.258612 0.567793
O O8 0.718837 0.000000 0.034877
O O9 0.607890 0.755587 0.101792
O O10 0.740235 0.753856 0.840786
O O11 0.500000 0.500000 0.107520
O O12 0.720208 0.500000 0.661686
#
# Coordination Sequence:
#
# PCOD9337791 Si02
#       5
#     4   2   4   2   4
#     4  10  22  39  58  81 110 150 202 247 278 324
#     4   7  12  26  51  80 105 131 171 224 279 329
#     4  11  22  36  57  87 121 151 181 228 291 349
#     4   9  17  34  59  84 113 149 189 230 273 333
#     4   9  18  35  58  82 109 146 191 236 282 335
#
# _framework density 19.115563000000002
#
# number of rings (size 3 to 8) (size 9 to 14) (size 15 to 20)
#    0.000    2.500    0.000    4.125    0.000    3.500 
#    0.000    5.000    0.000    3.000    0.000    0.000 
#    0.000    0.000    0.000    0.000    0.000    0.000 
#
# Total GULP energy -89295.786775 kJ/mol
# GULP energy per Si atom -5580.986673 kJ/mol
# Density = 1.907205 g / cm^3
# Si number density = 19.115563 Si / 1000 Ang^3
#
#
#
# Elastic Constant Matrix: (Units=GPa)
#
#
# Indices 1 2 3 4 5 6 
#
# 1 225.0816 69.5895 96.5906 0.0000 0.0000 0.0000
# 2 69.5895 54.5007 45.3735 0.0000 0.0000 0.0000
# 3 96.5906 45.3735 108.5212 0.0000 0.0000 0.0000
# 4 0.0000 0.0000 0.0000 -3.5101 0.0000 0.0000
# 5 0.0000 0.0000 0.0000 0.0000 34.0604 0.0000
# 6 0.0000 0.0000 0.0000 0.0000 0.0000 14.2129
#
#
#
# Elastic Compliance Matrix: (Units=1/GPa)
#
#
# Indices 1 2 3 4 5 6 
#
# 1 0.008688 -0.007141 -0.004747 0.000000 0.000000 0.000000
# 2 -0.007141 0.034015 -0.007866 0.000000 0.000000 0.000000
# 3 -0.004747 -0.007866 0.016729 0.000000 0.000000 0.000000
# 4 0.000000 0.000000 0.000000 -0.284891 0.000000 0.000000
# 5 0.000000 0.000000 0.000000 0.000000 0.029360 0.000000
# 6 0.000000 0.000000 0.000000 0.000000 0.000000 0.070358
#
#
# Mechanical properties :
#
#
# Convention : Reuss Voigt Hill
#
# Bulk Modulus (GPa) = 50.19163 90.13451 70.16307
# Shear Modulus (GPa) = -62.82021 20.72264 -21.04879
#
# Velocity S-wave (km/s) = -5.73888 3.29610 -3.32193
# Velocity P-wave (km/s) = 4.19512 7.85751 4.69795
#
# Compressibility (1/GPa) = 0.01992364
#
# Stress axis : x y z
#
# Youngs Moduli (GPa) = 115.10508 29.39866 59.77758
#
# Poissons Ratio (x) = 0.20994 0.28376
# Poissons Ratio (y) = 0.82197 0.47021
# Poissons Ratio (z) = 0.54639 0.23125
#
# Static dielectric constant tensor:
#      x y z
#    x 1.671980 0.000000 0.000000 
#    y 0.000000 1.639440 0.000000 
#    z 0.000000 0.000000 1.661450 
# 
# From -- ./inp_files/2471.got.cif
#   From: 2010.05.17/outbox.cif.g08.bks.cpg/sg25_2_cif.got.tgz:2471.got - 2010.06.04 01:04:00.
