data_PCOD9337184
_publ_section_title
;
Structure prediction by ZEFSAII (Michael W. Deem and Ramdas Pophale) SiO2 
 PCOD9337184
Probable space group: P M M 2
;
_chemical_formula_sum "Si O2"
_cell_formula_units_Z 32
_cell_length_a 8.569890
_cell_length_b 15.128071
_cell_length_c 12.566555
_cell_angle_alpha 90.000000
_cell_angle_beta 90.000000
_cell_angle_gamma 90.000000
_cell_volume 1629.202388
_symmetry_space_group_name_H-M "P M M 2"
_symmetry_group_IT_number 25
_symmetry_cell_setting 'orthorhombic'
loop_
_space_group_symop_operation_xyz
x,y,z
-x,-y,z
-x,y,z
x,-y,z
loop_
_atom_site_type_symbol
_atom_site_label
_atom_site_fract_x
_atom_site_fract_y
_atom_site_fract_z
Si Si1 0.185436 0.095533 0.279430
Si Si2 0.313725 0.598585 0.179339
Si Si3 0.185290 0.791374 0.704831
Si Si4 0.187691 0.404519 0.644881
Si Si5 0.686570 0.897144 0.904388
Si Si6 0.680614 0.165793 0.482747
Si Si7 0.185652 0.347790 0.406875
Si Si8 0.812826 0.224397 0.094032
O O1 0.268670 0.098269 0.392373
O O2 0.237677 0.172488 0.200822
O O3 0.000000 0.106126 0.297191
O O4 0.211019 0.000000 0.227097
O O5 0.500000 0.606174 0.190548
O O6 0.276231 0.500000 0.139466
O O7 0.237951 0.609312 0.296629
O O8 0.253421 0.677033 0.104119
O O9 0.243179 0.688624 0.695099
O O10 0.266217 0.849612 0.794577
O O11 0.219069 0.833974 0.589798
O O12 0.000000 0.789346 0.724420
O O13 0.247943 0.500000 0.684098
O O14 0.212373 0.399934 0.517117
O O15 0.000000 0.404054 0.659658
O O16 0.500000 0.897675 0.914577
O O17 0.740457 0.000000 0.908827
O O18 0.756745 0.835347 0.996574
O O19 0.500000 0.157873 0.510393
O O20 0.718110 0.258847 0.425891
O O21 0.000000 0.328350 0.401131
O O22 0.000000 0.228642 0.092725
#
# Coordination Sequence:
#
# PCOD9337184 Si02
#       8
#     4   4   4   4   4   4   4   4
#     4  10  21  37  58  86 119 155 196 244 301 368
#     4  11  23  37  56  87 126 165 204 249 303 358
#     4  10  21  38  62  89 119 156 202 254 304 357
#     4   8  15  29  52  84 119 154 195 241 288 342
#     4  11  25  45  68  91 117 153 200 255 315 374
#     4  11  21  34  55  84 123 164 199 244 305 364
#     4  10  18  31  53  82 118 163 209 248 292 351
#     4  11  23  41  66  91 119 156 202 254 306 363
#
# _framework density 19.641513
#
# number of rings (size 3 to 8) (size 9 to 14) (size 15 to 20)
#    0.000    1.750    1.250    4.500    0.000    4.250 
#    0.000    0.625    0.000    9.750    0.000    0.000 
#    0.000    0.000    0.000    0.000    0.000    0.000 
#
# Total GULP energy -178592.398031 kJ/mol
# GULP energy per Si atom -5581.012438 kJ/mol
# Density = 1.959681 g / cm^3
# Si number density = 19.641513 Si / 1000 Ang^3
#
#
#
# Elastic Constant Matrix: (Units=GPa)
#
#
# Indices 1 2 3 4 5 6 
#
# 1 32.8939 26.1221 5.1108 0.0000 0.0000 0.0000
# 2 26.1221 148.8867 53.5203 0.0000 0.0000 0.0000
# 3 5.1108 53.5203 79.0079 0.0000 0.0000 0.0000
# 4 0.0000 0.0000 0.0000 13.7759 0.0000 0.0000
# 5 0.0000 0.0000 0.0000 0.0000 14.8356 0.0000
# 6 0.0000 0.0000 0.0000 0.0000 0.0000 11.3479
#
#
#
# Elastic Compliance Matrix: (Units=1/GPa)
#
#
# Indices 1 2 3 4 5 6 
#
# 1 0.035709 -0.007184 0.002557 0.000000 0.000000 0.000000
# 2 -0.007184 0.010324 -0.006529 0.000000 0.000000 0.000000
# 3 0.002557 -0.006529 0.016914 0.000000 0.000000 0.000000
# 4 0.000000 0.000000 0.000000 0.072590 0.000000 0.000000
# 5 0.000000 0.000000 0.000000 0.000000 0.067405 0.000000
# 6 0.000000 0.000000 0.000000 0.000000 0.000000 0.088122
#
#
# Mechanical properties :
#
#
# Convention : Reuss Voigt Hill
#
# Bulk Modulus (GPa) = 24.60976 47.81055 36.21016
# Shear Modulus (GPa) = 15.29421 19.72759 17.51090
#
# Velocity S-wave (km/s) = 2.79349 3.17264 2.98908
# Velocity P-wave (km/s) = 4.79181 6.14941 5.51256
#
# Compressibility (1/GPa) = 0.04063429
#
# Stress axis : x y z
#
# Youngs Moduli (GPa) = 28.00445 96.86339 59.12216
#
# Poissons Ratio (x) = 0.69587 -0.15115
# Poissons Ratio (y) = 0.20119 0.38599
# Poissons Ratio (z) = -0.07160 0.63239
#
# Static dielectric constant tensor:
#      x y z
#    x 1.664610 0.000000 0.000000 
#    y 0.000000 1.752930 0.000000 
#    z 0.000000 0.000000 1.674800 
# 
# From -- ./inp_files/4289.got.cif
#   From: 2010.05.17/outbox.cif.g08.bks.cpg/sg25_3_cif.got.tgz:4289.got - 2010.06.04 01:04:00.
