data_PCOD9337098
_publ_section_title
;
Structure prediction by ZEFSAII (Michael W. Deem and Ramdas Pophale) SiO2 
 PCOD9337098
Probable space group: P M M 2
;
_chemical_formula_sum "Si O2"
_cell_formula_units_Z 32
_cell_length_a 8.063784
_cell_length_b 14.865752
_cell_length_c 16.135368
_cell_angle_alpha 90.000000
_cell_angle_beta 90.000000
_cell_angle_gamma 90.000000
_cell_volume 1934.214542
_symmetry_space_group_name_H-M "P M M 2"
_symmetry_group_IT_number 25
_symmetry_cell_setting 'orthorhombic'
loop_
_space_group_symop_operation_xyz
x,y,z
-x,-y,z
-x,y,z
x,-y,z
loop_
_atom_site_type_symbol
_atom_site_label
_atom_site_fract_x
_atom_site_fract_y
_atom_site_fract_z
Si Si1 0.808059 0.890984 0.274470
Si Si2 0.796714 0.104476 0.093095
Si Si3 0.202988 0.103718 0.772092
Si Si4 0.801931 0.400285 0.673563
Si Si5 0.695042 0.897620 0.454662
Si Si6 0.698090 0.398875 0.862499
Si Si7 0.199935 0.215053 0.933669
Si Si8 0.801478 0.786473 0.611394
O O1 0.740499 0.863388 0.184379
O O2 0.723797 0.865298 0.360511
O O3 0.000000 0.863510 0.280102
O O4 0.803034 0.000000 0.271295
O O5 0.000000 0.104722 0.095340
O O6 0.748190 0.000000 0.080015
O O7 0.741746 0.166673 0.017473
O O8 0.257194 0.159461 0.852732
O O9 0.259643 0.152098 0.687813
O O10 0.000000 0.103900 0.772177
O O11 0.255682 0.000000 0.775552
O O12 0.732816 0.500000 0.655228
O O13 0.772517 0.382047 0.771058
O O14 0.735877 0.315025 0.622840
O O15 0.000000 0.404570 0.660726
O O16 0.500000 0.902910 0.468796
O O17 0.766583 0.832911 0.524290
O O18 0.764756 0.000000 0.462015
O O19 0.500000 0.398164 0.854387
O O20 0.749837 0.500000 0.888058
O O21 0.750006 0.318331 0.922197
O O22 0.000000 0.210788 0.933983
O O23 0.000000 0.781689 0.621062
#
# Coordination Sequence:
#
# PCOD9337098 Si02
#       8
#     4   4   4   4   4   4   4   4
#     4   8  14  27  46  66  88 116 149 185 224 265
#     4   8  14  25  45  72  96 117 146 184 223 263
#     4   9  16  25  39  62  91 120 149 176 207 254
#     4   9  17  31  50  69  87 109 145 191 231 266
#     4  10  20  31  43  63  91 122 154 188 223 258
#     4  10  20  32  45  62  87 119 152 188 229 267
#     4  10  17  28  46  68  91 118 151 186 221 258
#     4  10  18  29  45  66  89 118 151 182 221 268
#
# _framework density 16.544184999999999
#
# number of rings (size 3 to 8) (size 9 to 14) (size 15 to 20)
#    0.000    2.750    1.250    2.250    0.000    4.000 
#    0.000    0.625    0.000    2.250    0.000    0.875 
#    0.000    3.000    0.000    0.000    0.000    0.000 
#
# Total GULP energy -178295.093696 kJ/mol
# GULP energy per Si atom -5571.721678 kJ/mol
# Density = 1.650653 g / cm^3
# Si number density = 16.544185 Si / 1000 Ang^3
#
#
#
# Elastic Constant Matrix: (Units=GPa)
#
#
# Indices 1 2 3 4 5 6 
#
# 1 4.9982 6.1645 1.0474 0.0000 0.0000 0.0000
# 2 6.1645 122.4650 75.2973 0.0000 0.0000 0.0000
# 3 1.0474 75.2973 121.1875 0.0000 0.0000 0.0000
# 4 0.0000 0.0000 0.0000 10.7455 0.0000 0.0000
# 5 0.0000 0.0000 0.0000 0.0000 -18.0999 0.0000
# 6 0.0000 0.0000 0.0000 0.0000 0.0000 8.3093
#
#
#
# Elastic Compliance Matrix: (Units=1/GPa)
#
#
# Indices 1 2 3 4 5 6 
#
# 1 0.217985 -0.015881 0.007983 0.000000 0.000000 0.000000
# 2 -0.015881 0.014370 -0.008792 0.000000 0.000000 0.000000
# 3 0.007983 -0.008792 0.013645 0.000000 0.000000 0.000000
# 4 0.000000 0.000000 0.000000 0.093062 0.000000 0.000000
# 5 0.000000 0.000000 0.000000 0.000000 -0.055249 0.000000
# 6 0.000000 0.000000 0.000000 0.000000 0.000000 0.120347
#
#
# Mechanical properties :
#
#
# Convention : Reuss Voigt Hill
#
# Bulk Modulus (GPa) = 4.70318 45.96324 25.33321
# Shear Modulus (GPa) = 9.83452 11.26708 10.55080
#
# Velocity S-wave (km/s) = 2.44076 2.61249 2.52808
# Velocity P-wave (km/s) = 3.28512 6.07804 4.88542
#
# Compressibility (1/GPa) = 0.21262191
#
# Stress axis : x y z
#
# Youngs Moduli (GPa) = 4.58747 69.58727 73.28640
#
# Poissons Ratio (x) = 1.10513 -0.58507
# Poissons Ratio (y) = 0.07285 0.64430
# Poissons Ratio (z) = -0.03662 0.61178
#
# Static dielectric constant tensor:
#      x y z
#    x 1.584930 0.000000 0.000000 
#    y 0.000000 1.568730 0.000000 
#    z 0.000000 0.000000 1.550120 
# 
# From -- ./inp_files/5691.got.cif
#   From: 2010.05.17/outbox.cif.g08.bks.cpg/sg25_3_cif.got.tgz:5691.got - 2010.06.04 01:04:00.
