data_PCOD9337371
_publ_section_title
;
Structure prediction by ZEFSAII (Michael W. Deem and Ramdas Pophale) SiO2 
 PCOD9337371
Probable space group: P M M 2
;
_chemical_formula_sum "Si O2"
_cell_formula_units_Z 32
_cell_length_a 9.939961
_cell_length_b 7.438387
_cell_length_c 21.395231
_cell_angle_alpha 90.000000
_cell_angle_beta 90.000000
_cell_angle_gamma 90.000000
_cell_volume 1581.905114
_symmetry_space_group_name_H-M "P M M 2"
_symmetry_group_IT_number 25
_symmetry_cell_setting 'orthorhombic'
loop_
_space_group_symop_operation_xyz
x,y,z
-x,-y,z
-x,y,z
x,-y,z
loop_
_atom_site_type_symbol
_atom_site_label
_atom_site_fract_x
_atom_site_fract_y
_atom_site_fract_z
Si Si1 0.344566 0.715700 0.986130
Si Si2 0.347107 0.786972 0.849391
Si Si3 0.651914 0.787006 0.489673
Si Si4 0.154148 0.219394 0.598653
Si Si5 0.656647 0.719418 0.122536
Si Si6 0.847517 0.283690 0.375586
Si Si7 0.153896 0.219404 0.740533
Si Si8 0.154179 0.280822 0.234176
O O1 0.500000 0.779287 0.984256
O O2 0.346371 0.500000 0.987916
O O3 0.285764 0.764558 0.918859
O O4 0.290824 0.775712 0.053677
O O5 0.500000 0.713082 0.848896
O O6 0.254673 0.715539 0.793857
O O7 0.357866 0.000000 0.839363
O O8 0.500000 0.714584 0.485486
O O9 0.741205 0.715014 0.547046
O O10 0.737749 0.765660 0.426640
O O11 0.640407 0.000000 0.500532
O O12 0.188873 0.273002 0.669601
O O13 0.000000 0.274770 0.585138
O O14 0.153867 0.000000 0.597446
O O15 0.500000 0.771695 0.128230
O O16 0.658653 0.500000 0.123433
O O17 0.745467 0.781961 0.180457
O O18 0.852698 0.500000 0.374068
O O19 0.813519 0.223299 0.305051
O O20 0.000000 0.221078 0.391138
O O21 0.000000 0.273981 0.752751
O O22 0.155282 0.000000 0.741252
O O23 0.158284 0.500000 0.234092
O O24 0.000000 0.229327 0.221098
#
# Coordination Sequence:
#
# PCOD9337371 Si02
#       8
#     4   4   4   4   4   4   4   4
#     4   8  14  25  40  58  82 111 139 166 201 249
#     4   9  16  25  40  62  83 104 135 174 210 244
#     4  10  20  31  45  69  97 120 145 182 225 265
#     4   8  14  26  44  63  83 111 146 179 212 254
#     4   8  13  22  38  58  77 102 139 175 204 242
#     4   9  18  32  49  68  90 119 153 184 218 265
#     4   8  14  25  41  61  84 109 138 173 212 251
#     4   8  14  25  41  62  86 108 135 176 218 250
#
# _framework density 20.228771999999999
#
# number of rings (size 3 to 8) (size 9 to 14) (size 15 to 20)
#    0.000    3.500    0.000    2.625    0.000    2.000 
#    0.000    4.375    0.000    2.625    0.000    5.250 
#    0.000    0.000    0.000    0.000    0.000    0.000 
#
# Total GULP energy -178333.942617 kJ/mol
# GULP energy per Si atom -5572.935707 kJ/mol
# Density = 2.018273 g / cm^3
# Si number density = 20.228772 Si / 1000 Ang^3
#
#
#
# Elastic Constant Matrix: (Units=GPa)
#
#
# Indices 1 2 3 4 5 6 
#
# 1 125.5363 5.0404 136.9129 0.0000 0.0000 0.0000
# 2 5.0404 60.7324 2.9778 0.0000 0.0000 0.0000
# 3 136.9129 2.9778 212.3416 0.0000 0.0000 0.0000
# 4 0.0000 0.0000 0.0000 16.1529 0.0000 0.0000
# 5 0.0000 0.0000 0.0000 0.0000 40.8574 0.0000
# 6 0.0000 0.0000 0.0000 0.0000 0.0000 1.8701
#
#
#
# Elastic Compliance Matrix: (Units=1/GPa)
#
#
# Indices 1 2 3 4 5 6 
#
# 1 0.026956 -0.001386 -0.017361 0.000000 0.000000 0.000000
# 2 -0.001386 0.016548 0.000662 0.000000 0.000000 0.000000
# 3 -0.017361 0.000662 0.015894 0.000000 0.000000 0.000000
# 4 0.000000 0.000000 0.000000 0.061908 0.000000 0.000000
# 5 0.000000 0.000000 0.000000 0.000000 0.024475 0.000000
# 6 0.000000 0.000000 0.000000 0.000000 0.000000 0.534738
#
#
# Mechanical properties :
#
#
# Convention : Reuss Voigt Hill
#
# Bulk Modulus (GPa) = 43.05268 76.49693 59.77481
# Shear Modulus (GPa) = 6.90194 28.68803 17.79498
#
# Velocity S-wave (km/s) = 1.84915 3.76996 2.96917
# Velocity P-wave (km/s) = 5.08805 7.53977 6.43181
#
# Compressibility (1/GPa) = 0.02322736
#
# Stress axis : x y z
#
# Youngs Moduli (GPa) = 37.09758 60.42928 62.91617
#
# Poissons Ratio (x) = 0.08375 1.09230
# Poissons Ratio (y) = 0.05141 -0.04162
# Poissons Ratio (z) = 0.64406 -0.03998
#
# Static dielectric constant tensor:
#      x y z
#    x 1.692820 0.000000 0.000000 
#    y 0.000000 1.803170 0.000000 
#    z 0.000000 0.000000 1.721270 
# 
# From -- ./inp_files/6299.got.cif
#   From: 2010.05.17/outbox.cif.g08.bks.cpg/sg25_4_cif.got.tgz:6299.got - 2010.06.04 01:04:00.
