data_PCOD9337666
_publ_section_title
;
Structure prediction by ZEFSAII (Michael W. Deem and Ramdas Pophale) SiO2 
 PCOD9337666
Probable space group: P M M 2
;
_chemical_formula_sum "Si O2"
_cell_formula_units_Z 28
_cell_length_a 7.332800
_cell_length_b 13.933218
_cell_length_c 11.288974
_cell_angle_alpha 90.000000
_cell_angle_beta 90.000000
_cell_angle_gamma 90.000000
_cell_volume 1153.388840
_symmetry_space_group_name_H-M "P M M 2"
_symmetry_group_IT_number 25
_symmetry_cell_setting 'orthorhombic'
loop_
_space_group_symop_operation_xyz
x,y,z
-x,-y,z
-x,y,z
x,-y,z
loop_
_atom_site_type_symbol
_atom_site_label
_atom_site_fract_x
_atom_site_fract_y
_atom_site_fract_z
Si Si1 0.288244 0.300949 0.187160
Si Si2 0.220908 0.109751 0.300281
Si Si3 0.711756 0.699051 0.931345
Si Si4 0.786863 0.116843 0.559253
Si Si5 0.279405 0.613436 0.687619
Si Si6 0.220908 0.109751 0.818224
Si Si7 0.279406 0.386564 0.430887
O O1 0.500000 0.330917 0.185343
O O2 0.279784 0.186432 0.204212
O O3 0.208074 0.342064 0.309051
O O4 0.209592 0.328104 0.059253
O O5 0.288673 0.144080 0.430739
O O6 0.000000 0.109060 0.304226
O O7 0.278779 0.000000 0.280229
O O8 0.500000 0.669082 0.933162
O O9 0.791926 0.657936 0.809455
O O10 0.720216 0.813568 0.914293
O O11 0.711327 0.144081 0.687766
O O12 0.000000 0.141868 0.559253
O O13 0.777719 0.000000 0.559253
O O14 0.500000 0.623745 0.687400
O O15 0.240394 0.500000 0.689659
O O16 0.215663 0.652056 0.559253
O O17 0.000000 0.109061 0.814279
O O18 0.278779 0.000000 0.838277
O O19 0.500000 0.376255 0.431105
O O20 0.240395 0.500000 0.428846
#
# Coordination Sequence:
#
# PCOD9337666 Si02
#       7
#     4   4   4   4   4   4   4
#     4  10  21  33  47  74 107 134 163 204 252 294
#     4   9  18  33  52  72  97 133 174 209 244 293
#     4  10  21  33  47  74 107 134 163 204 252 294
#     4   7  12  26  47  69  90 115 156 208 249 279
#     4   8  15  30  52  75  98 127 164 204 246 296
#     4   9  18  33  52  72  97 133 174 209 244 293
#     4   8  15  30  52  75  98 127 164 204 246 296
#
# _framework density 24.276287
#
# number of rings (size 3 to 8) (size 9 to 14) (size 15 to 20)
#    0.000    3.286    0.000    2.571    2.000    2.286 
#    0.000    5.714    0.000    3.429    0.000    4.000 
#    0.000    0.000    0.000    0.000    0.000    0.000 
#
# Total GULP energy -156314.057038 kJ/mol
# GULP energy per Si atom -5582.644894 kJ/mol
# Density = 2.422103 g / cm^3
# Si number density = 24.276287 Si / 1000 Ang^3
#
#
#
# Elastic Constant Matrix: (Units=GPa)
#
#
# Indices 1 2 3 4 5 6 
#
# 1 97.7787 -4.0279 13.5983 0.0000 0.0000 0.0000
# 2 -4.0279 57.6534 67.8708 0.0000 0.0000 0.0000
# 3 13.5983 67.8708 253.6007 0.0000 0.0000 0.0000
# 4 0.0000 0.0000 0.0000 13.7905 0.0000 0.0000
# 5 0.0000 0.0000 0.0000 0.0000 -1.0948 0.0000
# 6 0.0000 0.0000 0.0000 0.0000 0.0000 14.2452
#
#
#
# Elastic Compliance Matrix: (Units=1/GPa)
#
#
# Indices 1 2 3 4 5 6 
#
# 1 0.010465 0.002032 -0.001105 0.000000 0.000000 0.000000
# 2 0.002032 0.025718 -0.006992 0.000000 0.000000 0.000000
# 3 -0.001105 -0.006992 0.005874 0.000000 0.000000 0.000000
# 4 0.000000 0.000000 0.000000 0.072514 0.000000 0.000000
# 5 0.000000 0.000000 0.000000 0.000000 -0.913413 0.000000
# 6 0.000000 0.000000 0.000000 0.000000 0.000000 0.070199
#
#
# Mechanical properties :
#
#
# Convention : Reuss Voigt Hill
#
# Bulk Modulus (GPa) = 33.41546 62.65724 48.03635
# Shear Modulus (GPa) = -7.07675 27.49429 10.20877
#
# Velocity S-wave (km/s) = -1.70922 3.36900 2.05289
# Velocity P-wave (km/s) = 3.14632 6.40310 5.04475
#
# Compressibility (1/GPa) = 0.02992627
#
# Stress axis : x y z
#
# Youngs Moduli (GPa) = 95.56091 38.88350 170.25195
#
# Poissons Ratio (x) = -0.07900 0.18811
# Poissons Ratio (y) = -0.19416 1.19036
# Poissons Ratio (z) = 0.10558 0.27186
#
# Static dielectric constant tensor:
#      x y z
#    x 1.939090 0.000000 0.000000 
#    y 0.000000 1.920820 0.000000 
#    z 0.000000 0.000000 1.965100 
# 
# From -- ./inp_files/4654.got.cif
#   From: 2010.05.17/outbox.cif.g08.bks.cpg/sg25_3_cif.got.tgz:4654.got - 2010.06.04 01:04:00.
