data_PCOD9337234
_publ_section_title
;
Structure prediction by ZEFSAII (Michael W. Deem and Ramdas Pophale) SiO2 
 PCOD9337234
Probable space group: P M M 2
;
_chemical_formula_sum "Si O2"
_cell_formula_units_Z 32
_cell_length_a 14.134793
_cell_length_b 7.362884
_cell_length_c 13.782476
_cell_angle_alpha 90.000000
_cell_angle_beta 90.000000
_cell_angle_gamma 90.000000
_cell_volume 1434.381436
_symmetry_space_group_name_H-M "P M M 2"
_symmetry_group_IT_number 25
_symmetry_cell_setting 'orthorhombic'
loop_
_space_group_symop_operation_xyz
x,y,z
-x,-y,z
-x,y,z
x,-y,z
loop_
_atom_site_type_symbol
_atom_site_label
_atom_site_fract_x
_atom_site_fract_y
_atom_site_fract_z
Si Si1 0.607657 0.219116 0.539710
Si Si2 0.795647 0.287101 0.631136
Si Si3 0.795648 0.712899 0.025878
Si Si4 0.109956 0.277826 0.828507
Si Si5 0.392343 0.219116 0.117303
Si Si6 0.111472 0.279614 0.222725
Si Si7 0.888528 0.720386 0.434290
Si Si8 0.384549 0.788825 0.328507
O O1 0.500000 0.279977 0.556598
O O2 0.683165 0.269791 0.620462
O O3 0.641919 0.289078 0.433447
O O4 0.605179 0.000000 0.533311
O O5 0.820273 0.500000 0.630485
O O6 0.838804 0.214067 0.730424
O O7 0.838350 0.210077 0.531044
O O8 0.820276 0.500000 0.026529
O O9 0.838804 0.785933 0.926589
O O10 0.683166 0.730207 0.036551
O O11 0.838351 0.789924 0.125970
O O12 0.113723 0.500000 0.828507
O O13 0.000000 0.226974 0.828507
O O14 0.500000 0.279976 0.100415
O O15 0.358081 0.289077 0.223566
O O16 0.394821 0.000000 0.123701
O O17 0.118277 0.500000 0.223241
O O18 0.148007 0.217819 0.328507
O O19 0.000000 0.235891 0.217597
O O20 0.881725 0.500000 0.433773
O O21 0.000000 0.764113 0.439417
O O22 0.500000 0.783895 0.328507
O O23 0.357012 0.000000 0.328506
#
# Coordination Sequence:
#
# PCOD9337234 Si02
#       8
#     4   4   4   4   4   4   4   4
#     4   9  18  33  51  71  99 135 170 201 241 298
#     4  10  19  30  50  76  99 126 166 210 249 286
#     4  10  19  30  50  76  99 126 166 210 249 286
#     4   9  18  34  54  75 100 132 169 205 244 297
#     4   9  18  33  51  71  99 135 170 201 241 298
#     4   8  14  25  42  67  98 126 152 190 244 300
#     4   8  14  25  42  67  98 126 152 190 244 300
#     4   7  12  26  47  67  90 127 168 196 227 285
#
# _framework density 22.309269
#
# number of rings (size 3 to 8) (size 9 to 14) (size 15 to 20)
#    0.000    3.250    0.000    3.000    1.750    3.500 
#    0.000    1.250    0.000    9.750    0.000    1.750 
#    0.000    0.000    0.000    0.000    0.000    0.000 
#
# Total GULP energy -178632.336871 kJ/mol
# GULP energy per Si atom -5582.260527 kJ/mol
# Density = 2.225849 g / cm^3
# Si number density = 22.309269 Si / 1000 Ang^3
#
#
#
# Elastic Constant Matrix: (Units=GPa)
#
#
# Indices 1 2 3 4 5 6 
#
# 1 119.1445 -6.4930 117.8160 0.0000 0.0000 0.0000
# 2 -6.4930 82.7814 12.2286 0.0000 0.0000 0.0000
# 3 117.8160 12.2286 212.2174 0.0000 0.0000 0.0000
# 4 0.0000 0.0000 0.0000 6.8670 0.0000 0.0000
# 5 0.0000 0.0000 0.0000 0.0000 44.2606 0.0000
# 6 0.0000 0.0000 0.0000 0.0000 0.0000 18.9475
#
#
#
# Elastic Compliance Matrix: (Units=1/GPa)
#
#
# Indices 1 2 3 4 5 6 
#
# 1 0.019384 0.003137 -0.010942 0.000000 0.000000 0.000000
# 2 0.003137 0.012691 -0.002473 0.000000 0.000000 0.000000
# 3 -0.010942 -0.002473 0.010929 0.000000 0.000000 0.000000
# 4 0.000000 0.000000 0.000000 0.145623 0.000000 0.000000
# 5 0.000000 0.000000 0.000000 0.000000 0.022593 0.000000
# 6 0.000000 0.000000 0.000000 0.000000 0.000000 0.052777
#
#
# Mechanical properties :
#
#
# Convention : Reuss Voigt Hill
#
# Bulk Modulus (GPa) = 44.54606 73.47186 59.00896
# Shear Modulus (GPa) = 17.12100 33.38779 25.25440
#
# Velocity S-wave (km/s) = 2.77327 3.87277 3.36819
# Velocity P-wave (km/s) = 5.50142 7.28029 6.45245
#
# Compressibility (1/GPa) = 0.02244867
#
# Stress axis : x y z
#
# Youngs Moduli (GPa) = 51.58770 78.79389 91.49573
#
# Poissons Ratio (x) = -0.24716 1.00118
# Poissons Ratio (y) = -0.16182 0.22625
# Poissons Ratio (z) = 0.56449 0.19484
#
# Static dielectric constant tensor:
#      x y z
#    x 1.824590 0.000000 0.000000 
#    y 0.000000 1.863790 0.000000 
#    z 0.000000 0.000000 1.821030 
# 
# From -- ./inp_files/4947.got.cif
#   From: 2010.05.17/outbox.cif.g08.bks.cpg/sg25_3_cif.got.tgz:4947.got - 2010.06.04 01:04:00.
