data_PCOD9337565
_publ_section_title
;
Structure prediction by ZEFSAII (Michael W. Deem and Ramdas Pophale) SiO2 
 PCOD9337565
Probable space group: P M M 2
;
_chemical_formula_sum "Si O2"
_cell_formula_units_Z 28
_cell_length_a 9.250456
_cell_length_b 9.204833
_cell_length_c 18.705762
_cell_angle_alpha 90.000000
_cell_angle_beta 90.000000
_cell_angle_gamma 90.000000
_cell_volume 1592.775108
_symmetry_space_group_name_H-M "P M M 2"
_symmetry_group_IT_number 25
_symmetry_cell_setting 'orthorhombic'
loop_
_space_group_symop_operation_xyz
x,y,z
-x,-y,z
-x,y,z
x,-y,z
loop_
_atom_site_type_symbol
_atom_site_label
_atom_site_fract_x
_atom_site_fract_y
_atom_site_fract_z
Si Si1 0.826378 0.169819 0.534260
Si Si2 0.328792 0.174013 0.813218
Si Si3 0.833827 0.176962 0.958089
Si Si4 0.324199 0.668269 0.244205
Si Si5 0.669977 0.174441 0.100770
Si Si6 0.672398 0.326011 0.403407
Si Si7 0.827334 0.327856 0.681669
O O1 0.753029 0.242857 0.465982
O O2 0.784702 0.252565 0.607052
O O3 0.000000 0.181426 0.527492
O O4 0.788526 0.000000 0.539424
O O5 0.500000 0.200086 0.816138
O O6 0.254417 0.219994 0.887629
O O7 0.256472 0.255909 0.747196
O O8 0.306225 0.000000 0.804969
O O9 0.000000 0.224153 0.953929
O O10 0.832396 0.000000 0.959267
O O11 0.758176 0.224807 0.031491
O O12 0.500000 0.672753 0.245245
O O13 0.282154 0.500000 0.236009
O O14 0.277147 0.758425 0.175394
O O15 0.278906 0.718958 0.323307
O O16 0.500000 0.211079 0.091533
O O17 0.679922 0.000000 0.105061
O O18 0.500000 0.301174 0.408994
O O19 0.695396 0.500000 0.409176
O O20 0.800966 0.500000 0.678153
O O21 0.000000 0.305018 0.691309
#
# Coordination Sequence:
#
# PCOD9337565 Si02
#       7
#     4   4   4   4   4   4   4
#     4  10  21  36  54  77 104 134 169 208 251 300
#     4  10  20  34  54  79 104 131 167 210 253 298
#     4   9  17  30  49  72  99 132 167 204 249 298
#     4   8  15  29  48  70  97 129 164 202 247 298
#     4   9  16  27  46  71  96 124 163 208 249 292
#     4   9  18  33  53  76 102 134 172 212 254 301
#     4  10  21  37  56  76 100 133 170 206 249 302
#
# _framework density 17.579378999999999
#
# number of rings (size 3 to 8) (size 9 to 14) (size 15 to 20)
#    0.000    2.714    0.000    2.571    0.000    5.714 
#    0.000    2.857    0.000    5.571    0.000    0.000 
#    0.000    0.000    0.000    0.000    0.000    0.000 
#
# Total GULP energy -156142.789453 kJ/mol
# GULP energy per Si atom -5576.528195 kJ/mol
# Density = 1.753937 g / cm^3
# Si number density = 17.579379 Si / 1000 Ang^3
#
#
#
# Elastic Constant Matrix: (Units=GPa)
#
#
# Indices 1 2 3 4 5 6 
#
# 1 60.1234 50.1704 85.5063 0.0000 0.0000 0.0000
# 2 50.1704 51.6652 80.8871 0.0000 0.0000 0.0000
# 3 85.5063 80.8871 224.3154 0.0000 0.0000 0.0000
# 4 0.0000 0.0000 0.0000 121.6898 0.0000 0.0000
# 5 0.0000 0.0000 0.0000 0.0000 107.1186 0.0000
# 6 0.0000 0.0000 0.0000 0.0000 0.0000 20.9054
#
#
#
# Elastic Compliance Matrix: (Units=1/GPa)
#
#
# Indices 1 2 3 4 5 6 
#
# 1 0.091670 -0.078793 -0.006531 0.000000 0.000000 0.000000
# 2 -0.078793 0.112173 -0.010414 0.000000 0.000000 0.000000
# 3 -0.006531 -0.010414 0.010703 0.000000 0.000000 0.000000
# 4 0.000000 0.000000 0.000000 0.008218 0.000000 0.000000
# 5 0.000000 0.000000 0.000000 0.000000 0.009335 0.000000
# 6 0.000000 0.000000 0.000000 0.000000 0.000000 0.047834
#
#
# Mechanical properties :
#
#
# Convention : Reuss Voigt Hill
#
# Bulk Modulus (GPa) = 43.34662 85.47018 64.40840
# Shear Modulus (GPa) = 10.43623 57.91210 34.17417
#
# Velocity S-wave (km/s) = 2.43916 5.74584 4.41386
# Velocity P-wave (km/s) = 5.71348 9.63041 7.91797
#
# Compressibility (1/GPa) = 0.02306985
#
# Stress axis : x y z
#
# Youngs Moduli (GPa) = 10.90865 8.91480 93.43149
#
# Poissons Ratio (x) = 0.70242 0.61024
# Poissons Ratio (y) = 0.85952 0.97302
# Poissons Ratio (z) = 0.07125 0.09284
#
# Static dielectric constant tensor:
#      x y z
#    x 1.588210 0.000000 0.000000 
#    y 0.000000 1.585530 0.000000 
#    z 0.000000 0.000000 1.583890 
# 
# From -- ./inp_files/6044.got.cif
#   From: 2010.05.17/outbox.cif.g08.bks.cpg/sg25_4_cif.got.tgz:6044.got - 2010.06.04 01:04:00.
