data_PCOD9337820
_publ_section_title
;
Structure prediction by ZEFSAII (Michael W. Deem and Ramdas Pophale) SiO2 
 PCOD9337820
Probable space group: P M M 2
;
_chemical_formula_sum "Si O2"
_cell_formula_units_Z 21
_cell_length_a 10.508752
_cell_length_b 7.500220
_cell_length_c 12.688442
_cell_angle_alpha 90.000000
_cell_angle_beta 90.000000
_cell_angle_gamma 90.000000
_cell_volume 1000.077012
_symmetry_space_group_name_H-M "P M M 2"
_symmetry_group_IT_number 25
_symmetry_cell_setting 'orthorhombic'
loop_
_space_group_symop_operation_xyz
x,y,z
-x,-y,z
-x,y,z
x,-y,z
loop_
_atom_site_type_symbol
_atom_site_label
_atom_site_fract_x
_atom_site_fract_y
_atom_site_fract_z
Si Si1 0.641848 0.290908 0.061630
Si Si2 0.142585 0.782629 0.472320
Si Si3 0.000000 0.500000 0.872613
Si Si4 0.643831 0.216638 0.635119
Si Si5 0.141514 0.214884 0.229585
Si Si6 0.778771 0.797484 0.852549
O O1 0.500000 0.229898 0.092189
O O2 0.635710 0.500000 0.037677
O O3 0.745434 0.268787 0.153399
O O4 0.691653 0.199422 0.956247
O O5 0.253868 0.720583 0.548933
O O6 0.160273 0.727535 0.350735
O O7 0.000000 0.728021 0.506585
O O8 0.143561 0.000000 0.473252
O O9 0.889482 0.656559 0.870816
O O10 0.500000 0.280490 0.618621
O O11 0.696342 0.258019 0.750927
O O12 0.640395 0.000000 0.627954
O O13 0.000000 0.275957 0.194374
O O14 0.138637 0.000000 0.229978
O O15 0.826332 0.000000 0.833069
#
# Coordination Sequence:
#
# PCOD9337820 Si02
#       6
#     4   4   1   4   4   4
#     4  11  24  41  60  85 124 167 209 263 318 373
#     4   8  15  30  53  85 122 157 202 262 316 366
#     4  12  26  44  62  98 130 164 212 260 308 372
#     4   9  18  33  58  91 124 161 206 256 312 375
#     4   9  19  35  58  88 120 157 205 261 318 375
#     4  11  24  42  66  94 128 168 207 256 315 372
#
# _framework density 20.998380999999998
#
# number of rings (size 3 to 8) (size 9 to 14) (size 15 to 20)
#    0.000    2.286    0.952    2.571    2.667    3.429 
#    0.000    1.905    2.095    0.000    0.000    0.000 
#    0.000    0.000    0.000    0.000    0.000    0.000 
#
# Total GULP energy -117045.095885 kJ/mol
# GULP energy per Si atom -5573.575995 kJ/mol
# Density = 2.095059 g / cm^3
# Si number density = 20.998381 Si / 1000 Ang^3
#
#
#
# Elastic Constant Matrix: (Units=GPa)
#
#
# Indices 1 2 3 4 5 6 
#
# 1 220.7320 28.7540 108.0179 0.0000 0.0000 0.0000
# 2 28.7540 87.4195 7.4692 0.0000 0.0000 0.0000
# 3 108.0179 7.4692 112.8971 0.0000 0.0000 0.0000
# 4 0.0000 0.0000 0.0000 93.1286 0.0000 0.0000
# 5 0.0000 0.0000 0.0000 0.0000 -7.2788 0.0000
# 6 0.0000 0.0000 0.0000 0.0000 0.0000 17.4026
#
#
#
# Elastic Compliance Matrix: (Units=1/GPa)
#
#
# Indices 1 2 3 4 5 6 
#
# 1 0.008928 -0.002219 -0.008395 0.000000 0.000000 0.000000
# 2 -0.002219 0.012056 0.001326 0.000000 0.000000 0.000000
# 3 -0.008395 0.001326 0.016802 0.000000 0.000000 0.000000
# 4 0.000000 0.000000 0.000000 0.010738 0.000000 0.000000
# 5 0.000000 0.000000 0.000000 0.000000 -0.137384 0.000000
# 6 0.000000 0.000000 0.000000 0.000000 0.000000 0.057463
#
#
# Mechanical properties :
#
#
# Convention : Reuss Voigt Hill
#
# Bulk Modulus (GPa) = 52.06030 78.83677 65.44853
# Shear Modulus (GPa) = -778.99676 39.10430 -369.94623
#
# Velocity S-wave (km/s) = -19.28172 4.32006 -13.28762
# Velocity P-wave (km/s) = 21.69946 7.90631 14.28911
#
# Compressibility (1/GPa) = 0.01920850
#
# Stress axis : x y z
#
# Youngs Moduli (GPa) = 112.01144 82.94783 59.51642
#
# Poissons Ratio (x) = 0.18408 0.49964
# Poissons Ratio (y) = 0.24858 -0.07890
# Poissons Ratio (z) = 0.94034 -0.10996
#
# Static dielectric constant tensor:
#      x y z
#    x 1.738150 0.000000 0.000000 
#    y 0.000000 1.749780 0.000000 
#    z 0.000000 0.000000 1.720180 
# 
# From -- ./inp_files/5142.got.cif
#   From: 2010.05.17/outbox.cif.g08.bks.cpg/sg25_3_cif.got.tgz:5142.got - 2010.06.04 01:04:00.
