data_PCOD9337865
_publ_section_title
;
Structure prediction by ZEFSAII (Michael W. Deem and Ramdas Pophale) SiO2 
 PCOD9337865
Probable space group: P M M 2
;
_chemical_formula_sum "Si O2"
_cell_formula_units_Z 32
_cell_length_a 15.000000
_cell_length_b 9.000000
_cell_length_c 12.000000
_cell_angle_alpha 90.000000
_cell_angle_beta 90.000000
_cell_angle_gamma 90.000000
_cell_volume 1620.000000
_symmetry_space_group_name_H-M "P M M 2"
_symmetry_group_IT_number 25
_symmetry_cell_setting 'orthorhombic'
loop_
_space_group_symop_operation_xyz
x,y,z
-x,-y,z
-x,y,z
x,-y,z
loop_
_atom_site_type_symbol
_atom_site_label
_atom_site_fract_x
_atom_site_fract_y
_atom_site_fract_z
Si Si1 0.892889 0.333248 0.554710
Si Si2 0.726157 0.676200 0.278545
Si Si3 0.402731 0.680169 0.717275
Si Si4 0.600013 0.677887 0.075988
Si Si5 0.894906 0.823835 0.783876
Si Si6 0.898492 0.822663 0.317958
Si Si7 0.740608 0.320291 0.894451
Si Si8 0.401664 0.318947 0.461549
O O1 0.854143 0.500000 0.547773
O O2 0.865093 0.251408 0.667337
O O3 0.880121 0.243227 0.441240
O O4 0.000000 0.346325 0.563896
O O5 0.745767 0.500000 0.283508
O O6 0.642903 0.696492 0.196404
O O7 0.817038 0.757971 0.246649
O O8 0.683774 0.732057 0.393886
O O9 0.500000 0.727332 0.762531
O O10 0.403513 0.500000 0.719315
O O11 0.318726 0.725073 0.788221
O O12 0.395990 0.726237 0.589665
O O13 0.500000 0.738311 0.064076
O O14 0.593512 0.500000 0.054988
O O15 0.677314 0.731337 0.994170
O O16 0.835827 0.754224 0.881340
O O17 0.000000 0.793711 0.799101
O O18 0.882998 0.000000 0.776947
O O19 0.000000 0.777704 0.286382
O O20 0.895627 0.000000 0.320367
O O21 0.750462 0.500000 0.898212
O O22 0.500000 0.273792 0.418862
O O23 0.400524 0.500000 0.456848
#
# Coordination Sequence:
#
# PCOD9337865 Si02
#       8
#     4   4   4   4   4   4   4   4
#     4   9  17  31  53  79 106 139 180 223 263 312
#     4  10  19  31  53  80 105 138 183 228 272 321
#     4   8  14  25  43  71 104 132 163 209 264 322
#     4   9  18  34  56  83 112 140 177 229 282 331
#     4  10  21  36  52  74 109 149 184 221 271 327
#     4  10  21  36  52  74 109 149 184 221 271 327
#     4  10  19  31  53  80 105 138 183 228 272 321
#     4   8  14  25  43  71 104 132 163 209 264 322
#
# _framework density 19.753086
#
# number of rings (size 3 to 8) (size 9 to 14) (size 15 to 20)
#    0.000    2.750    0.000    2.625    1.750    6.000 
#    0.000    1.250    0.000    7.500    0.000    1.750 
#    0.000    0.000    0.000    0.000    0.000    0.000 
#
# Total GULP energy -178245.710505 kJ/mol
# GULP energy per Si atom -5570.178453 kJ/mol
# Density = 1.970813 g / cm^3
# Si number density = 19.753086 Si / 1000 Ang^3
#
#
#
# Elastic Constant Matrix: (Units=GPa)
#
#
# Indices 1 2 3 4 5 6 
#
# 1 53.7248 26.4768 7.3984 0.0000 0.0000 0.0000
# 2 26.4768 30.4365 9.7615 0.0000 0.0000 0.0000
# 3 7.3984 9.7615 11.2828 0.0000 0.0000 0.0000
# 4 0.0000 0.0000 0.0000 5.9423 0.0000 0.0000
# 5 0.0000 0.0000 0.0000 0.0000 351.6761 0.0000
# 6 0.0000 0.0000 0.0000 0.0000 0.0000 8.8196
#
#
#
# Elastic Compliance Matrix: (Units=1/GPa)
#
#
# Indices 1 2 3 4 5 6 
#
# 1 0.032738 -0.029886 0.004390 0.000000 0.000000 0.000000
# 2 -0.029886 0.072756 -0.043349 0.000000 0.000000 0.000000
# 3 0.004390 -0.043349 0.123257 0.000000 0.000000 0.000000
# 4 0.000000 0.000000 0.000000 0.168285 0.000000 0.000000
# 5 0.000000 0.000000 0.000000 0.000000 0.002844 0.000000
# 6 0.000000 0.000000 0.000000 0.000000 0.000000 0.113384
#
#
# Mechanical properties :
#
#
# Convention : Reuss Voigt Hill
#
# Bulk Modulus (GPa) = 10.98188 20.30193 15.64191
# Shear Modulus (GPa) = 7.33882 76.74142 42.04012
#
# Velocity S-wave (km/s) = 1.92960 6.23977 4.61833
# Velocity P-wave (km/s) = 3.24594 7.88753 6.03114
#
# Compressibility (1/GPa) = 0.09105907
#
# Stress axis : x y z
#
# Youngs Moduli (GPa) = 30.54601 13.74450 8.11314
#
# Poissons Ratio (x) = 0.41077 -0.03562
# Poissons Ratio (y) = 0.91291 0.35170
# Poissons Ratio (z) = -0.13410 0.59582
#
# Static dielectric constant tensor:
#      x y z
#    x 1.570830 0.000000 0.000000 
#    y 0.000000 1.668760 0.000000 
#    z 0.000000 0.000000 1.770590 
# 
# From -- ./inp_files/4201.got.cif
#   From: 2010.05.17/outbox.ucp.g08.bks.cvg/sg25_3_cif.got.tgz:4201.got - 2010.06.11 15:23:09.
