data_PCOD9337743
_publ_section_title
;
Structure prediction by ZEFSAII (Michael W. Deem and Ramdas Pophale) SiO2 
 PCOD9337743
Probable space group: P M M 2
;
_chemical_formula_sum "Si O2"
_cell_formula_units_Z 32
_cell_length_a 14.502314
_cell_length_b 8.306580
_cell_length_c 13.355191
_cell_angle_alpha 90.000000
_cell_angle_beta 90.000000
_cell_angle_gamma 90.000000
_cell_volume 1608.828161
_symmetry_space_group_name_H-M "P M M 2"
_symmetry_group_IT_number 25
_symmetry_cell_setting 'orthorhombic'
loop_
_space_group_symop_operation_xyz
x,y,z
-x,-y,z
-x,y,z
x,-y,z
loop_
_atom_site_type_symbol
_atom_site_label
_atom_site_fract_x
_atom_site_fract_y
_atom_site_fract_z
Si Si1 0.887860 0.316644 0.237640
Si Si2 0.712509 0.807493 0.537769
Si Si3 0.607156 0.692471 0.340234
Si Si4 0.604594 0.806807 0.733366
Si Si5 0.711083 0.309480 0.926870
Si Si6 0.894771 0.304988 0.456743
Si Si7 0.894827 0.302451 0.018457
Si Si8 0.608757 0.808200 0.123647
O O1 0.850904 0.500000 0.237782
O O2 0.865997 0.242965 0.345422
O O3 0.000000 0.327333 0.237612
O O4 0.866035 0.242963 0.129890
O O5 0.662648 0.747777 0.437082
O O6 0.658972 0.746227 0.635762
O O7 0.818020 0.750493 0.533629
O O8 0.710387 0.000000 0.538045
O O9 0.500000 0.745626 0.350215
O O10 0.609274 0.500000 0.335275
O O11 0.643201 0.758274 0.233934
O O12 0.500000 0.743712 0.736445
O O13 0.657695 0.768434 0.835160
O O14 0.599621 0.000000 0.724515
O O15 0.711943 0.500000 0.910461
O O16 0.816752 0.253039 0.940744
O O17 0.660709 0.273608 0.031845
O O18 0.894705 0.500000 0.451148
O O19 0.000000 0.254651 0.477525
O O20 0.894937 0.500000 0.023684
O O21 0.000000 0.253420 0.997342
O O22 0.500000 0.763552 0.119443
O O23 0.615857 0.000000 0.112791
#
# Coordination Sequence:
#
# PCOD9337743 Si02
#       8
#     4   4   4   4   4   4   4   4
#     4   7  11  23  45  72 104 144 184 218 258 316
#     4  11  23  38  59  85 113 149 195 243 296 357
#     4  10  21  37  58  85 116 148 186 237 295 353
#     4  10  23  44  64  79 104 149 198 240 289 354
#     4  11  22  34  57  90 116 143 189 245 293 336
#     4   9  18  33  55  84 117 154 195 236 281 339
#     4   8  15  29  49  77 114 151 185 223 273 331
#     4  10  21  37  56  80 116 157 189 224 282 355
#
# _framework density 19.890253999999999
#
# number of rings (size 3 to 8) (size 9 to 14) (size 15 to 20)
#    0.000    2.500    0.000    3.750    1.750    5.000 
#    0.000    0.625    0.000    3.750    0.000    0.000 
#    0.000    0.000    0.000    0.000    0.000    0.000 
#
# Total GULP energy -178599.272982 kJ/mol
# GULP energy per Si atom -5581.227281 kJ/mol
# Density = 1.984498 g / cm^3
# Si number density = 19.890254 Si / 1000 Ang^3
#
#
#
# Elastic Constant Matrix: (Units=GPa)
#
#
# Indices 1 2 3 4 5 6 
#
# 1 130.8370 10.2858 78.0345 0.0000 0.0000 0.0000
# 2 10.2858 11.0633 2.9039 0.0000 0.0000 0.0000
# 3 78.0345 2.9039 118.5968 0.0000 0.0000 0.0000
# 4 0.0000 0.0000 0.0000 41.8638 0.0000 0.0000
# 5 0.0000 0.0000 0.0000 0.0000 35.9320 0.0000
# 6 0.0000 0.0000 0.0000 0.0000 0.0000 15.9030
#
#
#
# Elastic Compliance Matrix: (Units=1/GPa)
#
#
# Indices 1 2 3 4 5 6 
#
# 1 0.013678 -0.010421 -0.008745 0.000000 0.000000 0.000000
# 2 -0.010421 0.098914 0.004435 0.000000 0.000000 0.000000
# 3 -0.008745 0.004435 0.014077 0.000000 0.000000 0.000000
# 4 0.000000 0.000000 0.000000 0.023887 0.000000 0.000000
# 5 0.000000 0.000000 0.000000 0.000000 0.027830 0.000000
# 6 0.000000 0.000000 0.000000 0.000000 0.000000 0.062881
#
#
# Mechanical properties :
#
#
# Convention : Reuss Voigt Hill
#
# Bulk Modulus (GPa) = 10.28734 49.21618 29.75176
# Shear Modulus (GPa) = 16.49450 30.02462 23.25956
#
# Velocity S-wave (km/s) = 2.88284 3.88946 3.42335
# Velocity P-wave (km/s) = 4.03290 6.70583 5.53319
#
# Compressibility (1/GPa) = 0.09720686
#
# Stress axis : x y z
#
# Youngs Moduli (GPa) = 73.11054 10.10984 71.03710
#
# Poissons Ratio (x) = 0.10536 0.62119
# Poissons Ratio (y) = 0.76192 -0.31506
# Poissons Ratio (z) = 0.63933 -0.04484
#
# Static dielectric constant tensor:
#      x y z
#    x 1.737060 0.000000 0.000000 
#    y 0.000000 1.690970 0.000000 
#    z 0.000000 0.000000 1.686220 
# 
# From -- ./inp_files/4944.got.cif
#   From: 2010.05.17/outbox.cif.g08.bks.cpg/sg25_3_cif.got.tgz:4944.got - 2010.06.04 01:04:00.
