data_PCOD9337512
_publ_section_title
;
Structure prediction by ZEFSAII (Michael W. Deem and Ramdas Pophale) SiO2 
 PCOD9337512
Probable space group: P M M 2
;
_chemical_formula_sum "Si O2"
_cell_formula_units_Z 20
_cell_length_a 8.244504
_cell_length_b 7.464084
_cell_length_c 14.689604
_cell_angle_alpha 90.000000
_cell_angle_beta 90.000000
_cell_angle_gamma 90.000000
_cell_volume 903.964009
_symmetry_space_group_name_H-M "P M M 2"
_symmetry_group_IT_number 25
_symmetry_cell_setting 'orthorhombic'
loop_
_space_group_symop_operation_xyz
x,y,z
-x,-y,z
-x,y,z
x,-y,z
loop_
_atom_site_type_symbol
_atom_site_label
_atom_site_fract_x
_atom_site_fract_y
_atom_site_fract_z
Si Si1 0.500000 0.219251 0.698251
Si Si2 0.174810 0.209893 0.005634
Si Si3 0.500000 0.780992 0.910132
Si Si4 0.814403 0.209352 0.590367
Si Si5 0.680273 0.716655 0.192569
Si Si6 0.187521 0.715957 0.384225
O O1 0.500000 0.265733 0.804209
O O2 0.666164 0.283146 0.650032
O O3 0.500000 0.000000 0.691425
O O4 0.198566 0.223919 0.114190
O O5 0.000000 0.287796 0.979715
O O6 0.170743 0.000000 0.981684
O O7 0.336112 0.284972 0.958786
O O8 0.500000 0.000000 0.916779
O O9 0.763418 0.221687 0.484306
O O10 0.000000 0.283928 0.598489
O O11 0.827643 0.000000 0.613995
O O12 0.500000 0.775877 0.166194
O O13 0.684262 0.500000 0.193824
O O14 0.718665 0.778017 0.294790
O O15 0.196941 0.500000 0.386044
O O16 0.000000 0.767676 0.372258
#
# Coordination Sequence:
#
# PCOD9337512 Si02
#       6
#     2   4   2   4   4   4
#     4   9  18  32  52  75 100 130 163 205 256 299
#     4  10  20  34  54  78 103 134 170 209 256 302
#     4   9  18  34  52  75 104 128 163 213 256 303
#     4   9  18  32  50  74 101 129 166 207 245 291
#     4  10  20  33  51  76 105 138 174 208 248 301
#     4   9  18  32  49  71 101 135 168 202 243 293
#
# _framework density 22.124773000000001
#
# number of rings (size 3 to 8) (size 9 to 14) (size 15 to 20)
#    0.000    2.600    1.000    0.600    1.400    2.800 
#    0.000    6.000    0.000    2.400    0.000    2.800 
#    0.000    0.000    0.000    0.000    0.000    0.000 
#
# Total GULP energy -111630.140456 kJ/mol
# GULP energy per Si atom -5581.507023 kJ/mol
# Density = 2.207442 g / cm^3
# Si number density = 22.124773 Si / 1000 Ang^3
#
#
#
# Elastic Constant Matrix: (Units=GPa)
#
#
# Indices 1 2 3 4 5 6 
#
# 1 185.0542 9.7906 99.3408 0.0000 0.0000 0.0000
# 2 9.7906 62.7708 -4.7377 0.0000 0.0000 0.0000
# 3 99.3408 -4.7377 124.5357 0.0000 0.0000 0.0000
# 4 0.0000 0.0000 0.0000 30.9313 0.0000 0.0000
# 5 0.0000 0.0000 0.0000 0.0000 -6.3454 0.0000
# 6 0.0000 0.0000 0.0000 0.0000 0.0000 1.8314
#
#
#
# Elastic Compliance Matrix: (Units=1/GPa)
#
#
# Indices 1 2 3 4 5 6 
#
# 1 0.009721 -0.002108 -0.007835 0.000000 0.000000 0.000000
# 2 -0.002108 0.016434 0.002306 0.000000 0.000000 0.000000
# 3 -0.007835 0.002306 0.014367 0.000000 0.000000 0.000000
# 4 0.000000 0.000000 0.000000 0.032330 0.000000 0.000000
# 5 0.000000 0.000000 0.000000 0.000000 -0.157596 0.000000
# 6 0.000000 0.000000 0.000000 0.000000 0.000000 0.546026
#
#
# Mechanical properties :
#
#
# Convention : Reuss Voigt Hill
#
# Bulk Modulus (GPa) = 39.60330 64.57203 52.08766
# Shear Modulus (GPa) = 10.30990 23.14792 16.72891
#
# Velocity S-wave (km/s) = 2.16102 3.23808 2.75274
# Velocity P-wave (km/s) = 4.91584 6.57487 5.80493
#
# Compressibility (1/GPa) = 0.02525042
#
# Stress axis : x y z
#
# Youngs Moduli (GPa) = 102.86905 60.85032 69.60325
#
# Poissons Ratio (x) = 0.12825 0.54531
# Poissons Ratio (y) = 0.21680 -0.16053
# Poissons Ratio (z) = 0.80594 -0.14034
#
# Static dielectric constant tensor:
#      x y z
#    x 1.827180 0.000000 0.000000 
#    y 0.000000 1.839900 0.000000 
#    z 0.000000 0.000000 1.761540 
# 
# From -- ./inp_files/5114.got.cif
#   From: 2010.05.17/outbox.cif.g08.bks.cpg/sg25_3_cif.got.tgz:5114.got - 2010.06.04 01:04:00.
