data_PCOD9337450
_publ_section_title
;
Structure prediction by ZEFSAII (Michael W. Deem and Ramdas Pophale) SiO2 
 PCOD9337450
Probable space group: P M M 2
;
_chemical_formula_sum "Si O2"
_cell_formula_units_Z 24
_cell_length_a 9.640160
_cell_length_b 7.482284
_cell_length_c 15.990784
_cell_angle_alpha 90.000000
_cell_angle_beta 90.000000
_cell_angle_gamma 90.000000
_cell_volume 1153.421885
_symmetry_space_group_name_H-M "P M M 2"
_symmetry_group_IT_number 25
_symmetry_cell_setting 'orthorhombic'
loop_
_space_group_symop_operation_xyz
x,y,z
-x,-y,z
-x,y,z
x,-y,z
loop_
_atom_site_type_symbol
_atom_site_label
_atom_site_fract_x
_atom_site_fract_y
_atom_site_fract_z
Si Si1 0.342301 0.714640 0.988810
Si Si2 0.657727 0.285523 0.485788
Si Si3 0.842503 0.214151 0.648538
Si Si4 0.159783 0.282015 0.143030
Si Si5 0.160497 0.281936 0.330494
Si Si6 0.658620 0.213349 0.801519
O O1 0.500000 0.782705 0.993142
O O2 0.347078 0.500000 0.995845
O O3 0.289168 0.754390 0.895658
O O4 0.252234 0.781676 0.066188
O O5 0.500000 0.217940 0.493858
O O6 0.649461 0.500000 0.478114
O O7 0.750697 0.248295 0.566739
O O8 0.737884 0.219182 0.403323
O O9 0.759788 0.283433 0.729675
O O10 0.000000 0.282985 0.641010
O O11 0.852270 0.000000 0.657386
O O12 0.163119 0.500000 0.142513
O O13 0.202905 0.227089 0.236653
O O14 0.000000 0.229326 0.131597
O O15 0.160806 0.500000 0.331620
O O16 0.000000 0.228080 0.344801
O O17 0.500000 0.283571 0.794918
O O18 0.649944 0.000000 0.790564
#
# Coordination Sequence:
#
# PCOD9337450 Si02
#       6
#     4   4   4   4   4   4
#     4   9  17  28  44  68  94 118 149 192 235 272
#     4  10  20  32  49  75 102 127 158 197 240 285
#     4  10  21  36  53  72  94 124 162 200 240 289
#     4   8  14  25  42  65  93 124 155 187 227 274
#     4   8  14  26  44  66  94 126 157 191 232 277
#     4   9  18  33  50  66  89 123 157 189 232 286
#
# _framework density 20.807652000000001
#
# number of rings (size 3 to 8) (size 9 to 14) (size 15 to 20)
#    0.000    3.000    0.000    2.000    0.000    4.000 
#    0.000    5.000    0.000    1.000    0.000    4.667 
#    0.000    0.000    0.000    0.000    0.000    0.000 
#
# Total GULP energy -133926.445542 kJ/mol
# GULP energy per Si atom -5580.268564 kJ/mol
# Density = 2.076029 g / cm^3
# Si number density = 20.807652 Si / 1000 Ang^3
#
#
#
# Elastic Constant Matrix: (Units=GPa)
#
#
# Indices 1 2 3 4 5 6 
#
# 1 150.5564 5.6780 143.9559 0.0000 0.0000 0.0000
# 2 5.6780 59.2542 -0.5139 0.0000 0.0000 0.0000
# 3 143.9559 -0.5139 238.7617 0.0000 0.0000 0.0000
# 4 0.0000 0.0000 0.0000 31.9819 0.0000 0.0000
# 5 0.0000 0.0000 0.0000 0.0000 42.4833 0.0000
# 6 0.0000 0.0000 0.0000 0.0000 0.0000 3.5187
#
#
#
# Elastic Compliance Matrix: (Units=1/GPa)
#
#
# Indices 1 2 3 4 5 6 
#
# 1 0.015834 -0.001600 -0.009550 0.000000 0.000000 0.000000
# 2 -0.001600 0.017038 0.001001 0.000000 0.000000 0.000000
# 3 -0.009550 0.001001 0.009948 0.000000 0.000000 0.000000
# 4 0.000000 0.000000 0.000000 0.031268 0.000000 0.000000
# 5 0.000000 0.000000 0.000000 0.000000 0.023539 0.000000
# 6 0.000000 0.000000 0.000000 0.000000 0.000000 0.284194
#
#
# Mechanical properties :
#
#
# Convention : Reuss Voigt Hill
#
# Bulk Modulus (GPa) = 44.39873 82.97914 63.68894
# Shear Modulus (GPa) = 12.20625 35.56027 23.88326
#
# Velocity S-wave (km/s) = 2.42466 4.13849 3.39161
# Velocity P-wave (km/s) = 5.40580 7.92476 6.78323
#
# Compressibility (1/GPa) = 0.02252317
#
# Stress axis : x y z
#
# Youngs Moduli (GPa) = 63.15637 58.69083 100.51867
#
# Poissons Ratio (x) = 0.09391 0.95996
# Poissons Ratio (y) = 0.10105 -0.10066
# Poissons Ratio (z) = 0.60314 -0.05877
#
# Static dielectric constant tensor:
#      x y z
#    x 1.732600 0.000000 0.000000 
#    y 0.000000 1.801100 0.000000 
#    z 0.000000 0.000000 1.718170 
# 
# From -- ./inp_files/3921.got.cif
#   From: 2010.05.17/outbox.cif.g08.bks.cpg/sg25_2_cif.got.tgz:3921.got - 2010.06.04 01:04:00.
