data_PCOD9337723
_publ_section_title
;
Structure prediction by ZEFSAII (Michael W. Deem and Ramdas Pophale) SiO2 
 PCOD9337723
Probable space group: P M M 2
;
_chemical_formula_sum "Si O2"
_cell_formula_units_Z 32
_cell_length_a 14.173933
_cell_length_b 9.033961
_cell_length_c 13.324457
_cell_angle_alpha 90.000000
_cell_angle_beta 90.000000
_cell_angle_gamma 90.000000
_cell_volume 1706.153520
_symmetry_space_group_name_H-M "P M M 2"
_symmetry_group_IT_number 25
_symmetry_cell_setting 'orthorhombic'
loop_
_space_group_symop_operation_xyz
x,y,z
-x,-y,z
-x,y,z
x,-y,z
loop_
_atom_site_type_symbol
_atom_site_label
_atom_site_fract_x
_atom_site_fract_y
_atom_site_fract_z
Si Si1 0.385772 0.827235 0.438820
Si Si2 0.888645 0.674840 0.767875
Si Si3 0.389520 0.678286 0.044940
Si Si4 0.719690 0.177413 0.860322
Si Si5 0.391473 0.179852 0.660475
Si Si6 0.286322 0.323371 0.252108
Si Si7 0.109332 0.821473 0.335248
Si Si8 0.885515 0.831944 0.561623
O O1 0.500000 0.821639 0.438217
O O2 0.355360 0.775170 0.550237
O O3 0.344180 0.735000 0.347920
O O4 0.358159 0.000000 0.426487
O O5 0.873088 0.500000 0.775405
O O6 0.824879 0.760733 0.847389
O O7 0.861889 0.731658 0.656237
O O8 0.000000 0.704694 0.781041
O O9 0.500000 0.719220 0.045018
O O10 0.383632 0.500000 0.033904
O O11 0.341010 0.718243 0.150549
O O12 0.334857 0.755431 0.954343
O O13 0.666613 0.224756 0.757619
O O14 0.719632 0.000000 0.865368
O O15 0.500000 0.228838 0.671134
O O16 0.392374 0.000000 0.658067
O O17 0.278883 0.500000 0.255786
O O18 0.182945 0.251458 0.260295
O O19 0.140127 0.781628 0.449609
O O20 0.000000 0.777665 0.320520
O O21 0.113351 0.000000 0.329914
O O22 0.000000 0.839858 0.558577
O O23 0.850019 0.000000 0.578729
#
# Coordination Sequence:
#
# PCOD9337723 Si02
#       8
#     4   4   4   4   4   4   4   4
#     4   9  18  34  56  81 112 150 188 228 281 346
#     4  10  21  36  54  80 118 159 196 235 282 341
#     4  10  23  44  64  82 112 153 194 239 291 347
#     4  11  22  36  60  89 114 145 193 246 292 343
#     4   8  16  32  53  80 113 144 176 223 284 343
#     4  11  23  37  57  85 116 151 193 239 289 346
#     4   9  19  36  57  82 115 154 196 241 287 338
#     4   8  15  30  52  77 108 149 193 235 279 328
#
# _framework density 18.755637
#
# number of rings (size 3 to 8) (size 9 to 14) (size 15 to 20)
#    0.000    2.500    0.000    3.375    1.750    4.000 
#    0.000    2.500    0.000    2.250    0.000    0.000 
#    0.000    0.000    0.000    0.000    0.000    0.000 
#
# Total GULP energy -178657.216716 kJ/mol
# GULP energy per Si atom -5583.038022 kJ/mol
# Density = 1.871295 g / cm^3
# Si number density = 18.755637 Si / 1000 Ang^3
#
#
#
# Elastic Constant Matrix: (Units=GPa)
#
#
# Indices 1 2 3 4 5 6 
#
# 1 107.4841 50.2156 77.8470 0.0000 0.0000 0.0000
# 2 50.2156 38.9643 55.3779 0.0000 0.0000 0.0000
# 3 77.8470 55.3779 144.0513 0.0000 0.0000 0.0000
# 4 0.0000 0.0000 0.0000 35.3410 0.0000 0.0000
# 5 0.0000 0.0000 0.0000 0.0000 36.3681 0.0000
# 6 0.0000 0.0000 0.0000 0.0000 0.0000 26.8689
#
#
#
# Elastic Compliance Matrix: (Units=1/GPa)
#
#
# Indices 1 2 3 4 5 6 
#
# 1 0.023738 -0.027248 -0.002353 0.000000 0.000000 0.000000
# 2 -0.027248 0.087853 -0.019048 0.000000 0.000000 0.000000
# 3 -0.002353 -0.019048 0.015537 0.000000 0.000000 0.000000
# 4 0.000000 0.000000 0.000000 0.028296 0.000000 0.000000
# 5 0.000000 0.000000 0.000000 0.000000 0.027497 0.000000
# 6 0.000000 0.000000 0.000000 0.000000 0.000000 0.037218
#
#
# Mechanical properties :
#
#
# Convention : Reuss Voigt Hill
#
# Bulk Modulus (GPa) = 33.52518 73.04228 53.28373
# Shear Modulus (GPa) = 15.27272 26.85289 21.06280
#
# Velocity S-wave (km/s) = 2.85669 3.78792 3.35477
# Velocity P-wave (km/s) = 5.36604 7.62626 6.59372
#
# Compressibility (1/GPa) = 0.02982833
#
# Stress axis : x y z
#
# Youngs Moduli (GPa) = 42.12597 11.38259 64.36440
#
# Poissons Ratio (x) = 0.31016 0.15147
# Poissons Ratio (y) = 1.14786 1.22604
# Poissons Ratio (z) = 0.09914 0.21682
#
# Static dielectric constant tensor:
#      x y z
#    x 1.688100 0.000000 0.000000 
#    y 0.000000 1.622570 0.000000 
#    z 0.000000 0.000000 1.630030 
# 
# From -- ./inp_files/4270.got.cif
#   From: 2010.05.17/outbox.cif.g08.bks.cpg/sg25_3_cif.got.tgz:4270.got - 2010.06.04 01:04:00.
