data_PCOD9337091
_publ_section_title
;
Structure prediction by ZEFSAII (Michael W. Deem and Ramdas Pophale) SiO2 
 PCOD9337091
Probable space group: P M M 2
;
_chemical_formula_sum "Si O2"
_cell_formula_units_Z 32
_cell_length_a 7.415373
_cell_length_b 14.784014
_cell_length_c 16.350710
_cell_angle_alpha 90.000000
_cell_angle_beta 90.000000
_cell_angle_gamma 90.000000
_cell_volume 1792.511631
_symmetry_space_group_name_H-M "P M M 2"
_symmetry_group_IT_number 25
_symmetry_cell_setting 'orthorhombic'
loop_
_space_group_symop_operation_xyz
x,y,z
-x,-y,z
-x,y,z
x,-y,z
loop_
_atom_site_type_symbol
_atom_site_label
_atom_site_fract_x
_atom_site_fract_y
_atom_site_fract_z
Si Si1 0.720874 0.711599 0.649500
Si Si2 0.279297 0.604883 0.489280
Si Si3 0.709686 0.609848 0.310678
Si Si4 0.215164 0.100992 0.903884
Si Si5 0.288129 0.100334 0.713499
Si Si6 0.712462 0.708838 0.972737
Si Si7 0.720912 0.394760 0.131895
Si Si8 0.720282 0.604465 0.811815
O O1 0.500000 0.712233 0.649656
O O2 0.777996 0.666163 0.564918
O O3 0.784319 0.814027 0.664474
O O4 0.776416 0.652155 0.727770
O O5 0.500000 0.605292 0.487339
O O6 0.226869 0.500000 0.501885
O O7 0.215565 0.636267 0.399342
O O8 0.500000 0.637847 0.310776
O O9 0.713318 0.500000 0.310858
O O10 0.784991 0.635844 0.222037
O O11 0.274835 0.119909 0.810622
O O12 0.268221 0.183975 0.961111
O O13 0.000000 0.098245 0.902722
O O14 0.281241 0.000000 0.925967
O O15 0.500000 0.095310 0.694284
O O16 0.210294 0.000000 0.699790
O O17 0.500000 0.688568 0.973629
O O18 0.784106 0.659509 0.891310
O O19 0.783436 0.666731 0.056828
O O20 0.500000 0.393304 0.134870
O O21 0.770714 0.500000 0.118634
O O22 0.500000 0.606247 0.811959
O O23 0.774872 0.500000 0.815448
#
# Coordination Sequence:
#
# PCOD9337091 Si02
#       8
#     4   4   4   4   4   4   4   4
#     4   9  14  20  31  51  75 102 132 161 193 227
#     4   8  12  17  27  46  75 107 133 157 188 227
#     4   7  10  17  28  45  73 106 133 158 189 222
#     4  10  20  32  44  57  75 101 132 166 203 239
#     4   9  16  27  42  58  76  98 129 169 205 235
#     4  10  17  26  41  61  80 103 133 162 195 231
#     4   8  13  21  35  56  80 105 135 166 192 225
#     4   9  15  21  31  51  78 103 129 159 187 220
#
# _framework density 17.852045
#
# number of rings (size 3 to 8) (size 9 to 14) (size 15 to 20)
#    0.000    3.250    1.250    2.625    0.000    3.750 
#    0.000    0.000    0.000    1.500    0.000    0.875 
#    0.000    6.000    0.000    6.750    0.000    5.500 
#
# Total GULP energy -178322.131135 kJ/mol
# GULP energy per Si atom -5572.566598 kJ/mol
# Density = 1.781141 g / cm^3
# Si number density = 17.852045 Si / 1000 Ang^3
#
#
#
# Elastic Constant Matrix: (Units=GPa)
#
#
# Indices 1 2 3 4 5 6 
#
# 1 56.5104 -0.5100 7.2581 0.0000 0.0000 0.0000
# 2 -0.5100 123.5022 99.0993 0.0000 0.0000 0.0000
# 3 7.2581 99.0993 183.2203 0.0000 0.0000 0.0000
# 4 0.0000 0.0000 0.0000 12.9108 0.0000 0.0000
# 5 0.0000 0.0000 0.0000 0.0000 -31.6036 0.0000
# 6 0.0000 0.0000 0.0000 0.0000 0.0000 -96.0648
#
#
#
# Elastic Compliance Matrix: (Units=1/GPa)
#
#
# Indices 1 2 3 4 5 6 
#
# 1 0.017876 0.001134 -0.001322 0.000000 0.000000 0.000000
# 2 0.001134 0.014378 -0.007822 0.000000 0.000000 0.000000
# 3 -0.001322 -0.007822 0.009741 0.000000 0.000000 0.000000
# 4 0.000000 0.000000 0.000000 0.077454 0.000000 0.000000
# 5 0.000000 0.000000 0.000000 0.000000 -0.031642 0.000000
# 6 0.000000 0.000000 0.000000 0.000000 0.000000 -0.010410
#
#
# Mechanical properties :
#
#
# Convention : Reuss Voigt Hill
#
# Bulk Modulus (GPa) = 38.49610 63.88086 51.18848
# Shear Modulus (GPa) = 48.98425 -5.79247 21.59589
#
# Velocity S-wave (km/s) = 5.24391 -1.80326 3.48187
# Velocity P-wave (km/s) = 7.63384 5.61476 6.70079
#
# Compressibility (1/GPa) = 0.02597666
#
# Stress axis : x y z
#
# Youngs Moduli (GPa) = 55.94138 69.55188 102.66173
#
# Poissons Ratio (x) = -0.07890 0.13569
# Poissons Ratio (y) = -0.06346 0.80297
# Poissons Ratio (z) = 0.07394 0.54400
#
# Static dielectric constant tensor:
#      x y z
#    x 1.677240 0.000000 0.000000 
#    y 0.000000 1.593480 0.000000 
#    z 0.000000 0.000000 1.617960 
# 
# From -- ./inp_files/5762.got.cif
#   From: 2010.05.17/outbox.cif.g08.bks.cpg/sg25_3_cif.got.tgz:5762.got - 2010.06.04 01:04:00.
