data_PCOD9337411
_publ_section_title
;
Structure prediction by ZEFSAII (Michael W. Deem and Ramdas Pophale) SiO2 
 PCOD9337411
Probable space group: P M M 2
;
_chemical_formula_sum "Si O2"
_cell_formula_units_Z 32
_cell_length_a 17.914790
_cell_length_b 9.331707
_cell_length_c 11.790218
_cell_angle_alpha 90.000000
_cell_angle_beta 90.000000
_cell_angle_gamma 90.000000
_cell_volume 1971.036429
_symmetry_space_group_name_H-M "P M M 2"
_symmetry_group_IT_number 25
_symmetry_cell_setting 'orthorhombic'
loop_
_space_group_symop_operation_xyz
x,y,z
-x,-y,z
-x,y,z
x,-y,z
loop_
_atom_site_type_symbol
_atom_site_label
_atom_site_fract_x
_atom_site_fract_y
_atom_site_fract_z
Si Si1 0.694736 0.164742 0.673020
Si Si2 0.081919 0.671333 0.769512
Si Si3 0.584620 0.830637 0.253997
Si Si4 0.279875 0.672093 0.138080
Si Si5 0.363487 0.664633 0.469384
Si Si6 0.197207 0.663069 0.358438
Si Si7 0.859977 0.836944 0.558326
Si Si8 0.761734 0.671564 0.879350
O O1 0.642040 0.255300 0.589393
O O2 0.775981 0.162151 0.611201
O O3 0.709274 0.243461 0.791952
O O4 0.670602 0.000000 0.686117
O O5 0.085047 0.500000 0.753773
O O6 0.093243 0.746049 0.648283
O O7 0.152661 0.709902 0.847557
O O8 0.000000 0.708368 0.815916
O O9 0.500000 0.813152 0.211906
O O10 0.645689 0.755226 0.174647
O O11 0.591657 0.755097 0.376621
O O12 0.600615 0.000000 0.264904
O O13 0.292107 0.500000 0.150291
O O14 0.215858 0.709488 0.230267
O O15 0.256579 0.702343 0.009714
O O16 0.388855 0.500000 0.478861
O O17 0.278993 0.660462 0.418429
O O18 0.168707 0.500000 0.358782
O O19 0.146717 0.763972 0.435698
O O20 0.886039 0.000000 0.551419
O O21 0.753164 0.500000 0.860961
#
# Coordination Sequence:
#
# PCOD9337411 Si02
#       8
#     4   4   4   4   4   4   4   4
#     4   9  16  26  42  66  93 118 146 183 228 274
#     4   9  17  29  46  67  91 120 152 190 239 289
#     4  10  20  32  47  69  96 123 152 192 241 289
#     4   9  18  31  48  69  93 125 163 201 237 275
#     4   9  16  27  45  67  90 117 147 181 224 273
#     4   8  14  25  41  62  87 113 143 181 223 266
#     4   9  16  25  40  63  88 114 143 178 223 272
#     4   9  17  30  47  68  94 124 162 203 237 275
#
# _framework density 16.235113999999999
#
# number of rings (size 3 to 8) (size 9 to 14) (size 15 to 20)
#    0.000    3.000    0.000    2.250    0.000    7.750 
#    0.000    0.000    0.000    1.500    0.000    7.000 
#    0.000    0.000    0.000    0.000    0.000    0.000 
#
# Total GULP energy -178186.613837 kJ/mol
# GULP energy per Si atom -5568.331682 kJ/mol
# Density = 1.619816 g / cm^3
# Si number density = 16.235114 Si / 1000 Ang^3
#
#
#
# Elastic Constant Matrix: (Units=GPa)
#
#
# Indices 1 2 3 4 5 6 
#
# 1 50.9710 34.8791 38.2786 0.0000 0.0000 0.0000
# 2 34.8791 71.2179 63.7433 0.0000 0.0000 0.0000
# 3 38.2786 63.7433 139.9637 0.0000 0.0000 0.0000
# 4 0.0000 0.0000 0.0000 13.1226 0.0000 0.0000
# 5 0.0000 0.0000 0.0000 0.0000 10.7564 0.0000
# 6 0.0000 0.0000 0.0000 0.0000 0.0000 14.2492
#
#
#
# Elastic Compliance Matrix: (Units=1/GPa)
#
#
# Indices 1 2 3 4 5 6 
#
# 1 0.030041 -0.012423 -0.002558 0.000000 0.000000 0.000000
# 2 -0.012423 0.028841 -0.009737 0.000000 0.000000 0.000000
# 3 -0.002558 -0.009737 0.012279 0.000000 0.000000 0.000000
# 4 0.000000 0.000000 0.000000 0.076205 0.000000 0.000000
# 5 0.000000 0.000000 0.000000 0.000000 0.092968 0.000000
# 6 0.000000 0.000000 0.000000 0.000000 0.000000 0.070179
#
#
# Mechanical properties :
#
#
# Convention : Reuss Voigt Hill
#
# Bulk Modulus (GPa) = 46.03208 59.55051 52.79130
# Shear Modulus (GPa) = 13.61688 15.97575 14.79632
#
# Velocity S-wave (km/s) = 2.89923 3.14032 3.02218
# Velocity P-wave (km/s) = 6.29463 7.06460 6.69070
#
# Compressibility (1/GPa) = 0.02172398
#
# Stress axis : x y z
#
# Youngs Moduli (GPa) = 33.28775 34.67280 81.43960
#
# Poissons Ratio (x) = 0.43074 0.20833
# Poissons Ratio (y) = 0.41353 0.79301
# Poissons Ratio (z) = 0.08515 0.33762
#
# Static dielectric constant tensor:
#      x y z
#    x 1.550440 0.000000 0.000000 
#    y 0.000000 1.549090 0.000000 
#    z 0.000000 0.000000 1.531940 
# 
# From -- ./inp_files/4435.got.cif
#   From: 2010.05.17/outbox.cif.g08.bks.cpg/sg25_3_cif.got.tgz:4435.got - 2010.06.04 01:04:00.
