data_PCOD9337398
_publ_section_title
;
Structure prediction by ZEFSAII (Michael W. Deem and Ramdas Pophale) SiO2 
 PCOD9337398
Probable space group: P M M 2
;
_chemical_formula_sum "Si O2"
_cell_formula_units_Z 32
_cell_length_a 7.415160
_cell_length_b 9.482822
_cell_length_c 21.379780
_cell_angle_alpha 90.000000
_cell_angle_beta 90.000000
_cell_angle_gamma 90.000000
_cell_volume 1503.354344
_symmetry_space_group_name_H-M "P M M 2"
_symmetry_group_IT_number 25
_symmetry_cell_setting 'orthorhombic'
loop_
_space_group_symop_operation_xyz
x,y,z
-x,-y,z
-x,y,z
x,-y,z
loop_
_atom_site_type_symbol
_atom_site_label
_atom_site_fract_x
_atom_site_fract_y
_atom_site_fract_z
Si Si1 0.286688 0.340902 0.029730
Si Si2 0.720562 0.162390 0.392327
Si Si3 0.219779 0.836871 0.768409
Si Si4 0.279436 0.162525 0.148001
Si Si5 0.783055 0.838465 0.907466
Si Si6 0.719957 0.337267 0.270255
Si Si7 0.285109 0.338720 0.511152
Si Si8 0.216173 0.339833 0.650525
O O1 0.500000 0.352519 0.041348
O O2 0.212765 0.500000 0.030009
O O3 0.216658 0.241773 0.085356
O O4 0.265858 0.264730 0.963320
O O5 0.500000 0.161065 0.392439
O O6 0.776115 0.253971 0.332404
O O7 0.781687 0.239183 0.455794
O O8 0.778331 0.000000 0.388396
O O9 0.277391 0.791610 0.838113
O O10 0.284479 0.747394 0.709602
O O11 0.000000 0.831628 0.767968
O O12 0.270610 0.000000 0.761174
O O13 0.500000 0.160136 0.147744
O O14 0.224386 0.251659 0.208676
O O15 0.221027 0.000000 0.150362
O O16 0.000000 0.843924 0.905644
O O17 0.720197 0.000000 0.918518
O O18 0.500000 0.339160 0.270287
O O19 0.778750 0.500000 0.269702
O O20 0.500000 0.348115 0.503020
O O21 0.214026 0.500000 0.507538
O O22 0.253482 0.282506 0.581166
O O23 0.285581 0.500000 0.652017
O O24 0.000000 0.345387 0.656265
#
# Coordination Sequence:
#
# PCOD9337398 Si02
#       8
#     4   4   4   4   4   4   4   4
#     4  10  20  32  46  68  98 128 157 191 233 280
#     4   9  16  25  38  58  84 113 146 183 220 260
#     4   8  15  29  48  68  89 113 144 184 226 266
#     4   9  16  26  41  61  87 120 155 190 228 269
#     4   9  18  33  52  72  93 120 156 195 234 278
#     4   9  15  23  37  58  85 116 149 185 224 266
#     4   9  17  29  43  60  86 118 146 175 217 264
#     4   9  17  29  46  67  88 112 145 182 218 260
#
# _framework density 21.285733
#
# number of rings (size 3 to 8) (size 9 to 14) (size 15 to 20)
#    0.000    3.000    0.000    2.250    0.000    6.500 
#    0.000    1.875    0.000    2.250    0.000    0.875 
#    0.000    5.000    0.000    0.000    0.000    0.000 
#
# Total GULP energy -178640.807160 kJ/mol
# GULP energy per Si atom -5582.525224 kJ/mol
# Density = 2.123729 g / cm^3
# Si number density = 21.285733 Si / 1000 Ang^3
#
#
#
# Elastic Constant Matrix: (Units=GPa)
#
#
# Indices 1 2 3 4 5 6 
#
# 1 68.4151 5.3927 -0.3249 0.0000 0.0000 0.0000
# 2 5.3927 180.4898 147.9544 0.0000 0.0000 0.0000
# 3 -0.3249 147.9544 242.0563 0.0000 0.0000 0.0000
# 4 0.0000 0.0000 0.0000 44.8014 0.0000 0.0000
# 5 0.0000 0.0000 0.0000 0.0000 22.2875 0.0000
# 6 0.0000 0.0000 0.0000 0.0000 0.0000 -0.4063
#
#
#
# Elastic Compliance Matrix: (Units=1/GPa)
#
#
# Indices 1 2 3 4 5 6 
#
# 1 0.014691 -0.000912 0.000577 0.000000 0.000000 0.000000
# 2 -0.000912 0.011161 -0.006823 0.000000 0.000000 0.000000
# 3 0.000577 -0.006823 0.008303 0.000000 0.000000 0.000000
# 4 0.000000 0.000000 0.000000 0.022321 0.000000 0.000000
# 5 0.000000 0.000000 0.000000 0.000000 0.044868 0.000000
# 6 0.000000 0.000000 0.000000 0.000000 0.000000 -2.460994
#
#
# Mechanical properties :
#
#
# Convention : Reuss Voigt Hill
#
# Bulk Modulus (GPa) = 50.40656 88.55619 69.48137
# Shear Modulus (GPa) = -2.13792 35.86577 16.86393
#
# Velocity S-wave (km/s) = -1.00328 4.10929 2.81777
# Velocity P-wave (km/s) = 4.73183 8.01304 6.58024
#
# Compressibility (1/GPa) = 0.01983869
#
# Stress axis : x y z
#
# Youngs Moduli (GPa) = 68.06746 89.59725 120.44242
#
# Poissons Ratio (x) = 0.08173 -0.06953
# Poissons Ratio (y) = 0.06209 0.82182
# Poissons Ratio (z) = -0.03929 0.61135
#
# Static dielectric constant tensor:
#      x y z
#    x 1.838870 0.000000 0.000000 
#    y 0.000000 1.729130 0.000000 
#    z 0.000000 0.000000 1.737400 
# 
# From -- ./inp_files/6262.got.cif
#   From: 2010.05.17/outbox.cif.g08.bks.cpg/sg25_4_cif.got.tgz:6262.got - 2010.06.04 01:04:00.
