data_PCOD9337583
_publ_section_title
;
Structure prediction by ZEFSAII (Michael W. Deem and Ramdas Pophale) SiO2 
 PCOD9337583
Probable space group: P M M 2
;
_chemical_formula_sum "Si O2"
_cell_formula_units_Z 32
_cell_length_a 29.420223
_cell_length_b 9.666612
_cell_length_c 5.434943
_cell_angle_alpha 90.000000
_cell_angle_beta 90.000000
_cell_angle_gamma 90.000000
_cell_volume 1545.664531
_symmetry_space_group_name_H-M "P M M 2"
_symmetry_group_IT_number 25
_symmetry_cell_setting 'orthorhombic'
loop_
_space_group_symop_operation_xyz
x,y,z
-x,-y,z
-x,y,z
x,-y,z
loop_
_atom_site_type_symbol
_atom_site_label
_atom_site_fract_x
_atom_site_fract_y
_atom_site_fract_z
Si Si1 0.684699 0.652319 0.700160
Si Si2 0.600512 0.333565 0.010516
Si Si3 0.223031 0.346138 0.981855
Si Si4 0.948225 0.667048 0.892813
Si Si5 0.447440 0.668770 0.506735
Si Si6 0.728832 0.847545 0.372073
Si Si7 0.894503 0.667258 0.388943
Si Si8 0.177049 0.844964 0.642195
O O1 0.669353 0.500000 0.604800
O O2 0.652699 0.689270 0.929765
O O3 0.686580 0.773590 0.502614
O O4 0.736846 0.636168 0.781182
O O5 0.595265 0.500000 0.022129
O O6 0.572044 0.285607 0.771105
O O7 0.581996 0.282577 0.271863
O O8 0.209355 0.500000 0.063428
O O9 0.249198 0.257089 0.181145
O O10 0.181398 0.259580 0.871297
O O11 0.950245 0.500000 0.900827
O O12 0.920088 0.705724 0.136898
O O13 0.000000 0.719489 0.903323
O O14 0.924891 0.699918 0.631867
O O15 0.500000 0.708615 0.476525
O O16 0.446094 0.500000 0.509739
O O17 0.770798 0.864524 0.561151
O O18 0.718441 0.000000 0.270778
O O19 0.885815 0.500000 0.390055
O O20 0.850201 0.760582 0.435573
O O21 0.158701 0.000000 0.689622
#
# Coordination Sequence:
#
# PCOD9337583 Si02
#       8
#     4   4   4   4   4   4   4   4
#     4   9  19  33  50  75 103 139 180 225 274 321
#     4   9  17  27  44  68 100 136 175 217 265 325
#     4  10  20  34  55  78 105 140 183 231 277 331
#     4   9  18  34  57  85 115 145 182 232 284 330
#     4   9  16  26  41  65 100 140 173 209 265 331
#     4  10  21  36  54  75 106 146 182 225 276 332
#     4  10  20  34  57  87 113 145 189 234 277 328
#     4  10  22  38  53  76 110 148 187 227 278 332
#
# _framework density 20.703068999999999
#
# number of rings (size 3 to 8) (size 9 to 14) (size 15 to 20)
#    0.000    2.500    0.000    1.875    3.500    5.000 
#    0.000    0.000    0.000    2.250    0.000    0.000 
#    0.000    3.000    0.000    0.000    0.000    0.000 
#
# Total GULP energy -178327.208084 kJ/mol
# GULP energy per Si atom -5572.725253 kJ/mol
# Density = 2.065595 g / cm^3
# Si number density = 20.703069 Si / 1000 Ang^3
#
#
#
# Elastic Constant Matrix: (Units=GPa)
#
#
# Indices 1 2 3 4 5 6 
#
# 1 85.2924 7.6655 25.5283 0.0000 0.0000 0.0000
# 2 7.6655 95.4071 19.9414 0.0000 0.0000 0.0000
# 3 25.5283 19.9414 93.3355 0.0000 0.0000 0.0000
# 4 0.0000 0.0000 0.0000 5.0267 0.0000 0.0000
# 5 0.0000 0.0000 0.0000 0.0000 37.6300 0.0000
# 6 0.0000 0.0000 0.0000 0.0000 0.0000 -15.1711
#
#
#
# Elastic Compliance Matrix: (Units=1/GPa)
#
#
# Indices 1 2 3 4 5 6 
#
# 1 0.012778 -0.000310 -0.003429 0.000000 0.000000 0.000000
# 2 -0.000310 0.010979 -0.002261 0.000000 0.000000 0.000000
# 3 -0.003429 -0.002261 0.012135 0.000000 0.000000 0.000000
# 4 0.000000 0.000000 0.000000 0.198939 0.000000 0.000000
# 5 0.000000 0.000000 0.000000 0.000000 0.026575 0.000000
# 6 0.000000 0.000000 0.000000 0.000000 0.000000 -0.065915
#
#
# Mechanical properties :
#
#
# Convention : Reuss Voigt Hill
#
# Bulk Modulus (GPa) = 41.85360 42.25619 42.05489
# Shear Modulus (GPa) = 23.20673 20.22376 21.71524
#
# Velocity S-wave (km/s) = 3.35166 3.12885 3.24217
# Velocity P-wave (km/s) = 5.93618 5.78859 5.86285
#
# Compressibility (1/GPa) = 0.02389281
#
# Stress axis : x y z
#
# Youngs Moduli (GPa) = 78.25649 91.08412 82.40691
#
# Poissons Ratio (x) = 0.02824 0.28256
# Poissons Ratio (y) = 0.02426 0.18631
# Poissons Ratio (z) = 0.26833 0.20593
#
# Static dielectric constant tensor:
#      x y z
#    x 1.781160 0.000000 0.000000 
#    y 0.000000 1.798460 0.000000 
#    z 0.000000 0.000000 1.800410 
# 
# From -- ./inp_files/372.got.cif
#   From: 2010.05.17/outbox.cif.g08.bks.cpg/sg25_1_cif.got.tgz:372.got - 2010.06.04 01:04:00.
