data_PCOD9337186
_publ_section_title
;
Structure prediction by ZEFSAII (Michael W. Deem and Ramdas Pophale) SiO2 
 PCOD9337186
Probable space group: P M M 2
;
_chemical_formula_sum "Si O2"
_cell_formula_units_Z 32
_cell_length_a 14.849206
_cell_length_b 9.263802
_cell_length_c 12.249148
_cell_angle_alpha 90.000000
_cell_angle_beta 90.000000
_cell_angle_gamma 90.000000
_cell_volume 1684.994076
_symmetry_space_group_name_H-M "P M M 2"
_symmetry_group_IT_number 25
_symmetry_cell_setting 'orthorhombic'
loop_
_space_group_symop_operation_xyz
x,y,z
-x,-y,z
-x,y,z
x,-y,z
loop_
_atom_site_type_symbol
_atom_site_label
_atom_site_fract_x
_atom_site_fract_y
_atom_site_fract_z
Si Si1 0.606877 0.327942 0.151160
Si Si2 0.895785 0.161790 0.671955
Si Si3 0.695556 0.336005 0.929390
Si Si4 0.264787 0.174366 0.306604
Si Si5 0.603072 0.324100 0.710419
Si Si6 0.096821 0.831711 0.163557
Si Si7 0.750692 0.327267 0.537386
Si Si8 0.100992 0.260752 0.917072
O O1 0.500000 0.310813 0.136891
O O2 0.625160 0.500000 0.166355
O O3 0.645612 0.240610 0.253264
O O4 0.659119 0.272550 0.042602
O O5 0.833043 0.278542 0.614734
O O6 0.893566 0.174359 0.803595
O O7 0.000000 0.181403 0.639619
O O8 0.866986 0.000000 0.640374
O O9 0.660922 0.500000 0.932947
O O10 0.653298 0.270149 0.819836
O O11 0.803498 0.341789 0.920636
O O12 0.182998 0.225606 0.227098
O O13 0.247127 0.241311 0.424764
O O14 0.268465 0.000000 0.309604
O O15 0.500000 0.276404 0.707361
O O16 0.603787 0.500000 0.713430
O O17 0.661090 0.285987 0.604827
O O18 0.000000 0.764307 0.194286
O O19 0.093411 0.000000 0.192209
O O20 0.103590 0.821595 0.032572
O O21 0.752214 0.500000 0.520250
O O22 0.000000 0.330453 0.914486
#
# Coordination Sequence:
#
# PCOD9337186 Si02
#       8
#     4   4   4   4   4   4   4   4
#     4  10  21  38  61  87 116 152 194 240 291 351
#     4  10  21  37  59  87 119 156 194 234 287 353
#     4  10  18  32  55  86 119 150 186 232 289 353
#     4  11  23  39  60  85 114 153 197 246 295 345
#     4   9  18  34  57  83 109 143 189 238 288 343
#     4   9  18  34  56  81 110 146 188 231 279 341
#     4  11  23  39  59  85 115 152 198 248 295 344
#     4  10  18  31  55  87 118 148 185 231 286 350
#
# _framework density 18.991164000000001
#
# number of rings (size 3 to 8) (size 9 to 14) (size 15 to 20)
#    0.000    2.000    2.500    1.500    0.000    4.750 
#    0.000    3.750    0.000    2.250    0.000    0.000 
#    0.000    0.000    0.000    0.000    0.000    0.000 
#
# Total GULP energy -178256.399054 kJ/mol
# GULP energy per Si atom -5570.512470 kJ/mol
# Density = 1.894794 g / cm^3
# Si number density = 18.991164 Si / 1000 Ang^3
#
#
#
# Elastic Constant Matrix: (Units=GPa)
#
#
# Indices 1 2 3 4 5 6 
#
# 1 116.6833 30.3543 52.4959 0.0000 0.0000 0.0000
# 2 30.3543 46.9203 28.0808 0.0000 0.0000 0.0000
# 3 52.4959 28.0808 113.1740 0.0000 0.0000 0.0000
# 4 0.0000 0.0000 0.0000 11.0594 0.0000 0.0000
# 5 0.0000 0.0000 0.0000 0.0000 14.4004 0.0000
# 6 0.0000 0.0000 0.0000 0.0000 0.0000 19.9381
#
#
#
# Elastic Compliance Matrix: (Units=1/GPa)
#
#
# Indices 1 2 3 4 5 6 
#
# 1 0.011790 -0.005114 -0.004200 0.000000 0.000000 0.000000
# 2 -0.005114 0.027248 -0.004389 0.000000 0.000000 0.000000
# 3 -0.004200 -0.004389 0.011873 0.000000 0.000000 0.000000
# 4 0.000000 0.000000 0.000000 0.090421 0.000000 0.000000
# 5 0.000000 0.000000 0.000000 0.000000 0.069443 0.000000
# 6 0.000000 0.000000 0.000000 0.000000 0.000000 0.050155
#
#
# Mechanical properties :
#
#
# Convention : Reuss Voigt Hill
#
# Bulk Modulus (GPa) = 42.54272 55.40440 48.97356
# Shear Modulus (GPa) = 16.88223 20.13601 18.50912
#
# Velocity S-wave (km/s) = 2.98476 3.25973 3.12527
# Velocity P-wave (km/s) = 5.85904 6.58824 6.23431
#
# Compressibility (1/GPa) = 0.02350578
#
# Stress axis : x y z
#
# Youngs Moduli (GPa) = 84.81685 36.70057 84.22441
#
# Poissons Ratio (x) = 0.18768 0.35374
# Poissons Ratio (y) = 0.43374 0.36963
# Poissons Ratio (z) = 0.35623 0.16107
#
# Static dielectric constant tensor:
#      x y z
#    x 1.678570 0.000000 0.000000 
#    y 0.000000 1.658290 0.000000 
#    z 0.000000 0.000000 1.660490 
# 
# From -- ./inp_files/4935.got.cif
#   From: 2010.05.17/outbox.cif.g08.bks.cpg/sg25_3_cif.got.tgz:4935.got - 2010.06.04 01:04:00.
