data_PCOD9337617
_publ_section_title
;
Structure prediction by ZEFSAII (Michael W. Deem and Ramdas Pophale) SiO2 
 PCOD9337617
Probable space group: P M M 2
;
_chemical_formula_sum "Si O2"
_cell_formula_units_Z 32
_cell_length_a 13.587912
_cell_length_b 9.399517
_cell_length_c 12.593084
_cell_angle_alpha 90.000000
_cell_angle_beta 90.000000
_cell_angle_gamma 90.000000
_cell_volume 1608.386294
_symmetry_space_group_name_H-M "P M M 2"
_symmetry_group_IT_number 25
_symmetry_cell_setting 'orthorhombic'
loop_
_space_group_symop_operation_xyz
x,y,z
-x,-y,z
-x,y,z
x,-y,z
loop_
_atom_site_type_symbol
_atom_site_label
_atom_site_fract_x
_atom_site_fract_y
_atom_site_fract_z
Si Si1 0.610717 0.222594 0.816560
Si Si2 0.387878 0.833761 0.580737
Si Si3 0.827661 0.842692 0.767684
Si Si4 0.883894 0.333349 0.565014
Si Si5 0.729255 0.668926 0.400147
Si Si6 0.106735 0.331564 0.964565
Si Si7 0.612085 0.169269 0.226106
Si Si8 0.325069 0.338901 0.031184
O O1 0.500000 0.160733 0.834505
O O2 0.609388 0.254680 0.690826
O O3 0.716793 0.145648 0.814831
O O4 0.629558 0.331153 0.912479
O O5 0.500000 0.847823 0.545432
O O6 0.332116 0.746450 0.492421
O O7 0.352886 0.000000 0.597828
O O8 0.832904 0.763465 0.654727
O O9 0.885446 0.750853 0.853898
O O10 0.868718 0.000000 0.756242
O O11 0.866030 0.500000 0.591649
O O12 0.839065 0.311477 0.447368
O O13 0.000000 0.306834 0.567690
O O14 0.710341 0.500000 0.392360
O O15 0.693426 0.746975 0.294338
O O16 0.109509 0.500000 0.942560
O O17 0.000000 0.298997 0.015085
O O18 0.208269 0.303312 0.026573
O O19 0.500000 0.200592 0.262950
O O20 0.622624 0.225924 0.106338
O O21 0.626624 0.000000 0.233022
O O22 0.337043 0.500000 0.071595
#
# Coordination Sequence:
#
# PCOD9337617 Si02
#       8
#     4   4   4   4   4   4   4   4
#     4  10  21  35  54  84 124 165 197 234 292 355
#     4  10  20  35  56  83 119 160 194 230 287 355
#     4  11  21  33  54  85 119 156 201 246 285 340
#     4  10  22  40  59  81 114 154 193 237 295 357
#     4  11  23  39  62  88 114 148 197 250 294 341
#     4   9  19  37  59  83 117 160 199 238 292 352
#     4  11  25  44  65  88 118 158 197 236 294 363
#     4  10  22  40  63  90 119 154 203 255 295 340
#
# _framework density 19.895719
#
# number of rings (size 3 to 8) (size 9 to 14) (size 15 to 20)
#    0.000    1.750    1.250    2.625    0.000   10.250 
#    0.000    3.125    0.000    3.750    0.000    0.000 
#    0.000    0.000    0.000    0.000    0.000    0.000 
#
# Total GULP energy -178159.245608 kJ/mol
# GULP energy per Si atom -5567.476425 kJ/mol
# Density = 1.985044 g / cm^3
# Si number density = 19.895719 Si / 1000 Ang^3
#
#
#
# Elastic Constant Matrix: (Units=GPa)
#
#
# Indices 1 2 3 4 5 6 
#
# 1 105.2389 33.8721 13.5005 0.0000 0.0000 0.0000
# 2 33.8721 65.5730 36.9239 0.0000 0.0000 0.0000
# 3 13.5005 36.9239 61.2840 0.0000 0.0000 0.0000
# 4 0.0000 0.0000 0.0000 -313.5825 0.0000 0.0000
# 5 0.0000 0.0000 0.0000 0.0000 15.9539 0.0000
# 6 0.0000 0.0000 0.0000 0.0000 0.0000 -10.8716
#
#
#
# Elastic Compliance Matrix: (Units=1/GPa)
#
#
# Indices 1 2 3 4 5 6 
#
# 1 0.011498 -0.006830 0.001582 0.000000 0.000000 0.000000
# 2 -0.006830 0.027138 -0.014846 0.000000 0.000000 0.000000
# 3 0.001582 -0.014846 0.024914 0.000000 0.000000 0.000000
# 4 0.000000 0.000000 0.000000 -0.003189 0.000000 0.000000
# 5 0.000000 0.000000 0.000000 0.000000 0.062681 0.000000
# 6 0.000000 0.000000 0.000000 0.000000 0.000000 -0.091983
#
#
# Mechanical properties :
#
#
# Convention : Reuss Voigt Hill
#
# Bulk Modulus (GPa) = 42.80552 44.52101 43.66326
# Shear Modulus (GPa) = 63.26392 -51.84675 5.70859
#
# Velocity S-wave (km/s) = 5.64507 -5.11036 1.69572
# Velocity P-wave (km/s) = 8.00317 3.52070 5.08209
#
# Compressibility (1/GPa) = 0.02336147
#
# Stress axis : x y z
#
# Youngs Moduli (GPa) = 86.97505 36.84845 40.13837
#
# Poissons Ratio (x) = 0.25168 -0.06351
# Poissons Ratio (y) = 0.59405 0.59590
# Poissons Ratio (z) = -0.13763 0.54706
#
# Static dielectric constant tensor:
#      x y z
#    x 1.777880 0.000000 0.000000 
#    y 0.000000 1.851550 0.000000 
#    z 0.000000 0.000000 1.693500 
# 
# From -- ./inp_files/4927.got.cif
#   From: 2010.05.17/outbox.cif.g08.bks.cpg/sg25_3_cif.got.tgz:4927.got - 2010.06.04 01:04:00.
