data_PCOD9337812
_publ_section_title
;
Structure prediction by ZEFSAII (Michael W. Deem and Ramdas Pophale) SiO2 
 PCOD9337812
Probable space group: P M M 2
;
_chemical_formula_sum "Si O2"
_cell_formula_units_Z 18
_cell_length_a 7.296031
_cell_length_b 12.890870
_cell_length_c 7.039212
_cell_angle_alpha 90.000000
_cell_angle_beta 90.000000
_cell_angle_gamma 90.000000
_cell_volume 662.053284
_symmetry_space_group_name_H-M "P M M 2"
_symmetry_group_IT_number 25
_symmetry_cell_setting 'orthorhombic'
loop_
_space_group_symop_operation_xyz
x,y,z
-x,-y,z
-x,y,z
x,-y,z
loop_
_atom_site_type_symbol
_atom_site_label
_atom_site_fract_x
_atom_site_fract_y
_atom_site_fract_z
Si Si1 0.715521 0.158104 0.933360
Si Si2 0.000000 0.000000 0.096961
Si Si3 0.781162 0.887692 0.496441
Si Si4 0.292286 0.650828 0.429965
Si Si5 0.000000 0.500000 0.609158
Si Si6 0.280649 0.609879 0.989635
O O1 0.500000 0.155660 0.984963
O O2 0.741120 0.114933 0.721544
O O3 0.840744 0.090731 0.069955
O O4 0.779125 0.277647 0.922008
O O5 0.717578 0.775955 0.425435
O O6 0.000000 0.891676 0.467383
O O7 0.710286 0.000000 0.428481
O O8 0.500000 0.623876 0.479794
O O9 0.251558 0.613833 0.216430
O O10 0.157578 0.592169 0.569207
O O11 0.500000 0.606299 0.957329
O O12 0.196536 0.500000 0.921912
#
# Coordination Sequence:
#
# PCOD9337812 Si02
#       6
#     4   1   4   4   1   4
#     4  11  22  41  68  92 127 170 207 260 320 369
#     4  12  22  40  62  96 128 164 218 252 312 386
#     4  11  22  43  65  96 130 165 213 264 311 380
#     4  11  23  42  68  94 128 170 211 260 319 375
#     4  12  22  40  66  96 128 168 214 256 320 378
#     4   9  20  42  66  93 126 164 211 258 310 378
#
# _framework density 27.188144000000001
#
# number of rings (size 3 to 8) (size 9 to 14) (size 15 to 20)
#    0.000    1.333    4.444    1.333    0.000    2.222 
#    4.000    0.000    0.000    0.000    0.000    0.000 
#    0.000    0.000    0.000    0.000    0.000    0.000 
#
# Total GULP energy -100452.667122 kJ/mol
# GULP energy per Si atom -5580.703729 kJ/mol
# Density = 2.712626 g / cm^3
# Si number density = 27.188144 Si / 1000 Ang^3
#
#
#
# Elastic Constant Matrix: (Units=GPa)
#
#
# Indices 1 2 3 4 5 6 
#
# 1 170.4334 46.8640 -4.7418 0.0000 0.0000 0.0000
# 2 46.8640 328.0931 50.1289 0.0000 0.0000 0.0000
# 3 -4.7418 50.1289 86.4551 0.0000 0.0000 0.0000
# 4 0.0000 0.0000 0.0000 127.6771 0.0000 0.0000
# 5 0.0000 0.0000 0.0000 0.0000 -8.6384 0.0000
# 6 0.0000 0.0000 0.0000 0.0000 0.0000 35.5962
#
#
#
# Elastic Compliance Matrix: (Units=1/GPa)
#
#
# Indices 1 2 3 4 5 6 
#
# 1 0.006175 -0.001025 0.000933 0.000000 0.000000 0.000000
# 2 -0.001025 0.003514 -0.002094 0.000000 0.000000 0.000000
# 3 0.000933 -0.002094 0.012832 0.000000 0.000000 0.000000
# 4 0.000000 0.000000 0.000000 0.007832 0.000000 0.000000
# 5 0.000000 0.000000 0.000000 0.000000 -0.115762 0.000000
# 6 0.000000 0.000000 0.000000 0.000000 0.000000 0.028093
#
#
# Mechanical properties :
#
#
# Convention : Reuss Voigt Hill
#
# Bulk Modulus (GPa) = 55.09664 85.49819 70.29742
# Shear Modulus (GPa) = -106.62151 63.77568 -21.42292
#
# Velocity S-wave (km/s) = -6.26908 4.84851 -2.81009
# Velocity P-wave (km/s) = 5.66505 7.92838 3.92215
#
# Compressibility (1/GPa) = 0.01814993
#
# Stress axis : x y z
#
# Youngs Moduli (GPa) = 161.94163 284.56248 77.93083
#
# Poissons Ratio (x) = 0.29155 -0.07269
# Poissons Ratio (y) = 0.16592 0.16317
# Poissons Ratio (z) = -0.15105 0.59582
#
# Static dielectric constant tensor:
#      x y z
#    x 2.013990 0.000000 0.000000 
#    y 0.000000 -2.776070 0.000000 
#    z 0.000000 0.000000 2.228480 
# 
# From -- ./inp_files/1696.got.cif
#   From: 2010.05.17/outbox.cif.g08.bks.cpg/sg25_1_cif.got.tgz:1696.got - 2010.06.04 01:04:00.
