data_PCOD9337778
_publ_section_title
;
Structure prediction by ZEFSAII (Michael W. Deem and Ramdas Pophale) SiO2 
 PCOD9337778
Probable space group: P M M 2
;
_chemical_formula_sum "Si O2"
_cell_formula_units_Z 24
_cell_length_a 8.803040
_cell_length_b 11.895386
_cell_length_c 12.975105
_cell_angle_alpha 90.000000
_cell_angle_beta 90.000000
_cell_angle_gamma 90.000000
_cell_volume 1358.695370
_symmetry_space_group_name_H-M "P M M 2"
_symmetry_group_IT_number 25
_symmetry_cell_setting 'orthorhombic'
loop_
_space_group_symop_operation_xyz
x,y,z
-x,-y,z
-x,y,z
x,-y,z
loop_
_atom_site_type_symbol
_atom_site_label
_atom_site_fract_x
_atom_site_fract_y
_atom_site_fract_z
Si Si1 0.318842 0.234449 0.018700
Si Si2 0.818693 0.631601 0.207198
Si Si3 0.317372 0.234840 0.634216
Si Si4 0.817865 0.000000 0.703356
Si Si5 0.820706 0.634087 0.826582
Si Si6 0.182143 0.000000 0.947916
Si Si7 0.681973 0.369372 0.429988
O O1 0.500000 0.229014 0.016395
O O2 0.261777 0.289468 0.124558
O O3 0.258374 0.312103 0.925776
O O4 0.249697 0.111456 0.999197
O O5 0.779872 0.500000 0.187205
O O6 0.765139 0.657130 0.323222
O O7 0.000000 0.642984 0.198355
O O8 0.500000 0.231493 0.641032
O O9 0.250261 0.111443 0.652233
O O10 0.252561 0.312912 0.724932
O O11 0.275357 0.289152 0.524391
O O12 0.779598 0.000000 0.825633
O O13 0.000000 0.000000 0.694832
O O14 0.804227 0.500000 0.826987
O O15 0.000000 0.662057 0.829378
O O16 0.000000 0.000000 0.956552
O O17 0.500000 0.360993 0.414227
O O18 0.715411 0.500000 0.456644
#
# Coordination Sequence:
#
# PCOD9337778 Si02
#       7
#     4   4   4   2   4   2   4
#     4  12  24  38  60  87 116 151 195 242 291 347
#     4  10  21  38  61  88 119 156 196 239 290 347
#     4  11  22  37  60  87 117 152 195 243 291 344
#     4  11  23  39  60  83 115 158 198 240 292 347
#     4  11  23  37  55  83 119 154 190 236 289 347
#     4  11  23  41  62  83 115 156 196 240 292 347
#     4   9  19  37  60  87 119 153 191 239 294 348
#
# _framework density 17.664003999999998
#
# number of rings (size 3 to 8) (size 9 to 14) (size 15 to 20)
#    0.000    1.333    1.667    4.500    0.000    7.000 
#    0.000    2.500    0.000    3.000    0.000    0.000 
#    0.000    0.000    0.000    0.000    0.000    0.000 
#
# Total GULP energy -134182.579329 kJ/mol
# GULP energy per Si atom -5590.940805 kJ/mol
# Density = 1.762380 g / cm^3
# Si number density = 17.664004 Si / 1000 Ang^3
#
#
#
# Elastic Constant Matrix: (Units=GPa)
#
#
# Indices 1 2 3 4 5 6 
#
# 1 99.6173 80.3199 76.8931 0.0000 0.0000 0.0000
# 2 80.3199 130.7334 102.2624 0.0000 0.0000 0.0000
# 3 76.8931 102.2624 147.0301 0.0000 0.0000 0.0000
# 4 0.0000 0.0000 0.0000 -34.3050 0.0000 0.0000
# 5 0.0000 0.0000 0.0000 0.0000 -38.9280 0.0000
# 6 0.0000 0.0000 0.0000 0.0000 0.0000 1110.4691
#
#
#
# Elastic Compliance Matrix: (Units=1/GPa)
#
#
# Indices 1 2 3 4 5 6 
#
# 1 0.021133 -0.009515 -0.004434 0.000000 0.000000 0.000000
# 2 -0.009515 0.021061 -0.009672 0.000000 0.000000 0.000000
# 3 -0.004434 -0.009672 0.015847 0.000000 0.000000 0.000000
# 4 0.000000 0.000000 0.000000 -0.029150 0.000000 0.000000
# 5 0.000000 0.000000 0.000000 0.000000 -0.025688 0.000000
# 6 0.000000 0.000000 0.000000 0.000000 0.000000 0.000901
#
#
# Mechanical properties :
#
#
# Convention : Reuss Voigt Hill
#
# Bulk Modulus (GPa) = 92.60481 99.59242 96.09861
# Shear Modulus (GPa) = 91.00082 215.30757 153.15420
#
# Velocity S-wave (km/s) = 7.18537 11.05238 9.32161
# Velocity P-wave (km/s) = 11.01721 14.81140 13.05290
#
# Compressibility (1/GPa) = 0.01079858
#
# Stress axis : x y z
#
# Youngs Moduli (GPa) = 47.31933 47.48165 63.10294
#
# Poissons Ratio (x) = 0.45181 0.27979
# Poissons Ratio (y) = 0.45026 0.61032
# Poissons Ratio (z) = 0.20981 0.45924
#
# Static dielectric constant tensor:
#      x y z
#    x 1.596930 0.000000 0.000000 
#    y 0.000000 1.581090 0.000000 
#    z 0.000000 0.000000 1.570760 
# 
# From -- ./inp_files/3954.got.cif
#   From: 2010.05.17/outbox.cif.g08.bks.cpg/sg25_2_cif.got.tgz:3954.got - 2010.06.04 01:04:00.
