data_PCOD9337676
_publ_section_title
;
Structure prediction by ZEFSAII (Michael W. Deem and Ramdas Pophale) SiO2 
 PCOD9337676
Probable space group: P M M 2
;
_chemical_formula_sum "Si O2"
_cell_formula_units_Z 32
_cell_length_a 7.437130
_cell_length_b 9.679372
_cell_length_c 21.677871
_cell_angle_alpha 90.000000
_cell_angle_beta 90.000000
_cell_angle_gamma 90.000000
_cell_volume 1560.519434
_symmetry_space_group_name_H-M "P M M 2"
_symmetry_group_IT_number 25
_symmetry_cell_setting 'orthorhombic'
loop_
_space_group_symop_operation_xyz
x,y,z
-x,-y,z
-x,y,z
x,-y,z
loop_
_atom_site_type_symbol
_atom_site_label
_atom_site_fract_x
_atom_site_fract_y
_atom_site_fract_z
Si Si1 0.720067 0.160176 0.528860
Si Si2 0.280115 0.658693 0.412427
Si Si3 0.711471 0.831899 0.663946
Si Si4 0.719094 0.841436 0.297643
Si Si5 0.283619 0.843420 0.158411
Si Si6 0.786261 0.157540 0.931333
Si Si7 0.283628 0.840780 0.796044
Si Si8 0.213067 0.655189 0.041921
O O1 0.500000 0.160679 0.530168
O O2 0.776919 0.256587 0.472851
O O3 0.783772 0.207922 0.596806
O O4 0.772490 0.000000 0.519355
O O5 0.500000 0.659701 0.412344
O O6 0.222936 0.500000 0.413722
O O7 0.221049 0.737965 0.350720
O O8 0.500000 0.796039 0.662862
O O9 0.783170 0.782243 0.730375
O O10 0.722727 0.000000 0.665502
O O11 0.500000 0.839265 0.297851
O O12 0.776952 0.807348 0.227847
O O13 0.771663 0.000000 0.310915
O O14 0.500000 0.847816 0.160209
O O15 0.233662 0.736262 0.105907
O O16 0.221332 0.000000 0.143931
O O17 0.759847 0.219604 0.862835
O O18 0.000000 0.146180 0.940290
O O19 0.713157 0.000000 0.933196
O O20 0.712625 0.252371 0.985910
O O21 0.500000 0.844455 0.791768
O O22 0.218599 0.000000 0.799313
O O23 0.286825 0.500000 0.044540
O O24 0.000000 0.643591 0.030836
#
# Coordination Sequence:
#
# PCOD9337676 Si02
#       8
#     4   4   4   4   4   4   4   4
#     4   8  12  18  29  44  64  94 130 165 201 241
#     4   9  15  20  28  46  73 105 138 168 200 242
#     4   7  10  17  30  49  71  95 127 166 204 242
#     4   8  14  25  39  55  78 107 137 170 209 253
#     4   9  18  32  50  71  92 115 146 184 225 268
#     4   9  17  29  45  64  85 109 138 175 218 259
#     4   8  13  22  38  60  83 106 135 172 211 252
#     4  10  21  35  49  66  90 120 151 182 218 262
#
# _framework density 20.505993
#
# number of rings (size 3 to 8) (size 9 to 14) (size 15 to 20)
#    0.000    3.500    0.000    3.000    0.000    3.500 
#    0.000    2.500    0.000    0.750    0.000    1.750 
#    0.000    1.000    0.000    7.500    0.000    8.625 
#
# Total GULP energy -178300.163423 kJ/mol
# GULP energy per Si atom -5571.880107 kJ/mol
# Density = 2.045932 g / cm^3
# Si number density = 20.505993 Si / 1000 Ang^3
#
#
#
# Elastic Constant Matrix: (Units=GPa)
#
#
# Indices 1 2 3 4 5 6 
#
# 1 62.6085 5.2458 2.8583 0.0000 0.0000 0.0000
# 2 5.2458 111.6701 124.4656 0.0000 0.0000 0.0000
# 3 2.8583 124.4656 227.7105 0.0000 0.0000 0.0000
# 4 0.0000 0.0000 0.0000 -5.3810 0.0000 0.0000
# 5 0.0000 0.0000 0.0000 0.0000 36.6938 0.0000
# 6 0.0000 0.0000 0.0000 0.0000 0.0000 0.0974
#
#
#
# Elastic Compliance Matrix: (Units=1/GPa)
#
#
# Indices 1 2 3 4 5 6 
#
# 1 0.016061 -0.001356 0.000539 0.000000 0.000000 0.000000
# 2 -0.001356 0.023030 -0.012571 0.000000 0.000000 0.000000
# 3 0.000539 -0.012571 0.011256 0.000000 0.000000 0.000000
# 4 0.000000 0.000000 0.000000 -0.185838 0.000000 0.000000
# 5 0.000000 0.000000 0.000000 0.000000 0.027253 0.000000
# 6 0.000000 0.000000 0.000000 0.000000 0.000000 10.271754
#
#
# Mechanical properties :
#
#
# Convention : Reuss Voigt Hill
#
# Bulk Modulus (GPa) = 42.42212 74.12538 58.27375
# Shear Modulus (GPa) = 0.49029 24.24333 12.36681
#
# Velocity S-wave (km/s) = 0.48950 3.44212 2.45844
# Velocity P-wave (km/s) = 4.58825 7.21278 6.04468
#
# Compressibility (1/GPa) = 0.02357261
#
# Stress axis : x y z
#
# Youngs Moduli (GPa) = 62.26173 43.42094 88.84009
#
# Poissons Ratio (x) = 0.05887 -0.04792
# Poissons Ratio (y) = 0.08441 1.11683
# Poissons Ratio (z) = -0.03359 0.54586
#
# Static dielectric constant tensor:
#      x y z
#    x 1.786640 0.000000 0.000000 
#    y 0.000000 1.686790 0.000000 
#    z 0.000000 0.000000 1.756710 
# 
# From -- ./inp_files/6317.got.cif
#   From: 2010.05.17/outbox.cif.g08.bks.cpg/sg25_4_cif.got.tgz:6317.got - 2010.06.04 01:04:00.
