data_PCOD9337984
_publ_section_title
;
Structure prediction by ZEFSAII (Michael W. Deem and Ramdas Pophale) SiO2 
 PCOD9337984
Probable space group: P M C 21
;
_chemical_formula_sum "Si O2"
_cell_formula_units_Z 32
_cell_length_a 8.795659
_cell_length_b 14.933110
_cell_length_c 14.399554
_cell_angle_alpha 90.000000
_cell_angle_beta 90.000000
_cell_angle_gamma 90.000000
_cell_volume 1891.331644
_symmetry_space_group_name_H-M "P M C 21"
_symmetry_group_IT_number 26
_symmetry_cell_setting 'orthorhombic'
loop_
_space_group_symop_operation_xyz
x,y,z
-x,-y,1/2+z
-x,y,z
x,-y,1/2+z
loop_
_atom_site_type_symbol
_atom_site_label
_atom_site_fract_x
_atom_site_fract_y
_atom_site_fract_z
Si Si1 0.316273 0.516607 0.254360
Si Si2 0.684095 0.644628 0.419208
Si Si3 0.818981 0.361215 0.378222
Si Si4 0.819698 0.009175 0.799700
Si Si5 0.316118 0.476585 0.540449
Si Si6 0.315498 0.848805 0.435066
Si Si7 0.679388 0.918161 0.635249
Si Si8 0.678766 0.175410 0.317753
O O1 0.500000 0.507020 0.258808
O O2 0.273055 0.599167 0.321308
O O3 0.244183 0.428156 0.299078
O O4 0.273081 0.530490 0.147805
O O5 0.500000 0.648077 0.421663
O O6 0.729827 0.573183 0.497961
O O7 0.737415 0.745800 0.431925
O O8 0.755500 0.401590 0.474448
O O9 0.757922 0.262147 0.358129
O O10 0.000000 0.362339 0.378497
O O11 0.766571 0.994670 0.692858
O O12 0.753237 0.918828 0.848113
O O13 0.000000 0.010687 0.805415
O O14 0.747936 0.094140 0.849840
O O15 0.500000 0.470159 0.533294
O O16 0.500000 0.849970 0.432479
O O17 0.268533 0.894340 0.532540
O O18 0.500000 0.940300 0.632999
O O19 0.694491 0.832663 0.705077
O O20 0.500000 0.175870 0.339301
#
# Coordination Sequence:
#
# PCOD9337984 Si02
#       8
#     4   4   4   4   4   4   4   4
#     4   9  18  34  55  77 106 142 183 225 265 314
#     4   8  16  30  51  81 105 131 175 224 265 307
#     4  11  21  32  50  78 110 141 172 219 279 327
#     4  10  20  34  51  76 108 136 167 218 280 328
#     4   9  18  33  54  76 102 142 187 225 260 311
#     4  10  18  33  56  79 106 140 180 223 267 319
#     4   8  18  33  54  78 100 134 178 219 259 309
#     4   9  18  35  55  75  99 132 178 223 259 309
#
# _framework density 16.919297
#
# number of rings (size 3 to 8) (size 9 to 14) (size 15 to 20)
#    0.750    2.000    0.000    3.000    1.750    1.000 
#    0.000    3.750    0.000    6.000    0.000    0.000 
#    0.000    0.000    0.000    0.000    0.000    0.000 
#
# Total GULP energy -178154.265937 kJ/mol
# GULP energy per Si atom -5567.320811 kJ/mol
# Density = 1.688079 g / cm^3
# Si number density = 16.919297 Si / 1000 Ang^3
#
#
#
# Elastic Constant Matrix: (Units=GPa)
#
#
# Indices 1 2 3 4 5 6 
#
# 1 40.2133 12.1838 23.7120 0.0000 0.0000 0.0000
# 2 12.1838 57.9518 25.0062 0.0000 0.0000 0.0000
# 3 23.7120 25.0062 98.5330 0.0000 0.0000 0.0000
# 4 0.0000 0.0000 0.0000 11.2150 0.0000 0.0000
# 5 0.0000 0.0000 0.0000 0.0000 10.2112 0.0000
# 6 0.0000 0.0000 0.0000 0.0000 0.0000 10.0962
#
#
#
# Elastic Compliance Matrix: (Units=1/GPa)
#
#
# Indices 1 2 3 4 5 6 
#
# 1 0.029612 -0.003538 -0.006228 0.000000 0.000000 0.000000
# 2 -0.003538 0.019800 -0.004174 0.000000 0.000000 0.000000
# 3 -0.006228 -0.004174 0.012707 0.000000 0.000000 0.000000
# 4 0.000000 0.000000 0.000000 0.089166 0.000000 0.000000
# 5 0.000000 0.000000 0.000000 0.000000 0.097932 0.000000
# 6 0.000000 0.000000 0.000000 0.000000 0.000000 0.099047
#
#
# Mechanical properties :
#
#
# Convention : Reuss Voigt Hill
#
# Bulk Modulus (GPa) = 29.20615 35.38912 32.29763
# Shear Modulus (GPa) = 12.90132 15.35756 14.12944
#
# Velocity S-wave (km/s) = 2.76437 3.01607 2.89296
# Velocity P-wave (km/s) = 5.24295 5.75245 5.50360
#
# Compressibility (1/GPa) = 0.03423937
#
# Stress axis : x y z
#
# Youngs Moduli (GPa) = 33.77029 50.50380 78.69749
#
# Poissons Ratio (x) = 0.17869 0.49014
# Poissons Ratio (y) = 0.11948 0.32845
# Poissons Ratio (z) = 0.21033 0.21078
#
# Static dielectric constant tensor:
#      x y z
#    x 1.559000 0.000000 0.000000 
#    y 0.000000 1.555790 0.000000 
#    z 0.000000 0.000000 1.574670 
# 
# From -- ./inp_files/4347.got.cif
#   From: 2010.05.17/outbox.cif.g08.bks.cpg/sg26_3_cif.got.tgz:4347.got - 2010.06.04 01:07:29.
