data_PCOD9337428
_publ_section_title
;
Structure prediction by ZEFSAII (Michael W. Deem and Ramdas Pophale) SiO2 
 PCOD9337428
Probable space group: P M M 2
;
_chemical_formula_sum "Si O2"
_cell_formula_units_Z 28
_cell_length_a 7.449417
_cell_length_b 9.437545
_cell_length_c 18.524732
_cell_angle_alpha 90.000000
_cell_angle_beta 90.000000
_cell_angle_gamma 90.000000
_cell_volume 1302.366615
_symmetry_space_group_name_H-M "P M M 2"
_symmetry_group_IT_number 25
_symmetry_cell_setting 'orthorhombic'
loop_
_space_group_symop_operation_xyz
x,y,z
-x,-y,z
-x,y,z
x,-y,z
loop_
_atom_site_type_symbol
_atom_site_label
_atom_site_fract_x
_atom_site_fract_y
_atom_site_fract_z
Si Si1 0.280482 0.662906 0.207980
Si Si2 0.781095 0.663423 0.768417
Si Si3 0.287433 0.840609 0.071240
Si Si4 0.784019 0.338838 0.930632
Si Si5 0.215457 0.160201 0.631777
Si Si6 0.280607 0.163377 0.349737
Si Si7 0.714443 0.339127 0.488457
O O1 0.500000 0.660572 0.207595
O O2 0.221844 0.500000 0.211512
O O3 0.217735 0.740504 0.135187
O O4 0.226204 0.752767 0.277912
O O5 0.729050 0.500000 0.754703
O O6 0.723695 0.701531 0.849794
O O7 0.717811 0.765495 0.704964
O O8 0.000000 0.666147 0.767967
O O9 0.500000 0.851678 0.084367
O O10 0.213353 0.000000 0.072719
O O11 0.265691 0.767097 0.993937
O O12 0.721497 0.500000 0.945801
O O13 0.000000 0.343346 0.928492
O O14 0.253339 0.257288 0.562839
O O15 0.000000 0.152357 0.637956
O O16 0.283292 0.000000 0.622410
O O17 0.500000 0.161868 0.350401
O O18 0.218934 0.247283 0.420787
O O19 0.222536 0.000000 0.349543
O O20 0.500000 0.348666 0.479406
O O21 0.784705 0.500000 0.489897
#
# Coordination Sequence:
#
# PCOD9337428 Si02
#       7
#     4   4   4   4   4   4   4
#     4   9  16  27  45  68  94 126 164 202 238 280
#     4   8  15  30  51  72  94 123 161 202 240 283
#     4  10  20  32  47  71 102 132 163 200 242 287
#     4   9  18  33  53  75  97 124 161 202 243 290
#     4  10  20  33  51  75 100 127 161 200 243 291
#     4   9  16  27  45  69  97 127 159 198 242 285
#     4  10  20  33  50  73 100 130 165 202 240 285
#
# _framework density 21.499320000000001
#
# number of rings (size 3 to 8) (size 9 to 14) (size 15 to 20)
#    0.000    2.714    0.000    3.000    0.000    6.857 
#    0.000    2.143    0.000    1.714    0.000    0.000 
#    0.000    0.000    0.000    0.000    0.000    0.000 
#
# Total GULP energy -156409.653807 kJ/mol
# GULP energy per Si atom -5586.059065 kJ/mol
# Density = 2.145039 g / cm^3
# Si number density = 21.499320 Si / 1000 Ang^3
#
#
#
# Elastic Constant Matrix: (Units=GPa)
#
#
# Indices 1 2 3 4 5 6 
#
# 1 64.2916 7.0413 -0.6771 0.0000 0.0000 0.0000
# 2 7.0413 237.5755 153.4927 0.0000 0.0000 0.0000
# 3 -0.6771 153.4927 200.1520 0.0000 0.0000 0.0000
# 4 0.0000 0.0000 0.0000 66.3345 0.0000 0.0000
# 5 0.0000 0.0000 0.0000 0.0000 23.1618 0.0000
# 6 0.0000 0.0000 0.0000 0.0000 0.0000 5.4393
#
#
#
# Elastic Compliance Matrix: (Units=1/GPa)
#
#
# Indices 1 2 3 4 5 6 
#
# 1 0.015671 -0.000988 0.000811 0.000000 0.000000 0.000000
# 2 -0.000988 0.008405 -0.006449 0.000000 0.000000 0.000000
# 3 0.000811 -0.006449 0.009945 0.000000 0.000000 0.000000
# 4 0.000000 0.000000 0.000000 0.015075 0.000000 0.000000
# 5 0.000000 0.000000 0.000000 0.000000 0.043175 0.000000
# 6 0.000000 0.000000 0.000000 0.000000 0.000000 0.183848
#
#
# Mechanical properties :
#
#
# Convention : Reuss Voigt Hill
#
# Bulk Modulus (GPa) = 48.15173 91.30366 69.72770
# Shear Modulus (GPa) = 16.87516 41.79793 29.33655
#
# Velocity S-wave (km/s) = 2.80467 4.41404 3.69797
# Velocity P-wave (km/s) = 5.73879 8.27881 7.12293
#
# Compressibility (1/GPa) = 0.02076768
#
# Stress axis : x y z
#
# Youngs Moduli (GPa) = 63.81246 118.97583 100.55730
#
# Poissons Ratio (x) = 0.11760 -0.08155
# Poissons Ratio (y) = 0.06307 0.64850
# Poissons Ratio (z) = -0.05175 0.76728
#
# Static dielectric constant tensor:
#      x y z
#    x 1.850400 0.000000 0.000000 
#    y 0.000000 1.742430 0.000000 
#    z 0.000000 0.000000 1.731400 
# 
# From -- ./inp_files/6112.got.cif
#   From: 2010.05.17/outbox.cif.g08.bks.cpg/sg25_4_cif.got.tgz:6112.got - 2010.06.04 01:04:00.
