data_PCOD9337655
_publ_section_title
;
Structure prediction by ZEFSAII (Michael W. Deem and Ramdas Pophale) SiO2 
 PCOD9337655
Probable space group: P M M 2
;
_chemical_formula_sum "Si O2"
_cell_formula_units_Z 20
_cell_length_a 7.836858
_cell_length_b 7.959101
_cell_length_c 15.317926
_cell_angle_alpha 90.000000
_cell_angle_beta 90.000000
_cell_angle_gamma 90.000000
_cell_volume 955.445591
_symmetry_space_group_name_H-M "P M M 2"
_symmetry_group_IT_number 25
_symmetry_cell_setting 'orthorhombic'
loop_
_space_group_symop_operation_xyz
x,y,z
-x,-y,z
-x,y,z
x,-y,z
loop_
_atom_site_type_symbol
_atom_site_label
_atom_site_fract_x
_atom_site_fract_y
_atom_site_fract_z
Si Si1 0.297671 0.000000 0.162530
Si Si2 0.703424 0.000000 0.359158
Si Si3 0.803424 0.297663 0.673348
Si Si4 0.794301 0.691875 0.482282
Si Si5 0.205729 0.316832 0.044867
Si Si6 0.201419 0.801311 0.859580
O O1 0.225122 0.000000 0.260644
O O2 0.249492 0.164823 0.108112
O O3 0.500000 0.000000 0.169919
O O4 0.754281 0.832328 0.411456
O O5 0.500000 0.000000 0.354712
O O6 0.808709 0.500000 0.675403
O O7 0.728086 0.254438 0.578686
O O8 0.723448 0.239199 0.764470
O O9 0.000000 0.233117 0.673203
O O10 0.735712 0.500000 0.462949
O O11 0.000000 0.683112 0.490007
O O12 0.263020 0.500000 0.076279
O O13 0.000000 0.317931 0.038968
O O14 0.272060 0.285389 0.946325
O O15 0.000000 0.751687 0.854400
O O16 0.209476 0.000000 0.874371
#
# Coordination Sequence:
#
# PCOD9337655 Si02
#       6
#     2   2   4   4   4   4
#     4  11  25  43  58  77 108 144 187 233 280 339
#     4  11  25  41  58  79 106 146 187 229 284 339
#     4   8  14  25  44  76 114 145 176 215 261 315
#     4   9  19  36  59  87 115 144 182 229 276 321
#     4  10  20  36  60  87 114 144 181 228 278 324
#     4   9  15  24  45  80 117 147 176 214 263 319
#
# _framework density 20.932641
#
# number of rings (size 3 to 8) (size 9 to 14) (size 15 to 20)
#    0.000    2.600    1.000    2.400    1.400    5.600 
#    0.000    4.000    0.000    2.400    0.000    2.800 
#    0.000    0.000    0.000    0.000    0.000    0.000 
#
# Total GULP energy -111545.097077 kJ/mol
# GULP energy per Si atom -5577.254854 kJ/mol
# Density = 2.088500 g / cm^3
# Si number density = 20.932641 Si / 1000 Ang^3
#
#
#
# Elastic Constant Matrix: (Units=GPa)
#
#
# Indices 1 2 3 4 5 6 
#
# 1 28.7621 12.0786 11.2977 0.0000 0.0000 0.0000
# 2 12.0786 132.4321 114.5592 0.0000 0.0000 0.0000
# 3 11.2977 114.5592 197.0371 0.0000 0.0000 0.0000
# 4 0.0000 0.0000 0.0000 -37.2583 0.0000 0.0000
# 5 0.0000 0.0000 0.0000 0.0000 45.5492 0.0000
# 6 0.0000 0.0000 0.0000 0.0000 0.0000 -29.4040
#
#
#
# Elastic Compliance Matrix: (Units=1/GPa)
#
#
# Indices 1 2 3 4 5 6 
#
# 1 0.036162 -0.003027 -0.000314 0.000000 0.000000 0.000000
# 2 -0.003027 0.015445 -0.008806 0.000000 0.000000 0.000000
# 3 -0.000314 -0.008806 0.010213 0.000000 0.000000 0.000000
# 4 0.000000 0.000000 0.000000 -0.026840 0.000000 0.000000
# 5 0.000000 0.000000 0.000000 0.000000 0.021954 0.000000
# 6 0.000000 0.000000 0.000000 0.000000 0.000000 -0.034009
#
#
# Mechanical properties :
#
#
# Convention : Reuss Voigt Hill
#
# Bulk Modulus (GPa) = 26.64761 70.45580 48.55171
# Shear Modulus (GPa) = 83.71213 10.46375 47.08794
#
# Velocity S-wave (km/s) = 6.33072 2.23822 4.74803
# Velocity P-wave (km/s) = 8.13604 6.35696 7.30089
#
# Compressibility (1/GPa) = 0.03752682
#
# Stress axis : x y z
#
# Youngs Moduli (GPa) = 27.65313 64.74644 97.91260
#
# Poissons Ratio (x) = 0.19599 0.03070
# Poissons Ratio (y) = 0.08371 0.86224
# Poissons Ratio (z) = 0.00867 0.57017
#
# Static dielectric constant tensor:
#      x y z
#    x 1.779940 0.000000 0.000000 
#    y 0.000000 1.732920 0.000000 
#    z 0.000000 0.000000 1.790160 
# 
# From -- ./inp_files/5155.got.cif
#   From: 2010.05.17/outbox.cif.g08.bks.cpg/sg25_3_cif.got.tgz:5155.got - 2010.06.04 01:04:00.
