data_PCOD9337502
_publ_section_title
;
Structure prediction by ZEFSAII (Michael W. Deem and Ramdas Pophale) SiO2 
 PCOD9337502
Probable space group: P M M 2
;
_chemical_formula_sum "Si O2"
_cell_formula_units_Z 28
_cell_length_a 9.414526
_cell_length_b 7.472293
_cell_length_c 18.583341
_cell_angle_alpha 90.000000
_cell_angle_beta 90.000000
_cell_angle_gamma 90.000000
_cell_volume 1307.302670
_symmetry_space_group_name_H-M "P M M 2"
_symmetry_group_IT_number 25
_symmetry_cell_setting 'orthorhombic'
loop_
_space_group_symop_operation_xyz
x,y,z
-x,-y,z
-x,y,z
x,-y,z
loop_
_atom_site_type_symbol
_atom_site_label
_atom_site_fract_x
_atom_site_fract_y
_atom_site_fract_z
Si Si1 0.663522 0.280916 0.238130
Si Si2 0.336012 0.281931 0.958326
Si Si3 0.335963 0.718352 0.796707
Si Si4 0.339244 0.212314 0.517360
Si Si5 0.160322 0.285791 0.660236
Si Si6 0.836983 0.281313 0.097044
Si Si7 0.160282 0.288474 0.375450
O O1 0.500000 0.223299 0.239247
O O2 0.662119 0.500000 0.238739
O O3 0.744431 0.226053 0.165695
O O4 0.748938 0.217739 0.308356
O O5 0.500000 0.229085 0.970724
O O6 0.334210 0.500000 0.958607
O O7 0.294611 0.225855 0.877537
O O8 0.235530 0.222134 0.022727
O O9 0.500000 0.771015 0.784220
O O10 0.334045 0.500000 0.796164
O O11 0.235507 0.782107 0.732744
O O12 0.500000 0.286384 0.516240
O O13 0.258124 0.253420 0.591175
O O14 0.246003 0.270220 0.449381
O O15 0.349823 0.000000 0.512350
O O16 0.150720 0.500000 0.667778
O O17 0.000000 0.217069 0.650359
O O18 0.836750 0.500000 0.096657
O O19 0.000000 0.224160 0.103086
O O20 0.146856 0.500000 0.362106
O O21 0.000000 0.215175 0.380353
#
# Coordination Sequence:
#
# PCOD9337502 Si02
#       7
#     4   4   4   4   4   4   4
#     4   9  16  26  41  61  87 121 159 196 234 279
#     4   8  13  21  33  51  79 117 157 192 230 278
#     4   8  14  25  41  61  87 121 159 197 236 280
#     4  11  24  39  54  73  97 126 161 199 240 289
#     4  10  20  33  51  75 100 127 161 200 243 291
#     4   9  15  21  31  51  82 119 156 194 236 279
#     4  10  20  34  53  76 100 126 159 199 243 291
#
# _framework density 21.418147000000001
#
# number of rings (size 3 to 8) (size 9 to 14) (size 15 to 20)
#    0.000    2.714    0.000    3.429    0.000    8.571 
#    0.000    2.857    0.000    0.000    0.000    0.000 
#    0.000    1.143    0.000   10.000    0.000   14.143 
#
# Total GULP energy -156393.951325 kJ/mol
# GULP energy per Si atom -5585.498262 kJ/mol
# Density = 2.136940 g / cm^3
# Si number density = 21.418147 Si / 1000 Ang^3
#
#
#
# Elastic Constant Matrix: (Units=GPa)
#
#
# Indices 1 2 3 4 5 6 
#
# 1 225.9532 5.8405 150.4063 0.0000 0.0000 0.0000
# 2 5.8405 60.9683 -2.1967 0.0000 0.0000 0.0000
# 3 150.4063 -2.1967 210.1309 0.0000 0.0000 0.0000
# 4 0.0000 0.0000 0.0000 -47.7253 0.0000 0.0000
# 5 0.0000 0.0000 0.0000 0.0000 -0.7549 0.0000
# 6 0.0000 0.0000 0.0000 0.0000 0.0000 -9.2308
#
#
#
# Elastic Compliance Matrix: (Units=1/GPa)
#
#
# Indices 1 2 3 4 5 6 
#
# 1 0.008518 -0.001036 -0.006108 0.000000 0.000000 0.000000
# 2 -0.001036 0.016534 0.000914 0.000000 0.000000 0.000000
# 3 -0.006108 0.000914 0.009140 0.000000 0.000000 0.000000
# 4 0.000000 0.000000 0.000000 -0.020953 0.000000 0.000000
# 5 0.000000 0.000000 0.000000 0.000000 -1.324736 0.000000
# 6 0.000000 0.000000 0.000000 0.000000 0.000000 -0.108333
#
#
# Mechanical properties :
#
#
# Convention : Reuss Voigt Hill
#
# Bulk Modulus (GPa) = 46.01162 89.46137 67.73649
# Shear Modulus (GPa) = -3.57111 11.32462 3.87676
#
# Velocity S-wave (km/s) = -1.29265 2.30193 1.34683
# Velocity P-wave (km/s) = 4.39332 6.99463 5.84064
#
# Compressibility (1/GPa) = 0.02173364
#
# Stress axis : x y z
#
# Youngs Moduli (GPa) = 117.39461 60.48078 109.40386
#
# Poissons Ratio (x) = 0.06266 0.66824
# Poissons Ratio (y) = 0.12163 -0.10004
# Poissons Ratio (z) = 0.71705 -0.05531
#
# Static dielectric constant tensor:
#      x y z
#    x 1.747460 0.000000 0.000000 
#    y 0.000000 1.817200 0.000000 
#    z 0.000000 0.000000 1.734320 
# 
# From -- ./inp_files/6099.got.cif
#   From: 2010.05.17/outbox.cif.g08.bks.cpg/sg25_4_cif.got.tgz:6099.got - 2010.06.04 01:04:00.
