data_PCOD9337656
_publ_section_title
;
Structure prediction by ZEFSAII (Michael W. Deem and Ramdas Pophale) SiO2 
 PCOD9337656
Probable space group: P M M 2
;
_chemical_formula_sum "Si O2"
_cell_formula_units_Z 26
_cell_length_a 15.858899
_cell_length_b 7.899751
_cell_length_c 11.218017
_cell_angle_alpha 90.000000
_cell_angle_beta 90.000000
_cell_angle_gamma 90.000000
_cell_volume 1405.408350
_symmetry_space_group_name_H-M "P M M 2"
_symmetry_group_IT_number 25
_symmetry_cell_setting 'orthorhombic'
loop_
_space_group_symop_operation_xyz
x,y,z
-x,-y,z
-x,y,z
x,-y,z
loop_
_atom_site_type_symbol
_atom_site_label
_atom_site_fract_x
_atom_site_fract_y
_atom_site_fract_z
Si Si1 0.750000 0.188508 0.966760
Si Si2 0.404386 0.000000 0.381572
Si Si3 0.750000 0.000000 0.199978
Si Si4 0.648497 0.300611 0.554725
Si Si5 0.592789 0.701404 0.819970
Si Si6 0.095614 0.000000 0.381572
Si Si7 0.092789 0.298597 0.819970
Si Si8 0.148497 0.699389 0.554725
O O1 0.664938 0.267141 0.916489
O O2 0.835062 0.267142 0.916489
O O3 0.750001 0.000000 0.913737
O O4 0.750000 0.159020 0.108473
O O5 0.332840 0.000000 0.280577
O O6 0.389949 0.832084 0.461912
O O7 0.500000 0.000000 0.335469
O O8 0.832840 0.000000 0.280577
O O9 0.624513 0.500000 0.536827
O O10 0.621423 0.244865 0.687756
O O11 0.750000 0.292195 0.546989
O O12 0.500000 0.771565 0.849226
O O13 0.586166 0.500000 0.811136
O O14 0.110051 0.832084 0.461912
O O15 0.000000 0.000000 0.335469
O O16 0.086166 0.500000 0.811135
O O17 0.121423 0.244864 0.687756
O O18 0.000000 0.228436 0.849226
O O19 0.124513 0.500000 0.536827
#
# Coordination Sequence:
#
# PCOD9337656 Si02
#       8
#     4   2   2   4   4   2   4   4
#     4  10  23  38  59  80 113 160 192 248 288 338
#     4  12  24  41  65  86 119 161 201 250 300 351
#     4  10  26  44  56  82 116 154 214 252 278 344
#     4  10  20  37  64  94 126 157 189 239 302 367
#     4  10  20  36  60  92 124 151 187 236 296 364
#     4  12  24  41  65  86 119 161 201 250 300 351
#     4  10  20  36  60  92 124 151 187 236 296 364
#     4  10  20  37  64  94 126 157 189 239 302 367
#
# _framework density 18.499960999999999
#
# number of rings (size 3 to 8) (size 9 to 14) (size 15 to 20)
#    0.462    1.231    3.077    1.385    2.154    3.692 
#    0.000    3.077    0.000    0.000    0.000    0.000 
#    0.000    0.000    0.000    0.000    0.000    0.000 
#
# Total GULP energy -144949.025054 kJ/mol
# GULP energy per Si atom -5574.962502 kJ/mol
# Density = 1.845785 g / cm^3
# Si number density = 18.499961 Si / 1000 Ang^3
#
#
#
# Elastic Constant Matrix: (Units=GPa)
#
#
# Indices 1 2 3 4 5 6 
#
# 1 166.8717 31.5357 77.0011 0.0000 0.0000 0.0000
# 2 31.5357 55.0469 33.2035 0.0000 0.0000 0.0000
# 3 77.0011 33.2035 129.8993 0.0000 0.0000 0.0000
# 4 0.0000 0.0000 0.0000 359.8196 0.0000 0.0000
# 5 0.0000 0.0000 0.0000 0.0000 2.1127 0.0000
# 6 0.0000 0.0000 0.0000 0.0000 0.0000 14.2859
#
#
#
# Elastic Compliance Matrix: (Units=1/GPa)
#
#
# Indices 1 2 3 4 5 6 
#
# 1 0.008460 -0.002154 -0.004464 0.000000 0.000000 0.000000
# 2 -0.002154 0.022026 -0.004353 0.000000 0.000000 0.000000
# 3 -0.004464 -0.004353 0.011457 0.000000 0.000000 0.000000
# 4 0.000000 0.000000 0.000000 0.002779 0.000000 0.000000
# 5 0.000000 0.000000 0.000000 0.000000 0.473336 0.000000
# 6 0.000000 0.000000 0.000000 0.000000 0.000000 0.069999
#
#
# Mechanical properties :
#
#
# Convention : Reuss Voigt Hill
#
# Bulk Modulus (GPa) = 49.99886 70.58872 60.29379
# Shear Modulus (GPa) = 8.10811 89.24882 48.67846
#
# Velocity S-wave (km/s) = 2.09578 6.95323 5.13516
# Velocity P-wave (km/s) = 5.73947 10.13421 8.23540
#
# Compressibility (1/GPa) = 0.02000045
#
# Stress axis : x y z
#
# Youngs Moduli (GPa) = 118.20954 45.40073 87.28089
#
# Poissons Ratio (x) = 0.09778 0.38963
# Poissons Ratio (y) = 0.25459 0.37997
# Poissons Ratio (z) = 0.52770 0.19765
#
# Static dielectric constant tensor:
#      x y z
#    x 1.584670 0.000000 0.000000 
#    y 0.000000 1.064420 0.000000 
#    z 0.000000 0.000000 1.602180 
# 
# From -- ./inp_files/4848.got.cif
#   From: 2010.05.17/outbox.cif.g08.bks.cpg/sg25_3_cif.got.tgz:4848.got - 2010.06.04 01:04:00.
