data_PCOD9337480
_publ_section_title
;
Structure prediction by ZEFSAII (Michael W. Deem and Ramdas Pophale) SiO2 
 PCOD9337480
Probable space group: P M M 2
;
_chemical_formula_sum "Si O2"
_cell_formula_units_Z 28
_cell_length_a 7.466192
_cell_length_b 9.364496
_cell_length_c 19.131767
_cell_angle_alpha 90.000000
_cell_angle_beta 90.000000
_cell_angle_gamma 90.000000
_cell_volume 1337.638147
_symmetry_space_group_name_H-M "P M M 2"
_symmetry_group_IT_number 25
_symmetry_cell_setting 'orthorhombic'
loop_
_space_group_symop_operation_xyz
x,y,z
-x,-y,z
-x,y,z
x,-y,z
loop_
_atom_site_type_symbol
_atom_site_label
_atom_site_fract_x
_atom_site_fract_y
_atom_site_fract_z
Si Si1 0.786645 0.336875 0.857010
Si Si2 0.710956 0.326144 0.554422
Si Si3 0.285395 0.338182 0.129427
Si Si4 0.719109 0.835891 0.264771
Si Si5 0.280854 0.665865 0.401756
Si Si6 0.284598 0.664531 0.704102
Si Si7 0.785281 0.838623 0.989466
O O1 0.714714 0.500000 0.858941
O O2 0.757480 0.272125 0.779744
O O3 0.000000 0.347368 0.865984
O O4 0.715921 0.242730 0.920692
O O5 0.500000 0.289845 0.553289
O O6 0.722890 0.500000 0.555907
O O7 0.782953 0.283578 0.478483
O O8 0.782286 0.275007 0.629739
O O9 0.500000 0.346657 0.136629
O O10 0.216138 0.500000 0.125837
O O11 0.219841 0.253216 0.197435
O O12 0.249443 0.252157 0.058803
O O13 0.500000 0.834820 0.264584
O O14 0.776044 0.760963 0.336680
O O15 0.775603 0.000000 0.260644
O O16 0.500000 0.667321 0.403354
O O17 0.229314 0.500000 0.391950
O O18 0.500000 0.660141 0.698987
O O19 0.219186 0.500000 0.708007
O O20 0.000000 0.847666 0.982195
O O21 0.716029 0.000000 0.995790
#
# Coordination Sequence:
#
# PCOD9337480 Si02
#       7
#     4   4   4   4   4   4   4
#     4   9  17  29  45  65  88 113 144 184 226 267
#     4   7  10  17  31  53  79 106 139 180 220 256
#     4  10  20  33  50  72  96 121 151 189 232 275
#     4   9  16  25  38  59  89 121 149 180 221 267
#     4   8  12  19  33  53  78 109 145 182 218 258
#     4   8  13  22  38  61  87 113 143 180 221 264
#     4  10  21  36  52  69  91 121 155 189 228 276
#
# _framework density 20.932416
#
# number of rings (size 3 to 8) (size 9 to 14) (size 15 to 20)
#    0.000    3.286    0.000    3.000    0.000    4.000 
#    0.000    1.429    0.000    0.857    0.000    3.000 
#    0.000    3.429    0.000    0.000    0.000    0.000 
#
# Total GULP energy -156066.460139 kJ/mol
# GULP energy per Si atom -5573.802148 kJ/mol
# Density = 2.088477 g / cm^3
# Si number density = 20.932416 Si / 1000 Ang^3
#
#
#
# Elastic Constant Matrix: (Units=GPa)
#
#
# Indices 1 2 3 4 5 6 
#
# 1 60.8603 5.9933 3.4794 0.0000 0.0000 0.0000
# 2 5.9933 121.6994 113.4734 0.0000 0.0000 0.0000
# 3 3.4794 113.4734 268.7035 0.0000 0.0000 0.0000
# 4 0.0000 0.0000 0.0000 -28.3889 0.0000 0.0000
# 5 0.0000 0.0000 0.0000 0.0000 41.6382 0.0000
# 6 0.0000 0.0000 0.0000 0.0000 0.0000 2.0870
#
#
#
# Elastic Compliance Matrix: (Units=1/GPa)
#
#
# Indices 1 2 3 4 5 6 
#
# 1 0.016519 -0.001013 0.000214 0.000000 0.000000 0.000000
# 2 -0.001013 0.013616 -0.005737 0.000000 0.000000 0.000000
# 3 0.000214 -0.005737 0.006141 0.000000 0.000000 0.000000
# 4 0.000000 0.000000 0.000000 -0.035225 0.000000 0.000000
# 5 0.000000 0.000000 0.000000 0.000000 0.024016 0.000000
# 6 0.000000 0.000000 0.000000 0.000000 0.000000 0.479165
#
#
# Mechanical properties :
#
#
# Convention : Reuss Voigt Hill
#
# Bulk Modulus (GPa) = 43.09568 77.46172 60.27870
# Shear Modulus (GPa) = 9.52310 24.95506 17.23908
#
# Velocity S-wave (km/s) = 2.13526 3.45653 2.87289
# Velocity P-wave (km/s) = 5.16835 7.28122 6.31379
#
# Compressibility (1/GPa) = 0.02320418
#
# Stress axis : x y z
#
# Youngs Moduli (GPa) = 60.53785 73.44306 162.82668
#
# Poissons Ratio (x) = 0.07439 -0.03482
# Poissons Ratio (y) = 0.06132 0.93412
# Poissons Ratio (z) = -0.01295 0.42134
#
# Static dielectric constant tensor:
#      x y z
#    x 1.807220 0.000000 0.000000 
#    y 0.000000 1.715880 0.000000 
#    z 0.000000 0.000000 1.774860 
# 
# From -- ./inp_files/6243.got.cif
#   From: 2010.05.17/outbox.cif.g08.bks.cpg/sg25_4_cif.got.tgz:6243.got - 2010.06.04 01:04:00.
