data_PCOD9337869
_publ_section_title
;
Structure prediction by ZEFSAII (Michael W. Deem and Ramdas Pophale) SiO2 
 PCOD9337869
Probable space group: P M M 2
;
_chemical_formula_sum "Si O2"
_cell_formula_units_Z 32
_cell_length_a 9.000000
_cell_length_b 15.000000
_cell_length_c 12.000000
_cell_angle_alpha 90.000000
_cell_angle_beta 90.000000
_cell_angle_gamma 90.000000
_cell_volume 1620.000000
_symmetry_space_group_name_H-M "P M M 2"
_symmetry_group_IT_number 25
_symmetry_cell_setting 'orthorhombic'
loop_
_space_group_symop_operation_xyz
x,y,z
-x,-y,z
-x,y,z
x,-y,z
loop_
_atom_site_type_symbol
_atom_site_label
_atom_site_fract_x
_atom_site_fract_y
_atom_site_fract_z
Si Si1 0.321297 0.211063 0.750000
Si Si2 0.675933 0.233685 0.352907
Si Si3 0.173794 0.900540 0.926603
Si Si4 0.827524 0.102233 0.192644
Si Si5 0.678050 0.598968 0.779488
Si Si6 0.167234 0.392985 0.011342
Si Si7 0.318698 0.099655 0.543430
Si Si8 0.179008 0.602491 0.257652
O O1 0.500000 0.211965 0.752024
O O2 0.260699 0.177897 0.867301
O O3 0.271974 0.311175 0.717494
O O4 0.272141 0.136507 0.662791
O O5 0.500000 0.245915 0.359910
O O6 0.720716 0.173071 0.248104
O O7 0.728739 0.173162 0.455132
O O8 0.753402 0.328787 0.343858
O O9 0.000000 0.895277 0.896712
O O10 0.229281 0.000000 0.895268
O O11 0.183185 0.893619 0.059516
O O12 0.000000 0.120938 0.222664
O O13 0.793194 0.000000 0.226358
O O14 0.500000 0.594685 0.772151
O O15 0.736387 0.500000 0.748678
O O16 0.726410 0.618074 0.906786
O O17 0.152597 0.500000 0.023833
O O18 0.221668 0.364189 0.132872
O O19 0.000000 0.357044 0.989891
O O20 0.500000 0.097413 0.540538
O O21 0.265389 0.000000 0.520668
O O22 0.226960 0.500000 0.273498
O O23 0.000000 0.604194 0.260187
#
# Coordination Sequence:
#
# PCOD9337869 Si02
#       8
#     4   4   4   4   4   4   4   4
#     4  10  20  34  55  79 103 138 184 221 264 322
#     4  11  22  34  54  82 109 139 183 231 275 323
#     4   9  19  35  53  76 107 138 169 214 273 329
#     4   9  19  36  55  76 107 145 179 216 273 340
#     4   9  18  31  47  73 109 140 170 214 262 306
#     4   8  15  29  49  71  97 136 179 210 245 302
#     4   9  19  37  57  77 105 140 177 223 276 326
#     4   9  19  36  55  76 107 147 186 221 265 324
#
# _framework density 19.753086
#
# number of rings (size 3 to 8) (size 9 to 14) (size 15 to 20)
#    0.000    2.750    0.000    2.625    1.750    3.250 
#    0.000    4.375    0.000    5.250    0.000    1.750 
#    0.000    0.000    0.000    0.000    0.000    0.000 
#
# Total GULP energy -178292.049951 kJ/mol
# GULP energy per Si atom -5571.626561 kJ/mol
# Density = 1.970813 g / cm^3
# Si number density = 19.753086 Si / 1000 Ang^3
#
#
#
# Elastic Constant Matrix: (Units=GPa)
#
#
# Indices 1 2 3 4 5 6 
#
# 1 -3.7033 5.5496 -0.2337 0.0000 0.0000 0.0000
# 2 5.5496 56.0147 11.1951 0.0000 0.0000 0.0000
# 3 -0.2337 11.1951 17.5245 0.0000 0.0000 0.0000
# 4 0.0000 0.0000 0.0000 23.7742 0.0000 0.0000
# 5 0.0000 0.0000 0.0000 0.0000 28.9581 0.0000
# 6 0.0000 0.0000 0.0000 0.0000 0.0000 26.7874
#
#
#
# Elastic Compliance Matrix: (Units=1/GPa)
#
#
# Indices 1 2 3 4 5 6 
#
# 1 -0.228778 0.026682 -0.020096 0.000000 0.000000 0.000000
# 2 0.026682 0.017353 -0.010730 0.000000 0.000000 0.000000
# 3 -0.020096 -0.010730 0.063649 0.000000 0.000000 0.000000
# 4 0.000000 0.000000 0.000000 0.042062 0.000000 0.000000
# 5 0.000000 0.000000 0.000000 0.000000 0.034533 0.000000
# 6 0.000000 0.000000 0.000000 0.000000 0.000000 0.037331
#
#
# Mechanical properties :
#
#
# Convention : Reuss Voigt Hill
#
# Bulk Modulus (GPa) = -6.40764 11.42865 2.51050
# Shear Modulus (GPa) = -64.44722 19.45894 -22.49414
#
# Velocity S-wave (km/s) = -5.71815 3.14205 -3.37822
# Velocity P-wave (km/s) = 6.84450 4.35449 3.73401
#
# Compressibility (1/GPa) = -0.15606362
#
# Stress axis : x y z
#
# Youngs Moduli (GPa) = -4.37104 57.62561 15.71107
#
# Poissons Ratio (x) = -1.53759 0.31574
# Poissons Ratio (y) = 0.11663 0.16858
# Poissons Ratio (z) = -0.08784 0.61832
#
# Static dielectric constant tensor:
#      x y z
#    x 1.671760 0.000000 0.000000 
#    y 0.000000 1.742670 0.000000 
#    z 0.000000 0.000000 1.726500 
# 
# From -- ./inp_files/4265.got.cif
#   From: 2010.05.17/outbox.ucp.g08.bks.cvg/sg25_3_cif.got.tgz:4265.got - 2010.06.11 15:23:09.
