data_PCOD9337867
_publ_section_title
;
Structure prediction by ZEFSAII (Michael W. Deem and Ramdas Pophale) SiO2 
 PCOD9337867
Probable space group: P M M 2
;
_chemical_formula_sum "Si O2"
_cell_formula_units_Z 28
_cell_length_a 9.000000
_cell_length_b 9.000000
_cell_length_c 18.000000
_cell_angle_alpha 90.000000
_cell_angle_beta 90.000000
_cell_angle_gamma 90.000000
_cell_volume 1458.000000
_symmetry_space_group_name_H-M "P M M 2"
_symmetry_group_IT_number 25
_symmetry_cell_setting 'orthorhombic'
loop_
_space_group_symop_operation_xyz
x,y,z
-x,-y,z
-x,y,z
x,-y,z
loop_
_atom_site_type_symbol
_atom_site_label
_atom_site_fract_x
_atom_site_fract_y
_atom_site_fract_z
Si Si1 0.171999 0.819707 0.957790
Si Si2 0.321735 0.834592 0.524363
Si Si3 0.672325 0.169549 0.101900
Si Si4 0.318515 0.666979 0.666422
Si Si5 0.328636 0.177810 0.811682
Si Si6 0.173152 0.670618 0.396964
Si Si7 0.163113 0.677079 0.224335
O O1 0.244299 0.762719 0.882805
O O2 0.000000 0.790510 0.957965
O O3 0.194797 0.000000 0.958522
O O4 0.244829 0.760449 0.032205
O O5 0.500000 0.833420 0.525227
O O6 0.265867 0.723822 0.587350
O O7 0.266264 0.781131 0.445758
O O8 0.271362 0.000000 0.542159
O O9 0.500000 0.166709 0.084514
O O10 0.708736 0.255594 0.175798
O O11 0.724376 0.000000 0.112164
O O12 0.500000 0.673501 0.664674
O O13 0.273837 0.500000 0.680298
O O14 0.267111 0.767927 0.733750
O O15 0.500000 0.224113 0.817344
O O16 0.324654 0.000000 0.812310
O O17 0.224298 0.500000 0.406636
O O18 0.181287 0.710029 0.310700
O O19 0.000000 0.676534 0.418423
O O20 0.162233 0.500000 0.217426
O O21 0.000000 0.732826 0.199330
#
# Coordination Sequence:
#
# PCOD9337867 Si02
#       7
#     4   4   4   4   4   4   4
#     4   9  17  30  49  72  98 130 167 205 248 299
#     4  10  20  33  51  77 106 134 168 210 253 298
#     4  10  20  33  51  77 106 134 168 210 253 298
#     4   9  17  30  49  72  98 130 167 205 248 299
#     4   9  16  28  48  71  94 122 160 207 254 298
#     4   9  19  36  55  74  99 133 171 209 252 303
#     4   9  19  36  55  74  99 133 171 209 252 303
#
# _framework density 19.20439
#
# number of rings (size 3 to 8) (size 9 to 14) (size 15 to 20)
#    0.000    2.714    0.000    2.571    0.000    6.857 
#    0.000    5.714    0.000    5.571    0.000    0.000 
#    0.000    0.000    0.000    0.000    0.000    0.000 
#
# Total GULP energy -155913.910782 kJ/mol
# GULP energy per Si atom -5568.353957 kJ/mol
# Density = 1.916068 g / cm^3
# Si number density = 19.204390 Si / 1000 Ang^3
#
#
#
# Elastic Constant Matrix: (Units=GPa)
#
#
# Indices 1 2 3 4 5 6 
#
# 1 -53.8309 45.0435 7.3876 0.0000 0.0000 0.0000
# 2 45.0435 -16.2601 51.5325 0.0000 0.0000 0.0000
# 3 7.3876 51.5325 -6.5638 0.0000 0.0000 0.0000
# 4 0.0000 0.0000 0.0000 27.0797 0.0000 0.0000
# 5 0.0000 0.0000 0.0000 0.0000 -37.5245 0.0000
# 6 0.0000 0.0000 0.0000 0.0000 0.0000 16.2137
#
#
#
# Elastic Compliance Matrix: (Units=1/GPa)
#
#
# Indices 1 2 3 4 5 6 
#
# 1 -0.013725 0.003642 0.013146 0.000000 0.000000 0.000000
# 2 0.003642 0.001609 0.016729 0.000000 0.000000 0.000000
# 3 0.013146 0.016729 -0.006212 0.000000 0.000000 0.000000
# 4 0.000000 0.000000 0.000000 0.036928 0.000000 0.000000
# 5 0.000000 0.000000 0.000000 0.000000 -0.026649 0.000000
# 6 0.000000 0.000000 0.000000 0.000000 0.000000 0.061676
#
#
# Mechanical properties :
#
#
# Convention : Reuss Voigt Hill
#
# Bulk Modulus (GPa) = 20.53113 14.58582 17.55848
# Shear Modulus (GPa) = 1768.37997 -10.88744 878.74626
#
# Velocity S-wave (km/s) = 30.37795 -2.38360 21.41423
# Velocity P-wave (km/s) = 35.22982 0.19007 24.91161
#
# Compressibility (1/GPa) = 0.04870651
#
# Stress axis : x y z
#
# Youngs Moduli (GPa) = -72.85934 621.60310 -160.97977
#
# Poissons Ratio (x) = -2.26389 2.11623
# Poissons Ratio (y) = 0.26536 2.69310
# Poissons Ratio (z) = 0.95781 -10.39906
#
# Static dielectric constant tensor:
#      x y z
#    x 1.655890 0.000000 0.000000 
#    y 0.000000 1.668470 0.000000 
#    z 0.000000 0.000000 1.681620 
# 
# From -- ./inp_files/6074.got.cif
#   From: 2010.05.17/outbox.ucp.g08.bks.cvg/sg25_4_cif.got.tgz:6074.got - 2010.06.11 15:23:09.
