data_PCOD9337799
_publ_section_title
;
Structure prediction by ZEFSAII (Michael W. Deem and Ramdas Pophale) SiO2 
 PCOD9337799
Probable space group: P M M 2
;
_chemical_formula_sum "Si O2"
_cell_formula_units_Z 20
_cell_length_a 14.908574
_cell_length_b 8.600615
_cell_length_c 7.968243
_cell_angle_alpha 90.000000
_cell_angle_beta 90.000000
_cell_angle_gamma 90.000000
_cell_volume 1021.711267
_symmetry_space_group_name_H-M "P M M 2"
_symmetry_group_IT_number 25
_symmetry_cell_setting 'orthorhombic'
loop_
_space_group_symop_operation_xyz
x,y,z
-x,-y,z
-x,y,z
x,-y,z
loop_
_atom_site_type_symbol
_atom_site_label
_atom_site_fract_x
_atom_site_fract_y
_atom_site_fract_z
Si Si1 0.289329 0.686223 0.556480
Si Si2 0.901681 0.311682 0.429725
Si Si3 0.285586 0.814815 0.911380
Si Si4 0.603952 0.812054 0.238617
Si Si5 0.100414 0.686856 0.031716
O O1 0.288398 0.500000 0.553514
O O2 0.186994 0.743814 0.523515
O O3 0.319749 0.744077 0.737742
O O4 0.349935 0.746547 0.404983
O O5 0.903104 0.500000 0.444338
O O6 0.892577 0.277978 0.230965
O O7 0.000000 0.255010 0.486382
O O8 0.292184 0.000000 0.902977
O O9 0.341321 0.760155 0.073903
O O10 0.182552 0.765172 0.938425
O O11 0.500000 0.766308 0.227977
O O12 0.608258 0.000000 0.244827
O O13 0.107649 0.500000 0.012731
O O14 0.000000 0.732220 0.976349
#
# Coordination Sequence:
#
# PCOD9337799 Si02
#       5
#     4   4   4   4   4
#     4  11  22  37  62  92 121 152 195 246 294 347
#     4   8  15  30  54  83 115 152 192 234 284 341
#     4  11  23  38  59  88 123 159 197 239 292 357
#     4  10  23  44  65  83 111 154 198 243 300 360
#     4   9  17  33  58  85 116 157 201 243 290 344
#
# _framework density 19.575004
#
# number of rings (size 3 to 8) (size 9 to 14) (size 15 to 20)
#    0.000    2.200    2.000    2.400    0.000    3.200 
#    0.000    4.000    0.000    1.800    0.000    0.000 
#    0.000    0.000    0.000    0.000    0.000    0.000 
#
# Total GULP energy -111674.221989 kJ/mol
# GULP energy per Si atom -5583.711099 kJ/mol
# Density = 1.953045 g / cm^3
# Si number density = 19.575004 Si / 1000 Ang^3
#
#
#
# Elastic Constant Matrix: (Units=GPa)
#
#
# Indices 1 2 3 4 5 6 
#
# 1 130.3137 31.8949 83.7382 0.0000 0.0000 0.0000
# 2 31.8949 20.7505 33.1828 0.0000 0.0000 0.0000
# 3 83.7382 33.1828 149.1217 0.0000 0.0000 0.0000
# 4 0.0000 0.0000 0.0000 28.3046 0.0000 0.0000
# 5 0.0000 0.0000 0.0000 0.0000 -3.6067 0.0000
# 6 0.0000 0.0000 0.0000 0.0000 0.0000 234.5152
#
#
#
# Elastic Compliance Matrix: (Units=1/GPa)
#
#
# Indices 1 2 3 4 5 6 
#
# 1 0.014258 -0.014146 -0.004859 0.000000 0.000000 0.000000
# 2 -0.014146 0.088848 -0.011827 0.000000 0.000000 0.000000
# 3 -0.004859 -0.011827 0.012066 0.000000 0.000000 0.000000
# 4 0.000000 0.000000 0.000000 0.035330 0.000000 0.000000
# 5 0.000000 0.000000 0.000000 0.000000 -0.277261 0.000000
# 6 0.000000 0.000000 0.000000 0.000000 0.000000 0.004264
#
#
# Mechanical properties :
#
#
# Convention : Reuss Voigt Hill
#
# Bulk Modulus (GPa) = 18.68850 66.42419 42.55634
# Shear Modulus (GPa) = -116.29521 61.93394 -27.18063
#
# Velocity S-wave (km/s) = -7.71615 5.63098 -3.73035
# Velocity P-wave (km/s) = 8.35569 8.73408 1.79814
#
# Compressibility (1/GPa) = 0.05350884
#
# Stress axis : x y z
#
# Youngs Moduli (GPa) = 70.13427 11.25513 82.87634
#
# Poissons Ratio (x) = 0.15922 0.40268
# Poissons Ratio (y) = 0.99213 0.98018
# Poissons Ratio (z) = 0.34077 0.13312
#
# Static dielectric constant tensor:
#      x y z
#    x 1.691730 0.000000 0.000000 
#    y 0.000000 1.670800 0.000000 
#    z 0.000000 0.000000 1.679690 
# 
# From -- ./inp_files/1771.got.cif
#   From: 2010.05.17/outbox.cif.g08.bks.cpg/sg25_1_cif.got.tgz:1771.got - 2010.06.04 01:04:00.
