data_PCOD9337133
_publ_section_title
;
Structure prediction by ZEFSAII (Michael W. Deem and Ramdas Pophale) SiO2 
 PCOD9337133
Probable space group: P M M 2
;
_chemical_formula_sum "Si O2"
_cell_formula_units_Z 28
_cell_length_a 7.408191
_cell_length_b 15.729384
_cell_length_c 10.625678
_cell_angle_alpha 90.000000
_cell_angle_beta 90.000000
_cell_angle_gamma 90.000000
_cell_volume 1238.170740
_symmetry_space_group_name_H-M "P M M 2"
_symmetry_group_IT_number 25
_symmetry_cell_setting 'orthorhombic'
loop_
_space_group_symop_operation_xyz
x,y,z
-x,-y,z
-x,y,z
x,-y,z
loop_
_atom_site_type_symbol
_atom_site_label
_atom_site_fract_x
_atom_site_fract_y
_atom_site_fract_z
Si Si1 0.794299 0.658806 0.471960
Si Si2 0.282798 0.093966 0.831971
Si Si3 0.212984 0.276479 0.936474
Si Si4 0.787343 0.909810 0.283311
Si Si5 0.220747 0.593758 0.728792
Si Si6 0.283362 0.151809 0.555317
Si Si7 0.222323 0.722959 0.211934
O O1 0.712807 0.605729 0.585947
O O2 0.794954 0.755050 0.527202
O O3 0.715731 0.668589 0.332203
O O4 0.000000 0.628888 0.455055
O O5 0.500000 0.091208 0.830008
O O6 0.233709 0.175718 0.914477
O O7 0.222852 0.114290 0.688616
O O8 0.218480 0.000000 0.871173
O O9 0.285987 0.331253 0.820146
O O10 0.000000 0.293337 0.938598
O O11 0.281538 0.303422 0.073427
O O12 0.765570 0.903700 0.434128
O O13 0.716307 0.820600 0.231913
O O14 0.000000 0.910050 0.254575
O O15 0.710810 0.000000 0.238379
O O16 0.266530 0.500000 0.776557
O O17 0.000000 0.599150 0.722596
O O18 0.500000 0.159714 0.559387
O O19 0.000000 0.723274 0.216720
#
# Coordination Sequence:
#
# PCOD9337133 Si02
#       7
#     4   4   4   4   4   4   4
#     4   9  16  31  52  72  97 128 162 198 245 298
#     4  10  21  34  47  68 102 138 168 206 254 294
#     4  10  19  33  52  74 100 132 170 208 244 291
#     4   9  17  29  45  65  93 130 170 208 247 292
#     4   9  17  30  52  80 105 128 160 206 253 294
#     4  10  18  29  47  70  98 127 161 208 256 291
#     4   8  16  29  47  70  97 129 163 203 246 287
#
# _framework density 22.614004000000001
#
# number of rings (size 3 to 8) (size 9 to 14) (size 15 to 20)
#    0.000    2.714    1.429    1.714    0.000    2.286 
#    0.000    5.000    0.000    6.000    0.000    0.000 
#    0.000    4.571    0.000    0.000    0.000    0.000 
#
# Total GULP energy -156242.994222 kJ/mol
# GULP energy per Si atom -5580.106937 kJ/mol
# Density = 2.256253 g / cm^3
# Si number density = 22.614004 Si / 1000 Ang^3
#
#
#
# Elastic Constant Matrix: (Units=GPa)
#
#
# Indices 1 2 3 4 5 6 
#
# 1 79.1991 -5.8348 0.8827 0.0000 0.0000 0.0000
# 2 -5.8348 70.6045 45.7771 0.0000 0.0000 0.0000
# 3 0.8827 45.7771 153.3015 0.0000 0.0000 0.0000
# 4 0.0000 0.0000 0.0000 15.3435 0.0000 0.0000
# 5 0.0000 0.0000 0.0000 0.0000 2437.3050 0.0000
# 6 0.0000 0.0000 0.0000 0.0000 0.0000 382.5372
#
#
#
# Elastic Compliance Matrix: (Units=1/GPa)
#
#
# Indices 1 2 3 4 5 6 
#
# 1 0.012732 0.001364 -0.000481 0.000000 0.000000 0.000000
# 2 0.001364 0.017710 -0.005296 0.000000 0.000000 0.000000
# 3 -0.000481 -0.005296 0.008107 0.000000 0.000000 0.000000
# 4 0.000000 0.000000 0.000000 0.065174 0.000000 0.000000
# 5 0.000000 0.000000 0.000000 0.000000 0.000410 0.000000
# 6 0.000000 0.000000 0.000000 0.000000 0.000000 0.002614
#
#
# Mechanical properties :
#
#
# Convention : Reuss Voigt Hill
#
# Bulk Modulus (GPa) = 33.64334 42.75058 38.19696
# Shear Modulus (GPa) = 39.84644 584.52250 312.18447
#
# Velocity S-wave (km/s) = 4.20220 16.09470 11.76218
# Velocity P-wave (km/s) = 6.20114 19.08746 14.19129
#
# Compressibility (1/GPa) = 0.02972357
#
# Stress axis : x y z
#
# Youngs Moduli (GPa) = 78.54085 56.46548 123.34494
#
# Poissons Ratio (x) = -0.07701 0.05927
# Poissons Ratio (y) = -0.10711 0.65326
# Poissons Ratio (z) = 0.03774 0.29905
#
# Static dielectric constant tensor:
#      x y z
#    x 0.856740 0.000000 0.000000 
#    y 0.000000 1.824950 0.000000 
#    z 0.000000 0.000000 1.842670 
# 
# From -- ./inp_files/4333.got.cif
#   From: 2010.05.17/outbox.cif.g08.bks.cpg/sg25_3_cif.got.tgz:4333.got - 2010.06.04 01:04:00.
