data_PCOD9337267
_publ_section_title
;
Structure prediction by ZEFSAII (Michael W. Deem and Ramdas Pophale) SiO2 
 PCOD9337267
Probable space group: P M M 2
;
_chemical_formula_sum "Si O2"
_cell_formula_units_Z 32
_cell_length_a 15.137923
_cell_length_b 8.561328
_cell_length_c 12.713828
_cell_angle_alpha 90.000000
_cell_angle_beta 90.000000
_cell_angle_gamma 90.000000
_cell_volume 1647.721314
_symmetry_space_group_name_H-M "P M M 2"
_symmetry_group_IT_number 25
_symmetry_cell_setting 'orthorhombic'
loop_
_space_group_symop_operation_xyz
x,y,z
-x,-y,z
-x,y,z
x,-y,z
loop_
_atom_site_type_symbol
_atom_site_label
_atom_site_fract_x
_atom_site_fract_y
_atom_site_fract_z
Si Si1 0.723523 0.184373 0.331140
Si Si2 0.287884 0.811523 0.932339
Si Si3 0.156143 0.686083 0.644431
Si Si4 0.903546 0.314026 0.878715
Si Si5 0.596686 0.683519 0.499114
Si Si6 0.658544 0.817506 0.703905
Si Si7 0.096735 0.687512 0.409799
Si Si8 0.602541 0.808910 0.137634
O O1 0.671394 0.224027 0.437693
O O2 0.821136 0.253019 0.342354
O O3 0.661257 0.244326 0.236797
O O4 0.731618 0.000000 0.318654
O O5 0.186022 0.756021 0.927557
O O6 0.336148 0.761602 0.824183
O O7 0.285968 0.000000 0.930929
O O8 0.344688 0.761114 0.032664
O O9 0.180004 0.500000 0.639980
O O10 0.101903 0.707999 0.751933
O O11 0.242542 0.789784 0.660952
O O12 0.111370 0.725512 0.533675
O O13 0.900686 0.500000 0.897067
O O14 0.000000 0.254872 0.915174
O O15 0.500000 0.726767 0.457142
O O16 0.611294 0.500000 0.483682
O O17 0.600302 0.722618 0.622185
O O18 0.634684 0.000000 0.701230
O O19 0.096823 0.500000 0.403765
O O20 0.000000 0.745574 0.376839
O O21 0.500000 0.757802 0.140652
O O22 0.600775 0.000000 0.139174
#
# Coordination Sequence:
#
# PCOD9337267 Si02
#       8
#     4   4   4   4   4   4   4   4
#     4  11  22  37  59  84 110 140 183 237 283 325
#     4   9  19  35  56  82 110 140 180 228 277 325
#     4   9  16  29  50  74 107 149 188 221 260 317
#     4   9  17  30  50  78 112 150 188 222 262 316
#     4  11  23  37  54  78 111 150 184 219 274 340
#     4  10  19  31  51  81 114 144 177 222 276 327
#     4  10  20  34  54  80 112 152 190 222 267 328
#     4   9  19  38  62  83 104 138 184 231 281 334
#
# _framework density 19.420760000000001
#
# number of rings (size 3 to 8) (size 9 to 14) (size 15 to 20)
#    0.000    2.250    1.250    1.875    0.000    4.500 
#    0.000    3.125    0.000    7.875    0.000    0.000 
#    0.000    0.000    0.000    0.000    0.000    0.000 
#
# Total GULP energy -178462.225883 kJ/mol
# GULP energy per Si atom -5576.944559 kJ/mol
# Density = 1.937656 g / cm^3
# Si number density = 19.420760 Si / 1000 Ang^3
#
#
#
# Elastic Constant Matrix: (Units=GPa)
#
#
# Indices 1 2 3 4 5 6 
#
# 1 150.6362 18.1351 70.0352 0.0000 0.0000 0.0000
# 2 18.1351 6.3415 9.9922 0.0000 0.0000 0.0000
# 3 70.0352 9.9922 109.2363 0.0000 0.0000 0.0000
# 4 0.0000 0.0000 0.0000 12.9593 0.0000 0.0000
# 5 0.0000 0.0000 0.0000 0.0000 16.8294 0.0000
# 6 0.0000 0.0000 0.0000 0.0000 0.0000 22.2287
#
#
#
# Elastic Compliance Matrix: (Units=1/GPa)
#
#
# Indices 1 2 3 4 5 6 
#
# 1 0.012440 -0.026882 -0.005516 0.000000 0.000000 0.000000
# 2 -0.026882 0.242340 -0.004933 0.000000 0.000000 0.000000
# 3 -0.005516 -0.004933 0.013142 0.000000 0.000000 0.000000
# 4 0.000000 0.000000 0.000000 0.077165 0.000000 0.000000
# 5 0.000000 0.000000 0.000000 0.000000 0.059420 0.000000
# 6 0.000000 0.000000 0.000000 0.000000 0.000000 0.044987
#
#
# Mechanical properties :
#
#
# Convention : Reuss Voigt Hill
#
# Bulk Modulus (GPa) = 5.17438 51.39322 28.28380
# Shear Modulus (GPa) = 8.49508 21.60690 15.05099
#
# Velocity S-wave (km/s) = 2.09373 3.33914 2.78689
# Velocity P-wave (km/s) = 2.91806 6.43327 4.99510
#
# Compressibility (1/GPa) = 0.19325991
#
# Stress axis : x y z
#
# Youngs Moduli (GPa) = 80.38865 4.12643 76.08909
#
# Poissons Ratio (x) = 0.11093 0.41974
# Poissons Ratio (y) = 2.16099 0.37534
# Poissons Ratio (z) = 0.44346 0.02036
#
# Static dielectric constant tensor:
#      x y z
#    x 1.700350 0.000000 0.000000 
#    y 0.000000 1.657800 0.000000 
#    z 0.000000 0.000000 1.691300 
# 
# From -- ./inp_files/4179.got.cif
#   From: 2010.05.17/outbox.cif.g08.bks.cpg/sg25_3_cif.got.tgz:4179.got - 2010.06.04 01:04:00.
