data_PCOD9337844
_publ_section_title
;
Structure prediction by ZEFSAII (Michael W. Deem and Ramdas Pophale) SiO2 
 PCOD9337844
Probable space group: P M M 2
;
_chemical_formula_sum "Si O2"
_cell_formula_units_Z 32
_cell_length_a 7.416760
_cell_length_b 9.793649
_cell_length_c 21.610310
_cell_angle_alpha 90.000000
_cell_angle_beta 90.000000
_cell_angle_gamma 90.000000
_cell_volume 1569.711203
_symmetry_space_group_name_H-M "P M M 2"
_symmetry_group_IT_number 25
_symmetry_cell_setting 'orthorhombic'
loop_
_space_group_symop_operation_xyz
x,y,z
-x,-y,z
-x,y,z
x,-y,z
loop_
_atom_site_type_symbol
_atom_site_label
_atom_site_fract_x
_atom_site_fract_y
_atom_site_fract_z
Si Si1 0.219769 0.157972 0.298010
Si Si2 0.779971 0.340868 0.184121
Si Si3 0.287452 0.343877 0.912961
Si Si4 0.714719 0.655804 0.687609
Si Si5 0.780057 0.842437 0.436101
Si Si6 0.783548 0.658083 0.049222
Si Si7 0.278936 0.842703 0.800407
Si Si8 0.783850 0.344925 0.547719
O O1 0.282476 0.252057 0.241915
O O2 0.275019 0.202834 0.367065
O O3 0.000000 0.160406 0.297320
O O4 0.272928 0.000000 0.289788
O O5 0.727857 0.500000 0.189567
O O6 0.000000 0.338761 0.184874
O O7 0.723464 0.286993 0.116052
O O8 0.500000 0.356564 0.901369
O O9 0.213062 0.500000 0.910771
O O10 0.267799 0.285109 0.982403
O O11 0.217717 0.243225 0.860275
O O12 0.500000 0.646826 0.696120
O O13 0.785984 0.500000 0.693748
O O14 0.780717 0.759734 0.739561
O O15 0.746359 0.703590 0.617392
O O16 0.716179 0.749726 0.492463
O O17 0.000000 0.840565 0.436641
O O18 0.726126 0.000000 0.444008
O O19 0.721917 0.500000 0.047944
O O20 0.000000 0.657959 0.050486
O O21 0.500000 0.844769 0.800585
O O22 0.220872 0.000000 0.800980
O O23 0.714821 0.500000 0.542847
O O24 0.000000 0.350234 0.541670
#
# Coordination Sequence:
#
# PCOD9337844 Si02
#       8
#     4   4   4   4   4   4   4   4
#     4   8  13  21  33  51  76 104 133 164 197 233
#     4   8  13  21  34  52  74 101 132 164 197 233
#     4   9  16  27  45  65  81 102 135 169 198 234
#     4   9  17  30  47  64  82 106 135 165 198 238
#     4   8  14  24  37  54  79 110 138 164 199 241
#     4   8  14  25  40  59  84 110 133 161 201 244
#     4   9  17  29  45  64  84 105 132 168 204 235
#     4   9  17  28  42  62  86 108 132 165 202 238
#
# _framework density 20.385916000000002
#
# number of rings (size 3 to 8) (size 9 to 14) (size 15 to 20)
#    0.000    3.500    0.000    1.875    0.000    2.500 
#    0.000    3.750    0.000    4.875    0.000    0.875 
#    0.000    5.000    0.000    0.000    0.000    0.000 
#
# Total GULP energy -178341.283845 kJ/mol
# GULP energy per Si atom -5573.165120 kJ/mol
# Density = 2.033952 g / cm^3
# Si number density = 20.385916 Si / 1000 Ang^3
#
#
#
# Elastic Constant Matrix: (Units=GPa)
#
#
# Indices 1 2 3 4 5 6 
#
# 1 64.2680 4.9300 2.0537 0.0000 0.0000 0.0000
# 2 4.9300 95.7992 124.7745 0.0000 0.0000 0.0000
# 3 2.0537 124.7745 253.5602 0.0000 0.0000 0.0000
# 4 0.0000 0.0000 0.0000 -338.4732 0.0000 0.0000
# 5 0.0000 0.0000 0.0000 0.0000 18.7527 0.0000
# 6 0.0000 0.0000 0.0000 0.0000 0.0000 -2.7227
#
#
#
# Elastic Compliance Matrix: (Units=1/GPa)
#
#
# Indices 1 2 3 4 5 6 
#
# 1 0.015673 -0.001786 0.000752 0.000000 0.000000 0.000000
# 2 -0.001786 0.029274 -0.014391 0.000000 0.000000 0.000000
# 3 0.000752 -0.014391 0.011019 0.000000 0.000000 0.000000
# 4 0.000000 0.000000 0.000000 -0.002954 0.000000 0.000000
# 5 0.000000 0.000000 0.000000 0.000000 0.053326 0.000000
# 6 0.000000 0.000000 0.000000 0.000000 0.000000 -0.367280
#
#
# Mechanical properties :
#
#
# Convention : Reuss Voigt Hill
#
# Bulk Modulus (GPa) = 39.81464 75.23821 57.52642
# Shear Modulus (GPa) = -22.55094 -45.69736 -34.12415
#
# Velocity S-wave (km/s) = -3.32957 -4.73971 -4.09578
# Velocity P-wave (km/s) = 2.18895 2.65217 2.43161
#
# Compressibility (1/GPa) = 0.02511639
#
# Stress axis : x y z
#
# Youngs Moduli (GPa) = 63.80481 34.15987 90.74873
#
# Poissons Ratio (x) = 0.06100 -0.06823
# Poissons Ratio (y) = 0.11394 1.30597
# Poissons Ratio (z) = -0.04797 0.49160
#
# Static dielectric constant tensor:
#      x y z
#    x 1.793710 0.000000 0.000000 
#    y 0.000000 1.688350 0.000000 
#    z 0.000000 0.000000 1.730020 
# 
# From -- ./inp_files/6291.got.cif
#   From: 2010.05.17/outbox.cif.g08.bks.cpg/sg25_4_cif.got.tgz:6291.got - 2010.06.04 01:04:00.
