data_PCOD9337760
_publ_section_title
;
Structure prediction by ZEFSAII (Michael W. Deem and Ramdas Pophale) SiO2 
 PCOD9337760
Probable space group: P M M 2
;
_chemical_formula_sum "Si O2"
_cell_formula_units_Z 20
_cell_length_a 15.201240
_cell_length_b 7.698127
_cell_length_c 7.922221
_cell_angle_alpha 90.000000
_cell_angle_beta 90.000000
_cell_angle_gamma 90.000000
_cell_volume 927.066826
_symmetry_space_group_name_H-M "P M M 2"
_symmetry_group_IT_number 25
_symmetry_cell_setting 'orthorhombic'
loop_
_space_group_symop_operation_xyz
x,y,z
-x,-y,z
-x,y,z
x,-y,z
loop_
_atom_site_type_symbol
_atom_site_label
_atom_site_fract_x
_atom_site_fract_y
_atom_site_fract_z
Si Si1 0.900601 0.208051 0.713160
Si Si2 0.782927 0.792985 0.020305
Si Si3 0.596348 0.290204 0.517369
Si Si4 0.782661 0.706986 0.391586
Si Si5 0.404486 0.207922 0.915575
O O1 0.845762 0.277097 0.873408
O O2 0.845592 0.240101 0.543993
O O3 0.000000 0.276810 0.704211
O O4 0.906634 0.000000 0.733256
O O5 0.683469 0.721583 0.001986
O O6 0.776786 0.000000 0.993237
O O7 0.815738 0.763252 0.208754
O O8 0.500000 0.227983 0.457240
O O9 0.596092 0.500000 0.507177
O O10 0.683380 0.223811 0.424070
O O11 0.603999 0.241672 0.714978
O O12 0.777583 0.500000 0.392602
O O13 0.500000 0.278432 0.970325
O O14 0.406777 0.000000 0.940484
#
# Coordination Sequence:
#
# PCOD9337760 Si02
#       5
#     4   4   4   4   4
#     4  10  22  42  65  85 109 146 191 239 292 346
#     4  10  21  37  58  85 117 151 191 234 282 341
#     4   9  18  33  53  79 114 155 193 228 274 335
#     4  11  23  37  58  88 120 152 190 234 284 339
#     4   9  17  31  54  83 113 147 190 238 282 326
#
# _framework density 21.573419000000001
#
# number of rings (size 3 to 8) (size 9 to 14) (size 15 to 20)
#    0.000    2.200    2.000    0.600    0.000    4.400 
#    0.000    2.000    0.000    0.000    0.000    0.000 
#    0.000    0.000    0.000    0.000    0.000    0.000 
#
# Total GULP energy -111685.257675 kJ/mol
# GULP energy per Si atom -5584.262884 kJ/mol
# Density = 2.152432 g / cm^3
# Si number density = 21.573419 Si / 1000 Ang^3
#
#
#
# Elastic Constant Matrix: (Units=GPa)
#
#
# Indices 1 2 3 4 5 6 
#
# 1 175.6256 11.0675 90.6470 0.0000 0.0000 0.0000
# 2 11.0675 36.4108 -15.1388 0.0000 0.0000 0.0000
# 3 90.6470 -15.1388 140.4482 0.0000 0.0000 0.0000
# 4 0.0000 0.0000 0.0000 36.2933 0.0000 0.0000
# 5 0.0000 0.0000 0.0000 0.0000 13.5254 0.0000
# 6 0.0000 0.0000 0.0000 0.0000 0.0000 9.6181
#
#
#
# Elastic Compliance Matrix: (Units=1/GPa)
#
#
# Indices 1 2 3 4 5 6 
#
# 1 0.009557 -0.005726 -0.006785 0.000000 0.000000 0.000000
# 2 -0.005726 0.032184 0.007165 0.000000 0.000000 0.000000
# 3 -0.006785 0.007165 0.012272 0.000000 0.000000 0.000000
# 4 0.000000 0.000000 0.000000 0.027553 0.000000 0.000000
# 5 0.000000 0.000000 0.000000 0.000000 0.073935 0.000000
# 6 0.000000 0.000000 0.000000 0.000000 0.000000 0.103970
#
#
# Mechanical properties :
#
#
# Convention : Reuss Voigt Hill
#
# Bulk Modulus (GPa) = 23.08451 58.40399 40.74425
# Shear Modulus (GPa) = 17.56822 29.61462 23.59142
#
# Velocity S-wave (km/s) = 2.85677 3.70907 3.31046
# Velocity P-wave (km/s) = 4.64814 6.74343 5.79133
#
# Compressibility (1/GPa) = 0.04331909
#
# Stress axis : x y z
#
# Youngs Moduli (GPa) = 104.63542 31.07143 81.48797
#
# Poissons Ratio (x) = 0.17792 0.55293
# Poissons Ratio (y) = 0.59916 -0.58385
# Poissons Ratio (z) = 0.71000 -0.22262
#
# Static dielectric constant tensor:
#      x y z
#    x 1.816100 0.000000 0.000000 
#    y 0.000000 1.792600 0.000000 
#    z 0.000000 0.000000 1.771000 
# 
# From -- ./inp_files/834.got.cif
#   From: 2010.05.17/outbox.cif.g08.bks.cpg/sg25_1_cif.got.tgz:834.got - 2010.06.04 01:04:00.
