data_PCOD9337209
_publ_section_title
;
Structure prediction by ZEFSAII (Michael W. Deem and Ramdas Pophale) SiO2 
 PCOD9337209
Probable space group: P M M 2
;
_chemical_formula_sum "Si O2"
_cell_formula_units_Z 28
_cell_length_a 14.998055
_cell_length_b 7.506103
_cell_length_c 13.240968
_cell_angle_alpha 90.000000
_cell_angle_beta 90.000000
_cell_angle_gamma 90.000000
_cell_volume 1490.627735
_symmetry_space_group_name_H-M "P M M 2"
_symmetry_group_IT_number 25
_symmetry_cell_setting 'orthorhombic'
loop_
_space_group_symop_operation_xyz
x,y,z
-x,-y,z
-x,y,z
x,-y,z
loop_
_atom_site_type_symbol
_atom_site_label
_atom_site_fract_x
_atom_site_fract_y
_atom_site_fract_z
Si Si1 0.397597 0.215202 0.485480
Si Si2 0.099013 0.284858 0.376546
Si Si3 0.901707 0.788075 0.614311
Si Si4 0.281372 0.289143 0.287524
Si Si5 0.601459 0.713052 0.104435
Si Si6 0.287677 0.218548 0.683606
Si Si7 0.398385 0.786207 0.875718
O O1 0.500000 0.277639 0.483360
O O2 0.343657 0.268178 0.385754
O O3 0.345471 0.273778 0.586080
O O4 0.399381 0.000000 0.487807
O O5 0.098784 0.500000 0.370664
O O6 0.111796 0.238592 0.494383
O O7 0.183442 0.216298 0.313946
O O8 0.000000 0.222168 0.346351
O O9 0.814005 0.719463 0.670246
O O10 0.000000 0.715047 0.640086
O O11 0.904721 0.000000 0.632030
O O12 0.269470 0.500000 0.270213
O O13 0.332643 0.215410 0.190045
O O14 0.500000 0.782976 0.115183
O O15 0.596326 0.500000 0.118084
O O16 0.631163 0.745547 0.989626
O O17 0.334803 0.277937 0.786458
O O18 0.286786 0.000000 0.683003
O O19 0.500000 0.718753 0.863949
O O20 0.402157 0.000000 0.866653
#
# Coordination Sequence:
#
# PCOD9337209 Si02
#       7
#     4   4   4   4   4   4   4
#     4  10  19  29  43  66  95 123 148 179 222 271
#     4   9  17  29  45  66  91 118 150 186 222 264
#     4   9  16  27  45  67  90 118 150 181 218 268
#     4  10  19  31  47  66  91 122 151 183 228 274
#     4   9  18  32  47  63  86 116 150 188 226 263
#     4   9  16  28  45  66  92 118 145 181 224 266
#     4   9  17  30  48  66  84 113 153 189 220 260
#
# _framework density 18.784032
#
# number of rings (size 3 to 8) (size 9 to 14) (size 15 to 20)
#    0.000    2.714    1.429    0.857    0.000    3.143 
#    0.000    2.857    0.000    2.571    0.000    0.000 
#    0.000    0.000    0.000    0.000    0.000    0.000 
#
# Total GULP energy -156191.597504 kJ/mol
# GULP energy per Si atom -5578.271339 kJ/mol
# Density = 1.874128 g / cm^3
# Si number density = 18.784032 Si / 1000 Ang^3
#
#
#
# Elastic Constant Matrix: (Units=GPa)
#
#
# Indices 1 2 3 4 5 6 
#
# 1 181.5995 3.0562 110.7328 0.0000 0.0000 0.0000
# 2 3.0562 49.3358 -5.1213 0.0000 0.0000 0.0000
# 3 110.7328 -5.1213 148.4728 0.0000 0.0000 0.0000
# 4 0.0000 0.0000 0.0000 18.1563 0.0000 0.0000
# 5 0.0000 0.0000 0.0000 0.0000 24.7379 0.0000
# 6 0.0000 0.0000 0.0000 0.0000 0.0000 24.9298
#
#
#
# Elastic Compliance Matrix: (Units=1/GPa)
#
#
# Indices 1 2 3 4 5 6 
#
# 1 0.010199 -0.001426 -0.007656 0.000000 0.000000 0.000000
# 2 -0.001426 0.020542 0.001772 0.000000 0.000000 0.000000
# 3 -0.007656 0.001772 0.012506 0.000000 0.000000 0.000000
# 4 0.000000 0.000000 0.000000 0.055077 0.000000 0.000000
# 5 0.000000 0.000000 0.000000 0.000000 0.040424 0.000000
# 6 0.000000 0.000000 0.000000 0.000000 0.000000 0.040113
#
#
# Mechanical properties :
#
#
# Convention : Reuss Voigt Hill
#
# Bulk Modulus (GPa) = 34.93186 66.30483 50.61835
# Shear Modulus (GPa) = 24.62795 31.61416 28.12105
#
# Velocity S-wave (km/s) = 3.62485 4.10693 3.87340
# Velocity P-wave (km/s) = 6.01302 7.60686 6.85641
#
# Compressibility (1/GPa) = 0.02862716
#
# Stress axis : x y z
#
# Youngs Moduli (GPa) = 98.05194 48.68165 79.96198
#
# Poissons Ratio (x) = 0.06944 0.61215
# Poissons Ratio (y) = 0.13987 -0.14173
# Poissons Ratio (z) = 0.75064 -0.08628
#
# Static dielectric constant tensor:
#      x y z
#    x 1.676520 0.000000 0.000000 
#    y 0.000000 1.715960 0.000000 
#    z 0.000000 0.000000 1.609300 
# 
# From -- ./inp_files/5889.got.cif
#   From: 2010.05.17/outbox.cif.g08.bks.cpg/sg25_3_cif.got.tgz:5889.got - 2010.06.04 01:04:00.
