data_PCOD9337109
_publ_section_title
;
Structure prediction by ZEFSAII (Michael W. Deem and Ramdas Pophale) SiO2 
 PCOD9337109
Probable space group: P M M 2
;
_chemical_formula_sum "Si O2"
_cell_formula_units_Z 32
_cell_length_a 14.919288
_cell_length_b 7.496521
_cell_length_c 16.200275
_cell_angle_alpha 90.000000
_cell_angle_beta 90.000000
_cell_angle_gamma 90.000000
_cell_volume 1811.883401
_symmetry_space_group_name_H-M "P M M 2"
_symmetry_group_IT_number 25
_symmetry_cell_setting 'orthorhombic'
loop_
_space_group_symop_operation_xyz
x,y,z
-x,-y,z
-x,y,z
x,-y,z
loop_
_atom_site_type_symbol
_atom_site_label
_atom_site_fract_x
_atom_site_fract_y
_atom_site_fract_z
Si Si1 0.211509 0.218950 0.678460
Si Si2 0.102299 0.788395 0.520569
Si Si3 0.599792 0.284771 0.930991
Si Si4 0.103280 0.285931 0.340055
Si Si5 0.895456 0.281895 0.159111
Si Si6 0.102674 0.784695 0.841132
Si Si7 0.782735 0.711211 0.004226
Si Si8 0.400966 0.787589 0.736790
O O1 0.162954 0.279989 0.595119
O O2 0.154807 0.274220 0.758951
O O3 0.313851 0.280520 0.689227
O O4 0.212615 0.000000 0.678567
O O5 0.142311 0.763315 0.428885
O O6 0.000000 0.715475 0.522782
O O7 0.094918 0.000000 0.533300
O O8 0.500000 0.221161 0.954288
O O9 0.599307 0.500000 0.936555
O O10 0.684004 0.216350 0.983183
O O11 0.613996 0.240144 0.834632
O O12 0.101960 0.500000 0.337838
O O13 0.138039 0.226883 0.250497
O O14 0.000000 0.221979 0.342879
O O15 0.895766 0.500000 0.157227
O O16 0.000000 0.228984 0.149462
O O17 0.834547 0.216803 0.084053
O O18 0.156086 0.732885 0.923171
O O19 0.000000 0.721399 0.842774
O O20 0.100753 0.000000 0.838817
O O21 0.771911 0.500000 0.018438
O O22 0.500000 0.714706 0.716649
O O23 0.404229 0.000000 0.723155
#
# Coordination Sequence:
#
# PCOD9337109 Si02
#       8
#     4   4   4   4   4   4   4   4
#     4   9  16  27  41  58  81 108 136 164 197 241
#     4   9  16  26  41  59  79 105 134 162 196 240
#     4   9  17  28  41  59  83 107 133 171 214 244
#     4   8  14  26  42  58  77 101 130 167 205 236
#     4   8  14  25  41  59  79 104 133 164 200 241
#     4  10  19  29  40  56  83 116 142 164 196 238
#     4  10  18  28  43  61  81 109 142 171 200 241
#     4   9  16  27  44  61  76 101 139 176 203 234
#
# _framework density 17.661180000000002
#
# number of rings (size 3 to 8) (size 9 to 14) (size 15 to 20)
#    0.000    3.000    1.250    1.500    0.000    2.250 
#    0.000    1.875    0.000    3.750    0.000    0.875 
#    0.000    1.000    0.000    0.000    0.000    0.000 
#
# Total GULP energy -178318.649878 kJ/mol
# GULP energy per Si atom -5572.457809 kJ/mol
# Density = 1.762098 g / cm^3
# Si number density = 17.661180 Si / 1000 Ang^3
#
#
#
# Elastic Constant Matrix: (Units=GPa)
#
#
# Indices 1 2 3 4 5 6 
#
# 1 140.8392 4.9259 89.0343 0.0000 0.0000 0.0000
# 2 4.9259 46.7156 -1.0791 0.0000 0.0000 0.0000
# 3 89.0343 -1.0791 163.8618 0.0000 0.0000 0.0000
# 4 0.0000 0.0000 0.0000 16.7239 0.0000 0.0000
# 5 0.0000 0.0000 0.0000 0.0000 8.8532 0.0000
# 6 0.0000 0.0000 0.0000 0.0000 0.0000 3.5886
#
#
#
# Elastic Compliance Matrix: (Units=1/GPa)
#
#
# Indices 1 2 3 4 5 6 
#
# 1 0.010892 -0.001285 -0.005927 0.000000 0.000000 0.000000
# 2 -0.001285 0.021561 0.000840 0.000000 0.000000 0.000000
# 3 -0.005927 0.000840 0.009328 0.000000 0.000000 0.000000
# 4 0.000000 0.000000 0.000000 0.059795 0.000000 0.000000
# 5 0.000000 0.000000 0.000000 0.000000 0.112954 0.000000
# 6 0.000000 0.000000 0.000000 0.000000 0.000000 0.278664
#
#
# Mechanical properties :
#
#
# Convention : Reuss Voigt Hill
#
# Bulk Modulus (GPa) = 34.43732 59.68656 47.06194
# Shear Modulus (GPa) = 9.69713 23.06882 16.38297
#
# Velocity S-wave (km/s) = 2.34575 3.61804 3.04900
# Velocity P-wave (km/s) = 5.18440 7.16396 6.25301
#
# Compressibility (1/GPa) = 0.02903826
#
# Stress axis : x y z
#
# Youngs Moduli (GPa) = 91.81187 46.37990 107.19922
#
# Poissons Ratio (x) = 0.05962 0.63532
# Poissons Ratio (y) = 0.11801 -0.09009
# Poissons Ratio (z) = 0.54413 -0.03898
#
# Static dielectric constant tensor:
#      x y z
#    x 1.611510 0.000000 0.000000 
#    y 0.000000 1.680210 0.000000 
#    z 0.000000 0.000000 1.600100 
# 
# From -- ./inp_files/5672.got.cif
#   From: 2010.05.17/outbox.cif.g08.bks.cpg/sg25_3_cif.got.tgz:5672.got - 2010.06.04 01:04:00.
