data_PCOD9337765
_publ_section_title
;
Structure prediction by ZEFSAII (Michael W. Deem and Ramdas Pophale) SiO2 
 PCOD9337765
Probable space group: P M M 2
;
_chemical_formula_sum "Si O2"
_cell_formula_units_Z 32
_cell_length_a 7.564612
_cell_length_b 14.624858
_cell_length_c 13.330479
_cell_angle_alpha 90.000000
_cell_angle_beta 90.000000
_cell_angle_gamma 90.000000
_cell_volume 1474.769239
_symmetry_space_group_name_H-M "P M M 2"
_symmetry_group_IT_number 25
_symmetry_cell_setting 'orthorhombic'
loop_
_space_group_symop_operation_xyz
x,y,z
-x,-y,z
-x,y,z
x,-y,z
loop_
_atom_site_type_symbol
_atom_site_label
_atom_site_fract_x
_atom_site_fract_y
_atom_site_fract_z
Si Si1 0.217954 0.788908 0.989880
Si Si2 0.297329 0.388976 0.698375
Si Si3 0.703013 0.779341 0.372556
Si Si4 0.717297 0.394709 0.478922
Si Si5 0.792762 0.897687 0.182860
Si Si6 0.795185 0.601807 0.920490
Si Si7 0.213550 0.892234 0.568731
Si Si8 0.784935 0.106383 0.790347
O O1 0.280600 0.684164 0.985173
O O2 0.273960 0.838246 0.887129
O O3 0.000000 0.787606 0.989634
O O4 0.280409 0.843559 0.087154
O O5 0.500000 0.358534 0.705545
O O6 0.296828 0.500000 0.693112
O O7 0.222558 0.362226 0.590067
O O8 0.208441 0.366814 0.803657
O O9 0.500000 0.766192 0.344366
O O10 0.777823 0.679008 0.397732
O O11 0.782050 0.838793 0.283694
O O12 0.713285 0.835413 0.476340
O O13 0.500000 0.393713 0.482472
O O14 0.769708 0.500000 0.461787
O O15 0.000000 0.907886 0.160891
O O16 0.718293 0.000000 0.195781
O O17 0.714939 0.500000 0.926934
O O18 0.000000 0.593352 0.948324
O O19 0.271452 0.860306 0.679853
O O20 0.000000 0.886520 0.564132
O O21 0.259265 0.000000 0.559684
O O22 0.000000 0.108533 0.789703
O O23 0.733849 0.000000 0.799635
#
# Coordination Sequence:
#
# PCOD9337765 Si02
#       8
#     4   4   4   4   4   4   4   4
#     4   9  17  30  50  73  97 129 169 207 248 298
#     4   8  14  27  47  68  94 132 171 201 231 280
#     4  11  22  34  53  78 102 132 171 213 261 308
#     4   8  16  32  51  71  99 136 175 209 245 297
#     4  10  21  38  58  76  96 129 176 223 261 305
#     4   9  17  28  44  72 107 134 158 196 250 303
#     4   9  18  32  50  74 105 137 166 202 253 311
#     4   8  14  26  46  72  98 124 159 203 246 290
#
# _framework density 21.698311
#
# number of rings (size 3 to 8) (size 9 to 14) (size 15 to 20)
#    0.000    3.000    0.000    2.625    1.750    3.500 
#    0.000    1.875    0.000    3.750    0.000    1.750 
#    0.000    0.000    0.000    0.000    0.000    0.000 
#
# Total GULP energy -178543.525233 kJ/mol
# GULP energy per Si atom -5579.485164 kJ/mol
# Density = 2.164892 g / cm^3
# Si number density = 21.698311 Si / 1000 Ang^3
#
#
#
# Elastic Constant Matrix: (Units=GPa)
#
#
# Indices 1 2 3 4 5 6 
#
# 1 47.2493 4.8076 -2.1362 0.0000 0.0000 0.0000
# 2 4.8076 145.1997 90.2928 0.0000 0.0000 0.0000
# 3 -2.1362 90.2928 127.3152 0.0000 0.0000 0.0000
# 4 0.0000 0.0000 0.0000 31.9844 0.0000 0.0000
# 5 0.0000 0.0000 0.0000 0.0000 -6.2332 0.0000
# 6 0.0000 0.0000 0.0000 0.0000 0.0000 7.3155
#
#
#
# Elastic Compliance Matrix: (Units=1/GPa)
#
#
# Indices 1 2 3 4 5 6 
#
# 1 0.021404 -0.001667 0.001542 0.000000 0.000000 0.000000
# 2 -0.001667 0.012451 -0.008858 0.000000 0.000000 0.000000
# 3 0.001542 -0.008858 0.014163 0.000000 0.000000 0.000000
# 4 0.000000 0.000000 0.000000 0.031265 0.000000 0.000000
# 5 0.000000 0.000000 0.000000 0.000000 -0.160432 0.000000
# 6 0.000000 0.000000 0.000000 0.000000 0.000000 0.136696
#
#
# Mechanical properties :
#
#
# Convention : Reuss Voigt Hill
#
# Bulk Modulus (GPa) = 33.27860 56.18808 44.73334
# Shear Modulus (GPa) = 59.85801 21.73334 40.79568
#
# Velocity S-wave (km/s) = 5.25798 3.16826 4.34075
# Velocity P-wave (km/s) = 7.22718 6.27178 6.76636
#
# Compressibility (1/GPa) = 0.03004934
#
# Stress axis : x y z
#
# Youngs Moduli (GPa) = 46.72095 80.31665 70.60838
#
# Poissons Ratio (x) = 0.13392 -0.10885
# Poissons Ratio (y) = 0.07790 0.62546
# Poissons Ratio (z) = -0.07203 0.71145
#
# Static dielectric constant tensor:
#      x y z
#    x 1.832610 0.000000 0.000000 
#    y 0.000000 1.826670 0.000000 
#    z 0.000000 0.000000 1.757760 
# 
# From -- ./inp_files/4269.got.cif
#   From: 2010.05.17/outbox.cif.g08.bks.cpg/sg25_3_cif.got.tgz:4269.got - 2010.06.04 01:04:00.
