data_PCOD9337269
_publ_section_title
;
Structure prediction by ZEFSAII (Michael W. Deem and Ramdas Pophale) SiO2 
 PCOD9337269
Probable space group: P M M 2
;
_chemical_formula_sum "Si O2"
_cell_formula_units_Z 32
_cell_length_a 7.591352
_cell_length_b 15.392777
_cell_length_c 12.726702
_cell_angle_alpha 90.000000
_cell_angle_beta 90.000000
_cell_angle_gamma 90.000000
_cell_volume 1487.140435
_symmetry_space_group_name_H-M "P M M 2"
_symmetry_group_IT_number 25
_symmetry_cell_setting 'orthorhombic'
loop_
_space_group_symop_operation_xyz
x,y,z
-x,-y,z
-x,y,z
x,-y,z
loop_
_atom_site_type_symbol
_atom_site_label
_atom_site_fract_x
_atom_site_fract_y
_atom_site_fract_z
Si Si1 0.786969 0.787452 0.125000
Si Si2 0.290689 0.900202 0.329757
Si Si3 0.789146 0.406208 0.598969
Si Si4 0.214291 0.640140 0.832024
Si Si5 0.288208 0.778342 0.518241
Si Si6 0.211599 0.831857 0.896189
Si Si7 0.708176 0.908448 0.686928
Si Si8 0.785109 0.405518 0.066513
O O1 0.734106 0.846542 0.222460
O O2 0.728213 0.685648 0.120191
O O3 0.000000 0.784807 0.123776
O O4 0.726424 0.831988 0.015911
O O5 0.500000 0.908056 0.347455
O O6 0.221015 0.837171 0.422096
O O7 0.221660 0.000000 0.327314
O O8 0.725873 0.500000 0.559654
O O9 0.722483 0.392991 0.719180
O O10 0.753025 0.323064 0.527182
O O11 0.000000 0.409865 0.607240
O O12 0.266837 0.739945 0.846646
O O13 0.000000 0.634551 0.830512
O O14 0.267229 0.597871 0.942985
O O15 0.500000 0.781393 0.514742
O O16 0.220643 0.826261 0.623714
O O17 0.268186 0.901150 0.811164
O O18 0.000000 0.833112 0.899616
O O19 0.500000 0.909504 0.666475
O O20 0.782371 0.000000 0.647907
O O21 0.729543 0.500000 0.109825
O O22 0.000000 0.403864 0.068749
#
# Coordination Sequence:
#
# PCOD9337269 Si02
#       8
#     4   4   4   4   4   4   4   4
#     4   9  19  34  54  82 111 137 172 221 269 312
#     4  10  22  41  62  78  95 132 185 231 272 321
#     4  10  19  31  52  82 112 142 177 216 257 309
#     4   8  13  24  44  72 106 141 174 206 241 293
#     4  10  21  38  57  76 103 138 178 226 272 315
#     4   9  17  31  50  75 110 145 172 207 260 319
#     4  10  20  33  51  76 104 136 175 219 268 321
#     4   8  13  24  46  76 108 142 176 206 245 303
#
# _framework density 21.517807999999999
#
# number of rings (size 3 to 8) (size 9 to 14) (size 15 to 20)
#    0.000    2.750    1.250    2.250    0.000    5.250 
#    0.000    3.125    0.000    4.875    0.000    0.000 
#    0.000    0.000    0.000    0.000    0.000    0.000 
#
# Total GULP energy -178352.241956 kJ/mol
# GULP energy per Si atom -5573.507561 kJ/mol
# Density = 2.146883 g / cm^3
# Si number density = 21.517808 Si / 1000 Ang^3
#
#
#
# Elastic Constant Matrix: (Units=GPa)
#
#
# Indices 1 2 3 4 5 6 
#
# 1 44.0648 8.3473 0.5292 0.0000 0.0000 0.0000
# 2 8.3473 200.4648 88.0135 0.0000 0.0000 0.0000
# 3 0.5292 88.0135 116.7068 0.0000 0.0000 0.0000
# 4 0.0000 0.0000 0.0000 19.0938 0.0000 0.0000
# 5 0.0000 0.0000 0.0000 0.0000 16.4602 0.0000
# 6 0.0000 0.0000 0.0000 0.0000 0.0000 13.6466
#
#
#
# Elastic Compliance Matrix: (Units=1/GPa)
#
#
# Indices 1 2 3 4 5 6 
#
# 1 0.022940 -0.001360 0.000921 0.000000 0.000000 0.000000
# 2 -0.001360 0.007538 -0.005679 0.000000 0.000000 0.000000
# 3 0.000921 -0.005679 0.012847 0.000000 0.000000 0.000000
# 4 0.000000 0.000000 0.000000 0.052373 0.000000 0.000000
# 5 0.000000 0.000000 0.000000 0.000000 0.060752 0.000000
# 6 0.000000 0.000000 0.000000 0.000000 0.000000 0.073278
#
#
# Mechanical properties :
#
#
# Convention : Reuss Voigt Hill
#
# Bulk Modulus (GPa) = 32.16332 61.66851 46.91591
# Shear Modulus (GPa) = 19.81555 27.46323 23.63939
#
# Velocity S-wave (km/s) = 3.03791 3.57641 3.31810
# Velocity P-wave (km/s) = 5.22350 6.76578 6.04404
#
# Compressibility (1/GPa) = 0.03109132
#
# Stress axis : x y z
#
# Youngs Moduli (GPa) = 43.59129 132.65639 77.83983
#
# Poissons Ratio (x) = 0.18039 -0.07173
# Poissons Ratio (y) = 0.05928 0.44203
# Poissons Ratio (z) = -0.04017 0.75332
#
# Static dielectric constant tensor:
#      x y z
#    x 1.820000 0.000000 0.000000 
#    y 0.000000 1.827870 0.000000 
#    z 0.000000 0.000000 1.771400 
# 
# From -- ./inp_files/4183.got.cif
#   From: 2010.05.17/outbox.cif.g08.bks.cpg/sg25_3_cif.got.tgz:4183.got - 2010.06.04 01:04:00.
