data_PCOD9337173
_publ_section_title
;
Structure prediction by ZEFSAII (Michael W. Deem and Ramdas Pophale) SiO2 
 PCOD9337173
Probable space group: P M M 2
;
_chemical_formula_sum "Si O2"
_cell_formula_units_Z 32
_cell_length_a 8.628842
_cell_length_b 15.019078
_cell_length_c 12.601839
_cell_angle_alpha 90.000000
_cell_angle_beta 90.000000
_cell_angle_gamma 90.000000
_cell_volume 1633.163693
_symmetry_space_group_name_H-M "P M M 2"
_symmetry_group_IT_number 25
_symmetry_cell_setting 'orthorhombic'
loop_
_space_group_symop_operation_xyz
x,y,z
-x,-y,z
-x,y,z
x,-y,z
loop_
_atom_site_type_symbol
_atom_site_label
_atom_site_fract_x
_atom_site_fract_y
_atom_site_fract_z
Si Si1 0.685001 0.602875 0.914640
Si Si2 0.813405 0.098460 0.200617
Si Si3 0.315522 0.097436 0.662318
Si Si4 0.678169 0.599849 0.277178
Si Si5 0.181428 0.281759 0.105089
Si Si6 0.316870 0.154091 0.423988
Si Si7 0.818490 0.659132 0.481394
Si Si8 0.185586 0.289712 0.714900
O O1 0.500000 0.600306 0.908380
O O2 0.741170 0.500000 0.921626
O O3 0.749940 0.654078 0.812269
O O4 0.732684 0.661438 0.016026
O O5 0.764492 0.180622 0.126145
O O6 0.734263 0.107661 0.315731
O O7 0.000000 0.106400 0.215013
O O8 0.780271 0.000000 0.157348
O O9 0.500000 0.102042 0.681679
O O10 0.294641 0.101962 0.534361
O O11 0.241604 0.186897 0.710279
O O12 0.258571 0.000000 0.699382
O O13 0.500000 0.627828 0.262425
O O14 0.695427 0.500000 0.234357
O O15 0.788934 0.666249 0.214818
O O16 0.720742 0.600316 0.400839
O O17 0.000000 0.280054 0.078886
O O18 0.500000 0.177215 0.417729
O O19 0.212804 0.241513 0.438216
O O20 0.767231 0.663687 0.603621
O O21 0.000000 0.636376 0.476231
O O22 0.000000 0.289065 0.718099
#
# Coordination Sequence:
#
# PCOD9337173 Si02
#       8
#     4   4   4   4   4   4   4   4
#     4  11  25  45  68  90 113 148 197 252 308 365
#     4  10  21  36  55  83 120 159 197 239 290 349
#     4   9  18  33  54  84 123 164 204 244 290 347
#     4  11  23  37  56  85 120 157 195 240 297 358
#     4  11  23  40  63  88 118 155 197 246 298 352
#     4  10  18  30  52  82 118 160 203 244 287 341
#     4  10  20  35  55  83 120 159 196 239 294 352
#     4  10  22  39  61  89 120 154 198 249 301 357
#
# _framework density 19.593872000000001
#
# number of rings (size 3 to 8) (size 9 to 14) (size 15 to 20)
#    0.000    1.750    1.250    3.000    0.000    7.500 
#    0.000    3.125    0.000    2.250    0.000    0.000 
#    0.000    0.000    0.000    0.000    0.000    0.000 
#
# Total GULP energy -178629.841909 kJ/mol
# GULP energy per Si atom -5582.182560 kJ/mol
# Density = 1.954928 g / cm^3
# Si number density = 19.593872 Si / 1000 Ang^3
#
#
#
# Elastic Constant Matrix: (Units=GPa)
#
#
# Indices 1 2 3 4 5 6 
#
# 1 30.0769 22.4828 18.4212 0.0000 0.0000 0.0000
# 2 22.4828 134.3960 59.6229 0.0000 0.0000 0.0000
# 3 18.4212 59.6229 99.2041 0.0000 0.0000 0.0000
# 4 0.0000 0.0000 0.0000 12.9480 0.0000 0.0000
# 5 0.0000 0.0000 0.0000 0.0000 30.9197 0.0000
# 6 0.0000 0.0000 0.0000 0.0000 0.0000 18.4260
#
#
#
# Elastic Compliance Matrix: (Units=1/GPa)
#
#
# Indices 1 2 3 4 5 6 
#
# 1 0.039471 -0.004570 -0.004583 0.000000 0.000000 0.000000
# 2 -0.004570 0.010675 -0.005567 0.000000 0.000000 0.000000
# 3 -0.004583 -0.005567 0.014277 0.000000 0.000000 0.000000
# 4 0.000000 0.000000 0.000000 0.077232 0.000000 0.000000
# 5 0.000000 0.000000 0.000000 0.000000 0.032342 0.000000
# 6 0.000000 0.000000 0.000000 0.000000 0.000000 0.054271
#
#
# Mechanical properties :
#
#
# Convention : Reuss Voigt Hill
#
# Bulk Modulus (GPa) = 28.58503 51.63674 40.11089
# Shear Modulus (GPa) = 18.56190 23.33543 20.94867
#
# Velocity S-wave (km/s) = 3.08121 3.45477 3.27332
# Velocity P-wave (km/s) = 5.22293 6.50574 5.89930
#
# Compressibility (1/GPa) = 0.03498334
#
# Stress axis : x y z
#
# Youngs Moduli (GPa) = 25.33504 93.67675 70.04180
#
# Poissons Ratio (x) = 0.42809 0.32099
# Poissons Ratio (y) = 0.11578 0.38994
# Poissons Ratio (z) = 0.11611 0.52152
#
# Static dielectric constant tensor:
#      x y z
#    x 1.659540 0.000000 0.000000 
#    y 0.000000 1.714930 0.000000 
#    z 0.000000 0.000000 1.684060 
# 
# From -- ./inp_files/4281.got.cif
#   From: 2010.05.17/outbox.cif.g08.bks.cpg/sg25_3_cif.got.tgz:4281.got - 2010.06.04 01:04:00.
