data_PCOD9337294
_publ_section_title
;
Structure prediction by ZEFSAII (Michael W. Deem and Ramdas Pophale) SiO2 
 PCOD9337294
Probable space group: P M M 2
;
_chemical_formula_sum "Si O2"
_cell_formula_units_Z 32
_cell_length_a 7.730315
_cell_length_b 14.456580
_cell_length_c 13.429521
_cell_angle_alpha 90.000000
_cell_angle_beta 90.000000
_cell_angle_gamma 90.000000
_cell_volume 1500.801578
_symmetry_space_group_name_H-M "P M M 2"
_symmetry_group_IT_number 25
_symmetry_cell_setting 'orthorhombic'
loop_
_space_group_symop_operation_xyz
x,y,z
-x,-y,z
-x,y,z
x,-y,z
loop_
_atom_site_type_symbol
_atom_site_label
_atom_site_fract_x
_atom_site_fract_y
_atom_site_fract_z
Si Si1 0.700065 0.104170 0.969510
Si Si2 0.787196 0.606787 0.232381
Si Si3 0.295474 0.607119 0.610397
Si Si4 0.196159 0.887988 0.747982
Si Si5 0.212861 0.105988 0.530728
Si Si6 0.791166 0.607283 0.830174
Si Si7 0.799041 0.277995 0.419795
Si Si8 0.797663 0.701415 0.030595
O O1 0.500000 0.100701 0.997148
O O2 0.712523 0.129423 0.852127
O O3 0.783270 0.187944 0.029239
O O4 0.774081 0.000000 0.981010
O O5 0.734266 0.500000 0.237777
O O6 0.725124 0.664561 0.327951
O O7 0.000000 0.607098 0.233654
O O8 0.727225 0.654185 0.129954
O O9 0.500000 0.607626 0.592250
O O10 0.234215 0.500000 0.609540
O O11 0.263464 0.643923 0.722015
O O12 0.210034 0.663007 0.521264
O O13 0.270593 0.860828 0.640927
O O14 0.000000 0.851573 0.757935
O O15 0.186795 0.000000 0.740061
O O16 0.274849 0.177939 0.448427
O O17 0.000000 0.107324 0.534703
O O18 0.264629 0.000000 0.514079
O O19 0.735198 0.500000 0.837292
O O20 0.725051 0.661706 0.926741
O O21 0.000000 0.608995 0.830444
O O22 0.000000 0.262158 0.395062
O O23 0.000000 0.676869 0.029082
#
# Coordination Sequence:
#
# PCOD9337294 Si02
#       8
#     4   4   4   4   4   4   4   4
#     4  10  21  35  50  73 107 143 178 218 265 317
#     4   9  18  34  56  82 109 136 173 225 274 314
#     4  10  21  35  50  73 108 142 170 211 269 326
#     4   8  14  27  47  69  97 136 177 215 254 300
#     4   8  15  28  47  74 107 139 173 213 255 301
#     4   9  18  33  53  76 102 134 173 217 267 325
#     4  10  19  32  55  82 107 139 180 218 261 315
#     4  10  20  34  55  79 103 136 181 225 268 315
#
# _framework density 21.321940999999999
#
# number of rings (size 3 to 8) (size 9 to 14) (size 15 to 20)
#    0.000    2.750    0.000    2.250    1.750    4.000 
#    0.000    1.250    0.000    4.500    0.000    0.000 
#    0.000    0.000    0.000    0.000    0.000    0.000 
#
# Total GULP energy -178580.992446 kJ/mol
# GULP energy per Si atom -5580.656014 kJ/mol
# Density = 2.127341 g / cm^3
# Si number density = 21.321941 Si / 1000 Ang^3
#
#
#
# Elastic Constant Matrix: (Units=GPa)
#
#
# Indices 1 2 3 4 5 6 
#
# 1 29.0438 -7.0357 -6.6869 0.0000 0.0000 0.0000
# 2 -7.0357 130.8825 77.6570 0.0000 0.0000 0.0000
# 3 -6.6869 77.6570 116.5808 0.0000 0.0000 0.0000
# 4 0.0000 0.0000 0.0000 38.5876 0.0000 0.0000
# 5 0.0000 0.0000 0.0000 0.0000 -183.0149 0.0000
# 6 0.0000 0.0000 0.0000 0.0000 0.0000 2.9712
#
#
#
# Elastic Compliance Matrix: (Units=1/GPa)
#
#
# Indices 1 2 3 4 5 6 
#
# 1 0.034994 0.001141 0.001247 0.000000 0.000000 0.000000
# 2 0.001141 0.012671 -0.008375 0.000000 0.000000 0.000000
# 3 0.001247 -0.008375 0.014228 0.000000 0.000000 0.000000
# 4 0.000000 0.000000 0.000000 0.025915 0.000000 0.000000
# 5 0.000000 0.000000 0.000000 0.000000 -0.005464 0.000000
# 6 0.000000 0.000000 0.000000 0.000000 0.000000 0.336562
#
#
# Mechanical properties :
#
#
# Convention : Reuss Voigt Hill
#
# Bulk Modulus (GPa) = 20.03207 44.93065 32.48136
# Shear Modulus (GPa) = 11.17270 -14.11971 -1.47350
#
# Velocity S-wave (km/s) = 2.29159 -2.57615 -0.83221
# Velocity P-wave (km/s) = 4.05182 3.50279 3.78727
#
# Compressibility (1/GPa) = 0.04991994
#
# Stress axis : x y z
#
# Youngs Moduli (GPa) = 28.57605 78.92100 70.28410
#
# Poissons Ratio (x) = -0.09007 -0.08765
# Poissons Ratio (y) = -0.03261 0.58862
# Poissons Ratio (z) = -0.03564 0.66096
#
# Static dielectric constant tensor:
#      x y z
#    x 1.814980 0.000000 0.000000 
#    y 0.000000 1.800790 0.000000 
#    z 0.000000 0.000000 1.756080 
# 
# From -- ./inp_files/4233.got.cif
#   From: 2010.05.17/outbox.cif.g08.bks.cpg/sg25_3_cif.got.tgz:4233.got - 2010.06.04 01:04:00.
