data_PCOD9337196
_publ_section_title
;
Structure prediction by ZEFSAII (Michael W. Deem and Ramdas Pophale) SiO2 
 PCOD9337196
Probable space group: P M M 2
;
_chemical_formula_sum "Si O2"
_cell_formula_units_Z 32
_cell_length_a 7.642307
_cell_length_b 15.938992
_cell_length_c 12.260713
_cell_angle_alpha 90.000000
_cell_angle_beta 90.000000
_cell_angle_gamma 90.000000
_cell_volume 1493.485667
_symmetry_space_group_name_H-M "P M M 2"
_symmetry_group_IT_number 25
_symmetry_cell_setting 'orthorhombic'
loop_
_space_group_symop_operation_xyz
x,y,z
-x,-y,z
-x,y,z
x,-y,z
loop_
_atom_site_type_symbol
_atom_site_label
_atom_site_fract_x
_atom_site_fract_y
_atom_site_fract_z
Si Si1 0.795340 0.257493 0.215330
Si Si2 0.211765 0.347570 0.827533
Si Si3 0.704725 0.592984 0.587531
Si Si4 0.214045 0.092726 0.608788
Si Si5 0.211765 0.847572 0.844992
Si Si6 0.214046 0.407274 0.063735
Si Si7 0.795339 0.242507 0.457194
Si Si8 0.704725 0.907016 0.084995
O O1 0.721625 0.331947 0.140115
O O2 0.717809 0.249999 0.336262
O O3 0.785519 0.169785 0.151494
O O4 0.000000 0.278998 0.229341
O O5 0.276676 0.388155 0.716112
O O6 0.263466 0.249999 0.836262
O O7 0.000000 0.350175 0.822638
O O8 0.268553 0.392280 0.938683
O O9 0.500000 0.592728 0.560433
O O10 0.777125 0.500000 0.564183
O O11 0.785516 0.669784 0.521029
O O12 0.268549 0.107719 0.733841
O O13 0.278375 0.168053 0.532411
O O14 0.000000 0.095729 0.610328
O O15 0.265853 0.000000 0.571520
O O16 0.000000 0.850177 0.849889
O O17 0.276679 0.888157 0.956413
O O18 0.265851 0.500000 0.101003
O O19 0.000000 0.404271 0.062193
O O20 0.000000 0.221003 0.443184
O O21 0.500000 0.907271 0.112095
O O22 0.777125 0.000000 0.108344
#
# Coordination Sequence:
#
# PCOD9337196 Si02
#       8
#     4   4   4   4   4   4   4   4
#     4  10  21  38  60  84 110 145 192 241 284 330
#     4  10  18  33  59  85 110 144 185 232 287 340
#     4  11  24  39  56  82 118 156 191 230 280 340
#     4   9  17  31  53  82 112 139 174 227 287 339
#     4  10  18  33  59  85 110 144 185 232 287 340
#     4   9  17  31  53  82 112 139 174 227 287 339
#     4  10  21  38  60  84 110 145 192 241 284 330
#     4  11  24  39  56  82 118 156 191 230 280 340
#
# _framework density 21.426386999999998
#
# number of rings (size 3 to 8) (size 9 to 14) (size 15 to 20)
#    0.000    2.000    2.500    1.500    0.000    5.000 
#    0.000    2.500    0.000    0.750    0.000    0.000 
#    0.000    0.000    0.000    0.000    0.000    0.000 
#
# Total GULP energy -178774.654870 kJ/mol
# GULP energy per Si atom -5586.707965 kJ/mol
# Density = 2.137762 g / cm^3
# Si number density = 21.426387 Si / 1000 Ang^3
#
#
#
# Elastic Constant Matrix: (Units=GPa)
#
#
# Indices 1 2 3 4 5 6 
#
# 1 35.6365 -11.9349 -8.5861 0.0000 0.0000 0.0000
# 2 -11.9349 164.8443 67.4819 0.0000 0.0000 0.0000
# 3 -8.5861 67.4819 149.6291 0.0000 0.0000 0.0000
# 4 0.0000 0.0000 0.0000 -2.2844 0.0000 0.0000
# 5 0.0000 0.0000 0.0000 0.0000 309.7523 0.0000
# 6 0.0000 0.0000 0.0000 0.0000 0.0000 58.2688
#
#
#
# Elastic Compliance Matrix: (Units=1/GPa)
#
#
# Indices 1 2 3 4 5 6 
#
# 1 0.028852 0.001731 0.000875 0.000000 0.000000 0.000000
# 2 0.001731 0.007544 -0.003303 0.000000 0.000000 0.000000
# 3 0.000875 -0.003303 0.008223 0.000000 0.000000 0.000000
# 4 0.000000 0.000000 0.000000 -0.437758 0.000000 0.000000
# 5 0.000000 0.000000 0.000000 0.000000 0.003228 0.000000
# 6 0.000000 0.000000 0.000000 0.000000 0.000000 0.017162
#
#
# Mechanical properties :
#
#
# Convention : Reuss Voigt Hill
#
# Bulk Modulus (GPa) = 23.13533 49.33686 36.23610
# Shear Modulus (GPa) = -14.00768 93.35729 39.67480
#
# Velocity S-wave (km/s) = -2.55964 6.60801 4.30778
# Velocity P-wave (km/s) = 1.44407 9.01650 6.45688
#
# Compressibility (1/GPa) = 0.04322393
#
# Stress axis : x y z
#
# Youngs Moduli (GPa) = 34.66020 132.56061 121.61041
#
# Poissons Ratio (x) = -0.22942 -0.10642
# Poissons Ratio (y) = -0.05998 0.40166
# Poissons Ratio (z) = -0.03033 0.43783
#
# Static dielectric constant tensor:
#      x y z
#    x 1.811870 0.000000 0.000000 
#    y 0.000000 1.770660 0.000000 
#    z 0.000000 0.000000 1.741400 
# 
# From -- ./inp_files/4205.got.cif
#   From: 2010.05.17/outbox.cif.g08.bks.cpg/sg25_3_cif.got.tgz:4205.got - 2010.06.04 01:04:00.
