data_PCOD9337053
_publ_section_title
;
Structure prediction by ZEFSAII (Michael W. Deem and Ramdas Pophale) SiO2 
 PCOD9337053
Probable space group: I 21 21 21
;
_chemical_formula_sum "Si O2"
_cell_formula_units_Z 32
_cell_length_a 12.000000
_cell_length_b 9.000000
_cell_length_c 30.000000
_cell_angle_alpha 90.000000
_cell_angle_beta 90.000000
_cell_angle_gamma 90.000000
_cell_volume 3240.000000
_symmetry_space_group_name_H-M "I 21 21 21"
_symmetry_group_IT_number 24
_symmetry_cell_setting 'orthorhombic'
loop_
_space_group_symop_operation_xyz
x,y,z
-x,1/2-y,z
x,-y,1/2-z
1/2-x,y,-z
1/2+x,1/2+y,1/2+z
1/2-x,-y,1/2+z
1/2+x,1/2-y,-z
-x,1/2+y,1/2-z
loop_
_atom_site_type_symbol
_atom_site_label
_atom_site_fract_x
_atom_site_fract_y
_atom_site_fract_z
Si Si1 0.987254 0.899927 0.425281
Si Si2 0.644294 0.912477 0.128449
Si Si3 0.784173 0.533805 0.049488
Si Si4 0.304140 0.621113 0.955249
Si Si5 0.382274 0.070703 0.369859
Si Si6 0.269389 0.937951 0.699627
Si Si7 0.669617 0.123080 0.838779
Si Si8 0.485240 0.077430 0.702849
O O1 0.907349 0.848299 0.383161
O O2 0.000000 0.750000 0.453766
O O3 0.915828 0.033851 0.444686
O O4 0.114196 0.956279 0.424368
O O5 0.712666 0.903577 0.082727
O O6 0.514074 0.945533 0.123866
O O7 0.646486 0.740805 0.145425
O O8 0.712193 0.042185 0.153508
O O9 0.823131 0.703354 0.041205
O O10 0.680600 0.539012 0.083625
O O11 0.750000 0.474493 0.000000
O O12 0.250000 0.562735 0.000000
O O13 0.336350 0.963146 0.331584
O O14 0.313320 0.768981 0.691903
O O15 0.247399 0.000000 0.750000
O O16 0.369843 0.037663 0.678979
O O17 0.593078 0.997805 0.816885
O O18 0.500000 0.250000 0.706508
O O19 0.470086 0.000000 0.750000
#
# Coordination Sequence:
#
# PCOD9337053 Si02
#       8
#     8   8   8   8   8   8   8   8
#     4  11  22  36  56  85 123 160 200 255 319 377
#     4   9  21  37  60  87 117 167 205 259 320 369
#     4  10  21  36  62  94 120 166 216 264 313 378
#     4   9  20  37  60  85 120 161 215 265 311 371
#     4  10  20  40  60  85 126 160 210 265 315 375
#     4  11  23  40  62  89 122 164 210 260 320 385
#     4  11  22  39  60  88 122 161 208 254 319 381
#     4  11  21  35  58  87 118 149 190 247 307 364
#
# _framework density 9.8765429999999999
#
# number of rings (size 3 to 8) (size 9 to 14) (size 15 to 20)
#    0.000    1.750    0.000    5.250    1.750    3.000 
#    0.000    3.125    0.000    0.000    0.000    0.000 
#    0.000    0.000    0.000    0.000    0.000    0.000 
#
# Total GULP energy -178196.016920 kJ/mol
# GULP energy per Si atom -5568.625529 kJ/mol
# Density = 0.985406 g / cm^3
# Si number density = 9.876543 Si / 1000 Ang^3
#
#
#
# Elastic Constant Matrix: (Units=GPa)
#
#
# Indices 1 2 3 4 5 6 
#
# 1 133.0556 37.7372 11.7988 0.0000 0.0000 0.0000
# 2 37.7372 69.8193 14.3970 0.0000 0.0000 0.0000
# 3 11.7988 14.3970 56.4745 0.0000 0.0000 0.0000
# 4 0.0000 0.0000 0.0000 13.2904 0.0000 0.0000
# 5 0.0000 0.0000 0.0000 0.0000 9.1835 0.0000
# 6 0.0000 0.0000 0.0000 0.0000 0.0000 -45.9336
#
#
#
# Elastic Compliance Matrix: (Units=1/GPa)
#
#
# Indices 1 2 3 4 5 6 
#
# 1 0.008900 -0.004673 -0.000668 0.000000 0.000000 0.000000
# 2 -0.004673 0.017571 -0.003503 0.000000 0.000000 0.000000
# 3 -0.000668 -0.003503 0.018740 0.000000 0.000000 0.000000
# 4 0.000000 0.000000 0.000000 0.075242 0.000000 0.000000
# 5 0.000000 0.000000 0.000000 0.000000 0.108891 0.000000
# 6 0.000000 0.000000 0.000000 0.000000 0.000000 -0.021771
#
#
# Mechanical properties :
#
#
# Convention : Reuss Voigt Hill
#
# Bulk Modulus (GPa) = 36.33385 43.02394 39.67889
# Shear Modulus (GPa) = 21.32786 8.33582 14.83184
#
# Velocity S-wave (km/s) = 3.28948 2.05650 2.74316
# Velocity P-wave (km/s) = 5.73250 5.24090 5.49220
#
# Compressibility (1/GPa) = 0.02752255
#
# Stress axis : x y z
#
# Youngs Moduli (GPa) = 112.35715 56.91317 53.36258
#
# Poissons Ratio (x) = 0.26594 0.03566
# Poissons Ratio (y) = 0.52502 0.18693
# Poissons Ratio (z) = 0.07508 0.19937
#
# Static dielectric constant tensor:
#      x y z
#    x 1.711170 0.000000 0.000000 
#    y 0.000000 1.710700 0.000000 
#    z 0.000000 0.000000 1.770170 
# 
# From -- ./inp_files/38638.got.cif
#   From: 2010.05.17/outbox.ucp.g08.bks.cvg/sg24_20_cif.got.tgz:38638.got - 2010.06.11 15:20:44.
