data_PCOD9337137
_publ_section_title
;
Structure prediction by ZEFSAII (Michael W. Deem and Ramdas Pophale) SiO2 
 PCOD9337137
Probable space group: P M M 2
;
_chemical_formula_sum "Si O2"
_cell_formula_units_Z 32
_cell_length_a 7.637071
_cell_length_b 14.534539
_cell_length_c 14.564249
_cell_angle_alpha 90.000000
_cell_angle_beta 90.000000
_cell_angle_gamma 90.000000
_cell_volume 1616.650664
_symmetry_space_group_name_H-M "P M M 2"
_symmetry_group_IT_number 25
_symmetry_cell_setting 'orthorhombic'
loop_
_space_group_symop_operation_xyz
x,y,z
-x,-y,z
-x,y,z
x,-y,z
loop_
_atom_site_type_symbol
_atom_site_label
_atom_site_fract_x
_atom_site_fract_y
_atom_site_fract_z
Si Si1 0.304650 0.247828 0.536190
Si Si2 0.201886 0.394348 0.399939
Si Si3 0.290091 0.739213 0.041217
Si Si4 0.292569 0.602759 0.670474
Si Si5 0.711627 0.604952 0.198900
Si Si6 0.286042 0.106228 0.177652
Si Si7 0.286826 0.891876 0.385251
Si Si8 0.791939 0.601674 0.884220
O O1 0.500000 0.216433 0.564663
O O2 0.314382 0.329943 0.462733
O O3 0.220483 0.305393 0.620473
O O4 0.222342 0.167251 0.472860
O O5 0.261036 0.500000 0.402382
O O6 0.216200 0.362381 0.295516
O O7 0.000000 0.390116 0.429605
O O8 0.500000 0.745231 0.043266
O O9 0.228058 0.663664 0.114124
O O10 0.227229 0.833292 0.090235
O O11 0.250051 0.691881 0.944069
O O12 0.500000 0.601664 0.649420
O O13 0.223082 0.500000 0.643172
O O14 0.272021 0.610216 0.779736
O O15 0.500000 0.609451 0.203709
O O16 0.765018 0.500000 0.186814
O O17 0.500000 0.109411 0.179430
O O18 0.231275 0.136750 0.281308
O O19 0.234653 0.000000 0.167469
O O20 0.500000 0.883111 0.386391
O O21 0.244893 0.000000 0.394941
O O22 0.726537 0.500000 0.919453
O O23 0.000000 0.596123 0.881626
#
# Coordination Sequence:
#
# PCOD9337137 Si02
#       8
#     4   4   4   4   4   4   4   4
#     4  10  18  29  49  73  94 120 157 197 236 278
#     4  10  20  30  40  60  93 129 159 188 226 274
#     4  10  18  29  49  72  92 119 157 198 238 280
#     4   9  18  32  49  69  93 122 158 199 239 281
#     4   9  17  28  42  62  89 121 156 191 227 273
#     4   8  14  25  43  70 101 128 155 190 232 276
#     4   8  14  26  46  73 102 127 153 190 234 277
#     4  10  21  35  50  69  94 124 157 195 240 289
#
# _framework density 19.794011000000001
#
# number of rings (size 3 to 8) (size 9 to 14) (size 15 to 20)
#    0.000    2.750    0.000    3.000    0.000    5.500 
#    0.000    2.500    0.000    1.500    0.000    5.250 
#    0.000    0.000    0.000    0.000    0.000    0.000 
#
# Total GULP energy -178204.887591 kJ/mol
# GULP energy per Si atom -5568.902737 kJ/mol
# Density = 1.974896 g / cm^3
# Si number density = 19.794011 Si / 1000 Ang^3
#
#
#
# Elastic Constant Matrix: (Units=GPa)
#
#
# Indices 1 2 3 4 5 6 
#
# 1 34.6128 8.1124 1.8450 0.0000 0.0000 0.0000
# 2 8.1124 113.3783 64.3626 0.0000 0.0000 0.0000
# 3 1.8450 64.3626 97.3373 0.0000 0.0000 0.0000
# 4 0.0000 0.0000 0.0000 29.3967 0.0000 0.0000
# 5 0.0000 0.0000 0.0000 0.0000 90.1184 0.0000
# 6 0.0000 0.0000 0.0000 0.0000 0.0000 -1.2967
#
#
#
# Elastic Compliance Matrix: (Units=1/GPa)
#
#
# Indices 1 2 3 4 5 6 
#
# 1 0.029492 -0.002870 0.001339 0.000000 0.000000 0.000000
# 2 -0.002870 0.014400 -0.009467 0.000000 0.000000 0.000000
# 3 0.001339 -0.009467 0.016508 0.000000 0.000000 0.000000
# 4 0.000000 0.000000 0.000000 0.034017 0.000000 0.000000
# 5 0.000000 0.000000 0.000000 0.000000 0.011097 0.000000
# 6 0.000000 0.000000 0.000000 0.000000 0.000000 -0.771170
#
#
# Mechanical properties :
#
#
# Convention : Reuss Voigt Hill
#
# Bulk Modulus (GPa) = 26.03948 43.77428 34.90688
# Shear Modulus (GPa) = -7.92572 35.04425 13.55926
#
# Velocity S-wave (km/s) = -2.00320 4.21223 2.62013
# Velocity P-wave (km/s) = 2.79882 6.76906 5.17946
#
# Compressibility (1/GPa) = 0.03840323
#
# Stress axis : x y z
#
# Youngs Moduli (GPa) = 33.90700 69.44573 60.57606
#
# Poissons Ratio (x) = 0.19933 -0.08111
# Poissons Ratio (y) = 0.09732 0.57348
# Poissons Ratio (z) = -0.04540 0.65745
#
# Static dielectric constant tensor:
#      x y z
#    x 1.688970 0.000000 0.000000 
#    y 0.000000 1.731650 0.000000 
#    z 0.000000 0.000000 1.722920 
# 
# From -- ./inp_files/5744.got.cif
#   From: 2010.05.17/outbox.cif.g08.bks.cpg/sg25_3_cif.got.tgz:5744.got - 2010.06.04 01:04:00.
