data_PCOD9337084
_publ_section_title
;
Structure prediction by ZEFSAII (Michael W. Deem and Ramdas Pophale) SiO2 
 PCOD9337084
Probable space group: I 21 21 21
;
_chemical_formula_sum "Si O2"
_cell_formula_units_Z 32
_cell_length_a 12.000000
_cell_length_b 18.000000
_cell_length_c 15.000000
_cell_angle_alpha 90.000000
_cell_angle_beta 90.000000
_cell_angle_gamma 90.000000
_cell_volume 3240.000000
_symmetry_space_group_name_H-M "I 21 21 21"
_symmetry_group_IT_number 24
_symmetry_cell_setting 'orthorhombic'
loop_
_space_group_symop_operation_xyz
x,y,z
-x,1/2-y,z
x,-y,1/2-z
1/2-x,y,-z
1/2+x,1/2+y,1/2+z
1/2-x,-y,1/2+z
1/2+x,1/2-y,-z
-x,1/2+y,1/2-z
loop_
_atom_site_type_symbol
_atom_site_label
_atom_site_fract_x
_atom_site_fract_y
_atom_site_fract_z
Si Si1 0.511538 0.336523 0.882937
Si Si2 0.988440 0.583363 0.204381
Si Si3 0.296032 0.336081 0.603622
Si Si4 0.288594 0.156485 0.603490
Si Si5 0.106031 0.805610 0.579727
Si Si6 0.364024 0.414340 0.259221
Si Si7 0.873777 0.412543 0.749929
Si Si8 0.252671 0.661221 0.598046
O O1 0.500000 0.250000 0.866910
O O2 0.557216 0.374011 0.793655
O O3 0.380185 0.356809 0.878601
O O4 0.573855 0.340510 0.980619
O O5 0.006439 0.500000 0.250000
O O6 0.890992 0.601816 0.131905
O O7 0.097463 0.619258 0.151325
O O8 0.250000 0.348473 0.500000
O O9 0.314742 0.246051 0.612597
O O10 0.196413 0.366711 0.665028
O O11 0.250000 0.145367 0.500000
O O12 0.193514 0.133641 0.675247
O O13 0.127217 0.869186 0.654074
O O14 0.210386 0.747323 0.587935
O O15 0.000000 0.750000 0.597542
O O16 0.326392 0.500000 0.250000
O O17 0.495663 0.414012 0.274847
O O18 0.330591 0.376030 0.166581
O O19 0.836216 0.500000 0.750000
O O20 0.250000 0.628174 0.500000
#
# Coordination Sequence:
#
# PCOD9337084 Si02
#       8
#     8   8   8   8   8   8   8   8
#     4  11  23  40  66 100 135 179 223 285 357 422
#     4  12  27  49  72 108 145 187 239 295 369 431
#     4  11  25  45  73 105 136 187 242 299 351 417
#     4  11  27  48  73 100 138 191 248 298 348 425
#     4  11  22  39  63 102 130 174 226 277 348 424
#     4  11  24  42  64 101 141 181 226 286 356 423
#     4  11  25  44  67  98 141 183 231 287 355 420
#     4  12  21  38  64  97 136 174 226 282 343 427
#
# _framework density 9.8765429999999999
#
# number of rings (size 3 to 8) (size 9 to 14) (size 15 to 20)
#    0.000    0.750    5.000    2.625    3.500    1.500 
#    2.250    0.625    0.000    0.000    0.000    0.000 
#    0.000    0.000    0.000    0.000    0.000    0.000 
#
# Total GULP energy -178170.374496 kJ/mol
# GULP energy per Si atom -5567.824203 kJ/mol
# Density = 0.985406 g / cm^3
# Si number density = 9.876543 Si / 1000 Ang^3
#
#
#
# Elastic Constant Matrix: (Units=GPa)
#
#
# Indices 1 2 3 4 5 6 
#
# 1 78.4665 18.6599 36.7140 0.0000 0.0000 0.0000
# 2 18.6599 115.2800 68.2469 0.0000 0.0000 0.0000
# 3 36.7140 68.2469 162.6879 0.0000 0.0000 0.0000
# 4 0.0000 0.0000 0.0000 40.6163 0.0000 0.0000
# 5 0.0000 0.0000 0.0000 0.0000 42.2552 0.0000
# 6 0.0000 0.0000 0.0000 0.0000 0.0000 31.9056
#
#
#
# Elastic Compliance Matrix: (Units=1/GPa)
#
#
# Indices 1 2 3 4 5 6 
#
# 1 0.014274 -0.000537 -0.002996 0.000000 0.000000 0.000000
# 2 -0.000537 0.011561 -0.004729 0.000000 0.000000 0.000000
# 3 -0.002996 -0.004729 0.008806 0.000000 0.000000 0.000000
# 4 0.000000 0.000000 0.000000 0.024621 0.000000 0.000000
# 5 0.000000 0.000000 0.000000 0.000000 0.023666 0.000000
# 6 0.000000 0.000000 0.000000 0.000000 0.000000 0.031342
#
#
# Mechanical properties :
#
#
# Convention : Reuss Voigt Hill
#
# Bulk Modulus (GPa) = 55.19276 67.07511 61.13393
# Shear Modulus (GPa) = 36.54118 38.47633 37.50876
#
# Velocity S-wave (km/s) = 4.30571 4.41825 4.36234
# Velocity P-wave (km/s) = 7.26091 7.74974 7.50930
#
# Compressibility (1/GPa) = 0.01811832
#
# Stress axis : x y z
#
# Youngs Moduli (GPa) = 70.05865 86.49944 113.55298
#
# Poissons Ratio (x) = 0.04643 0.34020
# Poissons Ratio (y) = 0.03761 0.53694
# Poissons Ratio (z) = 0.20990 0.40902
#
# Static dielectric constant tensor:
#      x y z
#    x 1.613030 0.000000 0.000000 
#    y 0.000000 1.699570 0.000000 
#    z 0.000000 0.000000 1.708400 
# 
# From -- ./inp_files/26005.got.cif
#   From: 2010.05.17/outbox.ucp.g08.bks.cvg/sg24_14_cif.got.tgz:26005.got - 2010.06.11 15:20:44.
