data_PCOD9337370
_publ_section_title
;
Structure prediction by ZEFSAII (Michael W. Deem and Ramdas Pophale) SiO2 
 PCOD9337370
Probable space group: P M M 2
;
_chemical_formula_sum "Si O2"
_cell_formula_units_Z 32
_cell_length_a 9.532477
_cell_length_b 8.450020
_cell_length_c 21.642065
_cell_angle_alpha 90.000000
_cell_angle_beta 90.000000
_cell_angle_gamma 90.000000
_cell_volume 1743.260140
_symmetry_space_group_name_H-M "P M M 2"
_symmetry_group_IT_number 25
_symmetry_cell_setting 'orthorhombic'
loop_
_space_group_symop_operation_xyz
x,y,z
-x,-y,z
-x,y,z
x,-y,z
loop_
_atom_site_type_symbol
_atom_site_label
_atom_site_fract_x
_atom_site_fract_y
_atom_site_fract_z
Si Si1 0.329656 0.182849 0.340300
Si Si2 0.337907 0.308338 0.979996
Si Si3 0.662369 0.191599 0.475975
Si Si4 0.337722 0.687564 0.208815
Si Si5 0.670740 0.316895 0.845341
Si Si6 0.838800 0.308574 0.591837
Si Si7 0.337332 0.306207 0.710583
Si Si8 0.159997 0.811253 0.095000
O O1 0.500000 0.184513 0.342863
O O2 0.286059 0.244494 0.407812
O O3 0.289078 0.274052 0.278485
O O4 0.285543 0.000000 0.333825
O O5 0.500000 0.258723 0.990160
O O6 0.338414 0.500000 0.977312
O O7 0.241698 0.255031 0.035828
O O8 0.289713 0.248212 0.912094
O O9 0.500000 0.242416 0.484762
O O10 0.756860 0.250845 0.531573
O O11 0.662588 0.000000 0.474575
O O12 0.500000 0.743613 0.202874
O O13 0.337423 0.500000 0.199567
O O14 0.241963 0.764519 0.156959
O O15 0.500000 0.319154 0.845267
O O16 0.718316 0.500000 0.845302
O O17 0.710644 0.248404 0.778577
O O18 0.837028 0.500000 0.592037
O O19 0.758319 0.255109 0.653774
O O20 0.000000 0.255848 0.591511
O O21 0.500000 0.260643 0.700712
O O22 0.335429 0.500000 0.712759
O O23 0.000000 0.752089 0.096772
O O24 0.157868 0.000000 0.090386
#
# Coordination Sequence:
#
# PCOD9337370 Si02
#       8
#     4   4   4   4   4   4   4   4
#     4   8  15  30  52  76 100 125 156 197 243 290
#     4   9  17  31  53  79 102 124 156 201 250 297
#     4   9  18  33  53  75  97 125 164 205 243 288
#     4  10  20  34  55  82 105 125 155 197 244 293
#     4   7  11  22  43  71  98 121 151 196 246 293
#     4  10  20  31  44  68 102 135 167 204 244 288
#     4   8  13  24  44  68  94 126 162 200 244 290
#     4  11  24  38  50  68  98 136 173 204 236 280
#
# _framework density 18.356411000000001
#
# number of rings (size 3 to 8) (size 9 to 14) (size 15 to 20)
#    0.000    3.000    0.000    3.750    0.000    5.000 
#    0.000    2.500    0.000    3.750    0.000    1.750 
#    0.000    0.000    0.000    0.000    0.000    0.000 
#
# Total GULP energy -178282.075740 kJ/mol
# GULP energy per Si atom -5571.314867 kJ/mol
# Density = 1.831463 g / cm^3
# Si number density = 18.356411 Si / 1000 Ang^3
#
#
#
# Elastic Constant Matrix: (Units=GPa)
#
#
# Indices 1 2 3 4 5 6 
#
# 1 90.9481 16.0351 90.7412 0.0000 0.0000 0.0000
# 2 16.0351 8.9756 19.4868 0.0000 0.0000 0.0000
# 3 90.7412 19.4868 201.9290 0.0000 0.0000 0.0000
# 4 0.0000 0.0000 0.0000 116.6191 0.0000 0.0000
# 5 0.0000 0.0000 0.0000 0.0000 -6.7801 0.0000
# 6 0.0000 0.0000 0.0000 0.0000 0.0000 17.3963
#
#
#
# Elastic Compliance Matrix: (Units=1/GPa)
#
#
# Indices 1 2 3 4 5 6 
#
# 1 0.023416 -0.024021 -0.008205 0.000000 0.000000 0.000000
# 2 -0.024021 0.165585 -0.005185 0.000000 0.000000 0.000000
# 3 -0.008205 -0.005185 0.009139 0.000000 0.000000 0.000000
# 4 0.000000 0.000000 0.000000 0.008575 0.000000 0.000000
# 5 0.000000 0.000000 0.000000 0.000000 -0.147490 0.000000
# 6 0.000000 0.000000 0.000000 0.000000 0.000000 0.057484
#
#
# Mechanical properties :
#
#
# Convention : Reuss Voigt Hill
#
# Bulk Modulus (GPa) = 8.10903 61.59764 34.85334
# Shear Modulus (GPa) = 21.49277 37.15303 29.32290
#
# Velocity S-wave (km/s) = 3.42549 4.50375 4.00111
# Velocity P-wave (km/s) = 4.48023 7.78937 6.35401
#
# Compressibility (1/GPa) = 0.12331929
#
# Stress axis : x y z
#
# Youngs Moduli (GPa) = 42.70535 6.03920 109.41527
#
# Poissons Ratio (x) = 0.14507 0.89770
# Poissons Ratio (y) = 1.02582 0.56733
# Poissons Ratio (z) = 0.35038 0.03131
#
# Static dielectric constant tensor:
#      x y z
#    x 1.609900 0.000000 0.000000 
#    y 0.000000 1.637320 0.000000 
#    z 0.000000 0.000000 1.653920 
# 
# From -- ./inp_files/6571.got.cif
#   From: 2010.05.17/outbox.cif.g08.bks.cpg/sg25_4_cif.got.tgz:6571.got - 2010.06.04 01:04:00.
