data_PCOD9337495
_publ_section_title
;
Structure prediction by ZEFSAII (Michael W. Deem and Ramdas Pophale) SiO2 
 PCOD9337495
Probable space group: P M M 2
;
_chemical_formula_sum "Si O2"
_cell_formula_units_Z 24
_cell_length_a 15.803097
_cell_length_b 7.777759
_cell_length_c 9.736957
_cell_angle_alpha 90.000000
_cell_angle_beta 90.000000
_cell_angle_gamma 90.000000
_cell_volume 1196.795479
_symmetry_space_group_name_H-M "P M M 2"
_symmetry_group_IT_number 25
_symmetry_cell_setting 'orthorhombic'
loop_
_space_group_symop_operation_xyz
x,y,z
-x,-y,z
-x,y,z
x,-y,z
loop_
_atom_site_type_symbol
_atom_site_label
_atom_site_fract_x
_atom_site_fract_y
_atom_site_fract_z
Si Si1 0.596106 0.792330 0.310870
Si Si2 0.903581 0.707724 0.303914
Si Si3 0.595643 0.789828 0.996317
Si Si4 0.250316 0.795792 0.814029
Si Si5 0.754108 0.297327 0.498231
Si Si6 0.904963 0.793553 0.989992
O O1 0.500000 0.736040 0.344638
O O2 0.668039 0.732770 0.414154
O O3 0.596106 0.000000 0.312765
O O4 0.614797 0.738656 0.153647
O O5 0.904297 0.500000 0.309743
O O6 0.833402 0.773222 0.410193
O O7 0.881202 0.757404 0.147915
O O8 0.000000 0.767648 0.331202
O O9 0.500000 0.734597 0.962826
O O10 0.666296 0.727441 0.890816
O O11 0.594950 0.000000 0.994794
O O12 0.251305 0.772204 0.651746
O O13 0.250212 0.000000 0.840605
O O14 0.165662 0.725525 0.886202
O O15 0.767247 0.500000 0.511003
O O16 0.000000 0.724900 0.967241
O O17 0.909166 0.000000 0.974581
#
# Coordination Sequence:
#
# PCOD9337495 Si02
#       6
#     4   4   4   4   4   4
#     4   9  18  35  59  81 100 129 170 212 257 311
#     4   9  19  36  55  74  99 135 177 216 257 308
#     4   8  15  30  53  77  96 120 162 209 246 290
#     4  10  20  33  50  73 103 136 167 204 253 307
#     4  11  23  35  49  74 108 141 173 212 255 300
#     4   9  18  33  54  79 102 126 165 218 266 304
#
# _framework density 20.053553000000001
#
# number of rings (size 3 to 8) (size 9 to 14) (size 15 to 20)
#    0.000    2.667    0.000    2.500    0.000    5.000 
#    0.000    2.500    0.000    1.000    0.000    0.000 
#    0.000    0.000    0.000    0.000    0.000    0.000 
#
# Total GULP energy -133934.734151 kJ/mol
# GULP energy per Si atom -5580.613923 kJ/mol
# Density = 2.000791 g / cm^3
# Si number density = 20.053553 Si / 1000 Ang^3
#
#
#
# Elastic Constant Matrix: (Units=GPa)
#
#
# Indices 1 2 3 4 5 6 
#
# 1 153.4538 -0.7656 123.7177 0.0000 0.0000 0.0000
# 2 -0.7656 21.7356 -10.3998 0.0000 0.0000 0.0000
# 3 123.7177 -10.3998 142.7397 0.0000 0.0000 0.0000
# 4 0.0000 0.0000 0.0000 66.6851 0.0000 0.0000
# 5 0.0000 0.0000 0.0000 0.0000 -4.2698 0.0000
# 6 0.0000 0.0000 0.0000 0.0000 0.0000 11.1401
#
#
#
# Elastic Compliance Matrix: (Units=1/GPa)
#
#
# Indices 1 2 3 4 5 6 
#
# 1 0.023267 -0.009148 -0.020833 0.000000 0.000000 0.000000
# 2 -0.009148 0.051266 0.011664 0.000000 0.000000 0.000000
# 3 -0.020833 0.011664 0.025912 0.000000 0.000000 0.000000
# 4 0.000000 0.000000 0.000000 0.014996 0.000000 0.000000
# 5 0.000000 0.000000 0.000000 0.000000 -0.234201 0.000000
# 6 0.000000 0.000000 0.000000 0.000000 0.000000 0.089766
#
#
# Mechanical properties :
#
#
# Convention : Reuss Voigt Hill
#
# Bulk Modulus (GPa) = 15.67108 60.33708 38.00408
# Shear Modulus (GPa) = 172.95465 28.40285 100.67875
#
# Velocity S-wave (km/s) = 9.29697 3.76753 7.09323
# Velocity P-wave (km/s) = 11.09398 7.00564 9.27781
#
# Compressibility (1/GPa) = 0.06381183
#
# Stress axis : x y z
#
# Youngs Moduli (GPa) = 42.97999 19.50600 38.59225
#
# Poissons Ratio (x) = 0.17844 0.80398
# Poissons Ratio (y) = 0.39319 -0.45015
# Poissons Ratio (z) = 0.89538 -0.22752
#
# Static dielectric constant tensor:
#      x y z
#    x 1.728410 0.000000 0.000000 
#    y 0.000000 1.731190 0.000000 
#    z 0.000000 0.000000 1.661600 
# 
# From -- ./inp_files/1987.got.cif
#   From: 2010.05.17/outbox.cif.g08.bks.cpg/sg25_1_cif.got.tgz:1987.got - 2010.06.04 01:04:00.
