data_PCOD9337901
_publ_section_title
;
Structure prediction by ZEFSAII (Michael W. Deem and Ramdas Pophale) SiO2 
 PCOD9337901
Probable space group: P M C 21
;
_chemical_formula_sum "Si O2"
_cell_formula_units_Z 32
_cell_length_a 9.118802
_cell_length_b 11.794744
_cell_length_c 17.766041
_cell_angle_alpha 90.000000
_cell_angle_beta 90.000000
_cell_angle_gamma 90.000000
_cell_volume 1910.807622
_symmetry_space_group_name_H-M "P M C 21"
_symmetry_group_IT_number 26
_symmetry_cell_setting 'orthorhombic'
loop_
_space_group_symop_operation_xyz
x,y,z
-x,-y,1/2+z
-x,y,z
x,-y,1/2+z
loop_
_atom_site_type_symbol
_atom_site_label
_atom_site_fract_x
_atom_site_fract_y
_atom_site_fract_z
Si Si1 0.174144 0.846986 0.774490
Si Si2 0.825963 0.260726 0.059969
Si Si3 0.168519 0.162586 0.682753
Si Si4 0.827334 0.390351 0.216690
Si Si5 0.674574 0.374482 0.748230
Si Si6 0.165656 0.937520 0.353503
Si Si7 0.325745 0.948890 0.628931
Si Si8 0.672882 0.727887 0.411580
O O1 0.198045 0.712577 0.775831
O O2 0.278932 0.894809 0.709403
O O3 0.000000 0.861901 0.752446
O O4 0.196476 0.928430 0.846000
O O5 0.796896 0.336043 0.134389
O O6 0.747990 0.139244 0.071718
O O7 0.000000 0.245193 0.055198
O O8 0.761697 0.313395 0.984010
O O9 0.247137 0.282557 0.694588
O O10 0.166679 0.107022 0.766826
O O11 0.000000 0.174759 0.658854
O O12 0.255061 0.073817 0.630643
O O13 0.732333 0.500338 0.232083
O O14 0.000000 0.419832 0.219314
O O15 0.500000 0.366264 0.738956
O O16 0.708648 0.339031 0.834684
O O17 0.278328 0.857772 0.396106
O O18 0.000000 0.920275 0.382773
O O19 0.500000 0.953074 0.620678
O O20 0.500000 0.720938 0.425025
#
# Coordination Sequence:
#
# PCOD9337901 Si02
#       8
#     4   4   4   4   4   4   4   4
#     4   8  15  28  45  67  94 123 157 194 232 281
#     4  10  20  34  51  71  96 128 166 206 249 301
#     4   9  16  28  46  67  93 124 157 192 231 279
#     4   9  18  32  50  72  97 128 170 212 246 290
#     4  10  20  32  48  73 102 131 167 209 252 297
#     4   8  14  26  45  67  91 120 152 188 232 282
#     4  10  17  26  44  70  97 121 148 188 240 290
#     4  10  20  32  47  71 100 127 159 203 254 306
#
# _framework density 16.746846000000001
#
# number of rings (size 3 to 8) (size 9 to 14) (size 15 to 20)
#    0.000    2.750    0.000    4.125    0.000    7.000 
#    0.000    0.000    0.000    1.500    0.000    5.250 
#    0.000    0.000    0.000    0.000    0.000    0.000 
#
# Total GULP energy -178211.401662 kJ/mol
# GULP energy per Si atom -5569.106302 kJ/mol
# Density = 1.670873 g / cm^3
# Si number density = 16.746846 Si / 1000 Ang^3
#
#
#
# Elastic Constant Matrix: (Units=GPa)
#
#
# Indices 1 2 3 4 5 6 
#
# 1 88.3340 57.6365 35.5125 0.0000 0.0000 0.0000
# 2 57.6365 118.7279 27.4970 0.0000 0.0000 0.0000
# 3 35.5125 27.4970 42.9051 0.0000 0.0000 0.0000
# 4 0.0000 0.0000 0.0000 11.2443 0.0000 0.0000
# 5 0.0000 0.0000 0.0000 0.0000 22.1404 0.0000
# 6 0.0000 0.0000 0.0000 0.0000 0.0000 20.9505
#
#
#
# Elastic Compliance Matrix: (Units=1/GPa)
#
#
# Indices 1 2 3 4 5 6 
#
# 1 0.021318 -0.007354 -0.012932 0.000000 0.000000 0.000000
# 2 -0.007354 0.012427 -0.001878 0.000000 0.000000 0.000000
# 3 -0.012932 -0.001878 0.035214 0.000000 0.000000 0.000000
# 4 0.000000 0.000000 0.000000 0.088934 0.000000 0.000000
# 5 0.000000 0.000000 0.000000 0.000000 0.045166 0.000000
# 6 0.000000 0.000000 0.000000 0.000000 0.000000 0.047731
#
#
# Mechanical properties :
#
#
# Convention : Reuss Voigt Hill
#
# Bulk Modulus (GPa) = 40.59625 54.58433 47.59029
# Shear Modulus (GPa) = 16.48374 19.48844 17.98609
#
# Velocity S-wave (km/s) = 3.14074 3.41502 3.28075
# Velocity P-wave (km/s) = 6.11932 6.94365 6.54448
#
# Compressibility (1/GPa) = 0.02463282
#
# Stress axis : x y z
#
# Youngs Moduli (GPa) = 46.90913 80.46742 28.39747
#
# Poissons Ratio (x) = 0.59174 0.36723
# Poissons Ratio (y) = 0.34496 0.05332
# Poissons Ratio (z) = 0.60662 0.15110
#
# Static dielectric constant tensor:
#      x y z
#    x 1.557260 0.000000 0.000000 
#    y 0.000000 1.577830 0.000000 
#    z 0.000000 0.000000 1.590440 
# 
# From -- ./inp_files/5016.got.cif
#   From: 2010.05.17/outbox.cif.g08.bks.cpg/sg26_3_cif.got.tgz:5016.got - 2010.06.04 01:07:29.
