data_PCOD9337282
_publ_section_title
;
Structure prediction by ZEFSAII (Michael W. Deem and Ramdas Pophale) SiO2 
 PCOD9337282
Probable space group: P M M 2
;
_chemical_formula_sum "Si O2"
_cell_formula_units_Z 24
_cell_length_a 8.721653
_cell_length_b 16.123593
_cell_length_c 9.868497
_cell_angle_alpha 90.000000
_cell_angle_beta 90.000000
_cell_angle_gamma 90.000000
_cell_volume 1387.751304
_symmetry_space_group_name_H-M "P M M 2"
_symmetry_group_IT_number 25
_symmetry_cell_setting 'orthorhombic'
loop_
_space_group_symop_operation_xyz
x,y,z
-x,-y,z
-x,y,z
x,-y,z
loop_
_atom_site_type_symbol
_atom_site_label
_atom_site_fract_x
_atom_site_fract_y
_atom_site_fract_z
Si Si1 0.814872 0.231351 0.201480
Si Si2 0.316907 0.904100 0.000467
Si Si3 0.682249 0.234614 0.504286
Si Si4 0.180714 0.408580 0.515218
Si Si5 0.816250 0.095732 0.701033
Si Si6 0.181358 0.411437 0.186863
O O1 0.755609 0.223970 0.355176
O O2 0.759518 0.321322 0.144518
O O3 0.000000 0.231703 0.203832
O O4 0.753248 0.158035 0.109168
O O5 0.500000 0.893796 0.992992
O O6 0.244508 0.889387 0.852820
O O7 0.284576 0.000000 0.037156
O O8 0.500000 0.231500 0.493128
O O9 0.732586 0.325641 0.558505
O O10 0.743070 0.161978 0.600326
O O11 0.233452 0.500000 0.563389
O O12 0.192351 0.410526 0.350913
O O13 0.000000 0.400565 0.547224
O O14 0.000000 0.103383 0.698501
O O15 0.776667 0.000000 0.665286
O O16 0.248275 0.500000 0.139840
O O17 0.000000 0.412921 0.154270
#
# Coordination Sequence:
#
# PCOD9337282 Si02
#       6
#     4   4   4   4   4   4
#     4  10  19  32  52  77 104 135 172 211 249 295
#     4  10  21  37  55  75 101 132 165 206 260 314
#     4  11  21  32  50  78 110 138 167 211 262 304
#     4   8  14  27  47  70  99 135 172 208 247 296
#     4  10  21  38  58  76  96 129 173 214 254 309
#     4   7  11  22  42  68  96 126 161 200 240 282
#
# _framework density 17.294166000000001
#
# number of rings (size 3 to 8) (size 9 to 14) (size 15 to 20)
#    0.000    2.667    0.000    5.000    0.000    3.000 
#    0.000    0.000    0.000    2.500    0.000    2.333 
#    0.000    0.000    0.000    0.000    0.000    0.000 
#
# Total GULP energy -133695.862434 kJ/mol
# GULP energy per Si atom -5570.660935 kJ/mol
# Density = 1.725480 g / cm^3
# Si number density = 17.294166 Si / 1000 Ang^3
#
#
#
# Elastic Constant Matrix: (Units=GPa)
#
#
# Indices 1 2 3 4 5 6 
#
# 1 65.6322 63.0896 27.8653 0.0000 0.0000 0.0000
# 2 63.0896 178.0536 77.3227 0.0000 0.0000 0.0000
# 3 27.8653 77.3227 48.0509 0.0000 0.0000 0.0000
# 4 0.0000 0.0000 0.0000 -14.3513 0.0000 0.0000
# 5 0.0000 0.0000 0.0000 0.0000 48.2982 0.0000
# 6 0.0000 0.0000 0.0000 0.0000 0.0000 19.3786
#
#
#
# Elastic Compliance Matrix: (Units=1/GPa)
#
#
# Indices 1 2 3 4 5 6 
#
# 1 0.023115 -0.007866 -0.000747 0.000000 0.000000 0.000000
# 2 -0.007866 0.021324 -0.029753 0.000000 0.000000 0.000000
# 3 -0.000747 -0.029753 0.069122 0.000000 0.000000 0.000000
# 4 0.000000 0.000000 0.000000 -0.069680 0.000000 0.000000
# 5 0.000000 0.000000 0.000000 0.000000 0.020705 0.000000
# 6 0.000000 0.000000 0.000000 0.000000 0.000000 0.051603
#
#
# Mechanical properties :
#
#
# Convention : Reuss Voigt Hill
#
# Bulk Modulus (GPa) = 27.15189 69.81019 48.48104
# Shear Modulus (GPa) = 24.36688 18.89570 21.63129
#
# Velocity S-wave (km/s) = 3.75769 3.30904 3.54048
# Velocity P-wave (km/s) = 5.87887 7.41981 6.69383
#
# Compressibility (1/GPa) = 0.03682984
#
# Stress axis : x y z
#
# Youngs Moduli (GPa) = 43.26262 46.89538 14.46714
#
# Poissons Ratio (x) = 0.36887 0.01080
# Poissons Ratio (y) = 0.34030 0.43044
# Poissons Ratio (z) = 0.03231 1.39527
#
# Static dielectric constant tensor:
#      x y z
#    x 1.520510 0.000000 0.000000 
#    y 0.000000 1.634350 0.000000 
#    z 0.000000 0.000000 1.545430 
# 
# From -- ./inp_files/2005.got.cif
#   From: 2010.05.17/outbox.cif.g08.bks.cpg/sg25_2_cif.got.tgz:2005.got - 2010.06.04 01:04:00.
