data_PCOD9337564
_publ_section_title
;
Structure prediction by ZEFSAII (Michael W. Deem and Ramdas Pophale) SiO2 
 PCOD9337564
Probable space group: P M M 2
;
_chemical_formula_sum "Si O2"
_cell_formula_units_Z 28
_cell_length_a 9.101620
_cell_length_b 9.389004
_cell_length_c 18.669946
_cell_angle_alpha 90.000000
_cell_angle_beta 90.000000
_cell_angle_gamma 90.000000
_cell_volume 1595.442972
_symmetry_space_group_name_H-M "P M M 2"
_symmetry_group_IT_number 25
_symmetry_cell_setting 'orthorhombic'
loop_
_space_group_symop_operation_xyz
x,y,z
-x,-y,z
-x,y,z
x,-y,z
loop_
_atom_site_type_symbol
_atom_site_label
_atom_site_fract_x
_atom_site_fract_y
_atom_site_fract_z
Si Si1 0.169062 0.826736 0.957790
Si Si2 0.323547 0.832659 0.528069
Si Si3 0.674952 0.169266 0.104852
Si Si4 0.320835 0.663845 0.669208
Si Si5 0.324043 0.168804 0.811334
Si Si6 0.176173 0.833120 0.379339
Si Si7 0.176575 0.667635 0.235831
O O1 0.245548 0.781698 0.883952
O O2 0.000000 0.781022 0.961054
O O3 0.171856 0.000000 0.956976
O O4 0.255533 0.783712 0.029176
O O5 0.500000 0.819788 0.522068
O O6 0.273642 0.743277 0.596808
O O7 0.250953 0.787464 0.453424
O O8 0.289599 0.000000 0.539278
O O9 0.500000 0.187406 0.103019
O O10 0.745411 0.254758 0.170051
O O11 0.705907 0.000000 0.113808
O O12 0.500000 0.666789 0.668967
O O13 0.274149 0.500000 0.670130
O O14 0.275272 0.746470 0.740919
O O15 0.500000 0.185484 0.819668
O O16 0.295799 0.000000 0.801295
O O17 0.220596 0.741049 0.310717
O O18 0.000000 0.822946 0.386968
O O19 0.212968 0.000000 0.367152
O O20 0.209328 0.500000 0.236708
O O21 0.000000 0.685112 0.228577
#
# Coordination Sequence:
#
# PCOD9337564 Si02
#       7
#     4   4   4   4   4   4   4
#     4   9  17  30  50  75 100 127 162 204 248 293
#     4   9  17  30  49  72  96 123 159 202 244 287
#     4  10  20  34  54  79 104 131 167 210 253 298
#     4   9  17  29  46  69  96 126 160 197 240 290
#     4   9  16  28  48  71  94 122 159 202 244 287
#     4   9  18  33  52  73  98 129 164 202 246 295
#     4  10  21  36  53  74 102 136 171 206 249 302
#
# _framework density 17.549985
#
# number of rings (size 3 to 8) (size 9 to 14) (size 15 to 20)
#    0.000    2.714    0.000    1.714    0.000    6.286 
#    0.000    2.857    0.000    7.286    0.000    0.000 
#    0.000    0.000    0.000    0.000    0.000    0.000 
#
# Total GULP energy -156160.912205 kJ/mol
# GULP energy per Si atom -5577.175436 kJ/mol
# Density = 1.751004 g / cm^3
# Si number density = 17.549985 Si / 1000 Ang^3
#
#
#
# Elastic Constant Matrix: (Units=GPa)
#
#
# Indices 1 2 3 4 5 6 
#
# 1 35.0401 45.6799 68.3153 0.0000 0.0000 0.0000
# 2 45.6799 76.8563 100.8898 0.0000 0.0000 0.0000
# 3 68.3153 100.8898 229.3373 0.0000 0.0000 0.0000
# 4 0.0000 0.0000 0.0000 -4.7813 0.0000 0.0000
# 5 0.0000 0.0000 0.0000 0.0000 101.7954 0.0000
# 6 0.0000 0.0000 0.0000 0.0000 0.0000 15.1950
#
#
#
# Elastic Compliance Matrix: (Units=1/GPa)
#
#
# Indices 1 2 3 4 5 6 
#
# 1 0.139464 -0.067113 -0.012019 0.000000 0.000000 0.000000
# 2 -0.067113 0.063091 -0.007763 0.000000 0.000000 0.000000
# 3 -0.012019 -0.007763 0.011356 0.000000 0.000000 0.000000
# 4 0.000000 0.000000 0.000000 -0.209148 0.000000 0.000000
# 5 0.000000 0.000000 0.000000 0.000000 0.009824 0.000000
# 6 0.000000 0.000000 0.000000 0.000000 0.000000 0.065811
#
#
# Mechanical properties :
#
#
# Convention : Reuss Voigt Hill
#
# Bulk Modulus (GPa) = 24.92548 85.66706 55.29627
# Shear Modulus (GPa) = 18.68716 30.86507 24.77612
#
# Velocity S-wave (km/s) = 3.26666 4.19823 3.76140
# Velocity P-wave (km/s) = 5.33493 8.50995 7.10214
#
# Compressibility (1/GPa) = 0.04011958
#
# Stress axis : x y z
#
# Youngs Moduli (GPa) = 7.17030 15.85006 88.05973
#
# Poissons Ratio (x) = 1.06375 1.05842
# Poissons Ratio (y) = 0.48122 0.68363
# Poissons Ratio (z) = 0.08618 0.12305
#
# Static dielectric constant tensor:
#      x y z
#    x 1.587170 0.000000 0.000000 
#    y 0.000000 1.583830 0.000000 
#    z 0.000000 0.000000 1.573570 
# 
# From -- ./inp_files/6036.got.cif
#   From: 2010.05.17/outbox.cif.g08.bks.cpg/sg25_4_cif.got.tgz:6036.got - 2010.06.04 01:04:00.
