data_PCOD9337212
_publ_section_title
;
Structure prediction by ZEFSAII (Michael W. Deem and Ramdas Pophale) SiO2 
 PCOD9337212
Probable space group: P M M 2
;
_chemical_formula_sum "Si O2"
_cell_formula_units_Z 32
_cell_length_a 15.173591
_cell_length_b 8.747778
_cell_length_c 12.755523
_cell_angle_alpha 90.000000
_cell_angle_beta 90.000000
_cell_angle_gamma 90.000000
_cell_volume 1693.106967
_symmetry_space_group_name_H-M "P M M 2"
_symmetry_group_IT_number 25
_symmetry_cell_setting 'orthorhombic'
loop_
_space_group_symop_operation_xyz
x,y,z
-x,-y,z
-x,y,z
x,-y,z
loop_
_atom_site_type_symbol
_atom_site_label
_atom_site_fract_x
_atom_site_fract_y
_atom_site_fract_z
Si Si1 0.663570 0.674794 0.807540
Si Si2 0.717070 0.817961 0.592688
Si Si3 0.602463 0.813274 0.392453
Si Si4 0.280696 0.813154 0.194006
Si Si5 0.863515 0.323044 0.884668
Si Si6 0.902879 0.815815 0.109993
Si Si7 0.597006 0.820546 0.006792
Si Si8 0.903326 0.684807 0.650194
O O1 0.644418 0.500000 0.780306
O O2 0.671680 0.770718 0.701869
O O3 0.759144 0.681132 0.863567
O O4 0.600013 0.738399 0.895878
O O5 0.655162 0.766385 0.496999
O O6 0.816046 0.749142 0.594950
O O7 0.725421 0.000000 0.587092
O O8 0.500000 0.763181 0.388751
O O9 0.662086 0.763746 0.293660
O O10 0.600368 0.000000 0.391184
O O11 0.179425 0.762999 0.180926
O O12 0.281388 0.000000 0.195443
O O13 0.331449 0.763231 0.089020
O O14 0.890398 0.500000 0.898612
O O15 0.900938 0.266636 0.773049
O O16 0.887833 0.233421 0.989258
O O17 0.000000 0.761967 0.143278
O O18 0.902337 0.000000 0.112942
O O19 0.500000 0.806733 0.055248
O O20 0.614292 0.000000 0.987962
O O21 0.896001 0.500000 0.650763
O O22 0.000000 0.726502 0.606747
#
# Coordination Sequence:
#
# PCOD9337212 Si02
#       8
#     4   4   4   4   4   4   4   4
#     4  10  20  34  51  73 107 147 178 209 262 325
#     4  10  20  33  53  81 109 135 178 234 275 311
#     4   9  18  34  56  79 102 135 179 225 274 326
#     4   9  17  32  52  75 106 137 170 215 267 320
#     4   9  17  30  48  70  99 138 179 210 242 296
#     4  10  19  29  46  75 107 137 169 207 256 310
#     4  10  19  31  52  80 105 133 171 215 266 324
#     4   9  18  33  52  75 107 148 186 216 259 323
#
# _framework density 18.900164
#
# number of rings (size 3 to 8) (size 9 to 14) (size 15 to 20)
#    0.000    2.500    1.250    2.250    0.000    5.250 
#    0.000    1.875    0.000    6.375    0.000    0.000 
#    0.000    0.000    0.000    0.000    0.000    0.000 
#
# Total GULP energy -178358.894746 kJ/mol
# GULP energy per Si atom -5573.715461 kJ/mol
# Density = 1.885715 g / cm^3
# Si number density = 18.900164 Si / 1000 Ang^3
#
#
#
# Elastic Constant Matrix: (Units=GPa)
#
#
# Indices 1 2 3 4 5 6 
#
# 1 154.9216 24.7377 80.2782 0.0000 0.0000 0.0000
# 2 24.7377 11.9603 11.9180 0.0000 0.0000 0.0000
# 3 80.2782 11.9180 102.4485 0.0000 0.0000 0.0000
# 4 0.0000 0.0000 0.0000 -1.8778 0.0000 0.0000
# 5 0.0000 0.0000 0.0000 0.0000 16.9980 0.0000
# 6 0.0000 0.0000 0.0000 0.0000 0.0000 11.6972
#
#
#
# Elastic Compliance Matrix: (Units=1/GPa)
#
#
# Indices 1 2 3 4 5 6 
#
# 1 0.014370 -0.020927 -0.008826 0.000000 0.000000 0.000000
# 2 -0.020927 0.125048 0.001851 0.000000 0.000000 0.000000
# 3 -0.008826 0.001851 0.016461 0.000000 0.000000 0.000000
# 4 0.000000 0.000000 0.000000 -0.532531 0.000000 0.000000
# 5 0.000000 0.000000 0.000000 0.000000 0.058831 0.000000
# 6 0.000000 0.000000 0.000000 0.000000 0.000000 0.085491
#
#
# Mechanical properties :
#
#
# Convention : Reuss Voigt Hill
#
# Bulk Modulus (GPa) = 9.99234 55.91093 32.95164
# Shear Modulus (GPa) = -34.92372 15.52323 -9.70024
#
# Velocity S-wave (km/s) = -4.30327 2.86899 -2.26793
# Velocity P-wave (km/s) = 4.40368 6.37348 3.25798
#
# Compressibility (1/GPa) = 0.10007662
#
# Stress axis : x y z
#
# Youngs Moduli (GPa) = 69.59062 7.99691 60.74819
#
# Poissons Ratio (x) = 0.16735 0.53614
# Poissons Ratio (y) = 1.45630 -0.11244
# Poissons Ratio (z) = 0.61418 -0.01480
#
# Static dielectric constant tensor:
#      x y z
#    x 1.713500 0.000000 0.000000 
#    y 0.000000 1.644370 0.000000 
#    z 0.000000 0.000000 1.633370 
# 
# From -- ./inp_files/4914.got.cif
#   From: 2010.05.17/outbox.cif.g08.bks.cpg/sg25_3_cif.got.tgz:4914.got - 2010.06.04 01:04:00.
