data_PCOD9337580
_publ_section_title
;
Structure prediction by ZEFSAII (Michael W. Deem and Ramdas Pophale) SiO2 
 PCOD9337580
Probable space group: P M M 2
;
_chemical_formula_sum "Si O2"
_cell_formula_units_Z 32
_cell_length_a 8.097505
_cell_length_b 15.299532
_cell_length_c 12.706971
_cell_angle_alpha 90.000000
_cell_angle_beta 90.000000
_cell_angle_gamma 90.000000
_cell_volume 1574.241692
_symmetry_space_group_name_H-M "P M M 2"
_symmetry_group_IT_number 25
_symmetry_cell_setting 'orthorhombic'
loop_
_space_group_symop_operation_xyz
x,y,z
-x,-y,z
-x,y,z
x,-y,z
loop_
_atom_site_type_symbol
_atom_site_label
_atom_site_fract_x
_atom_site_fract_y
_atom_site_fract_z
Si Si1 0.195475 0.724346 0.525880
Si Si2 0.698375 0.904914 0.603936
Si Si3 0.306288 0.132987 0.838994
Si Si4 0.304541 0.601002 0.335804
Si Si5 0.199601 0.321638 0.901320
Si Si6 0.700127 0.095840 0.073839
Si Si7 0.197184 0.711614 0.135561
Si Si8 0.798909 0.407141 0.696742
O O1 0.258476 0.823084 0.531052
O O2 0.232546 0.662764 0.427081
O O3 0.264137 0.672459 0.627276
O O4 0.000000 0.730955 0.536331
O O5 0.500000 0.905666 0.611135
O O6 0.762415 0.893349 0.724792
O O7 0.754117 0.000000 0.564995
O O8 0.500000 0.109585 0.837834
O O9 0.281086 0.235846 0.852289
O O10 0.240189 0.098577 0.951390
O O11 0.500000 0.596321 0.352386
O O12 0.240861 0.500000 0.334964
O O13 0.271459 0.653479 0.228035
O O14 0.241179 0.397029 0.819345
O O15 0.000000 0.310079 0.900368
O O16 0.250477 0.327246 0.022207
O O17 0.500000 0.100002 0.072334
O O18 0.758508 0.184737 0.130709
O O19 0.747422 0.000000 0.117612
O O20 0.000000 0.705529 0.143988
O O21 0.740948 0.500000 0.654087
O O22 0.000000 0.405880 0.689818
#
# Coordination Sequence:
#
# PCOD9337580 Si02
#       8
#     4   4   4   4   4   4   4   4
#     4  11  22  38  61  86 116 150 191 242 291 342
#     4  10  20  34  54  82 118 159 199 237 283 340
#     4   9  16  28  49  77 113 156 200 238 274 325
#     4  11  25  45  67  87 110 145 191 242 294 349
#     4   9  17  31  51  79 116 153 188 228 281 338
#     4   9  17  31  53  82 118 161 203 238 280 336
#     4  10  21  36  58  87 118 151 192 241 291 342
#     4   9  17  30  51  80 113 148 182 221 278 343
#
# _framework density 20.327245000000001
#
# number of rings (size 3 to 8) (size 9 to 14) (size 15 to 20)
#    0.000    2.250    1.250    1.875    0.000    4.500 
#    0.000    1.875    0.000    7.125    0.000    0.000 
#    0.000    0.000    0.000    0.000    0.000    0.000 
#
# Total GULP energy -178366.158958 kJ/mol
# GULP energy per Si atom -5573.942467 kJ/mol
# Density = 2.028098 g / cm^3
# Si number density = 20.327245 Si / 1000 Ang^3
#
#
#
# Elastic Constant Matrix: (Units=GPa)
#
#
# Indices 1 2 3 4 5 6 
#
# 1 16.4625 10.2135 1.1189 0.0000 0.0000 0.0000
# 2 10.2135 163.7705 54.5911 0.0000 0.0000 0.0000
# 3 1.1189 54.5911 74.3939 0.0000 0.0000 0.0000
# 4 0.0000 0.0000 0.0000 11.8035 0.0000 0.0000
# 5 0.0000 0.0000 0.0000 0.0000 15.4621 0.0000
# 6 0.0000 0.0000 0.0000 0.0000 0.0000 -71.8575
#
#
#
# Elastic Compliance Matrix: (Units=1/GPa)
#
#
# Indices 1 2 3 4 5 6 
#
# 1 0.063562 -0.004826 0.002585 0.000000 0.000000 0.000000
# 2 -0.004826 0.008450 -0.006128 0.000000 0.000000 0.000000
# 3 0.002585 -0.006128 0.017900 0.000000 0.000000 0.000000
# 4 0.000000 0.000000 0.000000 0.084721 0.000000 0.000000
# 5 0.000000 0.000000 0.000000 0.000000 0.064674 0.000000
# 6 0.000000 0.000000 0.000000 0.000000 0.000000 -0.013916
#
#
# Mechanical properties :
#
#
# Convention : Reuss Voigt Hill
#
# Bulk Modulus (GPa) = 13.66589 42.94156 28.30373
# Shear Modulus (GPa) = 18.76036 3.66183 11.21110
#
# Velocity S-wave (km/s) = 3.04125 1.34363 2.35102
# Velocity P-wave (km/s) = 4.36690 4.85573 4.61779
#
# Compressibility (1/GPa) = 0.07317487
#
# Stress axis : x y z
#
# Youngs Moduli (GPa) = 15.73258 118.34684 55.86651
#
# Poissons Ratio (x) = 0.57112 -0.14443
# Poissons Ratio (y) = 0.07592 0.34235
# Poissons Ratio (z) = -0.04067 0.72522
#
# Static dielectric constant tensor:
#      x y z
#    x 1.722780 0.000000 0.000000 
#    y 0.000000 1.777840 0.000000 
#    z 0.000000 0.000000 1.733790 
# 
# From -- ./inp_files/4234.got.cif
#   From: 2010.05.17/outbox.cif.g08.bks.cpg/sg25_3_cif.got.tgz:4234.got - 2010.06.04 01:04:00.
