data_PCOD9337767
_publ_section_title
;
Structure prediction by ZEFSAII (Michael W. Deem and Ramdas Pophale) SiO2 
 PCOD9337767
Probable space group: P M M 2
;
_chemical_formula_sum "Si O2"
_cell_formula_units_Z 17
_cell_length_a 7.532666
_cell_length_b 10.793660
_cell_length_c 10.132808
_cell_angle_alpha 90.000000
_cell_angle_beta 90.000000
_cell_angle_gamma 90.000000
_cell_volume 823.848316
_symmetry_space_group_name_H-M "P M M 2"
_symmetry_group_IT_number 25
_symmetry_cell_setting 'orthorhombic'
loop_
_space_group_symop_operation_xyz
x,y,z
-x,-y,z
-x,y,z
x,-y,z
loop_
_atom_site_type_symbol
_atom_site_label
_atom_site_fract_x
_atom_site_fract_y
_atom_site_fract_z
Si Si1 0.697428 0.206034 0.803100
Si Si2 0.783019 0.141279 0.223033
Si Si3 0.785535 0.363107 0.035143
Si Si4 0.785569 0.856738 0.524356
Si Si5 0.000000 0.000000 0.853268
O O1 0.500000 0.159859 0.830543
O O2 0.716376 0.222467 0.645558
O O3 0.845739 0.108087 0.847306
O O4 0.729389 0.329017 0.887451
O O5 0.722337 0.249612 0.126806
O O6 0.731372 0.169348 0.374481
O O7 0.000000 0.138718 0.218593
O O8 0.727481 0.000000 0.189903
O O9 0.724716 0.500000 0.074944
O O10 0.000000 0.362667 0.041932
O O11 0.000000 0.852747 0.528606
O O12 0.735586 0.000000 0.552590
#
# Coordination Sequence:
#
# PCOD9337767 Si02
#       5
#     4   4   4   4   1
#     4  12  23  36  62  91 123 163 201 246 305 364
#     4   8  16  29  56  85 115 157 203 248 304 360
#     4  10  21  38  58  85 123 167 209 255 303 356
#     4   9  15  31  53  84 121 154 191 248 304 357
#     4  12  22  40  58  92 128 156 196 258 300 366
#
# _framework density 20.634867
#
# number of rings (size 3 to 8) (size 9 to 14) (size 15 to 20)
#    0.000    2.118    3.529    1.765    1.647    0.471 
#    0.000    2.353    0.000    5.647    0.000    0.000 
#    0.000    0.000    0.000    0.000    0.000    0.000 
#
# Total GULP energy -94645.501720 kJ/mol
# GULP energy per Si atom -5567.382454 kJ/mol
# Density = 2.058790 g / cm^3
# Si number density = 20.634867 Si / 1000 Ang^3
#
#
#
# Elastic Constant Matrix: (Units=GPa)
#
#
# Indices 1 2 3 4 5 6 
#
# 1 106.4625 21.6832 -2.2342 0.0000 0.0000 0.0000
# 2 21.6832 131.8188 86.7198 0.0000 0.0000 0.0000
# 3 -2.2342 86.7198 134.3753 0.0000 0.0000 0.0000
# 4 0.0000 0.0000 0.0000 5.1334 0.0000 0.0000
# 5 0.0000 0.0000 0.0000 0.0000 -222.9582 0.0000
# 6 0.0000 0.0000 0.0000 0.0000 0.0000 -19.7344
#
#
#
# Elastic Compliance Matrix: (Units=1/GPa)
#
#
# Indices 1 2 3 4 5 6 
#
# 1 0.010063 -0.003068 0.002147 0.000000 0.000000 0.000000
# 2 -0.003068 0.014119 -0.009162 0.000000 0.000000 0.000000
# 3 0.002147 -0.009162 0.013391 0.000000 0.000000 0.000000
# 4 0.000000 0.000000 0.000000 0.194803 0.000000 0.000000
# 5 0.000000 0.000000 0.000000 0.000000 -0.004485 0.000000
# 6 0.000000 0.000000 0.000000 0.000000 0.000000 -0.050673
#
#
# Mechanical properties :
#
#
# Convention : Reuss Voigt Hill
#
# Bulk Modulus (GPa) = 57.45245 64.99934 61.22589
# Shear Modulus (GPa) = 24.60811 -29.74598 -2.56893
#
# Velocity S-wave (km/s) = 3.45708 -3.80088 -1.11698
# Velocity P-wave (km/s) = 6.62103 3.50798 5.29830
#
# Compressibility (1/GPa) = 0.01740570
#
# Stress axis : x y z
#
# Youngs Moduli (GPa) = 99.37538 70.82898 74.67931
#
# Poissons Ratio (x) = 0.21729 -0.16035
# Poissons Ratio (y) = 0.30486 0.68425
# Poissons Ratio (z) = -0.21337 0.64897
#
# Static dielectric constant tensor:
#      x y z
#    x 1.749920 0.000000 0.000000 
#    y 0.000000 1.717840 0.000000 
#    z 0.000000 0.000000 1.796610 
# 
# From -- ./inp_files/3705.got.cif
#   From: 2010.05.17/outbox.cif.g08.bks.cpg/sg25_2_cif.got.tgz:3705.got - 2010.06.04 01:04:00.
