data_PCOD9337295
_publ_section_title
;
Structure prediction by ZEFSAII (Michael W. Deem and Ramdas Pophale) SiO2 
 PCOD9337295
Probable space group: P M M 2
;
_chemical_formula_sum "Si O2"
_cell_formula_units_Z 25
_cell_length_a 7.292231
_cell_length_b 17.768532
_cell_length_c 7.180835
_cell_angle_alpha 90.000000
_cell_angle_beta 90.000000
_cell_angle_gamma 90.000000
_cell_volume 930.436875
_symmetry_space_group_name_H-M "P M M 2"
_symmetry_group_IT_number 25
_symmetry_cell_setting 'orthorhombic'
loop_
_space_group_symop_operation_xyz
x,y,z
-x,-y,z
-x,y,z
x,-y,z
loop_
_atom_site_type_symbol
_atom_site_label
_atom_site_fract_x
_atom_site_fract_y
_atom_site_fract_z
Si Si1 0.720302 0.766224 0.277660
Si Si2 0.219532 0.418981 0.764535
Si Si3 0.713831 0.921726 0.250201
Si Si4 0.792303 0.249295 0.707229
Si Si5 0.207370 0.397795 0.193840
Si Si6 0.500000 0.500000 0.385193
Si Si7 0.221521 0.916436 0.695740
O O1 0.500000 0.770540 0.292836
O O2 0.790600 0.842688 0.186107
O O3 0.797742 0.759316 0.484285
O O4 0.770246 0.691164 0.174785
O O5 0.299418 0.500000 0.689334
O O6 0.289867 0.333972 0.726454
O O7 0.000000 0.418864 0.722609
O O8 0.243035 0.425651 0.986292
O O9 0.500000 0.923535 0.199994
O O10 0.726712 0.918766 0.475846
O O11 0.799379 0.000000 0.189506
O O12 0.713210 0.166607 0.766603
O O13 0.000000 0.254315 0.781838
O O14 0.000000 0.414219 0.248154
O O15 0.342282 0.433897 0.341305
O O16 0.000000 0.914470 0.707196
O O17 0.280864 0.000000 0.768829
#
# Coordination Sequence:
#
# PCOD9337295 Si02
#       7
#     4   4   4   4   4   1   4
#     4  10  19  33  50  80 113 141 180 225 269 326
#     4   9  18  35  54  72  95 133 178 216 262 324
#     4   8  14  25  44  68 100 139 175 214 261 308
#     4   9  17  31  50  73 105 138 173 219 271 318
#     4  11  22  39  61  80 107 141 178 226 273 320
#     4  12  22  40  60  84 102 132 186 230 264 330
#     4   8  13  22  40  67  96 129 168 210 257 311
#
# _framework density 26.869098000000001
#
# number of rings (size 3 to 8) (size 9 to 14) (size 15 to 20)
#    0.000    2.720    1.600    0.720    0.000    0.640 
#    2.880    0.000    0.000    0.960    0.000    2.240 
#    0.000    0.000    0.000    0.000    0.000    0.000 
#
# Total GULP energy -139309.936197 kJ/mol
# GULP energy per Si atom -5572.397448 kJ/mol
# Density = 2.680794 g / cm^3
# Si number density = 26.869098 Si / 1000 Ang^3
#
#
#
# Elastic Constant Matrix: (Units=GPa)
#
#
# Indices 1 2 3 4 5 6 
#
# 1 129.1586 18.4268 -18.9998 0.0000 0.0000 0.0000
# 2 18.4268 377.8272 22.2169 0.0000 0.0000 0.0000
# 3 -18.9998 22.2169 80.5724 0.0000 0.0000 0.0000
# 4 0.0000 0.0000 0.0000 -34.8609 0.0000 0.0000
# 5 0.0000 0.0000 0.0000 0.0000 -10.5994 0.0000
# 6 0.0000 0.0000 0.0000 0.0000 0.0000 49.0434
#
#
#
# Elastic Compliance Matrix: (Units=1/GPa)
#
#
# Indices 1 2 3 4 5 6 
#
# 1 0.008119 -0.000517 0.002057 0.000000 0.000000 0.000000
# 2 -0.000517 0.002723 -0.000873 0.000000 0.000000 0.000000
# 3 0.002057 -0.000873 0.013137 0.000000 0.000000 0.000000
# 4 0.000000 0.000000 0.000000 -0.028685 0.000000 0.000000
# 5 0.000000 0.000000 0.000000 0.000000 -0.094345 0.000000
# 6 0.000000 0.000000 0.000000 0.000000 0.000000 0.020390
#
#
# Mechanical properties :
#
#
# Convention : Reuss Voigt Hill
#
# Bulk Modulus (GPa) = 39.50453 70.09400 54.79927
# Shear Modulus (GPa) = -69.87305 38.44424 -15.71441
#
# Velocity S-wave (km/s) = -5.10504 3.78669 -2.42099
# Velocity P-wave (km/s) = 4.47371 6.72775 3.55306
#
# Compressibility (1/GPa) = 0.02531355
#
# Stress axis : x y z
#
# Youngs Moduli (GPa) = 123.17150 367.20907 76.12131
#
# Poissons Ratio (x) = 0.18981 -0.15658
# Poissons Ratio (y) = 0.06367 0.06644
# Poissons Ratio (z) = -0.25337 0.32050
#
# Static dielectric constant tensor:
#      x y z
#    x 1.986740 0.000000 0.000000 
#    y 0.000000 2.210460 0.000000 
#    z 0.000000 0.000000 2.076180 
# 
# From -- ./inp_files/2134.got.cif
#   From: 2010.05.17/outbox.cif.g08.bks.cpg/sg25_2_cif.got.tgz:2134.got - 2010.06.04 01:04:00.
