data_PCOD9337786
_publ_section_title
;
Structure prediction by ZEFSAII (Michael W. Deem and Ramdas Pophale) SiO2 
 PCOD9337786
Probable space group: P M M 2
;
_chemical_formula_sum "Si O2"
_cell_formula_units_Z 20
_cell_length_a 13.073830
_cell_length_b 8.756497
_cell_length_c 9.389065
_cell_angle_alpha 90.000000
_cell_angle_beta 90.000000
_cell_angle_gamma 90.000000
_cell_volume 1074.869111
_symmetry_space_group_name_H-M "P M M 2"
_symmetry_group_IT_number 25
_symmetry_cell_setting 'orthorhombic'
loop_
_space_group_symop_operation_xyz
x,y,z
-x,-y,z
-x,y,z
x,-y,z
loop_
_atom_site_type_symbol
_atom_site_label
_atom_site_fract_x
_atom_site_fract_y
_atom_site_fract_z
Si Si1 0.881585 0.316158 0.720140
Si Si2 0.116364 0.683880 0.388654
Si Si3 0.302541 0.183923 0.214482
Si Si4 0.500000 0.682169 0.714625
Si Si5 0.308271 0.816842 0.885261
Si Si6 0.500000 0.815016 0.397728
O O1 0.870807 0.500000 0.732511
O O2 0.863043 0.275459 0.554076
O O3 0.799345 0.234767 0.818599
O O4 0.000000 0.278514 0.753354
O O5 0.120193 0.500000 0.380302
O O6 0.199888 0.753492 0.285271
O O7 0.000000 0.731525 0.354728
O O8 0.399587 0.231484 0.309277
O O9 0.299169 0.000000 0.216138
O O10 0.314298 0.231370 0.050428
O O11 0.500000 0.500000 0.713167
O O12 0.399879 0.743024 0.795847
O O13 0.500000 0.744582 0.553972
O O14 0.317879 0.000000 0.878085
O O15 0.500000 0.000000 0.409478
#
# Coordination Sequence:
#
# PCOD9337786 Si02
#       6
#     4   4   4   2   4   2
#     4   9  19  37  59  84 115 150 190 234 277 326
#     4   9  19  36  57  81 111 147 187 231 276 323
#     4  10  22  38  57  82 113 147 183 226 275 330
#     4  12  25  40  60  86 112 142 185 232 280 334
#     4  11  23  39  58  83 116 150 186 229 278 332
#     4  10  21  40  62  82 108 144 183 226 280 332
#
# _framework density 18.606915999999998
#
# number of rings (size 3 to 8) (size 9 to 14) (size 15 to 20)
#    0.000    2.000    0.000    4.500    0.000    9.600 
#    0.000    7.000    0.000    0.000    0.000    0.000 
#    0.000    0.000    0.000    0.000    0.000    0.000 
#
# Total GULP energy -111745.624830 kJ/mol
# GULP energy per Si atom -5587.281242 kJ/mol
# Density = 1.856457 g / cm^3
# Si number density = 18.606916 Si / 1000 Ang^3
#
#
#
# Elastic Constant Matrix: (Units=GPa)
#
#
# Indices 1 2 3 4 5 6 
#
# 1 148.2322 47.2538 126.1409 0.0000 0.0000 0.0000
# 2 47.2538 38.4592 56.4536 0.0000 0.0000 0.0000
# 3 126.1409 56.4536 187.8016 0.0000 0.0000 0.0000
# 4 0.0000 0.0000 0.0000 14.4800 0.0000 0.0000
# 5 0.0000 0.0000 0.0000 0.0000 -122.8052 0.0000
# 6 0.0000 0.0000 0.0000 0.0000 0.0000 38.7360
#
#
#
# Elastic Compliance Matrix: (Units=1/GPa)
#
#
# Indices 1 2 3 4 5 6 
#
# 1 0.016820 -0.007307 -0.009101 0.000000 0.000000 0.000000
# 2 -0.007307 0.049710 -0.010035 0.000000 0.000000 0.000000
# 3 -0.009101 -0.010035 0.014454 0.000000 0.000000 0.000000
# 4 0.000000 0.000000 0.000000 0.069061 0.000000 0.000000
# 5 0.000000 0.000000 0.000000 0.000000 -0.008143 0.000000
# 6 0.000000 0.000000 0.000000 0.000000 0.000000 0.025816
#
#
# Mechanical properties :
#
#
# Convention : Reuss Voigt Hill
#
# Bulk Modulus (GPa) = 35.58994 92.68774 64.13884
# Shear Modulus (GPa) = 21.74194 -4.27484 8.73355
#
# Velocity S-wave (km/s) = 3.42202 -1.51738 2.16885
# Velocity P-wave (km/s) = 5.89766 6.84484 6.38883
#
# Compressibility (1/GPa) = 0.02809783
#
# Stress axis : x y z
#
# Youngs Moduli (GPa) = 59.45138 20.11682 69.18387
#
# Poissons Ratio (x) = 0.14700 0.62966
# Poissons Ratio (y) = 0.43443 0.69424
# Poissons Ratio (z) = 0.54108 0.20187
#
# Static dielectric constant tensor:
#      x y z
#    x 1.618470 0.000000 0.000000 
#    y 0.000000 1.627640 0.000000 
#    z 0.000000 0.000000 1.618500 
# 
# From -- ./inp_files/2536.got.cif
#   From: 2010.05.17/outbox.cif.g08.bks.cpg/sg25_2_cif.got.tgz:2536.got - 2010.06.04 01:04:00.
