data_PCOD9337589
_publ_section_title
;
Structure prediction by ZEFSAII (Michael W. Deem and Ramdas Pophale) SiO2 
 PCOD9337589
Probable space group: P M M 2
;
_chemical_formula_sum "Si O2"
_cell_formula_units_Z 28
_cell_length_a 15.120125
_cell_length_b 13.456886
_cell_length_c 7.275411
_cell_angle_alpha 90.000000
_cell_angle_beta 90.000000
_cell_angle_gamma 90.000000
_cell_volume 1480.326410
_symmetry_space_group_name_H-M "P M M 2"
_symmetry_group_IT_number 25
_symmetry_cell_setting 'orthorhombic'
loop_
_space_group_symop_operation_xyz
x,y,z
-x,-y,z
-x,y,z
x,-y,z
loop_
_atom_site_type_symbol
_atom_site_label
_atom_site_fract_x
_atom_site_fract_y
_atom_site_fract_z
Si Si1 0.099439 0.248104 0.471830
Si Si2 0.752648 0.387318 0.399946
Si Si3 0.754871 0.113753 0.625626
Si Si4 0.094535 0.382736 0.841188
Si Si5 0.398636 0.680826 0.133178
Si Si6 0.399310 0.888375 0.322065
Si Si7 0.276235 0.686765 0.813936
O O1 0.167978 0.311727 0.350860
O O2 0.153676 0.150044 0.530654
O O3 0.091821 0.316812 0.655469
O O4 0.000000 0.231294 0.403121
O O5 0.784348 0.500000 0.389626
O O6 0.667629 0.371559 0.274039
O O7 0.725219 0.361382 0.610769
O O8 0.675187 0.122874 0.477929
O O9 0.735262 0.195477 0.780838
O O10 0.759966 0.000000 0.686654
O O11 0.097677 0.500000 0.799118
O O12 0.189449 0.353267 0.921093
O O13 0.000000 0.364589 0.939309
O O14 0.500000 0.651043 0.156415
O O15 0.390946 0.798546 0.179780
O O16 0.362262 0.663064 0.929778
O O17 0.500000 0.881388 0.398721
O O18 0.389940 0.000000 0.243717
#
# Coordination Sequence:
#
# PCOD9337589 Si02
#       7
#     4   4   4   4   4   4   4
#     4   9  16  29  52  83 110 141 183 224 270 325
#     4  10  21  39  57  78 111 148 187 233 283 329
#     4   9  17  32  54  83 114 145 180 221 273 326
#     4   8  14  28  51  75 101 134 172 219 269 313
#     4  11  23  38  56  80 110 145 185 230 282 337
#     4   9  17  33  57  79 103 138 178 221 269 319
#     4  10  20  34  55  83 108 142 183 227 273 331
#
# _framework density 18.914746999999998
#
# number of rings (size 3 to 8) (size 9 to 14) (size 15 to 20)
#    0.000    2.857    2.857    1.714    0.000    4.286 
#    0.000    0.714    0.000    0.000    0.000    0.000 
#    0.000    0.000    0.000    0.000    0.000    0.000 
#
# Total GULP energy -155900.979000 kJ/mol
# GULP energy per Si atom -5567.892107 kJ/mol
# Density = 1.887170 g / cm^3
# Si number density = 18.914747 Si / 1000 Ang^3
#
#
#
# Elastic Constant Matrix: (Units=GPa)
#
#
# Indices 1 2 3 4 5 6 
#
# 1 123.6384 -2.7549 22.7415 0.0000 0.0000 0.0000
# 2 -2.7549 44.9521 -10.2293 0.0000 0.0000 0.0000
# 3 22.7415 -10.2293 34.6389 0.0000 0.0000 0.0000
# 4 0.0000 0.0000 0.0000 0.7349 0.0000 0.0000
# 5 0.0000 0.0000 0.0000 0.0000 17.6098 0.0000
# 6 0.0000 0.0000 0.0000 0.0000 0.0000 18.2400
#
#
#
# Elastic Compliance Matrix: (Units=1/GPa)
#
#
# Indices 1 2 3 4 5 6 
#
# 1 0.009231 -0.000872 -0.006318 0.000000 0.000000 0.000000
# 2 -0.000872 0.023931 0.007640 0.000000 0.000000 0.000000
# 3 -0.006318 0.007640 0.035273 0.000000 0.000000 0.000000
# 4 0.000000 0.000000 0.000000 1.360745 0.000000 0.000000
# 5 0.000000 0.000000 0.000000 0.000000 0.056786 0.000000
# 6 0.000000 0.000000 0.000000 0.000000 0.000000 0.054824
#
#
# Mechanical properties :
#
#
# Convention : Reuss Voigt Hill
#
# Bulk Modulus (GPa) = 14.42284 24.74934 19.58609
# Shear Modulus (GPa) = 3.19897 20.21509 11.70703
#
# Velocity S-wave (km/s) = 1.30189 3.27272 2.49054
# Velocity P-wave (km/s) = 3.14669 5.23393 4.31831
#
# Compressibility (1/GPa) = 0.06933446
#
# Stress axis : x y z
#
# Youngs Moduli (GPa) = 108.33371 41.78693 28.35020
#
# Poissons Ratio (x) = 0.03644 0.17911
# Poissons Ratio (y) = 0.09446 -0.21658
# Poissons Ratio (z) = 0.68443 -0.31923
#
# Static dielectric constant tensor:
#      x y z
#    x 1.703860 0.000000 0.000000 
#    y 0.000000 1.662690 0.000000 
#    z 0.000000 0.000000 1.660910 
# 
# From -- ./inp_files/3242.got.cif
#   From: 2010.05.17/outbox.cif.g08.bks.cpg/sg25_2_cif.got.tgz:3242.got - 2010.06.04 01:04:00.
