data_PCOD9337300
_publ_section_title
;
Structure prediction by ZEFSAII (Michael W. Deem and Ramdas Pophale) SiO2 
 PCOD9337300
Probable space group: P M M 2
;
_chemical_formula_sum "Si O2"
_cell_formula_units_Z 24
_cell_length_a 8.278909
_cell_length_b 13.106234
_cell_length_c 12.198247
_cell_angle_alpha 90.000000
_cell_angle_beta 90.000000
_cell_angle_gamma 90.000000
_cell_volume 1323.574677
_symmetry_space_group_name_H-M "P M M 2"
_symmetry_group_IT_number 25
_symmetry_cell_setting 'orthorhombic'
loop_
_space_group_symop_operation_xyz
x,y,z
-x,-y,z
-x,y,z
x,-y,z
loop_
_atom_site_type_symbol
_atom_site_label
_atom_site_fract_x
_atom_site_fract_y
_atom_site_fract_z
Si Si1 0.302892 0.384026 0.897670
Si Si2 0.697159 0.000000 0.894635
Si Si3 0.808982 0.194410 0.506067
Si Si4 0.306578 0.000000 0.644205
Si Si5 0.695061 0.616847 0.646814
Si Si6 0.305239 0.882101 0.274905
Si Si7 0.697560 0.805772 0.038846
O O1 0.500000 0.383582 0.898408
O O2 0.251627 0.500000 0.921705
O O3 0.254923 0.358512 0.772375
O O4 0.247878 0.299746 0.984150
O O5 0.753447 0.000000 0.769403
O O6 0.500000 0.000000 0.892876
O O7 0.746539 0.100512 0.960881
O O8 0.747369 0.100646 0.580142
O O9 0.756971 0.299856 0.562282
O O10 0.742817 0.177399 0.383958
O O11 0.000000 0.189429 0.501567
O O12 0.500000 0.000000 0.646874
O O13 0.500000 0.619188 0.644963
O O14 0.745365 0.500000 0.623449
O O15 0.500000 0.886013 0.270633
O O16 0.248917 0.829248 0.162471
O O17 0.247815 0.000000 0.280405
O O18 0.500000 0.804423 0.039945
#
# Coordination Sequence:
#
# PCOD9337300 Si02
#       7
#     4   2   4   2   4   4   4
#     4   8  14  26  48  79 110 134 161 209 267 315
#     4   9  16  26  47  78 102 123 158 215 274 313
#     4  12  24  36  52  76 109 144 182 224 271 320
#     4  11  21  34  55  80 108 139 174 219 270 323
#     4   9  18  35  59  84 109 140 179 219 263 319
#     4  10  19  33  53  74 101 141 185 224 263 311
#     4   9  15  26  46  75 104 129 168 215 263 314
#
# _framework density 18.132712000000001
#
# number of rings (size 3 to 8) (size 9 to 14) (size 15 to 20)
#    0.000    2.333    1.667    3.750    0.000    3.000 
#    0.000    0.833    0.000    8.000    0.000    0.000 
#    0.000    0.000    0.000    0.000    0.000    0.000 
#
# Total GULP energy -133923.488605 kJ/mol
# GULP energy per Si atom -5580.145359 kJ/mol
# Density = 1.809144 g / cm^3
# Si number density = 18.132712 Si / 1000 Ang^3
#
#
#
# Elastic Constant Matrix: (Units=GPa)
#
#
# Indices 1 2 3 4 5 6 
#
# 1 15.2521 16.2330 18.4050 0.0000 0.0000 0.0000
# 2 16.2330 147.4794 114.4653 0.0000 0.0000 0.0000
# 3 18.4050 114.4653 193.4179 0.0000 0.0000 0.0000
# 4 0.0000 0.0000 0.0000 19.4758 0.0000 0.0000
# 5 0.0000 0.0000 0.0000 0.0000 -19.4328 0.0000
# 6 0.0000 0.0000 0.0000 0.0000 0.0000 -8.7418
#
#
#
# Elastic Compliance Matrix: (Units=1/GPa)
#
#
# Indices 1 2 3 4 5 6 
#
# 1 0.076086 -0.005096 -0.004224 0.000000 0.000000 0.000000
# 2 -0.005096 0.012882 -0.007139 0.000000 0.000000 0.000000
# 3 -0.004224 -0.007139 0.009797 0.000000 0.000000 0.000000
# 4 0.000000 0.000000 0.000000 0.051346 0.000000 0.000000
# 5 0.000000 0.000000 0.000000 0.000000 -0.051459 0.000000
# 6 0.000000 0.000000 0.000000 0.000000 0.000000 -0.114393
#
#
# Mechanical properties :
#
#
# Convention : Reuss Voigt Hill
#
# Bulk Modulus (GPa) = 15.18671 72.70620 43.94646
# Shear Modulus (GPa) = 127.79067 12.06332 69.92700
#
# Velocity S-wave (km/s) = 8.40406 2.58210 6.21673
# Velocity P-wave (km/s) = 10.12741 7.00524 8.70741
#
# Compressibility (1/GPa) = 0.06584703
#
# Stress axis : x y z
#
# Youngs Moduli (GPa) = 13.14298 77.62564 102.07294
#
# Poissons Ratio (x) = 0.39560 0.43117
# Poissons Ratio (y) = 0.06698 0.72869
# Poissons Ratio (z) = 0.05552 0.55416
#
# Static dielectric constant tensor:
#      x y z
#    x 1.619050 0.000000 0.000000 
#    y 0.000000 1.607320 0.000000 
#    z 0.000000 0.000000 1.611680 
# 
# From -- ./inp_files/3950.got.cif
#   From: 2010.05.17/outbox.cif.g08.bks.cpg/sg25_2_cif.got.tgz:3950.got - 2010.06.04 01:04:00.
