data_PCOD9337260
_publ_section_title
;
Structure prediction by ZEFSAII (Michael W. Deem and Ramdas Pophale) SiO2 
 PCOD9337260
Probable space group: P M M 2
;
_chemical_formula_sum "Si O2"
_cell_formula_units_Z 32
_cell_length_a 7.929469
_cell_length_b 21.728158
_cell_length_c 9.569390
_cell_angle_alpha 90.000000
_cell_angle_beta 90.000000
_cell_angle_gamma 90.000000
_cell_volume 1648.736570
_symmetry_space_group_name_H-M "P M M 2"
_symmetry_group_IT_number 25
_symmetry_cell_setting 'orthorhombic'
loop_
_space_group_symop_operation_xyz
x,y,z
-x,-y,z
-x,y,z
x,-y,z
loop_
_atom_site_type_symbol
_atom_site_label
_atom_site_fract_x
_atom_site_fract_y
_atom_site_fract_z
Si Si1 0.699574 0.698501 0.220060
Si Si2 0.300009 0.566099 0.247688
Si Si3 0.796908 0.814855 0.722822
Si Si4 0.799620 0.300284 0.898748
Si Si5 0.703903 0.069729 0.226488
Si Si6 0.199973 0.813432 0.406207
Si Si7 0.703394 0.069227 0.906826
Si Si8 0.205035 0.433808 0.920916
O O1 0.500000 0.690725 0.199592
O O2 0.765936 0.634062 0.287031
O O3 0.729270 0.757090 0.316268
O O4 0.773329 0.707968 0.064910
O O5 0.500000 0.564873 0.277306
O O6 0.228897 0.500000 0.299167
O O7 0.271280 0.565936 0.080128
O O8 0.729361 0.756842 0.811625
O O9 0.732709 0.814390 0.564263
O O10 0.758086 0.877973 0.802255
O O11 0.000000 0.810060 0.717418
O O12 0.735887 0.368753 0.858672
O O13 0.000000 0.301001 0.874702
O O14 0.500000 0.070591 0.227365
O O15 0.765032 0.122311 0.329320
O O16 0.757309 0.000000 0.263001
O O17 0.758995 0.082284 0.066453
O O18 0.000000 0.804470 0.411752
O O19 0.500000 0.068347 0.908721
O O20 0.760714 0.000000 0.869581
O O21 0.254519 0.500000 0.857122
O O22 0.000000 0.432439 0.926553
#
# Coordination Sequence:
#
# PCOD9337260 Si02
#       8
#     4   4   4   4   4   4   4   4
#     4  10  19  31  50  75  99 126 164 206 247 293
#     4   8  14  25  42  66  95 123 152 193 245 294
#     4  10  22  36  49  69  99 134 167 200 238 282
#     4   9  17  31  50  71  97 128 161 200 247 293
#     4   9  19  37  59  81 103 126 157 199 244 291
#     4  11  23  36  49  69 101 137 170 203 239 283
#     4   9  19  36  57  79 100 122 152 194 242 290
#     4   8  13  22  40  67  94 119 151 193 240 289
#
# _framework density 19.408798999999998
#
# number of rings (size 3 to 8) (size 9 to 14) (size 15 to 20)
#    0.000    2.750    0.000    2.250    0.000    5.500 
#    0.000    3.750    0.000    0.750    0.000    1.750 
#    0.000    4.000    0.000    0.000    0.000    0.000 
#
# Total GULP energy -178284.995810 kJ/mol
# GULP energy per Si atom -5571.406119 kJ/mol
# Density = 1.936462 g / cm^3
# Si number density = 19.408799 Si / 1000 Ang^3
#
#
#
# Elastic Constant Matrix: (Units=GPa)
#
#
# Indices 1 2 3 4 5 6 
#
# 1 14.8363 -3.7629 -5.0070 0.0000 0.0000 0.0000
# 2 -3.7629 183.5797 84.3915 0.0000 0.0000 0.0000
# 3 -5.0070 84.3915 75.1422 0.0000 0.0000 0.0000
# 4 0.0000 0.0000 0.0000 -6.7039 0.0000 0.0000
# 5 0.0000 0.0000 0.0000 0.0000 42.0590 0.0000
# 6 0.0000 0.0000 0.0000 0.0000 0.0000 6.9924
#
#
#
# Elastic Compliance Matrix: (Units=1/GPa)
#
#
# Indices 1 2 3 4 5 6 
#
# 1 0.069139 -0.001449 0.006234 0.000000 0.000000 0.000000
# 2 -0.001449 0.011292 -0.012778 0.000000 0.000000 0.000000
# 3 0.006234 -0.012778 0.028074 0.000000 0.000000 0.000000
# 4 0.000000 0.000000 0.000000 -0.149167 0.000000 0.000000
# 5 0.000000 0.000000 0.000000 0.000000 0.023776 0.000000
# 6 0.000000 0.000000 0.000000 0.000000 0.000000 0.143012
#
#
# Mechanical properties :
#
#
# Convention : Reuss Voigt Hill
#
# Bulk Modulus (GPa) = 10.80855 47.20014 29.00435
# Shear Modulus (GPa) = 28.90988 21.66526 25.28757
#
# Velocity S-wave (km/s) = 3.86362 3.34467 3.61348
# Velocity P-wave (km/s) = 5.04821 6.26798 5.69087
#
# Compressibility (1/GPa) = 0.09251931
#
# Stress axis : x y z
#
# Youngs Moduli (GPa) = 14.46367 88.56161 35.61970
#
# Poissons Ratio (x) = 0.12828 -0.22205
# Poissons Ratio (y) = 0.02095 0.45515
# Poissons Ratio (z) = -0.09016 1.13164
#
# Static dielectric constant tensor:
#      x y z
#    x 1.698190 0.000000 0.000000 
#    y 0.000000 1.736810 0.000000 
#    z 0.000000 0.000000 1.637080 
# 
# From -- ./inp_files/2404.got.cif
#   From: 2010.05.17/outbox.cif.g08.bks.cpg/sg25_2_cif.got.tgz:2404.got - 2010.06.04 01:04:00.
