data_PCOD9337748
_publ_section_title
;
Structure prediction by ZEFSAII (Michael W. Deem and Ramdas Pophale) SiO2 
 PCOD9337748
Probable space group: P M M 2
;
_chemical_formula_sum "Si O2"
_cell_formula_units_Z 32
_cell_length_a 14.862989
_cell_length_b 9.056370
_cell_length_c 12.622421
_cell_angle_alpha 90.000000
_cell_angle_beta 90.000000
_cell_angle_gamma 90.000000
_cell_volume 1699.037541
_symmetry_space_group_name_H-M "P M M 2"
_symmetry_group_IT_number 25
_symmetry_cell_setting 'orthorhombic'
loop_
_space_group_symop_operation_xyz
x,y,z
-x,-y,z
-x,y,z
x,-y,z
loop_
_atom_site_type_symbol
_atom_site_label
_atom_site_fract_x
_atom_site_fract_y
_atom_site_fract_z
Si Si1 0.741099 0.677068 0.638450
Si Si2 0.896784 0.320192 0.798847
Si Si3 0.606964 0.323415 0.248695
Si Si4 0.390624 0.669318 0.010867
Si Si5 0.608069 0.172107 0.796529
Si Si6 0.896620 0.177111 0.247714
Si Si7 0.257649 0.822911 0.408772
Si Si8 0.890452 0.330525 0.031811
O O1 0.739875 0.500000 0.629579
O O2 0.829349 0.722392 0.706068
O O3 0.657140 0.732728 0.707553
O O4 0.740830 0.749872 0.523578
O O5 0.897966 0.500000 0.803650
O O6 0.000000 0.271894 0.781869
O O7 0.863917 0.272064 0.915837
O O8 0.500000 0.297265 0.257252
O O9 0.621368 0.500000 0.259865
O O10 0.636874 0.282984 0.128823
O O11 0.660715 0.235463 0.336869
O O12 0.500000 0.667261 0.013320
O O13 0.361232 0.500000 0.992540
O O14 0.363878 0.769918 0.912716
O O15 0.500000 0.188165 0.788938
O O16 0.630347 0.000000 0.784014
O O17 0.831998 0.220602 0.343500
O O18 0.864044 0.241136 0.135493
O O19 0.000000 0.331033 0.028598
O O20 0.896043 0.000000 0.240851
O O21 0.260758 0.000000 0.417850
O O22 0.860527 0.500000 0.043250
O O23 0.000000 0.225763 0.264362
#
# Coordination Sequence:
#
# PCOD9337748 Si02
#       8
#     4   4   4   4   4   4   4   4
#     4  11  23  38  57  79 104 140 185 229 270 316
#     4   8  16  33  56  82 110 137 169 215 269 319
#     4   9  19  37  60  84 110 141 177 219 267 319
#     4   8  15  31  56  84 111 138 172 215 264 320
#     4  10  21  37  57  81 111 145 178 217 266 318
#     4   9  19  36  55  76 107 144 177 213 261 316
#     4  11  24  39  54  76 107 143 184 228 271 317
#     4   8  14  28  53  82 108 134 168 212 262 317
#
# _framework density 18.834192000000002
#
# number of rings (size 3 to 8) (size 9 to 14) (size 15 to 20)
#    0.000    2.750    0.000    2.625    0.000    4.500 
#    0.000    6.250    0.000    2.625    0.000    0.000 
#    0.000    0.000    0.000    0.000    0.000    0.000 
#
# Total GULP energy -178568.036024 kJ/mol
# GULP energy per Si atom -5580.251126 kJ/mol
# Density = 1.879132 g / cm^3
# Si number density = 18.834192 Si / 1000 Ang^3
#
#
#
# Elastic Constant Matrix: (Units=GPa)
#
#
# Indices 1 2 3 4 5 6 
#
# 1 70.6217 39.1976 57.9984 0.0000 0.0000 0.0000
# 2 39.1976 49.3525 67.9947 0.0000 0.0000 0.0000
# 3 57.9984 67.9947 187.1402 0.0000 0.0000 0.0000
# 4 0.0000 0.0000 0.0000 62.5108 0.0000 0.0000
# 5 0.0000 0.0000 0.0000 0.0000 31.7723 0.0000
# 6 0.0000 0.0000 0.0000 0.0000 0.0000 13.0455
#
#
#
# Elastic Compliance Matrix: (Units=1/GPa)
#
#
# Indices 1 2 3 4 5 6 
#
# 1 0.025433 -0.018702 -0.001087 0.000000 0.000000 0.000000
# 2 -0.018702 0.054325 -0.013942 0.000000 0.000000 0.000000
# 3 -0.001087 -0.013942 0.010746 0.000000 0.000000 0.000000
# 4 0.000000 0.000000 0.000000 0.015997 0.000000 0.000000
# 5 0.000000 0.000000 0.000000 0.000000 0.031474 0.000000
# 6 0.000000 0.000000 0.000000 0.000000 0.000000 0.076655
#
#
# Mechanical properties :
#
#
# Convention : Reuss Voigt Hill
#
# Bulk Modulus (GPa) = 43.40001 70.83287 57.11644
# Shear Modulus (GPa) = 17.25489 30.92730 24.09110
#
# Velocity S-wave (km/s) = 3.03008 4.05666 3.58035
# Velocity P-wave (km/s) = 5.94433 7.72219 6.89084
#
# Compressibility (1/GPa) = 0.02304147
#
# Stress axis : x y z
#
# Youngs Moduli (GPa) = 39.31876 18.40780 93.05728
#
# Poissons Ratio (x) = 0.34427 0.10115
# Poissons Ratio (y) = 0.73535 1.29740
# Poissons Ratio (z) = 0.04274 0.25664
#
# Static dielectric constant tensor:
#      x y z
#    x 1.685610 0.000000 0.000000 
#    y 0.000000 1.628560 0.000000 
#    z 0.000000 0.000000 1.628520 
# 
# From -- ./inp_files/4892.got.cif
#   From: 2010.05.17/outbox.cif.g08.bks.cpg/sg25_3_cif.got.tgz:4892.got - 2010.06.04 01:04:00.
