data_PCOD9337287
_publ_section_title
;
Structure prediction by ZEFSAII (Michael W. Deem and Ramdas Pophale) SiO2 
 PCOD9337287
Probable space group: P M M 2
;
_chemical_formula_sum "Si O2"
_cell_formula_units_Z 32
_cell_length_a 17.585314
_cell_length_b 8.049026
_cell_length_c 11.278238
_cell_angle_alpha 90.000000
_cell_angle_beta 90.000000
_cell_angle_gamma 90.000000
_cell_volume 1596.374246
_symmetry_space_group_name_H-M "P M M 2"
_symmetry_group_IT_number 25
_symmetry_cell_setting 'orthorhombic'
loop_
_space_group_symop_operation_xyz
x,y,z
-x,-y,z
-x,y,z
x,-y,z
loop_
_atom_site_type_symbol
_atom_site_label
_atom_site_fract_x
_atom_site_fract_y
_atom_site_fract_z
Si Si1 0.380793 0.305541 0.267370
Si Si2 0.584054 0.696431 0.531984
Si Si3 0.731740 0.809133 0.638408
Si Si4 0.914657 0.693626 0.966809
Si Si5 0.227316 0.798955 0.377611
Si Si6 0.251432 0.689896 0.897440
Si Si7 0.414946 0.193836 0.005013
Si Si8 0.916947 0.802863 0.231899
O O1 0.398437 0.500000 0.253117
O O2 0.414876 0.249505 0.393926
O O3 0.291834 0.278074 0.294010
O O4 0.406194 0.218609 0.147192
O O5 0.500000 0.710859 0.579972
O O6 0.605750 0.500000 0.532395
O O7 0.642686 0.799168 0.608075
O O8 0.766517 0.745949 0.514348
O O9 0.745950 0.706044 0.755685
O O10 0.755051 0.000000 0.658680
O O11 0.915035 0.500000 0.929303
O O12 0.831745 0.767840 0.930368
O O13 0.000000 0.761994 0.931988
O O14 0.912897 0.707163 0.108827
O O15 0.147510 0.754827 0.322309
O O16 0.237926 0.000000 0.376859
O O17 0.246907 0.500000 0.938190
O O18 0.333923 0.748767 0.947953
O O19 0.500000 0.265290 0.972076
O O20 0.418413 0.000000 0.977783
O O21 0.000000 0.779504 0.284886
O O22 0.907888 0.000000 0.204188
#
# Coordination Sequence:
#
# PCOD9337287 Si02
#       8
#     4   4   4   4   4   4   4   4
#     4  10  19  32  53  80 108 137 172 216 265 316
#     4   9  18  33  53  76 102 134 173 217 263 312
#     4  10  21  36  53  74 102 137 177 219 262 311
#     4   9  19  36  57  82 110 138 172 216 267 322
#     4   9  18  33  52  75 105 140 175 213 261 315
#     4  11  23  39  59  79 103 141 184 227 272 316
#     4  11  24  39  55  78 110 146 181 220 268 321
#     4   9  17  30  51  79 108 136 167 206 254 310
#
# _framework density 20.045425999999999
#
# number of rings (size 3 to 8) (size 9 to 14) (size 15 to 20)
#    0.000    2.250    0.000    2.625    0.000    6.750 
#    0.000    0.625    0.000    0.750    0.000    0.000 
#    0.000    0.000    0.000    0.000    0.000    0.000 
#
# Total GULP energy -178226.996668 kJ/mol
# GULP energy per Si atom -5569.593646 kJ/mol
# Density = 1.999980 g / cm^3
# Si number density = 20.045426 Si / 1000 Ang^3
#
#
#
# Elastic Constant Matrix: (Units=GPa)
#
#
# Indices 1 2 3 4 5 6 
#
# 1 170.1866 18.0956 49.1414 0.0000 0.0000 0.0000
# 2 18.0956 13.6374 -0.6731 0.0000 0.0000 0.0000
# 3 49.1414 -0.6731 47.6146 0.0000 0.0000 0.0000
# 4 0.0000 0.0000 0.0000 23.1042 0.0000 0.0000
# 5 0.0000 0.0000 0.0000 0.0000 -39.6601 0.0000
# 6 0.0000 0.0000 0.0000 0.0000 0.0000 14.5744
#
#
#
# Elastic Compliance Matrix: (Units=1/GPa)
#
#
# Indices 1 2 3 4 5 6 
#
# 1 0.010688 -0.014737 -0.011239 0.000000 0.000000 0.000000
# 2 -0.014737 0.093699 0.016534 0.000000 0.000000 0.000000
# 3 -0.011239 0.016534 0.032835 0.000000 0.000000 0.000000
# 4 0.000000 0.000000 0.000000 0.043282 0.000000 0.000000
# 5 0.000000 0.000000 0.000000 0.000000 -0.025214 0.000000
# 6 0.000000 0.000000 0.000000 0.000000 0.000000 0.068614
#
#
# Mechanical properties :
#
#
# Convention : Reuss Voigt Hill
#
# Bulk Modulus (GPa) = 8.45035 40.50738 24.47887
# Shear Modulus (GPa) = 17.71577 10.59533 14.15555
#
# Velocity S-wave (km/s) = 2.97607 2.30155 2.66028
# Velocity P-wave (km/s) = 4.00426 5.22633 4.65557
#
# Compressibility (1/GPa) = 0.11833824
#
# Stress axis : x y z
#
# Youngs Moduli (GPa) = 93.56089 10.67249 30.45494
#
# Poissons Ratio (x) = 0.15728 0.34229
# Poissons Ratio (y) = 1.37882 -0.50355
# Poissons Ratio (z) = 1.05156 -0.17646
#
# Static dielectric constant tensor:
#      x y z
#    x 1.783870 0.000000 0.000000 
#    y 0.000000 1.733740 0.000000 
#    z 0.000000 0.000000 1.667580 
# 
# From -- ./inp_files/4934.got.cif
#   From: 2010.05.17/outbox.cif.g08.bks.cpg/sg25_3_cif.got.tgz:4934.got - 2010.06.04 01:04:00.
