data_PCOD9337613
_publ_section_title
;
Structure prediction by ZEFSAII (Michael W. Deem and Ramdas Pophale) SiO2 
 PCOD9337613
Probable space group: P M M 2
;
_chemical_formula_sum "Si O2"
_cell_formula_units_Z 32
_cell_length_a 8.007974
_cell_length_b 15.211594
_cell_length_c 12.788528
_cell_angle_alpha 90.000000
_cell_angle_beta 90.000000
_cell_angle_gamma 90.000000
_cell_volume 1557.822380
_symmetry_space_group_name_H-M "P M M 2"
_symmetry_group_IT_number 25
_symmetry_cell_setting 'orthorhombic'
loop_
_space_group_symop_operation_xyz
x,y,z
-x,-y,z
-x,y,z
x,-y,z
loop_
_atom_site_type_symbol
_atom_site_label
_atom_site_fract_x
_atom_site_fract_y
_atom_site_fract_z
Si Si1 0.700314 0.903604 0.835150
Si Si2 0.804804 0.275284 0.741945
Si Si3 0.197485 0.094995 0.297622
Si Si4 0.306924 0.660299 0.132992
Si Si5 0.205315 0.601876 0.553717
Si Si6 0.297605 0.595263 0.918960
Si Si7 0.803060 0.286826 0.355582
Si Si8 0.694320 0.137044 0.068771
O O1 0.500000 0.904917 0.843601
O O2 0.740904 0.823037 0.759545
O O3 0.758274 0.000000 0.800049
O O4 0.762272 0.887275 0.954496
O O5 0.735497 0.337392 0.650058
O O6 0.773056 0.327686 0.848918
O O7 0.000000 0.267725 0.722084
O O8 0.268191 0.187110 0.343318
O O9 0.217412 0.100600 0.171880
O O10 0.000000 0.094507 0.320648
O O11 0.267745 0.000000 0.332199
O O12 0.500000 0.636812 0.153033
O O13 0.218743 0.666066 0.243892
O O14 0.302439 0.758063 0.083570
O O15 0.240244 0.601400 0.039001
O O16 0.259288 0.500000 0.559737
O O17 0.261574 0.651899 0.448427
O O18 0.000000 0.599824 0.554844
O O19 0.500000 0.603304 0.920141
O O20 0.252653 0.500000 0.874228
O O21 0.000000 0.276286 0.374886
O O22 0.500000 0.109098 0.074093
#
# Coordination Sequence:
#
# PCOD9337613 Si02
#       8
#     4   4   4   4   4   4   4   4
#     4  10  20  35  55  78 108 147 185 219 265 327
#     4  11  22  36  56  80 109 140 181 234 277 321
#     4   9  17  28  44  71 105 135 167 211 260 308
#     4   9  17  31  50  75 109 141 170 213 267 319
#     4   9  19  37  58  78 102 137 180 227 278 326
#     4  10  20  35  55  78 108 146 181 217 273 340
#     4   9  18  33  53  75 100 134 178 220 266 321
#     4   9  16  29  49  71 100 140 179 208 245 307
#
# _framework density 20.541495999999999
#
# number of rings (size 3 to 8) (size 9 to 14) (size 15 to 20)
#    0.000    2.500    1.250    1.125    0.000    3.250 
#    0.000    1.875    0.000    3.750    0.000    0.000 
#    0.000    0.000    0.000    0.000    0.000    0.000 
#
# Total GULP energy -178408.051860 kJ/mol
# GULP energy per Si atom -5575.251621 kJ/mol
# Density = 2.049474 g / cm^3
# Si number density = 20.541496 Si / 1000 Ang^3
#
#
#
# Elastic Constant Matrix: (Units=GPa)
#
#
# Indices 1 2 3 4 5 6 
#
# 1 10.7951 11.8244 1.4624 0.0000 0.0000 0.0000
# 2 11.8244 163.8639 79.4159 0.0000 0.0000 0.0000
# 3 1.4624 79.4159 106.5954 0.0000 0.0000 0.0000
# 4 0.0000 0.0000 0.0000 16.4225 0.0000 0.0000
# 5 0.0000 0.0000 0.0000 0.0000 24.7492 0.0000
# 6 0.0000 0.0000 0.0000 0.0000 0.0000 13.3533
#
#
#
# Elastic Compliance Matrix: (Units=1/GPa)
#
#
# Indices 1 2 3 4 5 6 
#
# 1 0.103366 -0.010598 0.006478 0.000000 0.000000 0.000000
# 2 -0.010598 0.010638 -0.007780 0.000000 0.000000 0.000000
# 3 0.006478 -0.007780 0.015089 0.000000 0.000000 0.000000
# 4 0.000000 0.000000 0.000000 0.060892 0.000000 0.000000
# 5 0.000000 0.000000 0.000000 0.000000 0.040405 0.000000
# 6 0.000000 0.000000 0.000000 0.000000 0.000000 0.074888
#
#
# Mechanical properties :
#
#
# Convention : Reuss Voigt Hill
#
# Bulk Modulus (GPa) = 9.49745 51.85108 30.67426
# Shear Modulus (GPa) = 13.72962 23.47513 18.60237
#
# Velocity S-wave (km/s) = 2.58812 3.38422 3.01258
# Velocity P-wave (km/s) = 3.68303 6.36926 5.20251
#
# Compressibility (1/GPa) = 0.10529147
#
# Stress axis : x y z
#
# Youngs Moduli (GPa) = 9.67437 94.00253 66.27445
#
# Poissons Ratio (x) = 0.99627 -0.42932
# Poissons Ratio (y) = 0.10253 0.51562
# Poissons Ratio (z) = -0.06267 0.73135
#
# Static dielectric constant tensor:
#      x y z
#    x 1.749310 0.000000 0.000000 
#    y 0.000000 1.783420 0.000000 
#    z 0.000000 0.000000 1.717070 
# 
# From -- ./inp_files/4171.got.cif
#   From: 2010.05.17/outbox.cif.g08.bks.cpg/sg25_3_cif.got.tgz:4171.got - 2010.06.04 01:04:00.
