data_PCOD9337323
_publ_section_title
;
Structure prediction by ZEFSAII (Michael W. Deem and Ramdas Pophale) SiO2 
 PCOD9337323
Probable space group: P M M 2
;
_chemical_formula_sum "Si O2"
_cell_formula_units_Z 24
_cell_length_a 7.779038
_cell_length_b 13.080048
_cell_length_c 12.212726
_cell_angle_alpha 90.000000
_cell_angle_beta 90.000000
_cell_angle_gamma 90.000000
_cell_volume 1242.647196
_symmetry_space_group_name_H-M "P M M 2"
_symmetry_group_IT_number 25
_symmetry_cell_setting 'orthorhombic'
loop_
_space_group_symop_operation_xyz
x,y,z
-x,-y,z
-x,y,z
x,-y,z
loop_
_atom_site_type_symbol
_atom_site_label
_atom_site_fract_x
_atom_site_fract_y
_atom_site_fract_z
Si Si1 0.289825 0.383188 0.897670
Si Si2 0.793202 0.000000 0.911034
Si Si3 0.797248 0.188534 0.511419
Si Si4 0.789399 0.000000 0.659161
Si Si5 0.707343 0.615820 0.648467
Si Si6 0.295509 0.883710 0.274404
Si Si7 0.704569 0.799006 0.047940
O O1 0.500000 0.381295 0.897622
O O2 0.238865 0.500000 0.922085
O O3 0.235946 0.358658 0.772800
O O4 0.225936 0.299437 0.983476
O O5 0.733281 0.000000 0.785096
O O6 0.731476 0.100570 0.974307
O O7 0.000000 0.000000 0.911898
O O8 0.730057 0.100133 0.593039
O O9 0.763097 0.298491 0.563700
O O10 0.729113 0.171887 0.389546
O O11 0.000000 0.173025 0.504281
O O12 0.000000 0.000000 0.660989
O O13 0.500000 0.614619 0.649359
O O14 0.765425 0.500000 0.623372
O O15 0.500000 0.892553 0.256956
O O16 0.224973 0.823963 0.168743
O O17 0.225957 0.000000 0.280218
O O18 0.500000 0.781765 0.058695
#
# Coordination Sequence:
#
# PCOD9337323 Si02
#       7
#     4   2   4   2   4   4   4
#     4   8  15  30  55  83 107 134 170 214 261 311
#     4  11  21  32  49  74 106 135 166 211 266 321
#     4  11  21  35  54  75 104 139 181 219 259 313
#     4   9  20  34  47  72 106 135 164 213 270 317
#     4   9  18  34  55  80 109 138 172 215 264 314
#     4  10  20  35  52  73 105 141 177 218 261 307
#     4  10  19  34  54  77 106 136 174 217 257 308
#
# _framework density 19.313607999999999
#
# number of rings (size 3 to 8) (size 9 to 14) (size 15 to 20)
#    0.000    2.333    1.667    2.750    0.000    1.000 
#    0.000    3.333    0.000    4.500    0.000    0.000 
#    0.000    0.000    0.000    0.000    0.000    0.000 
#
# Total GULP energy -133954.202549 kJ/mol
# GULP energy per Si atom -5581.425106 kJ/mol
# Density = 1.926965 g / cm^3
# Si number density = 19.313608 Si / 1000 Ang^3
#
#
#
# Elastic Constant Matrix: (Units=GPa)
#
#
# Indices 1 2 3 4 5 6 
#
# 1 19.0205 -11.4763 -7.7012 0.0000 0.0000 0.0000
# 2 -11.4763 130.2304 97.4266 0.0000 0.0000 0.0000
# 3 -7.7012 97.4266 181.1224 0.0000 0.0000 0.0000
# 4 0.0000 0.0000 0.0000 -46.4928 0.0000 0.0000
# 5 0.0000 0.0000 0.0000 0.0000 -0.0814 0.0000
# 6 0.0000 0.0000 0.0000 0.0000 0.0000 4.8946
#
#
#
# Elastic Compliance Matrix: (Units=1/GPa)
#
#
# Indices 1 2 3 4 5 6 
#
# 1 0.055549 0.005235 -0.000454 0.000000 0.000000 0.000000
# 2 0.005235 0.013343 -0.006955 0.000000 0.000000 0.000000
# 3 -0.000454 -0.006955 0.009243 0.000000 0.000000 0.000000
# 4 0.000000 0.000000 0.000000 -0.021509 0.000000 0.000000
# 5 0.000000 0.000000 0.000000 0.000000-12.289920 0.000000
# 6 0.000000 0.000000 0.000000 0.000000 0.000000 0.204308
#
#
# Mechanical properties :
#
#
# Convention : Reuss Voigt Hill
#
# Bulk Modulus (GPa) = 13.55244 54.09685 33.82464
# Shear Modulus (GPa) = -0.41667 8.47235 4.02784
#
# Velocity S-wave (km/s) = -0.46498 2.09672 1.44569
# Velocity P-wave (km/s) = 2.59692 5.82513 4.50978
#
# Compressibility (1/GPa) = 0.07378747
#
# Stress axis : x y z
#
# Youngs Moduli (GPa) = 18.00199 74.94693 108.19319
#
# Poissons Ratio (x) = -0.39233 0.04910
# Poissons Ratio (y) = -0.09424 0.75244
# Poissons Ratio (z) = 0.00817 0.52122
#
# Static dielectric constant tensor:
#      x y z
#    x 1.701310 0.000000 0.000000 
#    y 0.000000 1.663330 0.000000 
#    z 0.000000 0.000000 1.664350 
# 
# From -- ./inp_files/3971.got.cif
#   From: 2010.05.17/outbox.cif.g08.bks.cpg/sg25_2_cif.got.tgz:3971.got - 2010.06.04 01:04:00.
