data_PCOD9337932
_publ_section_title
;
Structure prediction by ZEFSAII (Michael W. Deem and Ramdas Pophale) SiO2 
 PCOD9337932
Probable space group: P M C 21
;
_chemical_formula_sum "Si O2"
_cell_formula_units_Z 32
_cell_length_a 14.357814
_cell_length_b 22.311878
_cell_length_c 5.439900
_cell_angle_alpha 90.000000
_cell_angle_beta 90.000000
_cell_angle_gamma 90.000000
_cell_volume 1742.670846
_symmetry_space_group_name_H-M "P M C 21"
_symmetry_group_IT_number 26
_symmetry_cell_setting 'orthorhombic'
loop_
_space_group_symop_operation_xyz
x,y,z
-x,-y,1/2+z
-x,y,z
x,-y,1/2+z
loop_
_atom_site_type_symbol
_atom_site_label
_atom_site_fract_x
_atom_site_fract_y
_atom_site_fract_z
Si Si1 0.397739 0.538593 0.947420
Si Si2 0.110072 0.773601 0.447420
Si Si3 0.890437 0.037922 0.447420
Si Si4 0.601737 0.315884 0.947420
Si Si5 0.783336 0.619672 0.947420
Si Si6 0.334277 0.738037 0.947420
Si Si7 0.186210 0.167528 0.447420
Si Si8 0.192277 0.359668 0.947420
O O1 0.500000 0.568602 0.947420
O O2 0.392272 0.500000 0.697420
O O3 0.312659 0.583736 0.947420
O O4 0.139497 0.807936 0.696095
O O5 0.159036 0.708810 0.447420
O O6 0.000000 0.765427 0.447420
O O7 0.139497 0.807936 0.198745
O O8 0.826253 0.096447 0.447420
O O9 0.000000 0.056970 0.447420
O O10 0.876153 0.000000 0.697420
O O11 0.500000 0.345806 0.947420
O O12 0.611945 0.277002 0.698632
O O13 0.693524 0.357896 0.947420
O O14 0.611945 0.277002 0.196208
O O15 0.751590 0.689784 0.947420
O O16 0.837041 0.609096 0.697075
O O17 0.837041 0.609096 0.197765
O O18 0.289172 0.803487 0.947420
#
# Coordination Sequence:
#
# PCOD9337932 Si02
#       8
#     4   4   4   4   4   4   4   4
#     4  10  21  35  50  75 107 143 189 223 253 319
#     4  12  21  33  53  78 109 148 179 212 279 335
#     4  10  21  35  50  75 107 143 189 223 253 319
#     4  10  18  30  47  68 103 137 166 207 262 320
#     4  10  18  32  52  66 104 140 168 219 273 295
#     4  10  19  33  49  75 104 136 175 226 263 322
#     4  12  20  37  54  75 112 148 181 226 269 317
#     4  10  19  33  46  76 106 135 175 224 256 331
#
# _framework density 18.362617
#
# number of rings (size 3 to 8) (size 9 to 14) (size 15 to 20)
#    0.000    1.500    5.000    3.000    0.000    5.000 
#    0.000    1.250    0.000    0.000    0.000    0.000 
#    0.000   20.000    0.000    0.000    0.000    0.000 
#
# Total GULP energy -178539.682154 kJ/mol
# GULP energy per Si atom -5579.365067 kJ/mol
# Density = 1.832082 g / cm^3
# Si number density = 18.362617 Si / 1000 Ang^3
#
#
#
# Elastic Constant Matrix: (Units=GPa)
#
#
# Indices 1 2 3 4 5 6 
#
# 1 16.6631 -1.0670 15.6489 0.0000 0.0000 0.0000
# 2 -1.0670 43.2301 28.7094 0.0000 0.0000 0.0000
# 3 15.6489 28.7094 204.6509 0.0000 0.0000 0.0000
# 4 0.0000 0.0000 0.0000 24.5678 0.0000 0.0000
# 5 0.0000 0.0000 0.0000 0.0000 13.3812 0.0000
# 6 0.0000 0.0000 0.0000 0.0000 0.0000 -2.2550
#
#
#
# Elastic Compliance Matrix: (Units=1/GPa)
#
#
# Indices 1 2 3 4 5 6 
#
# 1 0.065811 0.005477 -0.005801 0.000000 0.000000 0.000000
# 2 0.005477 0.025964 -0.004061 0.000000 0.000000 0.000000
# 3 -0.005801 -0.004061 0.005900 0.000000 0.000000 0.000000
# 4 0.000000 0.000000 0.000000 0.040704 0.000000 0.000000
# 5 0.000000 0.000000 0.000000 0.000000 0.074732 0.000000
# 6 0.000000 0.000000 0.000000 0.000000 0.000000 -0.443462
#
#
# Mechanical properties :
#
#
# Convention : Reuss Voigt Hill
#
# Bulk Modulus (GPa) = 11.24799 39.01407 25.13103
# Shear Modulus (GPa) = -26.04892 21.88899 -2.07997
#
# Velocity S-wave (km/s) = -3.77050 3.45634 -1.06545
# Velocity P-wave (km/s) = 3.58005 6.10090 3.49315
#
# Compressibility (1/GPa) = 0.08890480
#
# Stress axis : x y z
#
# Youngs Moduli (GPa) = 15.19498 38.51451 169.50174
#
# Poissons Ratio (x) = -0.21093 0.98322
# Poissons Ratio (y) = -0.08322 0.68837
# Poissons Ratio (z) = 0.08814 0.15641
#
# Static dielectric constant tensor:
#      x y z
#    x 1.625260 0.000000 0.000000 
#    y 0.000000 1.626140 0.000000 
#    z 0.000000 0.000000 1.741630 
# 
# From -- ./inp_files/647.got.cif
#   From: 2010.05.17/outbox.cif.g08.bks.cpg/sg26_1_cif.got.tgz:647.got - 2010.06.04 01:07:29.
