data_PCOD9337180
_publ_section_title
;
Structure prediction by ZEFSAII (Michael W. Deem and Ramdas Pophale) SiO2 
 PCOD9337180
Probable space group: P M M 2
;
_chemical_formula_sum "Si O2"
_cell_formula_units_Z 28
_cell_length_a 9.447548
_cell_length_b 20.073061
_cell_length_c 7.511790
_cell_angle_alpha 90.000000
_cell_angle_beta 90.000000
_cell_angle_gamma 90.000000
_cell_volume 1424.544925
_symmetry_space_group_name_H-M "P M M 2"
_symmetry_group_IT_number 25
_symmetry_cell_setting 'orthorhombic'
loop_
_space_group_symop_operation_xyz
x,y,z
-x,-y,z
-x,y,z
x,-y,z
loop_
_atom_site_type_symbol
_atom_site_label
_atom_site_fract_x
_atom_site_fract_y
_atom_site_fract_z
Si Si1 0.337390 0.421720 0.065140
Si Si2 0.169305 0.649948 0.761790
Si Si3 0.336728 0.075035 0.312366
Si Si4 0.666179 0.665705 0.420114
Si Si5 0.836648 0.201298 0.880876
Si Si6 0.663891 0.073095 0.878502
Si Si7 0.164489 0.796707 0.312386
O O1 0.500000 0.411601 0.001229
O O2 0.318242 0.500000 0.098664
O O3 0.321585 0.379355 0.244592
O O4 0.227954 0.394715 0.921005
O O5 0.250475 0.632179 0.581953
O O6 0.206968 0.727128 0.805640
O O7 0.000000 0.645359 0.745661
O O8 0.500000 0.089134 0.362361
O O9 0.231479 0.133000 0.370276
O O10 0.300918 0.000000 0.371724
O O11 0.333055 0.074132 0.095409
O O12 0.500000 0.674703 0.460243
O O13 0.742180 0.736063 0.383256
O O14 0.746528 0.138271 0.818474
O O15 0.000000 0.190162 0.833841
O O16 0.828393 0.205502 0.096320
O O17 0.500000 0.077145 0.825030
O O18 0.719578 0.000000 0.824220
O O19 0.000000 0.789974 0.364399
#
# Coordination Sequence:
#
# PCOD9337180 Si02
#       7
#     4   4   4   4   4   4   4
#     4  10  23  44  68  93 122 156 195 240 289 348
#     4  11  23  40  62  91 126 159 198 245 296 354
#     4   8  14  25  42  69 106 147 193 244 297 355
#     4  11  23  39  62  91 122 160 203 245 296 352
#     4   9  18  31  50  77 111 151 193 240 293 349
#     4   8  14  24  41  69 104 143 190 241 290 344
#     4  10  18  31  52  79 113 153 198 248 300 354
#
# _framework density 19.655398000000002
#
# number of rings (size 3 to 8) (size 9 to 14) (size 15 to 20)
#    0.000    2.429    1.429    2.143    0.000    3.714 
#    0.000    4.286    0.000    0.857    0.000    4.000 
#    0.000    0.000    0.000    0.000    0.000    0.000 
#
# Total GULP energy -156367.406300 kJ/mol
# GULP energy per Si atom -5584.550225 kJ/mol
# Density = 1.961066 g / cm^3
# Si number density = 19.655398 Si / 1000 Ang^3
#
#
#
# Elastic Constant Matrix: (Units=GPa)
#
#
# Indices 1 2 3 4 5 6 
#
# 1 107.2224 65.8732 42.8159 0.0000 0.0000 0.0000
# 2 65.8732 100.8297 17.0027 0.0000 0.0000 0.0000
# 3 42.8159 17.0027 64.2626 0.0000 0.0000 0.0000
# 4 0.0000 0.0000 0.0000 -15.1329 0.0000 0.0000
# 5 0.0000 0.0000 0.0000 0.0000 17.2774 0.0000
# 6 0.0000 0.0000 0.0000 0.0000 0.0000 22.9684
#
#
#
# Elastic Compliance Matrix: (Units=1/GPa)
#
#
# Indices 1 2 3 4 5 6 
#
# 1 0.020916 -0.011843 -0.010802 0.000000 0.000000 0.000000
# 2 -0.011843 0.017087 0.003370 0.000000 0.000000 0.000000
# 3 -0.010802 0.003370 0.021867 0.000000 0.000000 0.000000
# 4 0.000000 0.000000 0.000000 -0.066081 0.000000 0.000000
# 5 0.000000 0.000000 0.000000 0.000000 0.057879 0.000000
# 6 0.000000 0.000000 0.000000 0.000000 0.000000 0.043538
#
#
# Mechanical properties :
#
#
# Convention : Reuss Voigt Hill
#
# Bulk Modulus (GPa) = 46.90765 58.18871 52.54818
# Shear Modulus (GPa) = 35.49591 14.79743 25.14667
#
# Velocity S-wave (km/s) = 4.25421 2.74678 3.58072
# Velocity P-wave (km/s) = 6.93166 6.30305 6.62481
#
# Compressibility (1/GPa) = 0.02131849
#
# Stress axis : x y z
#
# Youngs Moduli (GPa) = 47.81111 58.52540 45.73203
#
# Poissons Ratio (x) = 0.69311 0.49399
# Poissons Ratio (y) = 0.56622 -0.15410
# Poissons Ratio (z) = 0.51645 -0.19721
#
# Static dielectric constant tensor:
#      x y z
#    x 1.653490 0.000000 0.000000 
#    y 0.000000 1.665010 0.000000 
#    z 0.000000 0.000000 1.735340 
# 
# From -- ./inp_files/2226.got.cif
#   From: 2010.05.17/outbox.cif.g08.bks.cpg/sg25_2_cif.got.tgz:2226.got - 2010.06.04 01:04:00.
