data_PCOD9337897
_publ_section_title
;
Structure prediction by ZEFSAII (Michael W. Deem and Ramdas Pophale) SiO2 
 PCOD9337897
Probable space group: P M C 21
;
_chemical_formula_sum "Si O2"
_cell_formula_units_Z 16
_cell_length_a 5.433857
_cell_length_b 7.696852
_cell_length_c 20.032866
_cell_angle_alpha 90.000000
_cell_angle_beta 90.000000
_cell_angle_gamma 90.000000
_cell_volume 837.846437
_symmetry_space_group_name_H-M "P M C 21"
_symmetry_group_IT_number 26
_symmetry_cell_setting 'orthorhombic'
loop_
_space_group_symop_operation_xyz
x,y,z
-x,-y,1/2+z
-x,y,z
x,-y,1/2+z
loop_
_atom_site_type_symbol
_atom_site_label
_atom_site_fract_x
_atom_site_fract_y
_atom_site_fract_z
Si Si1 0.500000 0.602061 0.754160
Si Si2 0.000000 0.817803 0.736811
Si Si3 0.000000 0.683665 0.164420
Si Si4 0.000000 0.813705 0.308701
Si Si5 0.500000 0.333894 0.627469
Si Si6 0.000000 0.297002 0.095496
Si Si7 0.500000 0.318202 0.868421
Si Si8 0.500000 0.371693 0.024855
O O1 0.251799 0.715187 0.753107
O O2 0.500000 0.478717 0.687830
O O3 0.500000 0.483128 0.819370
O O4 0.000000 0.834346 0.656803
O O5 0.000000 0.997985 0.775425
O O6 0.749297 0.768833 0.139316
O O7 0.000000 0.683381 0.244540
O O8 0.000000 0.490593 0.130879
O O9 0.249062 0.783158 0.349990
O O10 0.500000 0.435817 0.557961
O O11 0.249318 0.286767 0.052964
O O12 0.500000 0.369884 0.945538
#
# Coordination Sequence:
#
# PCOD9337897 Si02
#       8
#     2   2   2   2   2   2   2   2
#     4  12  19  38  61  86 112 146 201 239 277 334
#     4  12  22  35  61  89 113 151 191 243 285 332
#     4  10  16  32  55  81 107 137 179 244 276 309
#     4  12  23  36  55  90 121 145 188 240 295 338
#     4  10  16  32  59  79 106 133 192 242 264 314
#     4  10  17  35  57  84 107 143 194 241 272 339
#     4  12  23  38  58  87 116 157 187 240 290 346
#     4  10  20  32  58  84 108 146 196 235 281 334
#
# _framework density 19.096578000000001
#
# number of rings (size 3 to 8) (size 9 to 14) (size 15 to 20)
#    0.000    1.000    7.500    2.250    0.000    0.000 
#    0.000    0.000    0.000   18.000    0.000    0.000 
#    0.000    0.000    0.000    0.000    0.000    0.000 
#
# Total GULP energy -89316.942073 kJ/mol
# GULP energy per Si atom -5582.308880 kJ/mol
# Density = 1.905311 g / cm^3
# Si number density = 19.096578 Si / 1000 Ang^3
#
#
#
# Elastic Constant Matrix: (Units=GPa)
#
#
# Indices 1 2 3 4 5 6 
#
# 1 215.9311 37.0666 59.8002 0.0000 0.0000 0.0000
# 2 37.0666 59.5236 41.8070 0.0000 0.0000 0.0000
# 3 59.8002 41.8070 143.1737 0.0000 0.0000 0.0000
# 4 0.0000 0.0000 0.0000 15.4446 0.0000 0.0000
# 5 0.0000 0.0000 0.0000 0.0000 24.0184 0.0000
# 6 0.0000 0.0000 0.0000 0.0000 0.0000 13.6922
#
#
#
# Elastic Compliance Matrix: (Units=1/GPa)
#
#
# Indices 1 2 3 4 5 6 
#
# 1 0.005470 -0.002266 -0.001623 0.000000 0.000000 0.000000
# 2 -0.002266 0.022074 -0.005499 0.000000 0.000000 0.000000
# 3 -0.001623 -0.005499 0.009268 0.000000 0.000000 0.000000
# 4 0.000000 0.000000 0.000000 0.064748 0.000000 0.000000
# 5 0.000000 0.000000 0.000000 0.000000 0.041635 0.000000
# 6 0.000000 0.000000 0.000000 0.000000 0.000000 0.073034
#
#
# Mechanical properties :
#
#
# Convention : Reuss Voigt Hill
#
# Bulk Modulus (GPa) = 55.44712 77.33064 66.38888
# Shear Modulus (GPa) = 20.74558 29.29469 25.02013
#
# Velocity S-wave (km/s) = 3.29956 3.92092 3.62358
# Velocity P-wave (km/s) = 6.60411 7.81540 7.23515
#
# Compressibility (1/GPa) = 0.01803520
#
# Stress axis : x y z
#
# Youngs Moduli (GPa) = 182.83097 45.30306 107.89802
#
# Poissons Ratio (x) = 0.10267 0.17509
# Poissons Ratio (y) = 0.41434 0.59333
# Poissons Ratio (z) = 0.29669 0.24912
#
# Static dielectric constant tensor:
#      x y z
#    x 1.745720 0.000000 0.000000 
#    y 0.000000 1.661140 0.000000 
#    z 0.000000 0.000000 1.625530 
# 
# From -- ./inp_files/4744.got.cif
#   From: 2010.05.17/outbox.cif.g08.bks.cpg/sg26_3_cif.got.tgz:4744.got - 2010.06.04 01:07:29.
