data_PCOD9337531
_publ_section_title
;
Structure prediction by ZEFSAII (Michael W. Deem and Ramdas Pophale) SiO2 
 PCOD9337531
Probable space group: P M M 2
;
_chemical_formula_sum "Si O2"
_cell_formula_units_Z 24
_cell_length_a 8.926527
_cell_length_b 12.027555
_cell_length_c 12.930600
_cell_angle_alpha 90.000000
_cell_angle_beta 90.000000
_cell_angle_gamma 90.000000
_cell_volume 1388.284746
_symmetry_space_group_name_H-M "P M M 2"
_symmetry_group_IT_number 25
_symmetry_cell_setting 'orthorhombic'
loop_
_space_group_symop_operation_xyz
x,y,z
-x,-y,z
-x,y,z
x,-y,z
loop_
_atom_site_type_symbol
_atom_site_label
_atom_site_fract_x
_atom_site_fract_y
_atom_site_fract_z
Si Si1 0.180632 0.500000 0.389791
Si Si2 0.680400 0.500000 0.618642
Si Si3 0.821436 0.131087 0.513336
Si Si4 0.820859 0.870555 0.891692
Si Si5 0.678906 0.129093 0.115320
Si Si6 0.179833 0.261436 0.302608
Si Si7 0.679085 0.260655 0.703499
O O1 0.249141 0.500000 0.504436
O O2 0.223222 0.387974 0.329260
O O3 0.000000 0.500000 0.400681
O O4 0.500000 0.500000 0.607354
O O5 0.723140 0.387925 0.679073
O O6 0.785040 0.188567 0.404337
O O7 0.732190 0.188828 0.605345
O O8 0.000000 0.146702 0.531605
O O9 0.791494 0.000000 0.509292
O O10 0.754353 0.790650 0.804835
O O11 0.000000 0.860790 0.895306
O O12 0.784377 0.000000 0.866201
O O13 0.752315 0.846850 0.004242
O O14 0.500000 0.138046 0.107411
O O15 0.740929 0.209189 0.203715
O O16 0.716171 0.000000 0.141293
O O17 0.000000 0.257490 0.287365
O O18 0.500000 0.255368 0.713764
#
# Coordination Sequence:
#
# PCOD9337531 Si02
#       7
#     2   2   4   4   4   4   4
#     4  10  20  36  59  82 107 146 193 233 269 321
#     4  10  22  38  55  78 111 150 187 227 277 327
#     4  10  20  33  52  80 112 144 180 225 276 329
#     4  10  21  38  60  84 111 144 182 227 279 332
#     4  10  21  37  58  84 113 146 184 226 275 332
#     4  10  20  35  56  82 111 145 186 230 275 324
#     4  11  22  36  55  80 111 146 185 228 275 329
#
# _framework density 17.287521000000002
#
# number of rings (size 3 to 8) (size 9 to 14) (size 15 to 20)
#    0.000    1.833    1.667    2.500    0.000    7.000 
#    0.000    0.833    0.000    0.000    0.000    0.000 
#    0.000    0.000    0.000    0.000    0.000    0.000 
#
# Total GULP energy -134056.569154 kJ/mol
# GULP energy per Si atom -5585.690381 kJ/mol
# Density = 1.724817 g / cm^3
# Si number density = 17.287521 Si / 1000 Ang^3
#
#
#
# Elastic Constant Matrix: (Units=GPa)
#
#
# Indices 1 2 3 4 5 6 
#
# 1 47.5752 63.5955 65.4131 0.0000 0.0000 0.0000
# 2 63.5955 157.6356 111.3639 0.0000 0.0000 0.0000
# 3 65.4131 111.3639 154.6379 0.0000 0.0000 0.0000
# 4 0.0000 0.0000 0.0000 9.7952 0.0000 0.0000
# 5 0.0000 0.0000 0.0000 0.0000 78.0020 0.0000
# 6 0.0000 0.0000 0.0000 0.0000 0.0000 22.7057
#
#
#
# Elastic Compliance Matrix: (Units=1/GPa)
#
#
# Indices 1 2 3 4 5 6 
#
# 1 0.060996 -0.012987 -0.016449 0.000000 0.000000 0.000000
# 2 -0.012987 0.015679 -0.005798 0.000000 0.000000 0.000000
# 3 -0.016449 -0.005798 0.017600 0.000000 0.000000 0.000000
# 4 0.000000 0.000000 0.000000 0.102091 0.000000 0.000000
# 5 0.000000 0.000000 0.000000 0.000000 0.012820 0.000000
# 6 0.000000 0.000000 0.000000 0.000000 0.000000 0.044042
#
#
# Mechanical properties :
#
#
# Convention : Reuss Voigt Hill
#
# Bulk Modulus (GPa) = 42.00363 93.39928 67.70146
# Shear Modulus (GPa) = 15.07691 30.06566 22.57128
#
# Velocity S-wave (km/s) = 2.95638 4.17484 3.61728
# Velocity P-wave (km/s) = 6.00029 8.79678 7.52950
#
# Compressibility (1/GPa) = 0.02380747
#
# Stress axis : x y z
#
# Youngs Moduli (GPa) = 16.39439 63.77888 56.81782
#
# Poissons Ratio (x) = 0.82832 0.93460
# Poissons Ratio (y) = 0.21292 0.32942
# Poissons Ratio (z) = 0.26967 0.36977
#
# Static dielectric constant tensor:
#      x y z
#    x 1.578850 0.000000 0.000000 
#    y 0.000000 1.583570 0.000000 
#    z 0.000000 0.000000 1.541780 
# 
# From -- ./inp_files/3944.got.cif
#   From: 2010.05.17/outbox.cif.g08.bks.cpg/sg25_2_cif.got.tgz:3944.got - 2010.06.04 01:04:00.
