data_PCOD9337142
_publ_section_title
;
Structure prediction by ZEFSAII (Michael W. Deem and Ramdas Pophale) SiO2 
 PCOD9337142
Probable space group: P M M 2
;
_chemical_formula_sum "Si O2"
_cell_formula_units_Z 17
_cell_length_a 7.812235
_cell_length_b 8.454170
_cell_length_c 13.700390
_cell_angle_alpha 90.000000
_cell_angle_beta 90.000000
_cell_angle_gamma 90.000000
_cell_volume 904.855448
_symmetry_space_group_name_H-M "P M M 2"
_symmetry_group_IT_number 25
_symmetry_cell_setting 'orthorhombic'
loop_
_space_group_symop_operation_xyz
x,y,z
-x,-y,z
-x,y,z
x,-y,z
loop_
_atom_site_type_symbol
_atom_site_label
_atom_site_fract_x
_atom_site_fract_y
_atom_site_fract_z
Si Si1 0.803928 0.500000 0.660110
Si Si2 0.205927 0.681124 0.956548
Si Si3 0.209284 0.824468 0.753146
Si Si4 0.000000 0.321664 0.280607
Si Si5 0.689328 0.812909 0.163887
Si Si6 0.000000 0.500000 0.470475
O O1 0.729694 0.332184 0.694957
O O2 0.000000 0.500000 0.703596
O O3 0.839943 0.500000 0.544273
O O4 0.254654 0.791960 0.866147
O O5 0.000000 0.689877 0.966254
O O6 0.298356 0.000000 0.147327
O O7 0.281796 0.730239 0.059875
O O8 0.000000 0.826839 0.745984
O O9 0.268201 0.000000 0.722644
O O10 0.833323 0.237514 0.239834
O O11 0.000000 0.500000 0.237644
O O12 0.000000 0.351993 0.396606
O O13 0.500000 0.773499 0.200514
O O14 0.748669 0.500000 0.932420
#
# Coordination Sequence:
#
# PCOD9337142 Si02
#       6
#     2   4   4   2   4   1
#     4   8  14  30  45  71 110 134 177 235 281 339
#     4  10  18  29  49  80 113 152 188 223 271 328
#     4   9  15  24  44  74 110 148 181 219 272 331
#     4  10  21  39  57  81 107 146 193 246 301 341
#     4  11  23  37  55  82 118 157 195 237 287 349
#     4   8  20  34  54  74 108 140 178 254 302 338
#
# _framework density 18.787533
#
# number of rings (size 3 to 8) (size 9 to 14) (size 15 to 20)
#    0.706    1.647    2.353    1.765    0.000    2.824 
#    0.000    2.353    0.000    0.000    0.000    3.294 
#    0.000    3.765    0.000    0.000    0.000    0.000 
#
# Total GULP energy -94722.753718 kJ/mol
# GULP energy per Si atom -5571.926689 kJ/mol
# Density = 1.874477 g / cm^3
# Si number density = 18.787533 Si / 1000 Ang^3
#
#
#
# Elastic Constant Matrix: (Units=GPa)
#
#
# Indices 1 2 3 4 5 6 
#
# 1 54.1740 31.1108 26.1015 0.0000 0.0000 0.0000
# 2 31.1108 131.5463 42.6445 0.0000 0.0000 0.0000
# 3 26.1015 42.6445 99.9966 0.0000 0.0000 0.0000
# 4 0.0000 0.0000 0.0000 14.0895 0.0000 0.0000
# 5 0.0000 0.0000 0.0000 0.0000 -8.1243 0.0000
# 6 0.0000 0.0000 0.0000 0.0000 0.0000 -6.1634
#
#
#
# Elastic Compliance Matrix: (Units=1/GPa)
#
#
# Indices 1 2 3 4 5 6 
#
# 1 0.022810 -0.004020 -0.004240 0.000000 0.000000 0.000000
# 2 -0.004020 0.009530 -0.003015 0.000000 0.000000 0.000000
# 3 -0.004240 -0.003015 0.012393 0.000000 0.000000 0.000000
# 4 0.000000 0.000000 0.000000 0.070975 0.000000 0.000000
# 5 0.000000 0.000000 0.000000 0.000000 -0.123088 0.000000
# 6 0.000000 0.000000 0.000000 0.000000 0.000000 -0.162247
#
#
# Mechanical properties :
#
#
# Convention : Reuss Voigt Hill
#
# Bulk Modulus (GPa) = 45.07791 53.93673 49.50732
# Shear Modulus (GPa) = -35.79543 12.35102 -11.72220
#
# Velocity S-wave (km/s) = -4.36968 2.56677 -2.50058
# Velocity P-wave (km/s) = 1.18879 6.12826 4.25102
#
# Compressibility (1/GPa) = 0.02218381
#
# Stress axis : x y z
#
# Youngs Moduli (GPa) = 43.83949 104.93162 80.69299
#
# Poissons Ratio (x) = 0.42186 0.34211
# Poissons Ratio (y) = 0.17625 0.24327
# Poissons Ratio (z) = 0.18586 0.31634
#
# Static dielectric constant tensor:
#      x y z
#    x 1.660510 0.000000 0.000000 
#    y 0.000000 1.677050 0.000000 
#    z 0.000000 0.000000 1.614610 
# 
# From -- ./inp_files/3719.got.cif
#   From: 2010.05.17/outbox.cif.g08.bks.cpg/sg25_2_cif.got.tgz:3719.got - 2010.06.04 01:04:00.
