data_PCOD9337890
_publ_section_title
;
Structure prediction by ZEFSAII (Michael W. Deem and Ramdas Pophale) SiO2 
 PCOD9337890
Probable space group: P M C 21
;
_chemical_formula_sum "Si O2"
_cell_formula_units_Z 26
_cell_length_a 24.420150
_cell_length_b 9.509163
_cell_length_c 5.543552
_cell_angle_alpha 90.000000
_cell_angle_beta 90.000000
_cell_angle_gamma 90.000000
_cell_volume 1287.296963
_symmetry_space_group_name_H-M "P M C 21"
_symmetry_group_IT_number 26
_symmetry_cell_setting 'orthorhombic'
loop_
_space_group_symop_operation_xyz
x,y,z
-x,-y,1/2+z
-x,y,z
x,-y,1/2+z
loop_
_atom_site_type_symbol
_atom_site_label
_atom_site_fract_x
_atom_site_fract_y
_atom_site_fract_z
Si Si1 0.613247 0.744971 0.357360
Si Si2 0.500000 0.911217 0.357343
Si Si3 0.700632 0.000503 0.357359
Si Si4 0.347025 0.312795 0.357360
Si Si5 0.061404 0.590075 0.357362
Si Si6 0.777924 0.354943 0.357365
Si Si7 0.821157 0.673685 0.357365
O O1 0.554566 0.818010 0.357358
O O2 0.622602 0.661557 0.605734
O O3 0.659578 0.868070 0.357360
O O4 0.622603 0.661556 0.108987
O O5 0.500000 0.000011 0.607333
O O6 0.664965 0.143577 0.357360
O O7 0.732151 1.000000 0.607359
O O8 0.286949 0.381150 0.357360
O O9 0.065786 0.500000 0.607362
O O10 0.113714 0.691453 0.357362
O O11 0.000000 0.651733 0.357361
O O12 0.808928 0.504568 0.357366
O O13 0.794354 0.279389 0.606087
O O14 0.794355 0.279388 0.108645
#
# Coordination Sequence:
#
# PCOD9337890 Si02
#       7
#     4   2   4   4   4   4   4
#     4  10  19  30  43  62  87 108 136 163 199 256
#     4  12  20  30  48  68  88 118 138 162 206 256
#     4   8  14  25  38  52  76 102 127 155 183 234
#     4  10  18  29  41  60  81 111 142 168 202 249
#     4  10  16  25  41  60  83 115 146 169 206 255
#     4  10  18  27  43  56  83 113 142 179 213 235
#     4  10  17  30  40  62  86 110 146 183 208 243
#
# _framework density 20.197358999999999
#
# number of rings (size 3 to 8) (size 9 to 14) (size 15 to 20)
#    0.000    2.154    3.077    4.615    0.000    0.000 
#    0.000    0.000    0.000    0.000    0.000    0.000 
#    0.000   49.231    0.000    0.000    0.000  235.385 
#
# Total GULP energy -144900.916170 kJ/mol
# GULP energy per Si atom -5573.112160 kJ/mol
# Density = 2.015139 g / cm^3
# Si number density = 20.197359 Si / 1000 Ang^3
#
#
#
# Elastic Constant Matrix: (Units=GPa)
#
#
# Indices 1 2 3 4 5 6 
#
# 1 137.2437 11.0832 54.3913 0.0000 0.0000 0.0000
# 2 11.0832 52.6602 15.9311 0.0000 0.0000 0.0000
# 3 54.3913 15.9311 230.7642 0.0000 0.0000 0.0000
# 4 0.0000 0.0000 0.0000 -11.4987 0.0000 0.0000
# 5 0.0000 0.0000 0.0000 0.0000 32.7114 0.0000
# 6 0.0000 0.0000 0.0000 0.0000 0.0000 0.7551
#
#
#
# Elastic Compliance Matrix: (Units=1/GPa)
#
#
# Indices 1 2 3 4 5 6 
#
# 1 0.008105 -0.001152 -0.001831 0.000000 0.000000 0.000000
# 2 -0.001152 0.019558 -0.001079 0.000000 0.000000 0.000000
# 3 -0.001831 -0.001079 0.004839 0.000000 0.000000 0.000000
# 4 0.000000 0.000000 0.000000 -0.086966 0.000000 0.000000
# 5 0.000000 0.000000 0.000000 0.000000 0.030570 0.000000
# 6 0.000000 0.000000 0.000000 0.000000 0.000000 1.324298
#
#
# Mechanical properties :
#
#
# Convention : Reuss Voigt Hill
#
# Bulk Modulus (GPa) = 41.01750 64.83104 52.92427
# Shear Modulus (GPa) = 3.79750 27.01105 15.40428
#
# Velocity S-wave (km/s) = 1.37269 3.66095 2.76468
# Velocity P-wave (km/s) = 4.78172 7.07379 6.03752
#
# Compressibility (1/GPa) = 0.02437984
#
# Stress axis : x y z
#
# Youngs Moduli (GPa) = 123.38204 51.12876 206.63620
#
# Poissons Ratio (x) = 0.05890 0.37831
# Poissons Ratio (y) = 0.14213 0.22290
# Poissons Ratio (z) = 0.22589 0.05515
#
# Static dielectric constant tensor:
#      x y z
#    x 1.682030 0.000000 0.000000 
#    y 0.000000 1.715320 0.000000 
#    z 0.000000 0.000000 1.838070 
# 
# From -- ./inp_files/763.got.cif
#   From: 2010.05.17/outbox.cif.g08.bks.cpg/sg26_1_cif.got.tgz:763.got - 2010.06.04 01:07:29.
